REMARK  6 active torsions:
REMARK  status: ('A' for Active; 'I' for Inactive)
REMARK    1  A    between atoms: C5_5  and  N1_6 
REMARK    2  A    between atoms: N1_6  and  N2_7 
REMARK    3  A    between atoms: N2_7  and  C6_8 
REMARK    4  A    between atoms: C6_8  and  N3_9 
REMARK    5  A    between atoms: C8_12  and  C9_13 
REMARK    6  A    between atoms: C12_16  and  O1_17 
ROOT
HETATM    1  C1  UNL     1       1.052  -4.130   0.670  1.00  0.00     0.043 C 
HETATM    2  C2  UNL     1       1.300  -3.059   1.381  1.00  0.00    -0.049 A 
HETATM    3  C3  UNL     1       2.125  -2.640   2.496  1.00  0.00     0.006 A 
HETATM    4  C4  UNL     1       1.921  -1.374   2.797  1.00  0.00     0.005 A 
HETATM    5  C5  UNL     1       0.913  -0.767   1.914  1.00  0.00     0.155 A 
HETATM    6  C7  UNL     1       0.540  -1.866   1.007  1.00  0.00    -0.023 A 
HETATM    7  C8  UNL     1      -0.353  -1.657   0.029  1.00  0.00     0.021 C 
ENDROOT
BRANCH   5   8
HETATM    8  N1  UNL     1       1.259   0.459   1.296  1.00  0.00    -0.321 N 
HETATM    9  H6  UNL     1       1.011   1.319   1.794  1.00  0.00     0.181 HD
BRANCH   8  10
HETATM   10  N2  UNL     1       2.358   0.477   0.481  1.00  0.00    -0.280 N 
HETATM   11  H7  UNL     1       2.456  -0.485   0.044  1.00  0.00     0.189 HD
BRANCH  10  12
HETATM   12  C6  UNL     1       3.029   1.745   0.457  1.00  0.00     0.183 C 
HETATM   13  S1  UNL     1       4.364   2.136  -0.394  1.00  0.00    -0.040 SA
BRANCH  12  14
HETATM   14  N3  UNL     1       2.347   2.657   1.309  1.00  0.00    -0.375 N 
HETATM   15  H8  UNL     1       1.720   3.387   1.712  1.00  0.00     0.158 HD
HETATM   16  H9  UNL     1       2.708   2.593   2.307  1.00  0.00     0.158 HD
ENDBRANCH  12  14
ENDBRANCH  10  12
ENDBRANCH   8  10
ENDBRANCH   5   8
BRANCH   7  17
HETATM   17  C9  UNL     1      -1.153  -0.544  -0.430  1.00  0.00    -0.035 A 
HETATM   18  C10 UNL     1      -1.237  -0.315  -1.812  1.00  0.00     0.014 A 
HETATM   19  C11 UNL     1      -1.953   0.687  -2.379  1.00  0.00     0.037 A 
HETATM   20  C12 UNL     1      -2.618   1.497  -1.505  1.00  0.00     0.068 A 
HETATM   21  C14 UNL     1      -2.615   1.376  -0.135  1.00  0.00     0.037 A 
HETATM   22  C15 UNL     1      -1.863   0.334   0.357  1.00  0.00     0.014 A 
BRANCH  20  23
HETATM   23  O1  UNL     1      -3.377   2.549  -2.007  1.00  0.00    -0.356 OA
HETATM   24  C13 UNL     1      -3.445   2.759  -3.387  1.00  0.00     0.210 C 
ENDBRANCH  20  23
ENDBRANCH   7  17
TORSDOF 6
