REMARK  4 active torsions:
REMARK  status: ('A' for Active; 'I' for Inactive)
REMARK    1  A    between atoms: C3_3  and  S1_4 
REMARK    2  A    between atoms: C7_9  and  N1_10 
REMARK    3  A    between atoms: C8_13  and  C9_14 
REMARK    4  A    between atoms: C10_15  and  C11_16 
ROOT
HETATM    1  C1  UNL     1       0.750  -1.137  -1.956  1.00  0.00     0.044 C 
HETATM    2  C2  UNL     1       1.431  -0.927  -0.830  1.00  0.00     0.116 A 
HETATM    3  C3  UNL     1       2.509  -1.510  -1.635  1.00  0.00     0.067 C 
HETATM    4  C4  UNL     1       3.305  -1.268  -0.570  1.00  0.00     0.059 C 
HETATM    5  C5  UNL     1       4.562  -1.248   0.238  1.00  0.00    -0.005 C 
HETATM    6 BR1  UNL     1       6.406  -1.853   0.053  1.00  0.00    -0.056 Br
HETATM    7  C6  UNL     1       4.318  -0.636   1.420  1.00  0.00     0.045 C 
HETATM    8  C7  UNL     1       3.178   0.007   2.112  1.00  0.00     0.356 C 
HETATM    9  N2  UNL     1       1.908  -0.442   1.657  1.00  0.00    -0.297 N 
HETATM   10  N3  UNL     1       1.379  -0.583   0.413  1.00  0.00    -0.278 N 
HETATM   11  C8  UNL     1       0.298  -0.361  -0.117  1.00  0.00     0.061 A 
HETATM   12  H9  UNL     1       1.137  -0.755   2.304  1.00  0.00     0.183 HD
ENDROOT
BRANCH  11  13
HETATM   13  C9  UNL     1      -1.035  -0.022  -0.541  1.00  0.00     0.030 C 
HETATM   14  C10 UNL     1      -1.786   0.510   0.379  1.00  0.00     0.013 C 
BRANCH  14  15
HETATM   15  C11 UNL     1      -3.143   0.881   0.043  1.00  0.00    -0.036 A 
HETATM   16  C12 UNL     1      -3.923   1.463   1.020  1.00  0.00     0.011 A 
HETATM   17  C13 UNL     1      -5.228   1.847   0.808  1.00  0.00     0.001 A 
HETATM   18  C14 UNL     1      -5.803   1.651  -0.433  1.00  0.00     0.000 A 
HETATM   19  C15 UNL     1      -5.079   1.068  -1.475  1.00  0.00     0.001 A 
HETATM   20  C16 UNL     1      -3.795   0.728  -1.149  1.00  0.00     0.011 A 
ENDBRANCH  14  15
ENDBRANCH  11  13
BRANCH   3  21
HETATM   21  S1  UNL     1       2.720  -2.230  -3.294  1.00  0.00    -0.167 SA
HETATM   22  H3  UNL     1       1.722  -3.198  -3.493  1.00  0.00     0.102 HD
ENDBRANCH   3  21
BRANCH   8  23
HETATM   23  N1  UNL     1       3.294   1.438   1.781  1.00  0.00     0.106 N 
HETATM   24  H7  UNL     1       2.381   1.857   1.582  1.00  0.00     0.316 HD
HETATM   25  H8  UNL     1       3.729   1.949   2.575  1.00  0.00     0.316 HD
ENDBRANCH   8  23
TORSDOF 4
