REMARK  1 active torsions:
REMARK  status: ('A' for Active; 'I' for Inactive)
REMARK    1  A    between atoms: C14_16  and  C15_17 
ROOT
HETATM    1  S1  UNL     1       3.604  -3.533  -1.079  1.00  0.00    -0.037 SA
HETATM    2  C1  UNL     1       2.526  -2.509  -0.415  1.00  0.00     0.214 C 
HETATM    3  N1  UNL     1       3.218  -1.594   0.499  1.00  0.00    -0.228 NA
HETATM    4  C2  UNL     1       2.857  -0.314   0.545  1.00  0.00     0.022 C 
HETATM    5  C3  UNL     1       3.471   0.706   1.438  1.00  0.00     0.082 C 
HETATM    6  C4  UNL     1       3.273   2.128   0.933  1.00  0.00    -0.024 C 
HETATM    7  C5  UNL     1       3.259   3.415   0.497  1.00  0.00    -0.024 C 
HETATM    8  C6  UNL     1       1.967   3.850   0.157  1.00  0.00     0.034 C 
HETATM    9  C7  UNL     1       0.844   4.423  -0.196  1.00  0.00     0.089 C 
HETATM   10  C8  UNL     1      -0.071   3.394  -0.067  1.00  0.00    -0.099 C 
HETATM   11  C9  UNL     1      -0.814   2.541   0.022  1.00  0.00    -0.102 C 
HETATM   12  C10 UNL     1      -1.778   1.404   0.119  1.00  0.00     0.134 C 
HETATM   13  C11 UNL     1      -0.945   0.159  -0.115  1.00  0.00    -0.019 C 
HETATM   14  C12 UNL     1       0.431   0.367  -0.148  1.00  0.00    -0.011 C 
HETATM   15  C13 UNL     1       1.744  -0.025  -0.279  1.00  0.00     0.083 C 
HETATM   16  C14 UNL     1      -0.883  -1.274  -0.361  1.00  0.00     0.094 C 
HETATM   17  N2  UNL     1      -0.046  -2.118  -0.583  1.00  0.00    -0.171 NA
HETATM   18  N3  UNL     1       1.144  -2.627  -0.784  1.00  0.00    -0.251 N 
HETATM   19  H17 UNL     1       0.941  -3.383  -1.466  1.00  0.00     0.191 HD
ENDROOT
BRANCH  16  20
HETATM   20  C15 UNL     1      -2.276  -1.613  -0.383  1.00  0.00    -0.005 A 
HETATM   21  C16 UNL     1      -3.513  -1.146  -0.106  1.00  0.00     0.014 A 
HETATM   22  C17 UNL     1      -4.761  -1.601  -0.333  1.00  0.00     0.001 A 
HETATM   23  C18 UNL     1      -4.868  -2.810  -0.987  1.00  0.00     0.000 A 
HETATM   24  C19 UNL     1      -3.704  -3.432  -1.344  1.00  0.00     0.001 A 
HETATM   25  C20 UNL     1      -2.479  -2.850  -1.049  1.00  0.00     0.014 A 
ENDBRANCH  16  20
TORSDOF 1
