REMARK  7 active torsions:
REMARK  status: ('A' for Active; 'I' for Inactive)
REMARK    1  A    between atoms: C3_3  and  C4_4 
REMARK    2  A    between atoms: C4_4  and  C5_5 
REMARK    3  A    between atoms: C5_5  and  C6_6 
REMARK    4  A    between atoms: C6_6  and  C8_12 
REMARK    5  A    between atoms: N1_7  and  O1_8 
REMARK    6  A    between atoms: C7_9  and  N2_10 
REMARK    7  A    between atoms: C17_21  and  S2_22 
ROOT
HETATM    1  C6  UNL     1      -0.307   0.722   0.155  1.00  0.00     0.068 C 
HETATM    2  N1  UNL     1       0.350   1.705   0.580  1.00  0.00    -0.154 NA
ENDROOT
BRANCH   1   3
HETATM    3  C5  UNL     1       0.919   0.112  -0.055  1.00  0.00     0.032 C 
BRANCH   3   4
HETATM    4  C4  UNL     1       2.126  -0.266  -0.173  1.00  0.00     0.053 C 
BRANCH   4   5
HETATM    5  C3  UNL     1       3.344  -1.238  -0.524  1.00  0.00     0.034 A 
HETATM    6  C2  UNL     1       4.763  -0.639  -0.250  1.00  0.00     0.028 A 
HETATM    7  C1  UNL     1       4.284   0.652   0.244  1.00  0.00     0.029 C 
HETATM    8  S2  UNL     1       4.296  -1.958  -0.794  1.00  0.00    -0.199 SA
HETATM    9  C15 UNL     1       2.681  -2.688  -1.126  1.00  0.00     0.081 A 
HETATM   10  C16 UNL     1       3.494  -3.989  -1.634  1.00  0.00     0.048 A 
HETATM   11  C17 UNL     1       3.891  -3.018  -1.232  1.00  0.00    -0.039 A 
ENDBRANCH   4   5
ENDBRANCH   3   4
ENDBRANCH   1   3
BRANCH   1  12
HETATM   12  C8  UNL     1      -1.553   0.078  -0.155  1.00  0.00    -0.010 A 
HETATM   13  C9  UNL     1      -2.501   0.994   0.185  1.00  0.00     0.014 A 
HETATM   14  C10 UNL     1      -3.827   0.582  -0.027  1.00  0.00     0.007 A 
HETATM   15  C11 UNL     1      -4.104  -0.683  -0.549  1.00  0.00    -0.062 A 
HETATM   16  C12 UNL     1      -5.487  -1.174  -0.789  1.00  0.00     0.048 C 
HETATM   17  C13 UNL     1      -3.041  -1.493  -0.843  1.00  0.00     0.007 A 
HETATM   18  C14 UNL     1      -1.710  -1.170  -0.667  1.00  0.00     0.014 A 
ENDBRANCH   1  12
BRANCH   2  19
HETATM   19  O1  UNL     1      -0.159   2.869   1.042  1.00  0.00     0.000 OA
HETATM   20  C7  UNL     1       0.207   3.453   2.250  1.00  0.00     0.108 A 
HETATM   21  S1  UNL     1      -0.994   4.408   1.659  1.00  0.00    -0.030 SA
BRANCH  20  22
HETATM   22  N2  UNL     1       0.806   3.792   3.500  1.00  0.00    -0.391 N 
HETATM   23  H6  UNL     1       0.019   3.886   4.192  1.00  0.00     0.157 HD
HETATM   24  H7  UNL     1       1.835   3.893   3.571  1.00  0.00     0.157 HD
ENDBRANCH  20  22
ENDBRANCH   2  19
TORSDOF 7
