REMARK  6 active torsions:
REMARK  status: ('A' for Active; 'I' for Inactive)
REMARK    1  A    between atoms: N1_1  and  C1_2 
REMARK    2  A    between atoms: C1_2  and  N2_3 
REMARK    3  A    between atoms: N2_3  and  N3_4 
REMARK    4  A    between atoms: C2_5  and  C3_6 
REMARK    5  A    between atoms: C2_5  and  C11_14 
REMARK    6  A    between atoms: C4_7  and  C5_8 
ROOT
HETATM    1  N3  UNL     1      -1.630   0.701  -0.766  1.00  0.00    -0.177 NA
HETATM    2  C2  UNL     1      -1.048  -0.250  -0.216  1.00  0.00     0.086 C 
ENDROOT
BRANCH   2   3
HETATM    3  C3  UNL     1       0.253   0.341  -0.352  1.00  0.00     0.035 C 
HETATM    4  C4  UNL     1       1.526   0.251  -0.149  1.00  0.00     0.014 C 
BRANCH   4   5
HETATM    5  C5  UNL     1       2.902   0.688  -0.198  1.00  0.00    -0.036 A 
HETATM    6  C6  UNL     1       3.964  -0.015   0.287  1.00  0.00     0.011 A 
HETATM    7  C7  UNL     1       5.153   0.605   0.123  1.00  0.00     0.001 A 
HETATM    8  C8  UNL     1       5.273   1.831  -0.478  1.00  0.00     0.000 A 
HETATM    9  C9  UNL     1       4.207   2.547  -0.969  1.00  0.00     0.001 A 
HETATM   10  C10 UNL     1       2.961   1.930  -0.814  1.00  0.00     0.011 A 
ENDBRANCH   4   5
ENDBRANCH   2   3
BRANCH   2  11
HETATM   11  C11 UNL     1      -1.467  -1.496   0.357  1.00  0.00    -0.006 A 
HETATM   12  C12 UNL     1      -2.810  -1.773   0.330  1.00  0.00     0.015 A 
HETATM   13  C13 UNL     1      -3.390  -2.896   0.822  1.00  0.00     0.020 A 
HETATM   14  C14 UNL     1      -2.586  -3.843   1.397  1.00  0.00     0.011 A 
HETATM   15 BR1  UNL     1      -3.344  -5.439   2.105  1.00  0.00    -0.051 Br
HETATM   16  C15 UNL     1      -1.233  -3.629   1.458  1.00  0.00     0.020 A 
HETATM   17  C16 UNL     1      -0.730  -2.473   0.940  1.00  0.00     0.015 A 
ENDBRANCH   2  11
BRANCH   1  18
HETATM   18  N2  UNL     1      -2.937   0.896  -1.026  1.00  0.00    -0.286 N 
HETATM   19  H5  UNL     1      -3.668   0.602  -1.742  1.00  0.00     0.184 HD
BRANCH  18  20
HETATM   20  C1  UNL     1      -3.374   1.787   0.038  1.00  0.00     0.407 C 
BRANCH  20  21
HETATM   21  N1  UNL     1      -2.612   3.016  -0.017  1.00  0.00     0.097 N 
HETATM   22  H1  UNL     1      -2.169   3.276   0.873  1.00  0.00     0.315 HD
HETATM   23  H2  UNL     1      -1.898   3.010  -0.766  1.00  0.00     0.315 HD
ENDBRANCH  20  21
ENDBRANCH  18  20
ENDBRANCH   1  18
TORSDOF 6
