REMARK  3 active torsions:
REMARK  status: ('A' for Active; 'I' for Inactive)
REMARK    1  A    between atoms: N1_8  and  N2_9 
REMARK    2  A    between atoms: N2_9  and  C8_10 
REMARK    3  A    between atoms: C8_10  and  N3_11 
ROOT
HETATM    1  C1  UNL     1      -1.017   0.607   2.326  1.00  0.00     0.015 C 
HETATM    2  C2  UNL     1      -2.122   0.559   1.288  1.00  0.00     0.020 C 
HETATM    3  C3  UNL     1      -1.866   1.695   0.350  1.00  0.00     0.007 C 
HETATM    4  C4  UNL     1      -1.352   2.513  -0.546  1.00  0.00     0.021 C 
HETATM    5  C5  UNL     1      -0.130   2.602  -1.424  1.00  0.00    -0.019 C 
HETATM    6  C6  UNL     1       1.045   2.142  -1.897  1.00  0.00     0.026 C 
HETATM    7  C7  UNL     1       1.573   0.859  -1.385  1.00  0.00     0.063 C 
HETATM    8  N1  UNL     1       2.738   0.630  -1.823  1.00  0.00    -0.177 NA
HETATM    9  C9  UNL     1       1.193  -0.406  -0.677  1.00  0.00     0.076 C 
HETATM   10  C10 UNL     1       0.234  -1.208  -0.167  1.00  0.00    -0.003 C 
HETATM   11  C11 UNL     1      -1.193  -1.516   0.113  1.00  0.00    -0.033 A 
HETATM   12  C12 UNL     1      -1.386  -2.780  -0.392  1.00  0.00     0.011 A 
HETATM   13  C13 UNL     1      -2.617  -3.432  -0.352  1.00  0.00     0.001 A 
HETATM   14  C14 UNL     1      -3.596  -2.671   0.244  1.00  0.00     0.001 A 
HETATM   15  C15 UNL     1      -3.388  -1.412   0.743  1.00  0.00     0.008 A 
HETATM   16  C16 UNL     1      -2.170  -0.766   0.704  1.00  0.00    -0.044 A 
ENDROOT
BRANCH   8  17
HETATM   17  N2  UNL     1       3.618  -0.387  -1.646  1.00  0.00    -0.253 N 
HETATM   18  H9  UNL     1       3.639  -1.413  -1.829  1.00  0.00     0.191 HD
BRANCH  17  19
HETATM   19  C8  UNL     1       4.788   0.179  -1.054  1.00  0.00     0.185 C 
HETATM   20  S1  UNL     1       6.096  -0.705  -0.673  1.00  0.00    -0.040 SA
BRANCH  19  21
HETATM   21  N3  UNL     1       4.884   1.566  -0.755  1.00  0.00    -0.375 N 
HETATM   22  H10 UNL     1       5.349   2.300  -1.329  1.00  0.00     0.158 HD
HETATM   23  H11 UNL     1       4.376   1.643   0.169  1.00  0.00     0.158 HD
ENDBRANCH  19  21
ENDBRANCH  17  19
ENDBRANCH   8  17
TORSDOF 3
