REMARK  3 active torsions:
REMARK  status: ('A' for Active; 'I' for Inactive)
REMARK    1  A    between atoms: C2_2  and  S1_3 
REMARK    2  A    between atoms: C2_2  and  C3_5 
REMARK    3  A    between atoms: S1_3  and  N1_4 
ROOT
HETATM    1  C3  UNL     1       1.418  -0.918  -0.056  1.00  0.00     0.055 C 
HETATM    2  C4  UNL     1       0.603  -1.908  -0.798  1.00  0.00    -0.020 C 
HETATM    3  C5  UNL     1      -0.621  -2.272  -1.090  1.00  0.00    -0.024 C 
HETATM    4  C6  UNL     1      -2.052  -2.192  -1.065  1.00  0.00     0.020 C 
HETATM    5  C7  UNL     1      -3.219  -1.606  -0.684  1.00  0.00    -0.000 C 
HETATM    6  C8  UNL     1      -4.134  -0.616  -0.028  1.00  0.00    -0.014 C 
HETATM    7  C9  UNL     1      -3.289   0.297   0.510  1.00  0.00     0.044 C 
HETATM    8  C10 UNL     1      -3.497   1.530   1.319  1.00  0.00    -0.020 C 
HETATM    9  C11 UNL     1      -2.288   2.112   1.532  1.00  0.00     0.009 C 
HETATM   10  C12 UNL     1      -1.047   1.583   1.005  1.00  0.00    -0.019 A 
HETATM   11  C13 UNL     1      -0.316   0.459   0.797  1.00  0.00     0.020 A 
HETATM   12  C14 UNL     1       0.853   0.406   0.102  1.00  0.00    -0.048 A 
HETATM   13  C15 UNL     1       1.433   1.485  -0.463  1.00  0.00     0.009 A 
HETATM   14  C16 UNL     1       0.792   2.698  -0.322  1.00  0.00     0.020 A 
HETATM   15  C17 UNL     1      -0.418   2.707   0.401  1.00  0.00     0.021 A 
HETATM   16 BR1  UNL     1      -1.088   4.534   0.437  1.00  0.00    -0.050 Br
ENDROOT
BRANCH   1  17
HETATM   17  C2  UNL     1       2.841  -0.958  -0.511  1.00  0.00     0.071 C 
HETATM   18  C1  UNL     1       3.070  -0.684  -1.959  1.00  0.00     0.024 C 
BRANCH  17  19
HETATM   19  S1  UNL     1       3.858   0.063   0.571  1.00  0.00    -0.082 SA
BRANCH  19  20
HETATM   20  N1  UNL     1       3.491  -0.360   2.250  1.00  0.00    -0.277 NA
HETATM   21  H5  UNL     1       3.946  -1.263   2.531  1.00  0.00     0.131 HD
HETATM   22  H6  UNL     1       3.841   0.437   2.833  1.00  0.00     0.131 HD
ENDBRANCH  19  20
ENDBRANCH  17  19
ENDBRANCH   1  17
TORSDOF 3
