REMARK  4 active torsions:
REMARK  status: ('A' for Active; 'I' for Inactive)
REMARK    1  A    between atoms: C2_2  and  C3_3 
REMARK       I    between atoms: C3_3  and  N1_5 
REMARK    2  A    between atoms: N1_5  and  C4_6 
REMARK    3  A    between atoms: C12_15  and  N3_16 
REMARK    4  A    between atoms: N3_16  and  C13_17 
ROOT
HETATM    1  C4  UNL     1       3.757   0.076   0.321  1.00  0.00     0.035 A 
HETATM    2  C5  UNL     1       3.852   1.405   0.657  1.00  0.00     0.032 A 
HETATM    3  C6  UNL     1       2.750   2.178   0.931  1.00  0.00     0.040 A 
HETATM    4  C7  UNL     1       1.478   1.652   0.882  1.00  0.00     0.086 A 
HETATM    5  C8  UNL     1       1.316   0.315   0.549  1.00  0.00    -0.004 A 
HETATM    6  C9  UNL     1       2.469  -0.399   0.286  1.00  0.00     0.041 A 
HETATM    7  C10 UNL     1       0.107  -0.502   0.422  1.00  0.00     0.161 C 
HETATM    8  N2  UNL     1      -1.029   0.173  -0.142  1.00  0.00    -0.379 N 
HETATM    9  C11 UNL     1      -1.493   1.531  -0.127  1.00  0.00     0.129 A 
HETATM   10  C12 UNL     1      -2.696   1.713  -0.779  1.00  0.00     0.160 A 
HETATM   11  N4  UNL     1      -3.228   2.943  -0.829  1.00  0.00    -0.222 NA
HETATM   12  C19 UNL     1      -2.570   3.947  -0.245  1.00  0.00     0.238 A 
HETATM   13  N5  UNL     1      -1.386   3.790   0.401  1.00  0.00    -0.215 NA
HETATM   14  C20 UNL     1      -0.804   2.582   0.486  1.00  0.00     0.202 A 
HETATM   15  O2  UNL     1       0.423   2.523   1.177  1.00  0.00    -0.289 OA
HETATM   16  H10 UNL     1      -1.680  -0.434  -0.692  1.00  0.00     0.160 HD
ENDROOT
BRANCH  10  17
HETATM   17  N3  UNL     1      -3.288   0.571  -1.352  1.00  0.00    -0.339 N 
HETATM   18  H11 UNL     1      -2.953   0.392  -2.324  1.00  0.00     0.167 HD
BRANCH  17  19
HETATM   19  C13 UNL     1      -4.248  -0.281  -0.711  1.00  0.00     0.035 A 
HETATM   20  C14 UNL     1      -4.734  -1.414  -1.323  1.00  0.00     0.032 A 
HETATM   21  C15 UNL     1      -5.648  -2.228  -0.731  1.00  0.00     0.046 A 
HETATM   22  C16 UNL     1      -6.087  -1.870   0.548  1.00  0.00     0.138 A 
HETATM   23  F1  UNL     1      -7.005  -2.684   1.147  1.00  0.00    -0.204 F 
HETATM   24  C17 UNL     1      -5.609  -0.732   1.181  1.00  0.00     0.074 A 
HETATM   25 CL1  UNL     1      -6.199  -0.327   2.797  1.00  0.00    -0.081 Cl
HETATM   26  C18 UNL     1      -4.681   0.072   0.550  1.00  0.00     0.056 A 
ENDBRANCH  17  19
ENDBRANCH  10  17
BRANCH   1  27
HETATM   27  N1  UNL     1       4.938  -0.653   0.052  1.00  0.00    -0.324 N 
HETATM   28  C3  UNL     1       5.102  -2.006  -0.319  1.00  0.00     0.244 C 
HETATM   29  O1  UNL     1       4.078  -2.719  -0.443  1.00  0.00    -0.268 OA
HETATM   30  H4  UNL     1       5.861  -0.160   0.124  1.00  0.00     0.169 HD
BRANCH  28  31
HETATM   31  C2  UNL     1       6.392  -2.630  -0.568  1.00  0.00     0.064 C 
HETATM   32  C1  UNL     1       7.587  -2.084  -0.497  1.00  0.00     0.017 C 
ENDBRANCH  28  31
ENDBRANCH   1  27
TORSDOF 4
