REMARK  5 active torsions:
REMARK  status: ('A' for Active; 'I' for Inactive)
REMARK    1  A    between atoms: C5_5  and  C6_6 
REMARK    2  A    between atoms: C6_6  and  C7_7 
REMARK    3  A    between atoms: C8_8  and  C9_9 
REMARK    4  A    between atoms: N1_15  and  N2_16 
REMARK    5  A    between atoms: N2_16  and  C15_17 
ROOT
HETATM    1  C6  UNL     1      -0.657  -0.424   0.123  1.00  0.00     0.087 C 
HETATM    2  N1  UNL     1      -1.154  -1.561   0.357  1.00  0.00    -0.172 NA
ENDROOT
BRANCH   1   3
HETATM    3  C5  UNL     1      -1.535   0.607   0.661  1.00  0.00    -0.006 A 
HETATM    4  C4  UNL     1      -2.714   0.323   1.312  1.00  0.00     0.014 A 
HETATM    5  C3  UNL     1      -3.559   1.310   1.833  1.00  0.00     0.007 A 
HETATM    6  C2  UNL     1      -3.237   2.641   1.711  1.00  0.00    -0.062 A 
HETATM    7  C1  UNL     1      -4.127   3.691   2.259  1.00  0.00     0.048 C 
HETATM    8  C17 UNL     1      -2.049   2.986   1.057  1.00  0.00     0.007 A 
HETATM    9  C16 UNL     1      -1.274   1.955   0.574  1.00  0.00     0.014 A 
ENDBRANCH   1   3
BRANCH   1  10
HETATM   10  C7  UNL     1       0.567  -0.051  -0.560  1.00  0.00     0.035 C 
HETATM   11  C8  UNL     1       1.455  -0.841  -1.091  1.00  0.00     0.014 C 
BRANCH  11  12
HETATM   12  C9  UNL     1       2.673  -0.440  -1.771  1.00  0.00    -0.036 A 
HETATM   13  C10 UNL     1       3.047   0.867  -1.944  1.00  0.00     0.011 A 
HETATM   14  C11 UNL     1       4.185   1.285  -2.579  1.00  0.00     0.001 A 
HETATM   15  C12 UNL     1       5.049   0.323  -3.101  1.00  0.00     0.000 A 
HETATM   16  C13 UNL     1       4.698  -0.998  -2.941  1.00  0.00     0.001 A 
HETATM   17  C14 UNL     1       3.550  -1.358  -2.298  1.00  0.00     0.011 A 
ENDBRANCH  11  12
ENDBRANCH   1  10
BRANCH   2  18
HETATM   18  N2  UNL     1      -0.647  -2.794   0.020  1.00  0.00    -0.248 N 
HETATM   19  H13 UNL     1      -0.213  -3.616  -0.454  1.00  0.00     0.191 HD
BRANCH  18  20
HETATM   20  C15 UNL     1      -1.000  -3.279   1.326  1.00  0.00     0.298 A 
HETATM   21  N3  UNL     1      -0.833  -4.572   1.922  1.00  0.00     0.038 N 
HETATM   22  H14 UNL     1      -0.821  -5.601   1.962  1.00  0.00     0.302 HD
HETATM   23  H15 UNL     1      -0.821  -5.592   1.961  1.00  0.00     0.302 HD
HETATM   24  S1  UNL     1      -1.637  -3.062   2.814  1.00  0.00     0.143 SA
ENDBRANCH  18  20
ENDBRANCH   2  18
TORSDOF 5
