REMARK  5 active torsions:
REMARK  status: ('A' for Active; 'I' for Inactive)
REMARK    1  A    between atoms: N1_1  and  C1_2 
REMARK    2  A    between atoms: C1_2  and  N2_4 
REMARK    3  A    between atoms: C2_5  and  C3_6 
REMARK    4  A    between atoms: C2_5  and  C10_13 
REMARK    5  A    between atoms: C3_6  and  C4_7 
ROOT
HETATM    1  N2  UNL     1       0.036   1.019   0.388  1.00  0.00    -0.225 NA
HETATM    2  C2  UNL     1       0.538  -0.108   0.067  1.00  0.00     0.052 C 
ENDROOT
BRANCH   2   3
HETATM    3  C3  UNL     1      -0.472  -0.901  -0.669  1.00  0.00     0.099 C 
BRANCH   3   4
HETATM    4  C4  UNL     1      -1.777  -0.239  -0.858  1.00  0.00    -0.052 A 
HETATM    5  C5  UNL     1      -2.733  -0.445   0.137  1.00  0.00     0.007 A 
HETATM    6  C6  UNL     1      -3.974   0.160  -0.003  1.00  0.00     0.001 A 
HETATM    7  C7  UNL     1      -4.280   0.961  -1.109  1.00  0.00     0.000 A 
HETATM    8  C8  UNL     1      -3.274   1.105  -2.038  1.00  0.00     0.001 A 
HETATM    9  C9  UNL     1      -2.017   0.539  -1.973  1.00  0.00     0.007 A 
ENDBRANCH   3   4
ENDBRANCH   2   3
BRANCH   2  10
HETATM   10  C10 UNL     1       1.828  -0.806   0.235  1.00  0.00    -0.009 A 
HETATM   11  C11 UNL     1       2.069  -2.095  -0.257  1.00  0.00     0.015 A 
HETATM   12  C12 UNL     1       3.308  -2.625  -0.033  1.00  0.00     0.026 A 
HETATM   13  C13 UNL     1       4.337  -2.002   0.633  1.00  0.00     0.055 A 
HETATM   14 CL1  UNL     1       5.860  -2.821   0.833  1.00  0.00    -0.083 Cl
HETATM   15  C14 UNL     1       4.093  -0.731   1.115  1.00  0.00     0.056 A 
HETATM   16 CL2  UNL     1       5.404   0.052   1.959  1.00  0.00    -0.083 Cl
HETATM   17  C15 UNL     1       2.853  -0.166   0.906  1.00  0.00     0.039 A 
ENDBRANCH   2  10
BRANCH   1  18
HETATM   18  C1  UNL     1       0.684   2.038   1.090  1.00  0.00     0.191 C 
HETATM   19  S1  UNL     1       1.273   3.303   1.903  1.00  0.00    -0.039 SA
BRANCH  18  20
HETATM   20  N1  UNL     1      -0.578   2.730   1.096  1.00  0.00    -0.375 N 
HETATM   21  H1  UNL     1      -1.514   3.163   1.242  1.00  0.00     0.158 HD
HETATM   22  H2  UNL     1      -1.198   3.388   0.536  1.00  0.00     0.158 HD
ENDBRANCH  18  20
ENDBRANCH   1  18
TORSDOF 5
