REMARK  6 active torsions:
REMARK  status: ('A' for Active; 'I' for Inactive)
REMARK    1  A    between atoms: N1_1  and  C1_2 
REMARK    2  A    between atoms: C1_2  and  N2_4 
REMARK    3  A    between atoms: N2_4  and  N3_5 
REMARK    4  A    between atoms: C2_6  and  C3_7 
REMARK    5  A    between atoms: C2_6  and  C11_15 
REMARK    6  A    between atoms: C4_8  and  C5_9 
ROOT
HETATM    1  N3  UNL     1      -0.798   1.463  -0.351  1.00  0.00    -0.172 NA
HETATM    2  C2  UNL     1      -0.987   0.192  -0.365  1.00  0.00     0.087 C 
ENDROOT
BRANCH   2   3
HETATM    3  C3  UNL     1       0.399  -0.230  -0.203  1.00  0.00     0.035 C 
HETATM    4  C4  UNL     1       1.368   0.657  -0.096  1.00  0.00     0.014 C 
BRANCH   4   5
HETATM    5  C5  UNL     1       2.786   0.362   0.070  1.00  0.00    -0.036 A 
HETATM    6  C6  UNL     1       3.744   1.349   0.175  1.00  0.00     0.011 A 
HETATM    7  C7  UNL     1       5.085   1.075   0.331  1.00  0.00     0.001 A 
HETATM    8  C8  UNL     1       5.538  -0.226   0.391  1.00  0.00     0.000 A 
HETATM    9  C9  UNL     1       4.616  -1.247   0.290  1.00  0.00     0.001 A 
HETATM   10  C10 UNL     1       3.284  -0.922   0.135  1.00  0.00     0.011 A 
ENDBRANCH   4   5
ENDBRANCH   2   3
BRANCH   2  11
HETATM   11  C11 UNL     1      -2.081  -0.758  -0.486  1.00  0.00    -0.006 A 
HETATM   12  C12 UNL     1      -1.825  -2.111  -0.449  1.00  0.00     0.015 A 
HETATM   13  C13 UNL     1      -2.917  -2.921  -0.570  1.00  0.00     0.024 A 
HETATM   14  C14 UNL     1      -4.219  -2.496  -0.722  1.00  0.00     0.034 A 
HETATM   15 CL1  UNL     1      -5.557  -3.640  -0.869  1.00  0.00    -0.084 Cl
HETATM   16  C15 UNL     1      -4.458  -1.138  -0.757  1.00  0.00     0.024 A 
HETATM   17  C16 UNL     1      -3.364  -0.285  -0.636  1.00  0.00     0.015 A 
ENDBRANCH   2  11
BRANCH   1  18
HETATM   18  N2  UNL     1      -1.882   2.317  -0.481  1.00  0.00    -0.253 N 
HETATM   19  H3  UNL     1      -1.983   2.258  -1.532  1.00  0.00     0.191 HD
BRANCH  18  20
HETATM   20  C1  UNL     1      -2.192   2.745   0.862  1.00  0.00     0.185 C 
HETATM   21  S1  UNL     1      -3.475   3.749   0.666  1.00  0.00    -0.040 SA
BRANCH  20  22
HETATM   22  N1  UNL     1      -1.292   2.147   1.803  1.00  0.00    -0.375 N 
HETATM   23  H1  UNL     1      -0.351   2.581   1.985  1.00  0.00     0.158 HD
HETATM   24  H2  UNL     1      -1.918   1.342   2.073  1.00  0.00     0.158 HD
ENDBRANCH  20  22
ENDBRANCH  18  20
ENDBRANCH   1  18
TORSDOF 6
