REMARK  9 active torsions:
REMARK  status: ('A' for Active; 'I' for Inactive)
REMARK    1  A    between atoms: N1_1  and  C1_2 
REMARK    2  A    between atoms: C1_2  and  N2_4 
REMARK    3  A    between atoms: N2_4  and  C2_5 
REMARK    4  A    between atoms: C2_5  and  C3_6 
REMARK    5  A    between atoms: C2_5  and  C10_14 
REMARK    6  A    between atoms: C3_6  and  O1_7 
REMARK    7  A    between atoms: O1_7  and  C4_8 
REMARK    8  A    between atoms: C10_14  and  C11_15 
REMARK    9  A    between atoms: C16_20  and  N3_21 
ROOT
HETATM    1  C2  UNL     1      -0.500  -0.447  -0.440  1.00  0.00     0.112 C 
ENDROOT
BRANCH   1   2
HETATM    2  N2  UNL     1      -0.953  -1.755   0.073  1.00  0.00    -0.360 N 
HETATM    3  H3  UNL     1      -1.616  -1.762   0.867  1.00  0.00     0.162 HD
BRANCH   2   4
HETATM    4  C1  UNL     1      -0.406  -2.825  -0.605  1.00  0.00     0.165 C 
HETATM    5  S1  UNL     1      -0.987  -4.240   0.060  1.00  0.00    -0.041 SA
BRANCH   4   6
HETATM    6  N1  UNL     1       0.343  -3.596  -1.516  1.00  0.00    -0.376 N 
HETATM    7  H1  UNL     1       1.338  -3.935  -1.344  1.00  0.00     0.158 HD
HETATM    8  H2  UNL     1      -0.013  -3.907  -2.472  1.00  0.00     0.158 HD
ENDBRANCH   4   6
ENDBRANCH   2   4
ENDBRANCH   1   2
BRANCH   1   9
HETATM    9  C3  UNL     1       0.997  -0.474  -0.220  1.00  0.00     0.201 C 
BRANCH   9  10
HETATM   10  O1  UNL     1       1.674   0.665  -0.640  1.00  0.00    -0.349 OA
BRANCH  10  11
HETATM   11  C4  UNL     1       3.057   0.694  -0.449  1.00  0.00     0.068 A 
HETATM   12  C5  UNL     1       3.787  -0.337   0.140  1.00  0.00     0.037 A 
HETATM   13  C6  UNL     1       5.153  -0.229   0.290  1.00  0.00     0.003 A 
HETATM   14  C7  UNL     1       5.811   0.915  -0.148  1.00  0.00     0.000 A 
HETATM   15  C8  UNL     1       5.095   1.920  -0.722  1.00  0.00     0.003 A 
HETATM   16  C9  UNL     1       3.710   1.832  -0.884  1.00  0.00     0.037 A 
ENDBRANCH  10  11
ENDBRANCH   9  10
ENDBRANCH   1   9
BRANCH   1  17
HETATM   17  C10 UNL     1      -1.081   0.645   0.419  1.00  0.00     0.068 C 
BRANCH  17  18
HETATM   18  C11 UNL     1      -2.565   0.633   0.426  1.00  0.00    -0.030 A 
HETATM   19  C12 UNL     1      -3.301  -0.167  -0.420  1.00  0.00     0.009 A 
HETATM   20  C13 UNL     1      -4.705  -0.174  -0.407  1.00  0.00     0.001 A 
HETATM   21  C14 UNL     1      -5.311   0.684   0.520  1.00  0.00     0.002 A 
HETATM   22  C15 UNL     1      -4.613   1.498   1.380  1.00  0.00     0.029 A 
HETATM   23  C16 UNL     1      -3.232   1.454   1.313  1.00  0.00     0.032 A 
BRANCH  23  24
HETATM   24  N3  UNL     1      -2.584   2.335   2.250  1.00  0.00    -0.399 N 
HETATM   25  H18 UNL     1      -2.569   2.370   3.311  1.00  0.00     0.156 HD
HETATM   26  H19 UNL     1      -2.067   3.020   1.642  1.00  0.00     0.156 HD
ENDBRANCH  23  24
ENDBRANCH  17  18
ENDBRANCH   1  17
TORSDOF 9
