REMARK  4 active torsions:
REMARK  status: ('A' for Active; 'I' for Inactive)
REMARK    1  A    between atoms: C2_2  and  C3_3 
REMARK       I    between atoms: C3_3  and  N1_5 
REMARK    2  A    between atoms: N1_5  and  C4_6 
REMARK    3  A    between atoms: C13_16  and  N3_17 
REMARK    4  A    between atoms: C15_19  and  C16_20 
ROOT
HETATM    1  C4  UNL     1      -4.049   0.059  -0.260  1.00  0.00     0.035 A 
HETATM    2  C5  UNL     1      -3.778   0.091  -1.611  1.00  0.00     0.032 A 
HETATM    3  C6  UNL     1      -2.566  -0.232  -2.133  1.00  0.00     0.040 A 
HETATM    4  C7  UNL     1      -1.539  -0.610  -1.322  1.00  0.00     0.086 A 
HETATM    5  C8  UNL     1      -1.720  -0.672   0.065  1.00  0.00    -0.004 A 
HETATM    6  C9  UNL     1      -2.995  -0.324   0.504  1.00  0.00     0.041 A 
HETATM    7  C10 UNL     1      -0.823  -1.038   1.168  1.00  0.00     0.161 C 
HETATM    8  N2  UNL     1       0.558  -0.735   0.970  1.00  0.00    -0.382 N 
HETATM    9  C11 UNL     1       1.376  -0.801  -0.190  1.00  0.00     0.081 C 
HETATM   10  C12 UNL     1       2.540  -0.976   0.381  1.00  0.00     0.048 C 
HETATM   11  C13 UNL     1       3.968  -1.150  -0.021  1.00  0.00     0.294 C 
HETATM   12  C14 UNL     1       4.397  -0.193  -1.058  1.00  0.00     0.072 C 
HETATM   13  C15 UNL     1       5.349   0.655  -0.719  1.00  0.00     0.028 C 
HETATM   14  N4  UNL     1       4.002   0.032  -2.399  1.00  0.00    -0.244 NA
HETATM   15  C18 UNL     1       2.866  -0.048  -3.050  1.00  0.00     0.236 C 
HETATM   16  N5  UNL     1       1.508  -0.397  -2.707  1.00  0.00    -0.216 NA
HETATM   17  C19 UNL     1       0.935  -0.691  -1.573  1.00  0.00     0.197 C 
HETATM   18  O2  UNL     1      -0.361  -0.906  -2.033  1.00  0.00    -0.290 OA
HETATM   19  H10 UNL     1       1.096  -0.401   1.821  1.00  0.00     0.160 HD
ENDROOT
BRANCH   1  20
HETATM   20  N1  UNL     1      -5.340   0.412   0.179  1.00  0.00    -0.324 N 
HETATM   21  C3  UNL     1      -5.898   0.471   1.479  1.00  0.00     0.244 C 
HETATM   22  O1  UNL     1      -5.143   0.163   2.434  1.00  0.00    -0.268 OA
HETATM   23  H4  UNL     1      -6.061   0.691  -0.551  1.00  0.00     0.169 HD
BRANCH  21  24
HETATM   24  C2  UNL     1      -7.271   0.863   1.752  1.00  0.00     0.064 C 
HETATM   25  C1  UNL     1      -8.111   1.196   0.807  1.00  0.00     0.017 C 
ENDBRANCH  21  24
ENDBRANCH   1  20
BRANCH  11  26
HETATM   26  N3  UNL     1       4.806  -1.003   1.148  1.00  0.00     0.092 N 
HETATM   27  H13 UNL     1       5.181  -1.921   1.490  1.00  0.00     0.314 HD
HETATM   28  H14 UNL     1       4.327  -0.444   1.900  1.00  0.00     0.314 HD
ENDBRANCH  11  26
BRANCH  13  29
HETATM   29  C16 UNL     1       6.158   0.962   0.425  1.00  0.00     0.014 C 
HETATM   30  C17 UNL     1       7.113   1.787   0.817  1.00  0.00     0.441 C 
HETATM   31  F1  UNL     1       7.490   2.658  -0.157  1.00  0.00    -0.452 F 
ENDBRANCH  13  29
TORSDOF 4
