REMARK  6 active torsions:
REMARK  status: ('A' for Active; 'I' for Inactive)
REMARK    1  A    between atoms: C3_3  and  N1_4 
REMARK    2  A    between atoms: C3_3  and  N2_5 
REMARK    3  A    between atoms: N2_5  and  C4_6 
REMARK    4  A    between atoms: C4_6  and  C5_7 
REMARK    5  A    between atoms: C4_6  and  C13_16 
REMARK    6  A    between atoms: C6_8  and  C7_9 
ROOT
HETATM    1  C4  UNL     1      -0.838   0.902  -1.335  1.00  0.00     0.141 C 
ENDROOT
BRANCH   1   2
HETATM    2  N2  UNL     1      -2.171   0.402  -1.211  1.00  0.00    -0.365 N 
HETATM    3  H7  UNL     1      -2.861   0.257  -1.982  1.00  0.00     0.162 HD
BRANCH   2   4
HETATM    4  C3  UNL     1      -2.789   0.013  -0.014  1.00  0.00     0.090 C 
HETATM    5  C2  UNL     1      -3.189  -1.233   0.210  1.00  0.00     0.017 C 
HETATM    6  C1  UNL     1      -2.966  -2.243  -0.860  1.00  0.00     0.040 C 
BRANCH   4   7
HETATM    7  N1  UNL     1      -2.994   0.992   0.997  1.00  0.00    -0.386 N 
HETATM    8  H5  UNL     1      -3.397   1.910   0.648  1.00  0.00     0.157 HD
HETATM    9  H6  UNL     1      -2.897   1.175   2.023  1.00  0.00     0.157 HD
ENDBRANCH   4   7
ENDBRANCH   2   4
ENDBRANCH   1   2
BRANCH   1  10
HETATM   10  C5  UNL     1       0.207  -0.066  -0.858  1.00  0.00     0.004 C 
HETATM   11  C6  UNL     1       1.247   0.239  -0.078  1.00  0.00     0.010 C 
BRANCH  11  12
HETATM   12  C7  UNL     1       2.263  -0.695   0.388  1.00  0.00    -0.036 A 
HETATM   13  C8  UNL     1       3.291  -0.207   1.203  1.00  0.00     0.014 A 
HETATM   14  C9  UNL     1       4.238  -1.098   1.632  1.00  0.00     0.043 A 
HETATM   15  C10 UNL     1       4.196  -2.439   1.281  1.00  0.00     0.116 A 
HETATM   16  F1  UNL     1       5.184  -3.216   1.765  1.00  0.00    -0.206 F 
HETATM   17  C11 UNL     1       3.183  -2.917   0.478  1.00  0.00     0.043 A 
HETATM   18  C12 UNL     1       2.228  -2.017   0.046  1.00  0.00     0.014 A 
ENDBRANCH  11  12
ENDBRANCH   1  10
BRANCH   1  19
HETATM   19  C13 UNL     1      -0.632   2.246  -0.729  1.00  0.00    -0.014 A 
HETATM   20  C14 UNL     1      -0.396   3.485  -1.195  1.00  0.00     0.019 A 
HETATM   21 BR1  UNL     1      -0.182   4.256  -2.945  1.00  0.00    -0.050 Br
HETATM   22  C15 UNL     1      -0.360   4.038   0.136  1.00  0.00     0.020 A 
HETATM   23  C16 UNL     1      -0.590   2.833   0.605  1.00  0.00     0.012 A 
ENDBRANCH   1  19
TORSDOF 6
