REMARK  6 active torsions:
REMARK  status: ('A' for Active; 'I' for Inactive)
REMARK    1  A    between atoms: C5_5  and  C6_6 
REMARK    2  A    between atoms: C6_6  and  C7_7 
REMARK    3  A    between atoms: C8_8  and  C9_9 
REMARK    4  A    between atoms: N1_15  and  N2_16 
REMARK    5  A    between atoms: N2_16  and  C15_17 
REMARK    6  A    between atoms: C15_17  and  N3_18 
ROOT
HETATM    1  C6  UNL     1      -1.107   1.158  -0.027  1.00  0.00     0.067 C 
HETATM    2  N1  UNL     1      -1.834   2.188   0.148  1.00  0.00    -0.176 NA
ENDROOT
BRANCH   1   3
HETATM    3  C5  UNL     1      -1.575  -0.240   0.203  1.00  0.00    -0.027 A 
HETATM    4  C4  UNL     1      -2.811  -0.441   0.612  1.00  0.00     0.010 A 
HETATM    5  C3  UNL     1      -3.156  -1.834   0.803  1.00  0.00     0.003 A 
HETATM    6  C2  UNL     1      -2.064  -2.493   0.489  1.00  0.00    -0.080 A 
HETATM    7  C1  UNL     1      -1.701  -3.942   0.454  1.00  0.00     0.043 C 
HETATM    8  C16 UNL     1      -0.995  -1.570   0.095  1.00  0.00     0.074 A 
ENDBRANCH   1   3
BRANCH   1   9
HETATM    9  C7  UNL     1       0.300   1.025  -0.474  1.00  0.00     0.088 C 
HETATM   10  C8  UNL     1       1.349   1.779  -0.856  1.00  0.00     0.016 C 
BRANCH  10  11
HETATM   11  C9  UNL     1       2.467   0.860  -1.165  1.00  0.00    -0.057 A 
HETATM   12  C10 UNL     1       2.436  -0.515  -1.081  1.00  0.00     0.007 A 
HETATM   13  C11 UNL     1       3.462  -1.385  -1.363  1.00  0.00     0.001 A 
HETATM   14  C12 UNL     1       4.659  -0.845  -1.776  1.00  0.00     0.000 A 
HETATM   15  C13 UNL     1       4.799   0.512  -1.895  1.00  0.00     0.001 A 
HETATM   16  C14 UNL     1       3.705   1.285  -1.585  1.00  0.00     0.007 A 
ENDBRANCH  10  11
ENDBRANCH   1   9
BRANCH   2  17
HETATM   17  N2  UNL     1      -3.083   2.417   0.536  1.00  0.00    -0.253 N 
HETATM   18  H13 UNL     1      -4.046   2.400   0.084  1.00  0.00     0.191 HD
BRANCH  17  19
HETATM   19  C15 UNL     1      -2.778   2.752   1.905  1.00  0.00     0.185 C 
HETATM   20  S1  UNL     1      -3.877   3.164   3.040  1.00  0.00    -0.040 SA
BRANCH  19  21
HETATM   21  N3  UNL     1      -1.405   2.699   2.221  1.00  0.00    -0.375 N 
HETATM   22  H14 UNL     1      -0.831   3.561   2.382  1.00  0.00     0.158 HD
HETATM   23  H15 UNL     1      -0.391   2.546   2.450  1.00  0.00     0.158 HD
ENDBRANCH  19  21
ENDBRANCH  17  19
ENDBRANCH   2  17
TORSDOF 6
