REMARK  6 active torsions:
REMARK  status: ('A' for Active; 'I' for Inactive)
REMARK    1  A    between atoms: C3_3  and  C4_5 
REMARK    2  A    between atoms: C4_5  and  C5_6 
REMARK    3  A    between atoms: C5_6  and  C6_7 
REMARK    4  A    between atoms: C6_7  and  P1_8 
REMARK    5  A    between atoms: P1_8  and  C7_9 
REMARK    6  A    between atoms: C7_9  and  C8_10 
ROOT
HETATM    1  C8  UNL     1      -0.042  -0.349   0.104  1.00  0.00     0.124 A 
HETATM    2  C9  UNL     1      -1.033  -0.903   1.077  1.00  0.00     0.047 A 
HETATM    3  N1  UNL     1      -1.658  -0.385   0.044  1.00  0.00    -0.292 N 
HETATM    4  N2  UNL     1      -2.999  -0.320  -0.219  1.00  0.00    -0.309 N 
HETATM    5  C10 UNL     1      -4.409  -0.262  -0.483  1.00  0.00     0.216 C 
HETATM    6  C11 UNL     1      -4.942  -1.659  -0.830  1.00  0.00     0.059 C 
HETATM    7  N3  UNL     1      -5.156   0.234   0.540  1.00  0.00    -0.279 NA
HETATM    8  C12 UNL     1      -5.026   0.610   1.699  1.00  0.00     0.094 C 
HETATM    9  C13 UNL     1      -3.681   0.606   2.417  1.00  0.00     0.044 C 
HETATM   10  C14 UNL     1      -2.930   1.809   1.811  1.00  0.00     0.020 C 
HETATM   11  C15 UNL     1      -2.981  -0.637   2.385  1.00  0.00    -0.015 C 
HETATM   12  C16 UNL     1      -1.995  -1.330   1.950  1.00  0.00     0.025 C 
HETATM   13  H10 UNL     1      -2.427   0.318  -0.818  1.00  0.00     0.182 HD
ENDROOT
BRANCH   1  14
HETATM   14  C7  UNL     1       0.572   0.254  -0.991  1.00  0.00     0.124 C 
BRANCH  14  15
HETATM   15  P1  UNL     1       2.872   0.012  -0.329  1.00  0.00    -0.052 P 
HETATM   16  H7  UNL     1       2.381   0.073  -0.486  1.00  0.00     0.070 HD
BRANCH  15  17
HETATM   17  C6  UNL     1       4.161  -0.144   0.058  1.00  0.00    -0.148 C 
BRANCH  17  18
HETATM   18  C5  UNL     1       5.435  -0.298   0.463  1.00  0.00     0.083 C 
BRANCH  18  19
HETATM   19  C4  UNL     1       6.095   0.008  -0.654  1.00  0.00     0.075 C 
BRANCH  19  20
HETATM   20  C3  UNL     1       7.071   0.275  -1.673  1.00  0.00     0.096 C 
HETATM   21  C2  UNL     1       6.491   0.623  -2.832  1.00  0.00     0.007 C 
HETATM   22  C1  UNL     1       5.039   0.717  -3.121  1.00  0.00     0.038 C 
HETATM   23  F1  UNL     1       8.428   0.286  -1.740  1.00  0.00    -0.211 F 
ENDBRANCH  19  20
ENDBRANCH  18  19
ENDBRANCH  17  18
ENDBRANCH  15  17
ENDBRANCH  14  15
ENDBRANCH   1  14
TORSDOF 6
