REMARK  7 active torsions:
REMARK  status: ('A' for Active; 'I' for Inactive)
REMARK    1  A    between atoms: N1_2  and  N2_3 
REMARK    2  A    between atoms: N2_3  and  C2_4 
REMARK    3  A    between atoms: C2_4  and  N3_6 
REMARK    4  A    between atoms: N3_6  and  C3_7 
REMARK    5  A    between atoms: C6_10  and  O1_11 
REMARK    6  A    between atoms: O1_11  and  C7_12 
REMARK    7  A    between atoms: C7_12  and  C8_13 
ROOT
HETATM    1  C3  UNL     1       2.098  -0.139   0.224  1.00  0.00     0.034 A 
HETATM    2  C4  UNL     1       1.622   0.121  -1.064  1.00  0.00     0.032 A 
HETATM    3  C5  UNL     1       0.255   0.170  -1.235  1.00  0.00     0.039 A 
HETATM    4  C6  UNL     1      -0.559  -0.037  -0.133  1.00  0.00     0.069 A 
HETATM    5  C14 UNL     1      -0.113  -0.294   1.144  1.00  0.00     0.039 A 
HETATM    6  C15 UNL     1       1.244  -0.339   1.292  1.00  0.00     0.032 A 
ENDROOT
BRANCH   1   7
HETATM    7  N3  UNL     1       3.505  -0.171   0.344  1.00  0.00    -0.332 N 
HETATM    8  H6  UNL     1       3.768   0.684   0.880  1.00  0.00     0.168 HD
BRANCH   7   9
HETATM    9  C2  UNL     1       4.263  -1.248  -0.226  1.00  0.00     0.190 C 
HETATM   10  S1  UNL     1       3.412  -2.406  -1.030  1.00  0.00    -0.039 SA
BRANCH   9  11
HETATM   11  N2  UNL     1       5.684  -1.317  -0.116  1.00  0.00    -0.281 N 
HETATM   12  H5  UNL     1       6.150  -2.134  -0.573  1.00  0.00     0.189 HD
BRANCH  11  13
HETATM   13  N1  UNL     1       6.176  -0.260   0.586  1.00  0.00    -0.339 N 
HETATM   14  C1  UNL     1       6.343   0.986  -0.061  1.00  0.00     0.167 C 
HETATM   15  H4  UNL     1       6.366  -0.345   1.574  1.00  0.00     0.179 HD
ENDBRANCH  11  13
ENDBRANCH   9  11
ENDBRANCH   7   9
ENDBRANCH   1   7
BRANCH   4  16
HETATM   16  O1  UNL     1      -1.902   0.035  -0.398  1.00  0.00    -0.347 OA
BRANCH  16  17
HETATM   17  C7  UNL     1      -2.865  -0.188   0.639  1.00  0.00     0.216 C 
BRANCH  17  18
HETATM   18  C8  UNL     1      -4.228   0.037   0.072  1.00  0.00    -0.012 A 
HETATM   19  C9  UNL     1      -4.501  -0.160  -1.271  1.00  0.00     0.011 A 
HETATM   20  C10 UNL     1      -5.794   0.120  -1.688  1.00  0.00     0.001 A 
HETATM   21  C11 UNL     1      -6.722   0.565  -0.788  1.00  0.00     0.002 A 
HETATM   22  C12 UNL     1      -6.462   0.763   0.557  1.00  0.00     0.024 A 
HETATM   23  C13 UNL     1      -5.170   0.490   1.006  1.00  0.00     0.042 A 
HETATM   24 CL1  UNL     1      -4.757   0.709   2.698  1.00  0.00    -0.084 Cl
ENDBRANCH  17  18
ENDBRANCH  16  17
ENDBRANCH   4  16
TORSDOF 7
