REMARK  3 active torsions:
REMARK  status: ('A' for Active; 'I' for Inactive)
REMARK    1  A    between atoms: O1_2  and  C2_3 
REMARK    2  A    between atoms: C6_7  and  C7_8 
REMARK    3  A    between atoms: C8_9  and  C9_10 
ROOT
HETATM    1  C2  UNL     1      -4.366   0.468  -0.177  1.00  0.00     0.056 A 
HETATM    2  C3  UNL     1      -3.039   0.725  -0.259  1.00  0.00     0.079 A 
HETATM    3  C4  UNL     1      -1.907   1.646  -0.571  1.00  0.00    -0.012 A 
HETATM    4  C5  UNL     1      -0.696   1.185  -0.407  1.00  0.00     0.030 A 
HETATM    5  C6  UNL     1       0.204   0.129  -0.040  1.00  0.00     0.076 A 
HETATM    6  N1  UNL     1      -0.474  -0.894   0.308  1.00  0.00    -0.173 NA
HETATM    7  N2  UNL     1       0.176  -2.055   0.710  1.00  0.00    -0.248 N 
HETATM    8  C15 UNL     1      -1.207  -2.465   0.846  1.00  0.00     0.306 A 
HETATM    9  S1  UNL     1      -1.839  -3.918   1.344  1.00  0.00     0.151 SA
HETATM   10  N3  UNL     1      -2.617  -2.363   0.805  1.00  0.00     0.063 N 
HETATM   11  C16 UNL     1      -3.944  -1.902   0.641  1.00  0.00     0.226 A 
HETATM   12  C17 UNL     1      -4.619  -0.858   0.279  1.00  0.00     0.059 A 
HETATM   13  H13 UNL     1       0.650  -2.931   1.014  1.00  0.00     0.191 HD
HETATM   14  H14 UNL     1      -2.254  -1.415   0.479  1.00  0.00     0.311 HD
ENDROOT
BRANCH   5  15
HETATM   15  C7  UNL     1       1.621   0.286  -0.086  1.00  0.00     0.034 C 
HETATM   16  C8  UNL     1       2.694  -0.407   0.155  1.00  0.00     0.015 C 
BRANCH  16  17
HETATM   17  C9  UNL     1       4.092  -0.101   0.059  1.00  0.00    -0.014 A 
HETATM   18  C10 UNL     1       4.566   1.126  -0.356  1.00  0.00     0.013 A 
HETATM   19  C11 UNL     1       5.904   1.444  -0.457  1.00  0.00     0.001 A 
HETATM   20  C12 UNL     1       6.793   0.437  -0.110  1.00  0.00     0.002 A 
HETATM   21  C13 UNL     1       6.321  -0.790   0.304  1.00  0.00     0.024 A 
HETATM   22  C14 UNL     1       4.981  -1.092   0.400  1.00  0.00     0.044 A 
HETATM   23 CL1  UNL     1       4.444  -2.664   0.931  1.00  0.00    -0.083 Cl
ENDBRANCH  16  17
ENDBRANCH   5  15
BRANCH   1  24
HETATM   24  O1  UNL     1      -5.707   0.928  -0.341  1.00  0.00    -0.359 OA
HETATM   25  C1  UNL     1      -5.957   2.307  -0.543  1.00  0.00     0.209 C 
ENDBRANCH   1  24
TORSDOF 3
