REMARK  4 active torsions:
REMARK  status: ('A' for Active; 'I' for Inactive)
REMARK    1  A    between atoms: N1_1  and  C1_2 
REMARK    2  A    between atoms: C1_2  and  N2_4 
REMARK    3  A    between atoms: N2_4  and  N3_5 
REMARK    4  A    between atoms: C13_19  and  C14_20 
ROOT
HETATM    1  N3  UNL     1       1.684  -0.522  -1.399  1.00  0.00    -0.176 NA
HETATM    2  C2  UNL     1       0.976  -0.024  -0.497  1.00  0.00     0.064 C 
HETATM    3  C3  UNL     1       0.723  -0.561   0.969  1.00  0.00     0.027 C 
HETATM    4  C4  UNL     1      -0.103  -1.227   1.888  1.00  0.00    -0.006 C 
HETATM    5  C5  UNL     1      -1.476  -0.816   1.552  1.00  0.00     0.059 A 
HETATM    6  C6  UNL     1      -1.925   0.430   1.723  1.00  0.00     0.057 A 
HETATM    7  C7  UNL     1      -2.908  -0.153   0.804  1.00  0.00     0.119 A 
HETATM    8  C8  UNL     1      -2.438  -1.417   0.703  1.00  0.00     0.042 A 
HETATM    9 CL1  UNL     1      -3.518  -2.351  -0.331  1.00  0.00    -0.089 Cl
HETATM   10  O1  UNL     1      -3.943   0.816   0.352  1.00  0.00    -0.358 OA
HETATM   11  C9  UNL     1      -3.228   1.880  -0.451  1.00  0.00     0.103 A 
HETATM   12  C10 UNL     1      -2.115   2.533  -1.137  1.00  0.00     0.036 A 
HETATM   13  C11 UNL     1      -0.758   2.047  -1.302  1.00  0.00     0.013 A 
HETATM   14  C12 UNL     1       0.413   1.197  -1.224  1.00  0.00     0.025 A 
HETATM   15  C13 UNL     1      -0.800   0.826  -0.681  1.00  0.00    -0.001 A 
HETATM   16  C14 UNL     1      -1.897   1.654  -0.749  1.00  0.00     0.059 A 
ENDROOT
BRANCH   1  17
HETATM   17  N2  UNL     1       2.435  -1.678  -1.358  1.00  0.00    -0.253 N 
HETATM   18  H3  UNL     1       2.119  -2.471  -1.931  1.00  0.00     0.191 HD
BRANCH  17  19
HETATM   19  C1  UNL     1       3.625  -1.867  -0.578  1.00  0.00     0.185 C 
HETATM   20  S1  UNL     1       4.407  -3.326  -0.609  1.00  0.00    -0.040 SA
BRANCH  19  21
HETATM   21  N1  UNL     1       4.238  -0.926   0.241  1.00  0.00    -0.375 N 
HETATM   22  H1  UNL     1       3.987  -0.010   0.707  1.00  0.00     0.158 HD
HETATM   23  H2  UNL     1       4.700  -0.221   0.855  1.00  0.00     0.158 HD
ENDBRANCH  19  21
ENDBRANCH  17  19
ENDBRANCH   1  17
TORSDOF 4
