REMARK  11 active torsions:
REMARK  status: ('A' for Active; 'I' for Inactive)
REMARK    1  A    between atoms: N1_1  and  S1_2 
REMARK    2  A    between atoms: S1_2  and  C1_3 
REMARK    3  A    between atoms: C1_3  and  C2_4 
REMARK    4  A    between atoms: C2_4  and  C3_5 
REMARK    5  A    between atoms: C4_6  and  C5_7 
REMARK    6  A    between atoms: C6_8  and  C7_9 
REMARK    7  A    between atoms: C7_9  and  C8_10 
REMARK    8  A    between atoms: C7_9  and  N2_19 
REMARK    9  A    between atoms: C9_11  and  C10_12 
REMARK   10  A    between atoms: N2_19  and  C16_20 
REMARK   11  A    between atoms: C16_20  and  N3_21 
ROOT
HETATM    1  C7  UNL     1       0.282   2.288  -0.267  1.00  0.00     0.130 C 
ENDROOT
BRANCH   1   2
HETATM    2  C6  UNL     1       1.700   2.018  -0.093  1.00  0.00     0.002 C 
HETATM    3  C5  UNL     1       2.436   1.079   0.470  1.00  0.00    -0.002 C 
BRANCH   3   4
HETATM    4  C4  UNL     1       1.908  -0.076   1.150  1.00  0.00     0.000 C 
HETATM    5  C3  UNL     1       2.715  -0.976   1.691  1.00  0.00     0.009 C 
BRANCH   5   6
HETATM    6  C2  UNL     1       4.163  -0.714   1.549  1.00  0.00     0.065 C 
BRANCH   6   7
HETATM    7  C1  UNL     1       4.919  -1.758   1.243  1.00  0.00    -0.061 C 
BRANCH   7   8
HETATM    8  S1  UNL     1       5.679  -3.059   0.615  1.00  0.00     0.046 SA
BRANCH   8   9
HETATM    9  N1  UNL     1       5.596  -3.250  -0.984  1.00  0.00    -0.256 NA
HETATM   10  H1  UNL     1       4.759  -2.983  -1.515  1.00  0.00     0.197 HD
ENDBRANCH   8   9
ENDBRANCH   7   8
ENDBRANCH   6   7
ENDBRANCH   5   6
ENDBRANCH   3   4
ENDBRANCH   1   2
BRANCH   1  11
HETATM   11  C8  UNL     1      -0.646   1.242   0.196  1.00  0.00     0.003 C 
HETATM   12  C9  UNL     1      -1.169   0.316  -0.626  1.00  0.00     0.010 C 
BRANCH  12  13
HETATM   13  C10 UNL     1      -2.077  -0.708  -0.178  1.00  0.00    -0.036 A 
HETATM   14  C11 UNL     1      -2.500  -0.848   1.114  1.00  0.00     0.014 A 
HETATM   15  C12 UNL     1      -3.368  -1.819   1.568  1.00  0.00     0.043 A 
HETATM   16  C13 UNL     1      -3.865  -2.741   0.650  1.00  0.00     0.116 A 
HETATM   17  F1  UNL     1      -4.716  -3.701   1.070  1.00  0.00    -0.206 F 
HETATM   18  C14 UNL     1      -3.446  -2.617  -0.670  1.00  0.00     0.043 A 
HETATM   19  C15 UNL     1      -2.574  -1.620  -1.062  1.00  0.00     0.014 A 
ENDBRANCH  12  13
ENDBRANCH   1  11
BRANCH   1  20
HETATM   20  N2  UNL     1       0.006   2.468  -1.701  1.00  0.00    -0.356 N 
HETATM   21  H14 UNL     1       0.743   2.397  -2.436  1.00  0.00     0.162 HD
BRANCH  20  22
HETATM   22  C16 UNL     1      -1.350   2.754  -2.080  1.00  0.00     0.166 C 
HETATM   23  S2  UNL     1      -1.724   2.964  -3.649  1.00  0.00    -0.041 SA
BRANCH  22  24
HETATM   24  N3  UNL     1      -2.317   2.840  -1.045  1.00  0.00    -0.376 N 
HETATM   25  H15 UNL     1      -2.207   3.775  -0.577  1.00  0.00     0.158 HD
HETATM   26  H16 UNL     1      -3.030   2.887  -0.291  1.00  0.00     0.158 HD
ENDBRANCH  22  24
ENDBRANCH  20  22
ENDBRANCH   1  20
TORSDOF 11
