REMARK  5 active torsions:
REMARK  status: ('A' for Active; 'I' for Inactive)
REMARK    1  A    between atoms: C2_2  and  C3_3 
REMARK    2  A    between atoms: C3_3  and  N1_5 
REMARK    3  A    between atoms: N1_5  and  C5_6 
REMARK    4  A    between atoms: C12_14  and  N3_15 
REMARK    5  A    between atoms: N3_15  and  C13_16 
ROOT
HETATM    1  C5  UNL     1       3.053   0.761   0.321  1.00  0.00     0.029 A 
HETATM    2  C6  UNL     1       2.831  -0.025   1.422  1.00  0.00     0.032 A 
HETATM    3  C7  UNL     1       1.610  -0.601   1.678  1.00  0.00     0.040 A 
HETATM    4  C8  UNL     1       0.565  -0.386   0.797  1.00  0.00     0.086 A 
HETATM    5  C9  UNL     1       0.788   0.413  -0.325  1.00  0.00    -0.005 A 
HETATM    6  C10 UNL     1       2.024   0.976  -0.552  1.00  0.00     0.040 A 
HETATM    7  C11 UNL     1      -0.182   0.803  -1.400  1.00  0.00     0.160 C 
HETATM    8  N2  UNL     1      -0.845  -0.353  -1.869  1.00  0.00    -0.367 N 
HETATM    9  C12 UNL     1      -1.915  -0.883  -1.050  1.00  0.00     0.272 A 
HETATM   10  N4  UNL     1      -2.597  -1.833  -1.905  1.00  0.00    -0.223 NA
HETATM   11  C19 UNL     1      -2.516  -2.989  -1.384  1.00  0.00     0.234 A 
HETATM   12  N5  UNL     1      -1.785  -2.967  -0.140  1.00  0.00    -0.216 NA
HETATM   13  C20 UNL     1      -1.427  -1.712   0.058  1.00  0.00     0.221 A 
HETATM   14  O1  UNL     1      -0.705  -0.974   1.042  1.00  0.00    -0.290 OA
HETATM   15  H12 UNL     1      -0.272  -1.063  -2.321  1.00  0.00     0.158 HD
ENDROOT
BRANCH   9  16
HETATM   16  N3  UNL     1      -2.885   0.110  -0.708  1.00  0.00    -0.338 N 
HETATM   17  H13 UNL     1      -2.703   1.038  -1.197  1.00  0.00     0.164 HD
BRANCH  16  18
HETATM   18  C13 UNL     1      -4.045   0.206   0.078  1.00  0.00     0.033 A 
HETATM   19  C14 UNL     1      -4.615  -0.920   0.641  1.00  0.00     0.032 A 
HETATM   20  C15 UNL     1      -5.747  -0.921   1.431  1.00  0.00     0.046 A 
HETATM   21  C16 UNL     1      -6.350   0.269   1.677  1.00  0.00     0.138 A 
HETATM   22  F1  UNL     1      -7.460   0.477   2.417  1.00  0.00    -0.204 F 
HETATM   23  C17 UNL     1      -5.813   1.419   1.134  1.00  0.00     0.074 A 
HETATM   24 CL1  UNL     1      -6.528   3.008   1.404  1.00  0.00    -0.081 Cl
HETATM   25  C18 UNL     1      -4.688   1.387   0.354  1.00  0.00     0.056 A 
ENDBRANCH  16  18
ENDBRANCH   9  16
BRANCH   1  26
HETATM   26  N1  UNL     1       4.335   1.373   0.036  1.00  0.00    -0.374 N 
HETATM   27  H6  UNL     1       4.099   2.381   0.297  1.00  0.00     0.161 HD
BRANCH  26  28
HETATM   28  C3  UNL     1       5.528   0.664  -0.460  1.00  0.00     0.076 C 
HETATM   29  C4  UNL     1       4.906   0.893  -1.564  1.00  0.00     0.041 C 
BRANCH  28  30
HETATM   30  C2  UNL     1       5.951   0.580   0.906  1.00  0.00    -0.004 C 
HETATM   31  C1  UNL     1       7.080  -0.083   0.847  1.00  0.00     0.009 C 
ENDBRANCH  28  30
ENDBRANCH  26  28
ENDBRANCH   1  26
TORSDOF 5
