REMARK  5 active torsions:
REMARK  status: ('A' for Active; 'I' for Inactive)
REMARK    1  A    between atoms: N1_2  and  N2_3 
REMARK    2  A    between atoms: C2_4  and  C3_5 
REMARK    3  A    between atoms: C2_4  and  C10_14 
REMARK    4  A    between atoms: C4_6  and  B1_7 
REMARK    5  A    between atoms: C13_17  and  O1_18 
ROOT
HETATM    1  N2  UNL     1      -0.002  -1.773  -0.004  1.00  0.00    -0.179 NA
HETATM    2  C2  UNL     1      -0.289  -0.539  -0.030  1.00  0.00     0.085 C 
ENDROOT
BRANCH   2   3
HETATM    3  C3  UNL     1       1.033   0.056  -0.137  1.00  0.00     0.019 C 
HETATM    4  C4  UNL     1       2.095  -0.751  -0.176  1.00  0.00    -0.068 C 
BRANCH   4   5
HETATM    5  B1  UNL     1       3.586  -0.308  -0.288  1.00  0.00     0.256 B 
HETATM    6  C5  UNL     1       4.603  -0.940   0.779  1.00  0.00    -0.011 A 
HETATM    7  C6  UNL     1       5.760  -0.026   0.966  1.00  0.00    -0.036 A 
HETATM    8  C7  UNL     1       6.039   1.145   0.414  1.00  0.00    -0.004 A 
HETATM    9  C8  UNL     1       5.100   1.723  -0.567  1.00  0.00     0.007 A 
HETATM   10  C9  UNL     1       3.979   1.082  -0.902  1.00  0.00    -0.024 A 
HETATM   11 CL1  UNL     1       2.899   1.800  -2.064  1.00  0.00    -0.102 Cl
ENDBRANCH   4   5
ENDBRANCH   2   3
BRANCH   2  12
HETATM   12  C10 UNL     1      -1.472   0.296   0.016  1.00  0.00    -0.006 A 
HETATM   13  C11 UNL     1      -1.363   1.668  -0.041  1.00  0.00     0.016 A 
HETATM   14  C12 UNL     1      -2.556   2.349   0.011  1.00  0.00     0.037 A 
HETATM   15  C13 UNL     1      -3.809   1.780   0.112  1.00  0.00     0.068 A 
HETATM   16  C15 UNL     1      -3.858   0.395   0.166  1.00  0.00     0.037 A 
HETATM   17  C16 UNL     1      -2.682  -0.349   0.117  1.00  0.00     0.016 A 
BRANCH  15  18
HETATM   18  O1  UNL     1      -4.919   2.600   0.154  1.00  0.00    -0.356 OA
HETATM   19  C14 UNL     1      -6.201   1.988   0.259  1.00  0.00     0.210 C 
ENDBRANCH  15  18
ENDBRANCH   2  12
BRANCH   1  20
HETATM   20  N1  UNL     1      -0.870  -2.843   0.090  1.00  0.00    -0.318 N 
HETATM   21  C1  UNL     1      -1.594  -3.861  -0.679  1.00  0.00     0.169 C 
HETATM   22  H4  UNL     1      -1.038  -2.900   1.125  1.00  0.00     0.181 HD
ENDBRANCH   1  20
TORSDOF 5
