REMARK  7 active torsions:
REMARK  status: ('A' for Active; 'I' for Inactive)
REMARK    1  A    between atoms: N1_1  and  C1_2 
REMARK    2  A    between atoms: C1_2  and  N2_4 
REMARK    3  A    between atoms: N2_4  and  B1_5 
REMARK    4  A    between atoms: B1_5  and  C2_6 
REMARK    5  A    between atoms: C2_6  and  C3_7 
REMARK    6  A    between atoms: C2_6  and  C15_19 
REMARK    7  A    between atoms: C4_8  and  C5_9 
ROOT
HETATM    1  C2  UNL     1       1.631  -0.721   0.252  1.00  0.00    -0.069 C 
ENDROOT
BRANCH   1   2
HETATM    2  B1  UNL     1       2.369   0.529   1.221  1.00  0.00     0.318 B 
BRANCH   2   3
HETATM    3  N2  UNL     1       2.848   1.860   2.179  1.00  0.00    -0.417 N 
HETATM    4  H3  UNL     1       2.686   1.974   3.203  1.00  0.00     0.140 HD
BRANCH   3   5
HETATM    5  C1  UNL     1       3.538   2.945   1.562  1.00  0.00     0.150 C 
HETATM    6  S1  UNL     1       4.334   4.227   0.925  1.00  0.00    -0.043 SA
BRANCH   5   7
HETATM    7  N1  UNL     1       3.524   2.368   0.244  1.00  0.00    -0.378 N 
HETATM    8  H1  UNL     1       4.003   1.748  -0.442  1.00  0.00     0.158 HD
HETATM    9  H2  UNL     1       3.389   2.025  -0.723  1.00  0.00     0.158 HD
ENDBRANCH   5   7
ENDBRANCH   3   5
ENDBRANCH   2   3
ENDBRANCH   1   2
BRANCH   1  10
HETATM   10  C3  UNL     1       0.215  -0.724  -0.093  1.00  0.00    -0.002 C 
HETATM   11  C4  UNL     1      -0.765   0.087   0.183  1.00  0.00     0.012 C 
BRANCH  11  12
HETATM   12  C5  UNL     1      -2.154  -0.023  -0.222  1.00  0.00    -0.025 A 
HETATM   13  C6  UNL     1      -2.593  -1.073  -0.993  1.00  0.00     0.012 A 
HETATM   14  C7  UNL     1      -3.906  -1.203  -1.393  1.00  0.00     0.002 A 
HETATM   15  C8  UNL     1      -4.811  -0.240  -1.002  1.00  0.00     0.012 A 
HETATM   16  C9  UNL     1      -4.354   0.802  -0.232  1.00  0.00    -0.025 A 
HETATM   17  C10 UNL     1      -5.321   1.738   0.126  1.00  0.00     0.012 A 
HETATM   18  C14 UNL     1      -3.041   0.927   0.165  1.00  0.00    -0.016 A 
HETATM   19  C11 UNL     1      -4.953   2.819   0.899  1.00  0.00     0.001 A 
HETATM   20  C12 UNL     1      -3.633   2.989   1.326  1.00  0.00     0.001 A 
HETATM   21  C13 UNL     1      -2.734   2.027   0.934  1.00  0.00     0.013 A 
ENDBRANCH  11  12
ENDBRANCH   1  10
BRANCH   1  22
HETATM   22  C15 UNL     1       2.581  -1.742  -0.165  1.00  0.00    -0.039 A 
HETATM   23  C16 UNL     1       2.554  -2.131  -1.508  1.00  0.00     0.011 A 
HETATM   24  C17 UNL     1       3.425  -3.098  -1.987  1.00  0.00     0.001 A 
HETATM   25  C18 UNL     1       4.298  -3.643  -1.092  1.00  0.00     0.000 A 
HETATM   26  C19 UNL     1       4.349  -3.279   0.241  1.00  0.00     0.001 A 
HETATM   27  C20 UNL     1       3.485  -2.318   0.725  1.00  0.00     0.011 A 
ENDBRANCH   1  22
TORSDOF 7
