REMARK  3 active torsions:
REMARK  status: ('A' for Active; 'I' for Inactive)
REMARK    1  A    between atoms: N1_1  and  C1_2 
REMARK    2  A    between atoms: C1_2  and  N2_4 
REMARK    3  A    between atoms: N2_4  and  N3_5 
ROOT
HETATM    1  N3  UNL     1       2.720   0.470   0.815  1.00  0.00    -0.173 NA
HETATM    2  C2  UNL     1       1.775  -0.378   0.958  1.00  0.00     0.077 C 
HETATM    3  C3  UNL     1       2.250  -1.739   1.168  1.00  0.00     0.033 C 
HETATM    4  C4  UNL     1       1.704  -2.909   0.933  1.00  0.00     0.002 C 
HETATM    5  C5  UNL     1       0.440  -3.367   0.384  1.00  0.00    -0.003 C 
HETATM    6  C6  UNL     1      -0.710  -2.782   0.128  1.00  0.00    -0.017 C 
HETATM    7  C7  UNL     1      -1.484  -1.576   0.152  1.00  0.00     0.045 C 
HETATM    8  C8  UNL     1      -2.378  -1.446  -1.056  1.00  0.00     0.041 C 
HETATM    9  C9  UNL     1      -2.693  -0.103  -1.638  1.00  0.00    -0.018 C 
HETATM   10  C10 UNL     1      -2.650   0.975  -0.898  1.00  0.00    -0.058 C 
HETATM   11  C11 UNL     1      -2.078   2.322  -1.219  1.00  0.00     0.007 C 
HETATM   12  C12 UNL     1      -1.210   2.932  -0.319  1.00  0.00     0.001 C 
HETATM   13  C13 UNL     1      -0.770   2.095   0.896  1.00  0.00     0.008 C 
HETATM   14  C14 UNL     1      -1.377   0.931   0.776  1.00  0.00    -0.047 C 
HETATM   15  C15 UNL     1      -2.953   1.019   0.642  1.00  0.00     0.077 C 
HETATM   16  C16 UNL     1      -0.724  -0.365   0.594  1.00  0.00    -0.041 C 
HETATM   17  C17 UNL     1       0.455   0.206   0.882  1.00  0.00     0.041 C 
ENDROOT
BRANCH   1  18
HETATM   18  N2  UNL     1       2.590   1.822   0.603  1.00  0.00    -0.258 N 
HETATM   19  H3  UNL     1       2.110   2.604   1.092  1.00  0.00     0.191 HD
BRANCH  18  20
HETATM   20  C1  UNL     1       3.358   1.991  -0.606  1.00  0.00     0.164 C 
HETATM   21  S1  UNL     1       3.948   2.953  -1.788  1.00  0.00    -0.046 SA
BRANCH  20  22
HETATM   22  N1  UNL     1       3.940   0.783  -1.122  1.00  0.00    -0.278 NA
HETATM   23  H1  UNL     1       4.625  -0.027  -1.142  1.00  0.00     0.126 HD
HETATM   24  H2  UNL     1       4.734   0.570  -0.446  1.00  0.00     0.126 HD
ENDBRANCH  20  22
ENDBRANCH  18  20
ENDBRANCH   1  18
TORSDOF 3
