REMARK  4 active torsions:
REMARK  status: ('A' for Active; 'I' for Inactive)
REMARK    1  A    between atoms: C1_2  and  C2_3 
REMARK    2  A    between atoms: C2_3  and  N1_4 
REMARK    3  A    between atoms: N1_4  and  C3_5 
REMARK    4  A    between atoms: C10_13  and  C11_14 
ROOT
HETATM    1  C3  UNL     1      -3.286  -0.298  -0.848  1.00  0.00     0.029 A 
HETATM    2  C4  UNL     1      -3.377   0.654   0.144  1.00  0.00     0.032 A 
HETATM    3  C5  UNL     1      -2.297   1.179   0.840  1.00  0.00     0.039 A 
HETATM    4  C6  UNL     1      -1.031   0.701   0.503  1.00  0.00     0.076 A 
HETATM    5  C7  UNL     1      -0.944  -0.269  -0.508  1.00  0.00    -0.005 A 
HETATM    6  C8  UNL     1      -2.038  -0.770  -1.181  1.00  0.00     0.040 A 
HETATM    7  C9  UNL     1       0.383  -0.815  -0.911  1.00  0.00     0.156 C 
HETATM    8  N2  UNL     1       1.370   0.167  -1.133  1.00  0.00    -0.407 N 
HETATM    9  C10 UNL     1       1.972   0.817  -0.037  1.00  0.00     0.134 C 
HETATM   10  C17 UNL     1       1.319   0.628   1.308  1.00  0.00     0.205 C 
HETATM   11  O2  UNL     1       0.030   1.272   1.247  1.00  0.00    -0.348 OA
HETATM   12  H10 UNL     1       1.127   0.827  -1.874  1.00  0.00     0.154 HD
ENDROOT
BRANCH   9  13
HETATM   13  C11 UNL     1       3.417   0.381   0.029  1.00  0.00    -0.032 A 
HETATM   14  C12 UNL     1       3.995   0.414  -1.243  1.00  0.00     0.012 A 
HETATM   15  C13 UNL     1       5.330   0.053  -1.446  1.00  0.00     0.044 A 
HETATM   16  C14 UNL     1       6.058  -0.336  -0.341  1.00  0.00     0.138 A 
HETATM   17  F1  UNL     1       7.373  -0.705  -0.453  1.00  0.00    -0.204 F 
HETATM   18  C15 UNL     1       5.473  -0.363   0.909  1.00  0.00     0.073 A 
HETATM   19 CL1  UNL     1       6.362  -0.852   2.344  1.00  0.00    -0.081 Cl
HETATM   20  C16 UNL     1       4.157  -0.010   1.124  1.00  0.00     0.036 A 
ENDBRANCH   9  13
BRANCH   1  21
HETATM   21  N1  UNL     1      -4.449  -0.782  -1.509  1.00  0.00    -0.384 N 
HETATM   22  H4  UNL     1      -4.316  -1.511  -2.272  1.00  0.00     0.160 HD
BRANCH  21  23
HETATM   23  C2  UNL     1      -5.752  -0.311  -1.166  1.00  0.00     0.189 C 
BRANCH  23  24
HETATM   24  C1  UNL     1      -6.135  -0.607   0.264  1.00  0.00     0.250 C 
HETATM   25  O1  UNL     1      -5.717  -1.129   1.281  1.00  0.00    -0.305 OA
ENDBRANCH  23  24
ENDBRANCH  21  23
ENDBRANCH   1  21
TORSDOF 4
