REMARK  0 active torsions:
REMARK  status: ('A' for Active; 'I' for Inactive)
ROOT
HETATM    1  C1  UNL     1      -4.065  -0.136  -0.152  1.00  0.00    -0.025 C 
HETATM    2  C2  UNL     1      -3.752   0.922   0.601  1.00  0.00    -0.005 C 
HETATM    3  C3  UNL     1      -2.328   1.297   0.812  1.00  0.00     0.107 C 
HETATM    4  C4  UNL     1      -1.702   1.676  -0.511  1.00  0.00     0.056 C 
HETATM    5  C5  UNL     1      -0.487   2.482  -0.309  1.00  0.00    -0.028 C 
HETATM    6  C6  UNL     1       0.762   2.245  -0.679  1.00  0.00    -0.026 C 
HETATM    7  C7  UNL     1       1.262   1.074  -1.411  1.00  0.00     0.066 C 
HETATM    8  C8  UNL     1       2.325   0.362  -0.672  1.00  0.00    -0.044 A 
HETATM    9  C9  UNL     1       3.340   1.224  -0.315  1.00  0.00     0.008 A 
HETATM   10  C10 UNL     1       4.480   0.836   0.378  1.00  0.00     0.001 A 
HETATM   11  C11 UNL     1       4.639  -0.487   0.749  1.00  0.00     0.001 A 
HETATM   12  C12 UNL     1       3.585  -1.331   0.367  1.00  0.00     0.012 A 
HETATM   13  C13 UNL     1       2.437  -0.967  -0.324  1.00  0.00    -0.030 A 
HETATM   14  C14 UNL     1       1.425  -1.968  -0.636  1.00  0.00     0.008 C 
HETATM   15  C15 UNL     1       0.312  -2.332  -0.076  1.00  0.00    -0.020 C 
HETATM   16  C16 UNL     1      -0.120  -1.655   1.148  1.00  0.00     0.083 C 
HETATM   17  C17 UNL     1      -1.433  -1.026   0.906  1.00  0.00     0.005 C 
HETATM   18  C18 UNL     1      -2.226  -1.778   0.195  1.00  0.00     0.002 C 
HETATM   19  C19 UNL     1      -3.373  -1.337  -0.618  1.00  0.00     0.056 C 
HETATM   20  N1  UNL     1      -1.581   0.267   1.491  1.00  0.00    -0.385 N 
HETATM   21  H21 UNL     1      -1.135   0.455   2.429  1.00  0.00     0.160 HD
ENDROOT
TORSDOF 0
