REMARK  5 active torsions:
REMARK  status: ('A' for Active; 'I' for Inactive)
REMARK    1  A    between atoms: C2_2  and  C3_3 
REMARK    2  A    between atoms: C11_13  and  O2_14 
REMARK    3  A    between atoms: O2_14  and  C12_15 
REMARK    4  A    between atoms: C12_15  and  C13_16 
REMARK    5  A    between atoms: C13_16  and  O3_17 
ROOT
HETATM    1  C3  UNL     1      -3.273   1.683  -0.942  1.00  0.00     0.064 C 
HETATM    2  C4  UNL     1      -3.848   1.049   0.337  1.00  0.00     0.011 C 
HETATM    3  C5  UNL     1      -3.276  -0.164   0.497  1.00  0.00     0.011 C 
HETATM    4  C6  UNL     1      -3.865  -1.319   1.224  1.00  0.00     0.068 C 
HETATM    5  N1  UNL     1      -1.996  -0.425  -0.040  1.00  0.00    -0.310 N 
HETATM    6  C7  UNL     1      -1.122   0.427  -0.772  1.00  0.00     0.104 C 
HETATM    7  C8  UNL     1      -1.810   1.536  -0.791  1.00  0.00    -0.029 C 
HETATM    8  C9  UNL     1      -0.676   2.474  -0.518  1.00  0.00     0.212 C 
HETATM    9  O1  UNL     1      -0.314   2.266   0.861  1.00  0.00    -0.348 OA
HETATM   10  C10 UNL     1       0.433   1.188   1.323  1.00  0.00     0.082 C 
HETATM   11  C11 UNL     1       1.427   0.271   1.103  1.00  0.00     0.105 C 
HETATM   12  C15 UNL     1       0.948  -1.175   1.136  1.00  0.00     0.205 C 
HETATM   13  N2  UNL     1       1.275  -1.849  -0.097  1.00  0.00    -0.266 NA
HETATM   14  C16 UNL     1       0.680  -2.943  -0.442  1.00  0.00     0.230 C 
HETATM   15  N3  UNL     1      -0.728  -2.663  -0.308  1.00  0.00    -0.224 NA
HETATM   16  C17 UNL     1      -1.178  -1.565   0.070  1.00  0.00     0.144 C 
HETATM   17  C18 UNL     1      -0.554  -1.084   1.344  1.00  0.00     0.016 C 
HETATM   18  C19 UNL     1      -0.603  -0.573   2.596  1.00  0.00    -0.007 C 
HETATM   19  C20 UNL     1      -0.045   0.829   2.713  1.00  0.00     0.095 C 
ENDROOT
BRANCH  11  20
HETATM   20  O2  UNL     1       2.686   0.806   0.889  1.00  0.00    -0.348 OA
BRANCH  20  21
HETATM   21  C12 UNL     1       3.840   0.049   0.667  1.00  0.00     0.201 C 
BRANCH  21  22
HETATM   22  C13 UNL     1       5.075   0.857   0.464  1.00  0.00     0.193 C 
BRANCH  22  23
HETATM   23  O3  UNL     1       6.201   0.088   0.247  1.00  0.00    -0.394 OA
HETATM   24  C14 UNL     1       6.146  -0.731  -0.856  1.00  0.00     0.201 C 
ENDBRANCH  22  23
ENDBRANCH  21  22
ENDBRANCH  20  21
ENDBRANCH  11  20
BRANCH   1  25
HETATM   25  C2  UNL     1      -3.803   0.932  -2.080  1.00  0.00    -0.024 C 
HETATM   26  C1  UNL     1      -4.665  -0.038  -2.364  1.00  0.00     0.008 C 
ENDBRANCH   1  25
TORSDOF 5
