REMARK  3 active torsions:
REMARK  status: ('A' for Active; 'I' for Inactive)
REMARK    1  A    between atoms: C7_9  and  C8_10 
REMARK    2  A    between atoms: C8_10  and  C9_11 
REMARK    3  A    between atoms: C9_11  and  C10_12 
ROOT
HETATM    1  S1  UNL     1      -3.617   1.524  -4.534  1.00  0.00    -0.045 SA
HETATM    2  C1  UNL     1      -3.603   1.453  -2.931  1.00  0.00     0.170 C 
HETATM    3  N1  UNL     1      -4.628   1.821  -2.017  1.00  0.00    -0.346 N 
HETATM    4  C2  UNL     1      -4.796   1.858  -0.613  1.00  0.00     0.102 C 
HETATM    5  C3  UNL     1      -4.248   3.094  -0.685  1.00  0.00    -0.009 C 
HETATM    6  C4  UNL     1      -3.125   3.150  -0.068  1.00  0.00     0.014 C 
HETATM    7  C5  UNL     1      -2.357   3.254  -1.371  1.00  0.00     0.003 C 
HETATM    8  C6  UNL     1      -1.240   2.437  -1.639  1.00  0.00     0.033 C 
HETATM    9  C7  UNL     1      -0.891   1.459  -0.574  1.00  0.00     0.071 C 
HETATM   10  N2  UNL     1      -2.096   0.838  -0.713  1.00  0.00    -0.195 NA
HETATM   11  N3  UNL     1      -3.064   1.204  -1.605  1.00  0.00    -0.157 NA
HETATM   12  H1  UNL     1      -5.417   2.134  -2.646  1.00  0.00     0.167 HD
HETATM   13  H15 UNL     1      -2.326   0.919  -2.353  1.00  0.00     0.157 HD
ENDROOT
BRANCH   9  14
HETATM   14  C8  UNL     1      -0.499   0.456   0.490  1.00  0.00     0.034 C 
BRANCH  14  15
HETATM   15  C9  UNL     1       0.676  -0.211   0.261  1.00  0.00     0.014 C 
BRANCH  15  16
HETATM   16  C10 UNL     1       1.918  -1.008   0.156  1.00  0.00    -0.025 A 
HETATM   17  C11 UNL     1       2.293  -1.020  -1.145  1.00  0.00     0.012 A 
HETATM   18  C12 UNL     1       3.455  -1.870  -1.238  1.00  0.00     0.002 A 
HETATM   19  C13 UNL     1       3.962  -2.476  -0.126  1.00  0.00     0.012 A 
HETATM   20  C14 UNL     1       3.494  -2.381   1.147  1.00  0.00    -0.025 A 
HETATM   21  C15 UNL     1       4.039  -2.953   2.242  1.00  0.00     0.012 A 
HETATM   22  C19 UNL     1       2.321  -1.539   1.316  1.00  0.00    -0.016 A 
HETATM   23  C16 UNL     1       3.631  -2.853   3.542  1.00  0.00     0.001 A 
HETATM   24  C17 UNL     1       2.519  -2.047   3.643  1.00  0.00     0.001 A 
HETATM   25  C18 UNL     1       1.840  -1.384   2.606  1.00  0.00     0.013 A 
ENDBRANCH  15  16
ENDBRANCH  14  15
ENDBRANCH   9  14
TORSDOF 3
