REMARK  2 active torsions:
REMARK  status: ('A' for Active; 'I' for Inactive)
REMARK    1  A    between atoms: C1_2  and  N1_3 
REMARK    2  A    between atoms: N1_3  and  C2_4 
ROOT
HETATM    1  C2  UNL     1       2.557  -0.663  -1.320  1.00  0.00     0.107 C 
HETATM    2  C3  UNL     1       1.482  -1.207  -0.388  1.00  0.00    -0.001 C 
HETATM    3  C4  UNL     1       0.434  -2.020  -0.683  1.00  0.00     0.009 C 
HETATM    4  C5  UNL     1      -0.526  -2.441   0.361  1.00  0.00    -0.033 A 
HETATM    5  C6  UNL     1      -0.928  -3.405   1.233  1.00  0.00     0.011 A 
HETATM    6  C7  UNL     1      -2.005  -3.082   2.024  1.00  0.00    -0.002 A 
HETATM    7  C8  UNL     1      -2.655  -1.878   1.963  1.00  0.00    -0.012 A 
HETATM    8  C9  UNL     1      -2.337  -0.835   1.125  1.00  0.00     0.012 A 
HETATM    9  C10 UNL     1      -3.169   0.233   1.333  1.00  0.00     0.019 A 
HETATM   10  C11 UNL     1      -3.257   1.513   0.786  1.00  0.00    -0.018 A 
HETATM   11  C12 UNL     1      -2.306   0.596   0.390  1.00  0.00     0.049 A 
HETATM   12  C13 UNL     1      -1.285  -0.056  -0.200  1.00  0.00     0.009 A 
HETATM   13  C14 UNL     1      -1.260  -1.277   0.396  1.00  0.00    -0.056 A 
HETATM   14  C15 UNL     1      -2.839   2.707  -0.073  1.00  0.00     0.038 C 
HETATM   15  C16 UNL     1      -1.535   3.192   0.485  1.00  0.00    -0.029 C 
HETATM   16  C17 UNL     1      -0.230   3.007   0.371  1.00  0.00    -0.025 C 
HETATM   17  C18 UNL     1       1.033   2.462  -0.106  1.00  0.00     0.020 C 
HETATM   18  C19 UNL     1       1.725   1.636  -0.910  1.00  0.00     0.001 C 
HETATM   19  C20 UNL     1       1.985   0.607  -1.961  1.00  0.00     0.035 C 
ENDROOT
BRANCH   1  20
HETATM   20  N1  UNL     1       3.767  -0.429  -0.606  1.00  0.00    -0.360 N 
HETATM   21  H2  UNL     1       3.749   0.271   0.163  1.00  0.00     0.162 HD
BRANCH  20  22
HETATM   22  C1  UNL     1       5.004  -1.092  -0.873  1.00  0.00     0.349 C 
HETATM   23  O1  UNL     1       4.942  -1.935  -1.830  1.00  0.00    -0.284 OA
ENDBRANCH  20  22
ENDBRANCH   1  20
TORSDOF 2
