REMARK  8 active torsions:
REMARK  status: ('A' for Active; 'I' for Inactive)
REMARK    1  A    between atoms: C2_2  and  C3_3 
REMARK    2  A    between atoms: N1_8  and  C8_9 
REMARK    3  A    between atoms: C13_17  and  C14_18 
REMARK    4  A    between atoms: C14_18  and  O2_19 
REMARK    5  A    between atoms: C16_21  and  O3_22 
REMARK    6  A    between atoms: O3_22  and  C17_23 
REMARK    7  A    between atoms: C17_23  and  C18_24 
REMARK    8  A    between atoms: C18_24  and  O4_25 
ROOT
HETATM    1  C8  UNL     1       1.115   0.007  -1.421  1.00  0.00     0.124 C 
HETATM    2  N2  UNL     1       1.919   0.064  -2.430  1.00  0.00    -0.227 NA
HETATM    3  C9  UNL     1       1.853   1.048  -3.454  1.00  0.00     0.235 C 
HETATM    4  N3  UNL     1       0.931   1.947  -3.346  1.00  0.00    -0.245 NA
HETATM    5  C10 UNL     1       0.022   1.958  -2.238  1.00  0.00     0.052 C 
HETATM    6  C11 UNL     1      -0.667   3.082  -2.420  1.00  0.00     0.028 C 
HETATM    7  C12 UNL     1      -1.727   3.467  -1.462  1.00  0.00     0.205 C 
HETATM    8  O1  UNL     1      -1.241   3.491  -0.134  1.00  0.00    -0.347 OA
HETATM    9  C13 UNL     1      -0.855   2.425   0.663  1.00  0.00     0.100 C 
HETATM   10  C16 UNL     1      -0.331   1.322   0.155  1.00  0.00     0.095 C 
HETATM   11  C20 UNL     1      -0.013   0.901  -1.203  1.00  0.00     0.166 C 
ENDROOT
BRANCH   1  12
HETATM   12  N1  UNL     1       1.798  -1.139  -0.915  1.00  0.00    -0.331 N 
HETATM   13  C3  UNL     1       1.518  -2.482  -1.268  1.00  0.00     0.032 A 
HETATM   14  C4  UNL     1       2.039  -3.561  -0.751  1.00  0.00     0.029 A 
HETATM   15  C5  UNL     1       3.068  -3.412   0.264  1.00  0.00    -0.000 A 
HETATM   16  C6  UNL     1       3.421  -2.182   0.596  1.00  0.00    -0.007 A 
HETATM   17  C7  UNL     1       2.875  -0.932   0.033  1.00  0.00     0.158 A 
BRANCH  13  18
HETATM   18  C2  UNL     1       0.538  -2.806  -2.246  1.00  0.00     0.003 C 
HETATM   19  C1  UNL     1      -0.195  -2.017  -2.982  1.00  0.00     0.033 C 
ENDBRANCH  13  18
ENDBRANCH   1  12
BRANCH  10  20
HETATM   20  O3  UNL     1       0.056   0.243   0.909  1.00  0.00    -0.349 OA
BRANCH  20  21
HETATM   21  C17 UNL     1      -0.766  -0.615   1.662  1.00  0.00     0.201 C 
BRANCH  21  22
HETATM   22  C18 UNL     1      -0.625  -2.073   1.332  1.00  0.00     0.193 C 
BRANCH  22  23
HETATM   23  O4  UNL     1      -1.477  -2.817   2.123  1.00  0.00    -0.394 OA
HETATM   24  C19 UNL     1      -1.228  -2.694   3.475  1.00  0.00     0.201 C 
ENDBRANCH  22  23
ENDBRANCH  21  22
ENDBRANCH  20  21
ENDBRANCH  10  20
BRANCH   9  25
HETATM   25  C14 UNL     1      -1.014   2.495   2.127  1.00  0.00     0.234 C 
BRANCH  25  26
HETATM   26  O2  UNL     1      -2.299   2.654   2.569  1.00  0.00    -0.389 OA
HETATM   27  C15 UNL     1      -2.954   3.790   2.165  1.00  0.00     0.201 C 
ENDBRANCH  25  26
ENDBRANCH   9  25
TORSDOF 8
