REMARK  8 active torsions:
REMARK  status: ('A' for Active; 'I' for Inactive)
REMARK    1  A    between atoms: C6_7  and  C7_8 
REMARK    2  A    between atoms: C7_8  and  O1_9 
REMARK    3  A    between atoms: C10_12  and  N2_13 
REMARK    4  A    between atoms: N2_13  and  C11_14 
REMARK    5  A    between atoms: C14_18  and  O3_19 
REMARK    6  A    between atoms: O3_19  and  C15_20 
REMARK    7  A    between atoms: C15_20  and  C16_21 
REMARK    8  A    between atoms: C16_21  and  O4_22 
ROOT
HETATM    1  C1  UNL     1      -1.647   3.562  -0.602  1.00  0.00     0.018 C 
HETATM    2  C2  UNL     1      -2.617   2.838  -0.554  1.00  0.00    -0.077 C 
HETATM    3  C3  UNL     1      -3.769   1.988  -0.474  1.00  0.00     0.028 A 
HETATM    4  C4  UNL     1      -4.904   2.533  -0.868  1.00  0.00     0.040 A 
HETATM    5  C5  UNL     1      -6.048   1.637  -0.769  1.00  0.00     0.113 A 
HETATM    6  N1  UNL     1      -6.087   0.438  -0.362  1.00  0.00    -0.289 NA
HETATM    7  C6  UNL     1      -4.926  -0.272   0.097  1.00  0.00     0.167 A 
HETATM    8  C9  UNL     1      -3.712   0.613  -0.003  1.00  0.00     0.002 A 
HETATM    9  C10 UNL     1      -2.564   0.082   0.355  1.00  0.00     0.094 C 
ENDROOT
BRANCH   7  10
HETATM   10  C7  UNL     1      -5.123  -0.791   1.471  1.00  0.00     0.199 C 
BRANCH  10  11
HETATM   11  O1  UNL     1      -6.128  -1.686   1.585  1.00  0.00    -0.394 OA
HETATM   12  C8  UNL     1      -7.404  -1.313   1.260  1.00  0.00     0.201 C 
ENDBRANCH  10  11
ENDBRANCH   7  10
BRANCH   9  13
HETATM   13  N2  UNL     1      -1.252   0.546   0.402  1.00  0.00    -0.389 N 
HETATM   14  H11 UNL     1      -1.245   1.069   1.330  1.00  0.00     0.159 HD
BRANCH  13  15
HETATM   15  C11 UNL     1      -0.050   0.496  -0.406  1.00  0.00     0.134 C 
HETATM   16  C12 UNL     1       1.033   1.254   0.272  1.00  0.00     0.202 C 
HETATM   17  O2  UNL     1       2.167   1.508  -0.549  1.00  0.00    -0.358 OA
HETATM   18  C13 UNL     1       3.329   0.687  -0.653  1.00  0.00     0.171 C 
HETATM   19  C14 UNL     1       3.525  -0.633  -0.401  1.00  0.00     0.091 C 
HETATM   20  C18 UNL     1       2.526  -1.631   0.079  1.00  0.00     0.049 C 
HETATM   21  C19 UNL     1       1.188  -1.682  -0.135  1.00  0.00    -0.011 A 
HETATM   22  C20 UNL     1       0.143  -2.628   0.302  1.00  0.00     0.120 A 
HETATM   23  C21 UNL     1       0.191  -0.860  -0.892  1.00  0.00     0.166 A 
HETATM   24  N3  UNL     1      -0.680  -1.889  -0.362  1.00  0.00    -0.289 NA
BRANCH  19  25
HETATM   25  O3  UNL     1       4.760  -1.233  -0.573  1.00  0.00    -0.347 OA
BRANCH  25  26
HETATM   26  C15 UNL     1       5.963  -0.528  -0.774  1.00  0.00     0.201 C 
BRANCH  26  27
HETATM   27  C16 UNL     1       7.150  -1.434  -0.928  1.00  0.00     0.193 C 
BRANCH  27  28
HETATM   28  O4  UNL     1       8.341  -0.788  -1.127  1.00  0.00    -0.394 OA
HETATM   29  C17 UNL     1       8.744   0.067  -0.135  1.00  0.00     0.201 C 
ENDBRANCH  27  28
ENDBRANCH  26  27
ENDBRANCH  25  26
ENDBRANCH  19  25
ENDBRANCH  13  15
ENDBRANCH   9  13
TORSDOF 8
