REMARK  4 active torsions:
REMARK  status: ('A' for Active; 'I' for Inactive)
REMARK    1  A    between atoms: C6_6  and  C7_7 
REMARK    2  A    between atoms: C7_7  and  O1_8 
REMARK    3  A    between atoms: C8_9  and  N1_10 
REMARK    4  A    between atoms: N1_10  and  C9_11 
ROOT
HETATM    1  C1  UNL     1      -3.633  -3.733  -2.141  1.00  0.00     0.018 C 
HETATM    2  C2  UNL     1      -3.594  -2.681  -1.548  1.00  0.00    -0.078 C 
HETATM    3  C3  UNL     1      -3.541  -1.440  -0.823  1.00  0.00     0.019 A 
HETATM    4  C4  UNL     1      -4.643  -1.035  -0.099  1.00  0.00     0.021 A 
HETATM    5  C5  UNL     1      -4.508   0.178   0.575  1.00  0.00     0.013 A 
HETATM    6  C6  UNL     1      -3.371   0.960   0.553  1.00  0.00    -0.008 A 
HETATM    7  C8  UNL     1      -2.322   0.467  -0.201  1.00  0.00     0.043 A 
HETATM    8  C20 UNL     1      -2.362  -0.724  -0.903  1.00  0.00     0.050 A 
ENDROOT
BRANCH   7   9
HETATM    9  N1  UNL     1      -1.113   1.215  -0.278  1.00  0.00    -0.343 N 
HETATM   10  H7  UNL     1      -1.079   1.909  -1.083  1.00  0.00     0.167 HD
BRANCH   9  11
HETATM   11  C9  UNL     1      -0.028   1.049   0.655  1.00  0.00     0.117 C 
HETATM   12  N2  UNL     1      -0.373   0.395   1.748  1.00  0.00    -0.228 NA
HETATM   13  C10 UNL     1       0.522  -0.355   2.613  1.00  0.00     0.235 C 
HETATM   14  N3  UNL     1       1.757   0.065   2.856  1.00  0.00    -0.242 NA
HETATM   15  C11 UNL     1       2.669   0.430   1.833  1.00  0.00     0.055 C 
HETATM   16  C12 UNL     1       2.178   1.617   1.328  1.00  0.00     0.021 C 
HETATM   17  C19 UNL     1       3.885  -0.056   1.189  1.00  0.00     0.029 C 
HETATM   18  C13 UNL     1       1.221   1.665   0.144  1.00  0.00     0.103 C 
HETATM   19  C14 UNL     1       1.887   0.757  -0.839  1.00  0.00    -0.012 C 
HETATM   20  C15 UNL     1       3.003   0.438  -1.504  1.00  0.00    -0.004 C 
HETATM   21  C16 UNL     1       3.252  -0.659  -2.481  1.00  0.00     0.195 C 
HETATM   22  O2  UNL     1       4.260  -1.544  -2.006  1.00  0.00    -0.384 OA
HETATM   23  C17 UNL     1       3.807  -1.998  -0.731  1.00  0.00     0.195 C 
HETATM   24  C18 UNL     1       3.902  -0.968   0.279  1.00  0.00     0.001 C 
ENDBRANCH   9  11
ENDBRANCH   7   9
BRANCH   6  25
HETATM   25  C7  UNL     1      -3.284   2.238   1.288  1.00  0.00     0.205 C 
BRANCH  25  26
HETATM   26  O1  UNL     1      -3.398   3.355   0.458  1.00  0.00    -0.396 OA
HETATM   27  H6  UNL     1      -3.280   4.148   1.060  1.00  0.00     0.209 HD
ENDBRANCH  25  26
ENDBRANCH   6  25
TORSDOF 4
