REMARK  7 active torsions:
REMARK  status: ('A' for Active; 'I' for Inactive)
REMARK    1  A    between atoms: C2_2  and  C3_3 
REMARK    2  A    between atoms: C6_6  and  O1_7 
REMARK    3  A    between atoms: O1_7  and  C7_8 
REMARK    4  A    between atoms: C7_8  and  C8_9 
REMARK    5  A    between atoms: C8_9  and  O2_10 
REMARK    6  A    between atoms: C10_12  and  C11_13 
REMARK    7  A    between atoms: C11_13  and  O3_14 
ROOT
HETATM    1  C3  UNL     1      -0.447   2.380   0.913  1.00  0.00    -0.028 A 
HETATM    2  C4  UNL     1      -0.400   1.424  -0.034  1.00  0.00     0.004 A 
HETATM    3  C5  UNL     1       0.934   0.898  -0.312  1.00  0.00     0.110 C 
HETATM    4  C6  UNL     1       1.098  -0.573  -0.358  1.00  0.00     0.082 C 
HETATM    5  C10 UNL     1       0.631  -1.828  -0.272  1.00  0.00     0.099 C 
HETATM    6  O4  UNL     1      -0.723  -2.104   0.006  1.00  0.00    -0.347 OA
HETATM    7  C12 UNL     1      -1.283  -3.367   0.126  1.00  0.00     0.202 C 
HETATM    8  C13 UNL     1      -2.742  -3.444   0.173  1.00  0.00    -0.002 C 
HETATM    9  C14 UNL     1      -3.798  -2.658   0.138  1.00  0.00    -0.002 C 
HETATM   10  C15 UNL     1      -3.720  -1.172   0.015  1.00  0.00     0.128 C 
HETATM   11  C16 UNL     1      -4.712  -0.618   1.015  1.00  0.00     0.039 C 
HETATM   12  N1  UNL     1      -4.047  -0.677  -1.291  1.00  0.00    -0.274 NA
HETATM   13  C17 UNL     1      -3.225   0.006  -2.014  1.00  0.00     0.229 C 
HETATM   14  N2  UNL     1      -1.958   0.273  -1.496  1.00  0.00    -0.224 NA
HETATM   15  C18 UNL     1      -1.710   1.135  -0.587  1.00  0.00     0.136 A 
HETATM   16  N3  UNL     1      -2.836   1.852  -0.098  1.00  0.00    -0.350 N 
HETATM   17  C19 UNL     1      -2.786   2.850   0.912  1.00  0.00     0.090 A 
HETATM   18  C20 UNL     1      -1.596   3.117   1.420  1.00  0.00     0.029 A 
HETATM   19  H25 UNL     1      -3.793   1.671  -0.480  1.00  0.00     0.166 HD
ENDROOT
BRANCH   4  20
HETATM   20  O1  UNL     1       2.481  -0.779  -0.647  1.00  0.00    -0.350 OA
BRANCH  20  21
HETATM   21  C7  UNL     1       3.496   0.106  -0.295  1.00  0.00     0.201 C 
BRANCH  21  22
HETATM   22  C8  UNL     1       4.820  -0.404  -0.793  1.00  0.00     0.193 C 
BRANCH  22  23
HETATM   23  O2  UNL     1       5.892   0.405  -0.494  1.00  0.00    -0.394 OA
HETATM   24  C9  UNL     1       5.797   1.668  -1.024  1.00  0.00     0.201 C 
ENDBRANCH  22  23
ENDBRANCH  21  22
ENDBRANCH  20  21
ENDBRANCH   4  20
BRANCH   5  25
HETATM   25  C11 UNL     1       1.395  -3.125  -0.441  1.00  0.00     0.231 C 
BRANCH  25  26
HETATM   26  O3  UNL     1       2.735  -2.896  -0.715  1.00  0.00    -0.394 OA
HETATM   27  H15 UNL     1       2.846  -2.839  -1.686  1.00  0.00     0.209 HD
ENDBRANCH  25  26
ENDBRANCH   5  25
BRANCH   1  28
HETATM   28  C2  UNL     1       0.806   2.800   1.568  1.00  0.00    -0.014 C 
HETATM   29  C1  UNL     1       0.963   3.711   2.509  1.00  0.00     0.032 C 
ENDBRANCH   1  28
TORSDOF 7
