REMARK  5 active torsions:
REMARK  status: ('A' for Active; 'I' for Inactive)
REMARK    1  A    between atoms: C13_15  and  O1_16 
REMARK    2  A    between atoms: O1_16  and  C14_17 
REMARK    3  A    between atoms: C14_17  and  C15_18 
REMARK    4  A    between atoms: C15_18  and  O2_19 
REMARK    5  A    between atoms: O2_19  and  C16_20 
ROOT
HETATM    1  C1  UNL     1      -5.924   2.821   1.508  1.00  0.00     0.017 C 
HETATM    2  C2  UNL     1      -5.014   2.108   1.030  1.00  0.00    -0.082 C 
HETATM    3  C3  UNL     1      -3.906   1.270   0.470  1.00  0.00    -0.003 C 
HETATM    4  C4  UNL     1      -3.748   0.122   1.185  1.00  0.00    -0.004 C 
HETATM    5  C5  UNL     1      -2.702  -0.869   0.807  1.00  0.00     0.054 C 
HETATM    6  C6  UNL     1      -2.353  -2.065   1.356  1.00  0.00     0.011 C 
HETATM    7  C7  UNL     1      -1.234  -2.554   0.502  1.00  0.00    -0.057 C 
HETATM    8  C8  UNL     1      -0.946  -1.697  -0.490  1.00  0.00     0.010 C 
HETATM    9  C9  UNL     1       0.079  -1.760  -1.572  1.00  0.00     0.188 C 
HETATM   10  N1  UNL     1      -0.073  -0.845  -2.638  1.00  0.00    -0.258 NA
HETATM   11  C10 UNL     1      -0.727   0.235  -2.688  1.00  0.00     0.293 C 
HETATM   12  N2  UNL     1      -1.500   1.088  -2.072  1.00  0.00    -0.416 NA
HETATM   13  C11 UNL     1      -2.352   1.645  -1.444  1.00  0.00     0.161 C 
HETATM   14  C12 UNL     1      -3.477   2.137  -0.648  1.00  0.00     0.107 C 
HETATM   15  C13 UNL     1       1.461  -1.612  -0.892  1.00  0.00     0.288 C 
HETATM   16  O3  UNL     1       1.474  -2.262   0.228  1.00  0.00    -0.357 OA
HETATM   17  C18 UNL     1       2.226  -3.008   0.968  1.00  0.00     0.197 C 
HETATM   18  C19 UNL     1       1.259  -3.441   2.134  1.00  0.00     0.194 C 
HETATM   19  O4  UNL     1       0.269  -4.149   1.612  1.00  0.00    -0.385 OA
HETATM   20  C20 UNL     1      -0.459  -3.796   0.586  1.00  0.00     0.201 C 
ENDROOT
BRANCH  15  21
HETATM   21  O1  UNL     1       1.485  -0.197  -0.494  1.00  0.00    -0.357 OA
BRANCH  21  22
HETATM   22  C14 UNL     1       2.544   0.397  -1.142  1.00  0.00     0.197 C 
BRANCH  22  23
HETATM   23  C15 UNL     1       2.637   1.841  -0.792  1.00  0.00     0.193 C 
BRANCH  23  24
HETATM   24  O2  UNL     1       2.820   2.008   0.577  1.00  0.00    -0.389 OA
BRANCH  24  25
HETATM   25  C16 UNL     1       2.914   3.355   0.913  1.00  0.00     0.163 C 
HETATM   26  C17 UNL     1       4.112   3.935   0.172  1.00  0.00     0.033 C 
ENDBRANCH  24  25
ENDBRANCH  23  24
ENDBRANCH  22  23
ENDBRANCH  21  22
ENDBRANCH  15  21
TORSDOF 5
