REMARK  6 active torsions:
REMARK  status: ('A' for Active; 'I' for Inactive)
REMARK    1  A    between atoms: C5_5  and  C6_6 
REMARK    2  A    between atoms: C7_7  and  C8_8 
REMARK    3  A    between atoms: C8_8  and  C10_14 
REMARK    4  A    between atoms: N1_9  and  N2_10 
REMARK    5  A    between atoms: N2_10  and  C9_11 
REMARK    6  A    between atoms: C9_11  and  N3_12 
ROOT
HETATM    1  C8  UNL     1      -1.985  -0.461  -0.027  1.00  0.00     0.081 C 
HETATM    2  N1  UNL     1      -2.722   0.629  -0.185  1.00  0.00    -0.194 NA
ENDROOT
BRANCH   1   3
HETATM    3  C7  UNL     1      -0.588  -0.123  -0.030  1.00  0.00     0.034 C 
HETATM    4  C6  UNL     1       0.639  -0.570   0.061  1.00  0.00     0.014 C 
BRANCH   4   5
HETATM    5  C5  UNL     1       1.981  -0.023   0.030  1.00  0.00    -0.036 A 
HETATM    6  C4  UNL     1       2.121   1.341  -0.138  1.00  0.00     0.012 A 
HETATM    7  C3  UNL     1       3.388   1.881  -0.170  1.00  0.00     0.007 A 
HETATM    8  C2  UNL     1       4.452   1.015  -0.031  1.00  0.00    -0.062 A 
HETATM    9  C1  UNL     1       5.844   1.521  -0.056  1.00  0.00     0.048 C 
HETATM   10  C17 UNL     1       4.265  -0.331   0.133  1.00  0.00     0.007 A 
HETATM   11  C16 UNL     1       3.018  -0.911   0.170  1.00  0.00     0.012 A 
ENDBRANCH   4   5
ENDBRANCH   1   3
BRANCH   1  12
HETATM   12  C10 UNL     1      -2.709  -1.706   0.110  1.00  0.00    -0.006 A 
HETATM   13  C11 UNL     1      -2.217  -2.975   0.286  1.00  0.00     0.014 A 
HETATM   14  C12 UNL     1      -2.952  -4.129   0.411  1.00  0.00     0.001 A 
HETATM   15  C13 UNL     1      -4.318  -3.992   0.353  1.00  0.00     0.000 A 
HETATM   16  C14 UNL     1      -4.912  -2.766   0.180  1.00  0.00     0.001 A 
HETATM   17  C15 UNL     1      -4.084  -1.681   0.066  1.00  0.00     0.014 A 
ENDBRANCH   1  12
BRANCH   2  18
HETATM   18  N2  UNL     1      -2.019   1.812  -0.314  1.00  0.00    -0.157 NA
HETATM   19  H8  UNL     1      -2.929   1.835   0.206  1.00  0.00     0.157 HD
BRANCH  18  20
HETATM   20  C9  UNL     1      -2.131   3.154   0.062  1.00  0.00     0.163 C 
HETATM   21  S1  UNL     1      -2.736   4.514   0.727  1.00  0.00    -0.046 SA
BRANCH  20  22
HETATM   22  N3  UNL     1      -0.958   3.758  -0.471  1.00  0.00    -0.380 N 
HETATM   23  H9  UNL     1      -0.160   4.213  -0.959  1.00  0.00     0.158 HD
HETATM   24  H10 UNL     1      -0.965   4.109  -1.473  1.00  0.00     0.158 HD
ENDBRANCH  20  22
ENDBRANCH  18  20
ENDBRANCH   2  18
TORSDOF 6
