REMARK  7 active torsions:
REMARK  status: ('A' for Active; 'I' for Inactive)
REMARK    1  A    between atoms: N1_1  and  C1_2 
REMARK    2  A    between atoms: C1_2  and  N2_4 
REMARK    3  A    between atoms: N2_4  and  N3_5 
REMARK    4  A    between atoms: C2_6  and  C3_7 
REMARK    5  A    between atoms: C2_6  and  C11_16 
REMARK    6  A    between atoms: C3_7  and  C4_8 
REMARK    7  A    between atoms: C4_8  and  C5_9 
ROOT
HETATM    1  N3  UNL     1       2.575   0.284   0.571  1.00  0.00    -0.172 NA
HETATM    2  C2  UNL     1       1.356  -0.112   0.266  1.00  0.00     0.087 C 
ENDROOT
BRANCH   2   3
HETATM    3  C3  UNL     1       0.246   0.746   0.553  1.00  0.00     0.035 C 
BRANCH   3   4
HETATM    4  C4  UNL     1      -0.952   1.251   0.696  1.00  0.00     0.017 C 
BRANCH   4   5
HETATM    5  C5  UNL     1      -2.307   0.793   0.463  1.00  0.00     0.003 A 
HETATM    6  C6  UNL     1      -2.810  -0.469   0.291  1.00  0.00     0.014 A 
HETATM    7  C7  UNL     1      -4.081  -0.857  -0.021  1.00  0.00     0.001 A 
HETATM    8  C8  UNL     1      -4.987   0.142  -0.185  1.00  0.00     0.003 A 
HETATM    9  C9  UNL     1      -4.632   1.457  -0.042  1.00  0.00     0.043 A 
HETATM   10  C10 UNL     1      -3.326   1.729   0.271  1.00  0.00     0.126 A 
HETATM   11  F1  UNL     1      -3.017   3.054   0.390  1.00  0.00    -0.205 F 
ENDBRANCH   4   5
ENDBRANCH   3   4
ENDBRANCH   2   3
BRANCH   2  12
HETATM   12  C11 UNL     1       1.401  -1.441  -0.361  1.00  0.00    -0.006 A 
HETATM   13  C12 UNL     1       0.377  -2.135  -0.930  1.00  0.00     0.014 A 
HETATM   14  C13 UNL     1       0.415  -3.403  -1.460  1.00  0.00     0.001 A 
HETATM   15  C14 UNL     1       1.620  -4.071  -1.425  1.00  0.00     0.000 A 
HETATM   16  C15 UNL     1       2.705  -3.461  -0.877  1.00  0.00     0.001 A 
HETATM   17  C16 UNL     1       2.544  -2.196  -0.380  1.00  0.00     0.014 A 
ENDBRANCH   2  12
BRANCH   1  18
HETATM   18  N2  UNL     1       2.783   1.533   1.170  1.00  0.00    -0.253 N 
HETATM   19  H3  UNL     1       2.547   1.430   2.165  1.00  0.00     0.191 HD
BRANCH  18  20
HETATM   20  C1  UNL     1       3.227   2.807   0.677  1.00  0.00     0.185 C 
HETATM   21  S1  UNL     1       3.552   2.762  -0.935  1.00  0.00    -0.040 SA
BRANCH  20  22
HETATM   22  N1  UNL     1       3.548   4.178   0.892  1.00  0.00    -0.375 N 
HETATM   23  H1  UNL     1       4.551   4.444   1.107  1.00  0.00     0.158 HD
HETATM   24  H2  UNL     1       2.816   4.918   0.842  1.00  0.00     0.158 HD
ENDBRANCH  20  22
ENDBRANCH  18  20
ENDBRANCH   1  18
TORSDOF 7
