REMARK  6 active torsions:
REMARK  status: ('A' for Active; 'I' for Inactive)
REMARK    1  A    between atoms: N1_1  and  C1_2 
REMARK    2  A    between atoms: C1_2  and  P1_4 
REMARK    3  A    between atoms: P1_4  and  N2_5 
REMARK    4  A    between atoms: C2_6  and  C3_7 
REMARK    5  A    between atoms: C2_6  and  C11_16 
REMARK    6  A    between atoms: C4_8  and  C5_9 
ROOT
HETATM    1  N2  UNL     1      -1.794   0.409  -0.441  1.00  0.00    -0.257 NA
HETATM    2  C2  UNL     1      -1.040  -0.495  -0.113  1.00  0.00     0.066 C 
ENDROOT
BRANCH   2   3
HETATM    3  C3  UNL     1       0.198   0.224  -0.206  1.00  0.00     0.033 C 
HETATM    4  C4  UNL     1       1.491   0.253  -0.097  1.00  0.00     0.017 C 
BRANCH   4   5
HETATM    5  C5  UNL     1       2.805   0.848  -0.147  1.00  0.00     0.003 A 
HETATM    6  C6  UNL     1       3.924   0.118   0.164  1.00  0.00     0.014 A 
HETATM    7  C7  UNL     1       5.098   0.797   0.076  1.00  0.00     0.001 A 
HETATM    8  C8  UNL     1       5.112   2.113  -0.299  1.00  0.00     0.003 A 
HETATM    9  C9  UNL     1       4.000   2.859  -0.614  1.00  0.00     0.043 A 
HETATM   10  C10 UNL     1       2.795   2.191  -0.532  1.00  0.00     0.126 A 
HETATM   11  F1  UNL     1       1.751   2.985  -0.855  1.00  0.00    -0.205 F 
ENDBRANCH   4   5
ENDBRANCH   2   3
BRANCH   2  12
HETATM   12  C11 UNL     1      -1.311  -1.859   0.252  1.00  0.00    -0.007 A 
HETATM   13  C12 UNL     1      -2.636  -2.223   0.232  1.00  0.00     0.014 A 
HETATM   14  C13 UNL     1      -3.112  -3.472   0.545  1.00  0.00     0.001 A 
HETATM   15  C14 UNL     1      -2.196  -4.435   0.907  1.00  0.00     0.000 A 
HETATM   16  C15 UNL     1      -0.849  -4.153   0.953  1.00  0.00     0.001 A 
HETATM   17  C16 UNL     1      -0.471  -2.874   0.621  1.00  0.00     0.014 A 
ENDBRANCH   2  12
BRANCH   1  18
HETATM   18  P1  UNL     1      -3.413   0.867  -0.720  1.00  0.00     0.062 P 
HETATM   19  H3  UNL     1      -4.377   0.613   0.344  1.00  0.00     0.089 HD
BRANCH  18  20
HETATM   20  C1  UNL     1      -3.465   2.684  -1.074  1.00  0.00     0.117 C 
HETATM   21  S1  UNL     1      -3.272   3.070  -2.647  1.00  0.00    -0.059 SA
BRANCH  20  22
HETATM   22  N1  UNL     1      -3.663   3.567   0.024  1.00  0.00    -0.388 N 
HETATM   23  H1  UNL     1      -3.403   4.299   0.705  1.00  0.00     0.157 HD
HETATM   24  H2  UNL     1      -4.538   3.656   0.594  1.00  0.00     0.157 HD
ENDBRANCH  20  22
ENDBRANCH  18  20
ENDBRANCH   1  18
TORSDOF 6
