REMARK  5 active torsions:
REMARK  status: ('A' for Active; 'I' for Inactive)
REMARK    1  A    between atoms: C2_2  and  N1_4 
REMARK    2  A    between atoms: N1_4  and  N2_5 
REMARK    3  A    between atoms: C3_6  and  C4_7 
REMARK    4  A    between atoms: C3_6  and  C12_15 
REMARK    5  A    between atoms: C4_7  and  C5_8 
ROOT
HETATM    1  N2  UNL     1      -0.289   0.080   1.074  1.00  0.00    -0.177 NA
HETATM    2  C3  UNL     1      -0.725  -0.736   0.184  1.00  0.00     0.069 C 
ENDROOT
BRANCH   2   3
HETATM    3  C4  UNL     1       0.283  -0.969  -0.874  1.00  0.00     0.100 C 
BRANCH   3   4
HETATM    4  C5  UNL     1       1.544  -0.277  -0.753  1.00  0.00    -0.052 A 
HETATM    5  C6  UNL     1       1.683   0.968  -1.325  1.00  0.00     0.008 A 
HETATM    6  C7  UNL     1       2.860   1.681  -1.245  1.00  0.00     0.007 A 
HETATM    7  C8  UNL     1       3.969   1.171  -0.579  1.00  0.00    -0.062 A 
HETATM    8  C9  UNL     1       5.246   1.924  -0.482  1.00  0.00     0.048 C 
HETATM    9  C10 UNL     1       3.844  -0.075  -0.000  1.00  0.00     0.007 A 
HETATM   10  C11 UNL     1       2.649  -0.779  -0.091  1.00  0.00     0.008 A 
ENDBRANCH   3   4
ENDBRANCH   2   3
BRANCH   2  11
HETATM   11  C12 UNL     1      -2.000  -1.469   0.012  1.00  0.00    -0.009 A 
HETATM   12  C13 UNL     1      -2.239  -2.312  -1.057  1.00  0.00     0.013 A 
HETATM   13  C14 UNL     1      -3.464  -2.935  -1.103  1.00  0.00     0.001 A 
HETATM   14  C15 UNL     1      -4.472  -2.794  -0.179  1.00  0.00     0.000 A 
HETATM   15  C16 UNL     1      -4.214  -1.946   0.884  1.00  0.00     0.001 A 
HETATM   16  C17 UNL     1      -2.991  -1.304   0.958  1.00  0.00     0.013 A 
ENDBRANCH   2  11
BRANCH   1  17
HETATM   17  N1  UNL     1      -0.936   0.533   2.199  1.00  0.00    -0.272 N 
HETATM   18  H4  UNL     1      -1.165   0.235   3.188  1.00  0.00     0.190 HD
BRANCH  17  19
HETATM   19  C2  UNL     1      -1.466   1.829   1.924  1.00  0.00     0.090 C 
HETATM   20  C1  UNL     1      -1.386   2.621   0.691  1.00  0.00     0.083 C 
HETATM   21  S1  UNL     1      -2.325   2.785   2.957  1.00  0.00    -0.064 SA
ENDBRANCH  17  19
ENDBRANCH   1  17
TORSDOF 5
