REMARK  6 active torsions:
REMARK  status: ('A' for Active; 'I' for Inactive)
REMARK    1  A    between atoms: N1_1  and  C1_2 
REMARK    2  A    between atoms: C1_2  and  N2_4 
REMARK    3  A    between atoms: N2_4  and  C2_5 
REMARK    4  A    between atoms: C2_5  and  C3_6 
REMARK    5  A    between atoms: C4_7  and  C5_8 
REMARK    6  A    between atoms: C15_19  and  N3_20 
ROOT
HETATM    1  C2  UNL     1      -1.209   0.633  -0.097  1.00  0.00     0.102 A 
HETATM    2  C11 UNL     1      -1.669  -0.779  -0.071  1.00  0.00     0.010 A 
HETATM    3  C12 UNL     1      -1.756  -1.669  -1.047  1.00  0.00    -0.001 A 
HETATM    4  C13 UNL     1      -1.345  -1.265  -2.386  1.00  0.00    -0.002 A 
HETATM    5  C14 UNL     1      -0.908  -0.020  -2.498  1.00  0.00     0.011 A 
HETATM    6  C15 UNL     1      -0.754   1.060  -1.490  1.00  0.00     0.276 A 
ENDROOT
BRANCH   1   7
HETATM    7  N2  UNL     1      -2.456   1.405   0.141  1.00  0.00    -0.353 N 
HETATM    8  H3  UNL     1      -2.988   2.070  -0.460  1.00  0.00     0.163 HD
BRANCH   7   9
HETATM    9  C1  UNL     1      -3.049   1.226   1.401  1.00  0.00     0.144 C 
HETATM   10  S1  UNL     1      -4.397   1.917   1.956  1.00  0.00    -0.048 SA
BRANCH   9  11
HETATM   11  N1  UNL     1      -2.703   0.442   2.530  1.00  0.00    -0.279 NA
HETATM   12  H1  UNL     1      -2.358   0.730   3.472  1.00  0.00     0.126 HD
HETATM   13  H2  UNL     1      -2.358   0.703   3.476  1.00  0.00     0.126 HD
ENDBRANCH   9  11
ENDBRANCH   7   9
ENDBRANCH   1   7
BRANCH   1  14
HETATM   14  C3  UNL     1      -0.162   0.966   0.863  1.00  0.00     0.011 C 
HETATM   15  C4  UNL     1       1.043   0.713   1.267  1.00  0.00     0.013 C 
BRANCH  15  16
HETATM   16  C5  UNL     1       2.067  -0.220   0.819  1.00  0.00     0.002 A 
HETATM   17  C6  UNL     1       1.978  -1.110  -0.225  1.00  0.00     0.014 A 
HETATM   18  C7  UNL     1       2.935  -1.989  -0.649  1.00  0.00     0.001 A 
HETATM   19  C8  UNL     1       4.129  -2.002   0.028  1.00  0.00     0.003 A 
HETATM   20  C9  UNL     1       4.309  -1.146   1.085  1.00  0.00     0.043 A 
HETATM   21  C10 UNL     1       3.291  -0.294   1.445  1.00  0.00     0.126 A 
HETATM   22  F1  UNL     1       3.529   0.526   2.496  1.00  0.00    -0.205 F 
ENDBRANCH  15  16
ENDBRANCH   1  14
BRANCH   6  23
HETATM   23  N3  UNL     1      -1.445   2.253  -1.947  1.00  0.00     0.089 N 
HETATM   24  H15 UNL     1      -1.919   2.090  -2.841  1.00  0.00     0.313 HD
HETATM   25  H16 UNL     1      -0.873   3.102  -1.862  1.00  0.00     0.313 HD
ENDBRANCH   6  23
TORSDOF 6
