REMARK  9 active torsions:
REMARK  status: ('A' for Active; 'I' for Inactive)
REMARK    1  A    between atoms: C2_2  and  C3_3 
REMARK       I    between atoms: C3_3  and  N1_5 
REMARK    2  A    between atoms: N1_5  and  C4_6 
REMARK    3  A    between atoms: C8_10  and  C9_11 
REMARK    4  A    between atoms: C9_11  and  N2_12 
REMARK    5  A    between atoms: N2_12  and  C10_13 
REMARK    6  A    between atoms: C11_14  and  N3_15 
REMARK    7  A    between atoms: N3_15  and  C12_16 
REMARK    8  A    between atoms: C12_16  and  C13_17 
REMARK    9  A    between atoms: C16_23  and  O2_24 
ROOT
HETATM    1  N2  UNL     1      -0.219   0.944  -0.549  1.00  0.00    -0.379 N 
HETATM    2  H10 UNL     1       0.525   1.491  -0.082  1.00  0.00     0.160 HD
ENDROOT
BRANCH   1   3
HETATM    3  C9  UNL     1      -0.730  -0.414  -0.523  1.00  0.00     0.158 C 
BRANCH   3   4
HETATM    4  C8  UNL     1      -0.080  -1.293   0.443  1.00  0.00    -0.038 A 
HETATM    5  C7  UNL     1      -0.560  -1.359   1.737  1.00  0.00     0.009 A 
HETATM    6  C6  UNL     1      -0.043  -2.150   2.739  1.00  0.00     0.003 A 
HETATM    7  C5  UNL     1       1.026  -2.940   2.461  1.00  0.00     0.029 A 
HETATM    8  C4  UNL     1       1.574  -2.936   1.181  1.00  0.00     0.035 A 
HETATM    9  C17 UNL     1       1.001  -2.116   0.232  1.00  0.00     0.038 A 
BRANCH   8  10
HETATM   10  N1  UNL     1       2.692  -3.770   0.899  1.00  0.00    -0.324 N 
HETATM   11  C3  UNL     1       3.995  -3.280   1.099  1.00  0.00     0.244 C 
HETATM   12  O1  UNL     1       4.461  -2.200   1.498  1.00  0.00    -0.268 OA
HETATM   13  H4  UNL     1       2.535  -4.737   0.546  1.00  0.00     0.169 HD
BRANCH  11  14
HETATM   14  C2  UNL     1       5.100  -4.194   0.787  1.00  0.00     0.064 C 
HETATM   15  C1  UNL     1       4.902  -5.437   0.332  1.00  0.00     0.017 C 
ENDBRANCH  11  14
ENDBRANCH   8  10
ENDBRANCH   3   4
ENDBRANCH   1   3
BRANCH   1  16
HETATM   16  C10 UNL     1      -0.935   1.751  -1.466  1.00  0.00     0.129 A 
HETATM   17  C11 UNL     1      -2.095   2.439  -1.112  1.00  0.00     0.155 A 
HETATM   18  N4  UNL     1      -2.739   3.188  -2.007  1.00  0.00    -0.222 NA
HETATM   19  C15 UNL     1      -2.326   3.329  -3.278  1.00  0.00     0.238 A 
HETATM   20  N5  UNL     1      -1.191   2.664  -3.646  1.00  0.00    -0.215 NA
HETATM   21  C16 UNL     1      -0.507   1.888  -2.754  1.00  0.00     0.208 A 
BRANCH  17  22
HETATM   22  N3  UNL     1      -2.575   2.309   0.240  1.00  0.00    -0.372 N 
HETATM   23  H11 UNL     1      -2.076   1.722   0.920  1.00  0.00     0.161 HD
BRANCH  22  24
HETATM   24  C12 UNL     1      -3.784   3.039   0.600  1.00  0.00     0.128 C 
BRANCH  24  25
HETATM   25  C13 UNL     1      -3.491   4.485   0.481  1.00  0.00     0.073 C 
HETATM   26  C14 UNL     1      -2.646   5.466   0.209  1.00  0.00     0.203 C 
HETATM   27 CL1  UNL     1      -0.983   5.506  -0.286  1.00  0.00    -0.262 Cl
ENDBRANCH  24  25
ENDBRANCH  22  24
ENDBRANCH  17  22
BRANCH  21  28
HETATM   28  O2  UNL     1       0.585   1.352  -3.392  1.00  0.00    -0.248 OA
HETATM   29 BR1  UNL     1       1.857   0.267  -2.602  1.00  0.00     0.107 Br
ENDBRANCH  21  28
ENDBRANCH   1  16
TORSDOF 9
