REMARK  7 active torsions:
REMARK  status: ('A' for Active; 'I' for Inactive)
REMARK    1  A    between atoms: O1_3  and  C2_4 
REMARK    2  A    between atoms: C3_5  and  C4_6 
REMARK    3  A    between atoms: C6_8  and  C7_9 
REMARK    4  A    between atoms: C7_9  and  N1_10 
REMARK    5  A    between atoms: N1_10  and  C8_11 
REMARK    6  A    between atoms: C11_16  and  N3_17 
REMARK    7  A    between atoms: N3_17  and  C12_18 
ROOT
HETATM    1  B1  UNL     1       9.043   4.010   0.613  1.00  0.00     0.233 B 
HETATM    2  C1  UNL     1       8.798   2.261   0.916  1.00  0.00    -0.108 C 
HETATM    3  O1  UNL     1       8.637   0.947   1.151  1.00  0.00    -0.290 OA
ENDROOT
BRANCH   3   4
HETATM    4  C2  UNL     1       8.198   0.076   0.130  1.00  0.00     0.119 A 
HETATM    5  C3  UNL     1       6.944  -0.289   0.106  1.00  0.00     0.107 A 
HETATM    6  O4  UNL     1       7.158  -1.054  -1.003  1.00  0.00    -0.342 OA
HETATM    7  C21 UNL     1       8.494  -0.711  -1.050  1.00  0.00     0.244 A 
BRANCH   5   8
HETATM    8  C4  UNL     1       5.753  -0.041   0.887  1.00  0.00    -0.028 C 
HETATM    9  C5  UNL     1       5.671   0.808   2.132  1.00  0.00     0.051 C 
HETATM   10  C6  UNL     1       4.492  -0.490   0.752  1.00  0.00     0.003 C 
BRANCH  10  11
HETATM   11  C7  UNL     1       4.205  -1.414  -0.385  1.00  0.00     0.166 C 
BRANCH  11  12
HETATM   12  N1  UNL     1       3.265  -0.750  -1.254  1.00  0.00    -0.219 N 
HETATM   13  H7  UNL     1       3.340  -0.563  -2.278  1.00  0.00     0.178 HD
BRANCH  12  14
HETATM   14  C8  UNL     1       2.005  -0.193  -0.914  1.00  0.00     0.724 A 
HETATM   15  N2  UNL     1       1.805   1.129  -0.785  1.00  0.00    -0.072 NA
HETATM   16  C9  UNL     1       0.544   1.535  -0.454  1.00  0.00     0.182 A 
HETATM   17  C10 UNL     1      -0.439   0.579  -0.272  1.00  0.00     0.180 A 
HETATM   18  F1  UNL     1      -1.715   0.940   0.056  1.00  0.00    -0.200 F 
HETATM   19  C11 UNL     1      -0.226  -0.769  -0.406  1.00  0.00     0.188 A 
HETATM   20  N6  UNL     1       1.046  -1.148  -0.738  1.00  0.00    -0.042 NA
BRANCH  19  21
HETATM   21  N3  UNL     1      -1.187  -1.804  -0.269  1.00  0.00    -0.323 N 
HETATM   22  H9  UNL     1      -0.984  -2.801  -0.275  1.00  0.00     0.169 HD
BRANCH  21  23
HETATM   23  C12 UNL     1      -2.491  -1.277  -0.115  1.00  0.00     0.131 A 
HETATM   24  C13 UNL     1      -2.945  -1.006  -1.407  1.00  0.00     0.053 A 
HETATM   25  C14 UNL     1      -4.235  -0.479  -1.609  1.00  0.00     0.044 A 
HETATM   26  C15 UNL     1      -4.990  -0.261  -0.461  1.00  0.00     0.116 A 
HETATM   27  C16 UNL     1      -4.501  -0.544   0.785  1.00  0.00     0.166 A 
HETATM   28  O3  UNL     1      -6.253   0.261  -0.724  1.00  0.00    -0.327 OA
HETATM   29  N4  UNL     1      -3.275  -1.041   0.945  1.00  0.00    -0.211 NA
HETATM   30  N5  UNL     1      -5.304  -0.354   1.960  1.00  0.00    -0.307 N 
HETATM   31  C17 UNL     1      -6.623   0.146   1.654  1.00  0.00     0.258 A 
HETATM   32  H12 UNL     1      -5.010  -0.539   2.927  1.00  0.00     0.170 HD
HETATM   33  O2  UNL     1      -7.457   0.400   2.559  1.00  0.00    -0.270 OA
HETATM   34  C18 UNL     1      -7.211   0.438   0.325  1.00  0.00     0.141 A 
HETATM   35  C19 UNL     1      -7.660   1.897   0.372  1.00  0.00     0.057 C 
HETATM   36  C20 UNL     1      -8.383  -0.500   0.132  1.00  0.00     0.057 C 
ENDBRANCH  21  23
ENDBRANCH  19  21
ENDBRANCH  12  14
ENDBRANCH  11  12
ENDBRANCH  10  11
ENDBRANCH   5   8
ENDBRANCH   3   4
TORSDOF 7
