REMARK  6 active torsions:
REMARK  status: ('A' for Active; 'I' for Inactive)
REMARK    1  A    between atoms: C3_3  and  C5_5 
REMARK       I    between atoms: C5_5  and  N1_7 
REMARK    2  A    between atoms: N1_7  and  C6_8 
REMARK    3  A    between atoms: C6_8  and  C7_9 
REMARK    4  A    between atoms: C7_9  and  N2_10 
REMARK    5  A    between atoms: N2_10  and  C8_11 
REMARK    6  A    between atoms: C9_13  and  C10_14 
ROOT
HETATM    1  N2  UNL     1       0.731  -1.419  -0.455  1.00  0.00    -0.367 N 
HETATM    2  H13 UNL     1       1.061  -2.195  -1.068  1.00  0.00     0.161 HD
ENDROOT
BRANCH   1   3
HETATM    3  C7  UNL     1      -0.651  -1.188  -0.106  1.00  0.00     0.141 C 
BRANCH   3   4
HETATM    4  C6  UNL     1      -1.200   0.121  -0.575  1.00  0.00     0.142 C 
BRANCH   4   5
HETATM    5  N1  UNL     1      -2.607   0.293  -0.187  1.00  0.00    -0.356 N 
HETATM    6  C5  UNL     1      -3.662  -0.572  -0.587  1.00  0.00     0.246 C 
HETATM    7  O1  UNL     1      -3.343  -1.558  -1.334  1.00  0.00    -0.268 OA
HETATM    8  H8  UNL     1      -2.920   1.092   0.427  1.00  0.00     0.162 HD
BRANCH   6   9
HETATM    9  C3  UNL     1      -5.040  -0.355  -0.174  1.00  0.00     0.002 C 
HETATM   10  C2  UNL     1      -5.466   0.620   0.585  1.00  0.00    -0.019 C 
HETATM   11  C1  UNL     1      -6.887   0.718   0.924  1.00  0.00     0.036 C 
HETATM   12  C4  UNL     1      -6.081  -1.308  -0.639  1.00  0.00     0.054 C 
ENDBRANCH   6   9
ENDBRANCH   4   5
ENDBRANCH   3   4
ENDBRANCH   1   3
BRANCH   1  13
HETATM   13  C8  UNL     1       1.848  -0.641  -0.028  1.00  0.00     0.167 A 
HETATM   14  N3  UNL     1       3.111  -0.620  -0.192  1.00  0.00    -0.224 NA
HETATM   15  C9  UNL     1       3.821   0.303   0.410  1.00  0.00     0.078 A 
HETATM   16  C15 UNL     1       3.181   1.335   1.286  1.00  0.00     0.085 A 
HETATM   17  S1  UNL     1       1.470   0.811   1.131  1.00  0.00    -0.062 SA
BRANCH  15  18
HETATM   18  C10 UNL     1       5.268   0.358   0.247  1.00  0.00     0.011 A 
HETATM   19  C11 UNL     1       6.055   1.310   0.860  1.00  0.00     0.017 A 
HETATM   20  C12 UNL     1       7.428   1.340   0.690  1.00  0.00     0.020 A 
HETATM   21  C13 UNL     1       8.080   0.418  -0.102  1.00  0.00     0.116 A 
HETATM   22  N4  UNL     1       7.315  -0.512  -0.700  1.00  0.00    -0.272 NA
HETATM   23  C14 UNL     1       5.981  -0.531  -0.527  1.00  0.00     0.130 A 
ENDBRANCH  15  18
ENDBRANCH   1  13
TORSDOF 6
