REMARK  0 active torsions:
REMARK  status: ('A' for Active; 'I' for Inactive)
ROOT
HETATM    1  C1  UNL     1      -6.050  -0.258  -0.199  1.00  0.00     0.050 C 
HETATM    2  C2  UNL     1      -5.142   0.428  -1.221  1.00  0.00     0.217 C 
HETATM    3  O1  UNL     1      -4.654   1.601  -0.548  1.00  0.00    -0.339 OA
HETATM    4  C3  UNL     1      -3.379   1.707  -0.092  1.00  0.00     0.067 C 
HETATM    5  C4  UNL     1      -2.994   2.927  -0.024  1.00  0.00     0.035 C 
HETATM    6  C5  UNL     1      -1.746   3.508   0.393  1.00  0.00     0.020 C 
HETATM    7  C6  UNL     1      -0.869   4.440   0.655  1.00  0.00     0.090 C 
HETATM    8  N1  UNL     1       0.456   4.577   1.125  1.00  0.00    -0.348 N 
HETATM    9  C7  UNL     1       1.703   4.213   0.565  1.00  0.00     0.187 A 
HETATM   10  N2  UNL     1       1.912   3.090  -0.144  1.00  0.00    -0.042 NA
HETATM   11  C8  UNL     1       3.152   2.820  -0.653  1.00  0.00     0.728 A 
HETATM   12  N3  UNL     1       4.188   3.653  -0.465  1.00  0.00    -0.072 NA
HETATM   13  C9  UNL     1       3.971   4.792   0.256  1.00  0.00     0.182 A 
HETATM   14  C10 UNL     1       2.720   5.114   0.798  1.00  0.00     0.180 A 
HETATM   15  F1  UNL     1       2.488   6.239   1.515  1.00  0.00    -0.200 F 
HETATM   16  N4  UNL     1       3.486   1.698  -1.406  1.00  0.00    -0.198 N 
HETATM   17  C11 UNL     1       4.016   0.463  -1.034  1.00  0.00     0.106 C 
HETATM   18  C12 UNL     1       4.674  -0.618  -0.774  1.00  0.00     0.017 C 
HETATM   19  C13 UNL     1       4.556  -1.904  -0.157  1.00  0.00    -0.001 C 
HETATM   20  C14 UNL     1       3.760  -2.708   0.478  1.00  0.00    -0.001 C 
HETATM   21  C15 UNL     1       3.772  -4.049   1.075  1.00  0.00     0.198 C 
HETATM   22  O2  UNL     1       2.819  -4.879   0.484  1.00  0.00    -0.363 OA
HETATM   23  C16 UNL     1       1.542  -4.396   0.613  1.00  0.00     0.340 C 
HETATM   24  O3  UNL     1       0.587  -5.245   0.013  1.00  0.00    -0.343 OA
HETATM   25  C17 UNL     1      -0.679  -4.625   0.219  1.00  0.00     0.342 C 
HETATM   26  O4  UNL     1      -0.649  -3.383  -0.385  1.00  0.00    -0.351 OA
HETATM   27  C18 UNL     1      -1.816  -2.651  -0.262  1.00  0.00     0.281 C 
HETATM   28  N5  UNL     1      -1.694  -1.374  -0.924  1.00  0.00    -0.212 NA
HETATM   29  N6  UNL     1      -2.795  -0.542  -0.772  1.00  0.00    -0.272 N 
HETATM   30  C19 UNL     1      -2.652   0.489   0.242  1.00  0.00     0.211 C 
HETATM   31  C20 UNL     1      -4.037  -0.538  -1.458  1.00  0.00     0.263 C 
HETATM   32  O5  UNL     1      -4.153  -1.447  -2.322  1.00  0.00    -0.269 OA
HETATM   33  H8  UNL     1       0.303   5.045   2.043  1.00  0.00     0.167 HD
HETATM   34  H10 UNL     1       3.259   1.949  -2.388  1.00  0.00     0.183 HD
HETATM   35  H23 UNL     1      -0.794  -0.903  -0.742  1.00  0.00     0.149 HD
ENDROOT
TORSDOF 0
