REMARK  5 active torsions:
REMARK  status: ('A' for Active; 'I' for Inactive)
REMARK    1  A    between atoms: O1_2  and  C2_3 
REMARK    2  A    between atoms: C4_5  and  C5_6 
REMARK    3  A    between atoms: N1_10  and  C8_11 
REMARK    4  A    between atoms: C19_27  and  O4_28 
REMARK    5  A    between atoms: C21_30  and  O5_31 
ROOT
HETATM    1  C5  UNL     1      -1.378   1.400   1.160  1.00  0.00     0.170 A 
HETATM    2  C6  UNL     1      -0.682   2.331   0.265  1.00  0.00     0.067 A 
HETATM    3  C7  UNL     1       0.637   2.306  -0.016  1.00  0.00     0.196 A 
HETATM    4  F1  UNL     1       1.426   3.095  -0.820  1.00  0.00    -0.186 F 
HETATM    5  N1  UNL     1       1.463   1.292   0.602  1.00  0.00    -0.267 N 
HETATM    6  C16 UNL     1       0.811   0.380   1.475  1.00  0.00     0.213 A 
HETATM    7  N4  UNL     1      -0.426   0.457   1.694  1.00  0.00    -0.270 NA
ENDROOT
BRANCH   1   8
HETATM    8  C4  UNL     1      -2.466   0.613   0.516  1.00  0.00    -0.018 A 
HETATM    9  C3  UNL     1      -2.520  -0.773   0.723  1.00  0.00     0.050 A 
HETATM   10  C2  UNL     1      -3.427  -1.661   0.210  1.00  0.00     0.104 A 
HETATM   11  C21 UNL     1      -4.405  -1.139  -0.605  1.00  0.00     0.135 A 
HETATM   12  C19 UNL     1      -4.412   0.216  -0.850  1.00  0.00     0.110 A 
HETATM   13  C17 UNL     1      -3.476   1.059  -0.308  1.00  0.00    -0.017 A 
HETATM   14  C18 UNL     1      -3.545   2.501  -0.594  1.00  0.00     0.052 C 
BRANCH  10  15
HETATM   15  O1  UNL     1      -3.371  -3.014   0.493  1.00  0.00    -0.353 OA
HETATM   16  C1  UNL     1      -2.369  -3.560   1.329  1.00  0.00     0.210 C 
ENDBRANCH  10  15
BRANCH  11  17
HETATM   17  O5  UNL     1      -5.345  -1.999  -1.147  1.00  0.00    -0.351 OA
HETATM   18  C22 UNL     1      -6.538  -2.269  -0.463  1.00  0.00     0.210 C 
ENDBRANCH  11  17
BRANCH  12  19
HETATM   19  O4  UNL     1      -5.400   0.777  -1.680  1.00  0.00    -0.352 OA
HETATM   20  C20 UNL     1      -6.596   1.215  -1.068  1.00  0.00     0.210 C 
ENDBRANCH  12  19
ENDBRANCH   1   8
BRANCH   5  21
HETATM   21  C8  UNL     1       2.858   1.090   0.445  1.00  0.00     0.139 A 
HETATM   22  C9  UNL     1       3.757   1.722   1.287  1.00  0.00     0.054 A 
HETATM   23  C10 UNL     1       5.136   1.553   1.170  1.00  0.00     0.044 A 
HETATM   24  C11 UNL     1       5.576   0.726   0.175  1.00  0.00     0.116 A 
HETATM   25  C12 UNL     1       4.698   0.086  -0.677  1.00  0.00     0.166 A 
HETATM   26  O3  UNL     1       6.938   0.562   0.063  1.00  0.00    -0.333 OA
HETATM   27  N2  UNL     1       3.398   0.287  -0.514  1.00  0.00    -0.210 NA
HETATM   28  N3  UNL     1       5.201  -0.770  -1.702  1.00  0.00    -0.307 N 
HETATM   29  C13 UNL     1       6.633  -0.916  -1.788  1.00  0.00     0.252 C 
HETATM   30  H9  UNL     1       4.568  -1.253  -2.344  1.00  0.00     0.170 HD
HETATM   31  O2  UNL     1       7.131  -1.573  -2.760  1.00  0.00    -0.270 OA
HETATM   32  C14 UNL     1       7.583  -0.342  -0.801  1.00  0.00     0.217 C 
HETATM   33  C15 UNL     1       8.129  -1.473   0.050  1.00  0.00     0.050 C 
ENDBRANCH   5  21
TORSDOF 5
