REMARK  7 active torsions:
REMARK  status: ('A' for Active; 'I' for Inactive)
REMARK    1  A    between atoms: O1_2  and  C2_3 
REMARK    2  A    between atoms: C4_5  and  N1_6 
REMARK       I    between atoms: N1_6  and  C5_7 
REMARK       I    between atoms: C5_7  and  N3_12 
REMARK    3  A    between atoms: N2_8  and  C6_9 
REMARK    4  A    between atoms: C6_9  and  C7_10 
REMARK    5  A    between atoms: N3_12  and  C8_13 
REMARK    6  A    between atoms: C15_22  and  O4_23 
REMARK    7  A    between atoms: C17_25  and  O5_26 
ROOT
HETATM    1  N1  UNL     1       0.237   0.618   0.829  1.00  0.00    -0.190 N 
HETATM    2  C5  UNL     1       1.279  -0.313   0.512  1.00  0.00     0.701 C 
HETATM    3  N2  UNL     1       0.984  -1.095  -0.418  1.00  0.00    -0.078 NA
HETATM    4  N3  UNL     1       2.490  -0.294   1.212  1.00  0.00    -0.211 N 
HETATM    5  H5  UNL     1       0.540   1.533   1.287  1.00  0.00     0.184 HD
HETATM    6  H8  UNL     1       2.442   0.041   2.221  1.00  0.00     0.178 HD
ENDROOT
BRANCH   1   7
HETATM    7  C4  UNL     1      -1.165   0.507   0.633  1.00  0.00     0.060 A 
HETATM    8  C3  UNL     1      -1.812  -0.589   0.114  1.00  0.00     0.070 A 
HETATM    9  C2  UNL     1      -3.171  -0.698  -0.069  1.00  0.00     0.106 A 
HETATM   10  C17 UNL     1      -3.993   0.350   0.281  1.00  0.00     0.135 A 
HETATM   11  C15 UNL     1      -3.383   1.468   0.805  1.00  0.00     0.112 A 
HETATM   12  C13 UNL     1      -2.022   1.556   0.979  1.00  0.00     0.002 A 
HETATM   13  C14 UNL     1      -1.433   2.815   1.560  1.00  0.00     0.054 C 
BRANCH   9  14
HETATM   14  O1  UNL     1      -3.774  -1.830  -0.598  1.00  0.00    -0.353 OA
HETATM   15  C1  UNL     1      -2.932  -2.908  -0.958  1.00  0.00     0.210 C 
ENDBRANCH   9  14
BRANCH  10  16
HETATM   16  O5  UNL     1      -5.351   0.333   0.136  1.00  0.00    -0.351 OA
HETATM   17  C18 UNL     1      -6.097   0.743  -0.968  1.00  0.00     0.210 C 
ENDBRANCH  10  16
BRANCH  11  18
HETATM   18  O4  UNL     1      -4.146   2.559   1.178  1.00  0.00    -0.352 OA
HETATM   19  C16 UNL     1      -4.479   3.622   0.341  1.00  0.00     0.210 C 
ENDBRANCH  11  18
ENDBRANCH   1   7
BRANCH   3  20
HETATM   20  C6  UNL     1       1.782  -2.103  -0.946  1.00  0.00     0.148 C 
BRANCH  20  21
HETATM   21  C7  UNL     1       1.360  -3.165  -0.271  1.00  0.00     0.461 C 
HETATM   22  F1  UNL     1       1.254  -4.427   0.146  1.00  0.00    -0.451 F 
ENDBRANCH  20  21
ENDBRANCH   3  20
BRANCH   4  23
HETATM   23  C8  UNL     1       3.750  -0.681   0.659  1.00  0.00     0.193 C 
HETATM   24  C9  UNL     1       4.052   0.242  -0.515  1.00  0.00     0.201 C 
HETATM   25  O2  UNL     1       5.104  -0.370  -1.194  1.00  0.00    -0.388 OA
HETATM   26  C10 UNL     1       6.265  -0.399  -0.466  1.00  0.00     0.175 C 
HETATM   27  C11 UNL     1       6.140  -0.769   0.968  1.00  0.00     0.107 C 
HETATM   28  C12 UNL     1       4.872  -0.434   1.620  1.00  0.00     0.154 C 
HETATM   29  O3  UNL     1       4.771  -0.015   2.782  1.00  0.00    -0.296 OA
ENDBRANCH   4  23
TORSDOF 7
