REMARK  4 active torsions:
REMARK  status: ('A' for Active; 'I' for Inactive)
REMARK    1  A    between atoms: O1_2  and  C2_3 
REMARK    2  A    between atoms: C6_7  and  O2_8 
REMARK    3  A    between atoms: C8_10  and  O3_11 
REMARK    4  A    between atoms: C12_17  and  C14_19 
ROOT
HETATM    1  C2  UNL     1      -3.195   1.398  -0.140  1.00  0.00     0.106 A 
HETATM    2  C3  UNL     1      -1.870   1.782   0.128  1.00  0.00     0.072 A 
HETATM    3  C4  UNL     1      -0.698   1.143  -0.215  1.00  0.00     0.082 A 
HETATM    4  C5  UNL     1      -0.812  -0.025  -0.910  1.00  0.00     0.100 A 
HETATM    5  C6  UNL     1      -2.077  -0.464  -1.213  1.00  0.00     0.133 A 
HETATM    6  C8  UNL     1      -3.272   0.196  -0.856  1.00  0.00     0.137 A 
HETATM    7  N1  UNL     1      -0.101  -1.112  -1.479  1.00  0.00    -0.330 N 
HETATM    8  C10 UNL     1       0.094  -1.818  -2.676  1.00  0.00     0.158 C 
HETATM    9  C11 UNL     1       0.629  -1.672  -0.429  1.00  0.00     0.162 C 
HETATM   10  N2  UNL     1       0.519  -2.526   0.452  1.00  0.00    -0.224 NA
HETATM   11  C12 UNL     1       1.768  -2.589   1.255  1.00  0.00     0.212 C 
HETATM   12  C13 UNL     1       2.580  -3.733   0.734  1.00  0.00     0.082 C 
HETATM   13  O5  UNL     1       2.413  -1.379   0.831  1.00  0.00    -0.308 OA
HETATM   14  C15 UNL     1       1.796  -0.909  -0.290  1.00  0.00     0.118 C 
HETATM   15  C16 UNL     1       2.385   0.046  -0.949  1.00  0.00     0.042 C 
HETATM   16  C17 UNL     1       3.351   1.044  -1.270  1.00  0.00     0.020 C 
HETATM   17  C18 UNL     1       4.377   1.425  -0.542  1.00  0.00     0.090 C 
HETATM   18  N3  UNL     1       4.602   0.830   0.732  1.00  0.00    -0.348 N 
HETATM   19  C19 UNL     1       3.538   1.555   1.456  1.00  0.00     0.187 A 
HETATM   20  N4  UNL     1       2.353   1.693   1.001  1.00  0.00    -0.042 NA
HETATM   21  C20 UNL     1       1.245   2.213   1.322  1.00  0.00     0.729 A 
HETATM   22  N5  UNL     1       1.308   2.815   2.505  1.00  0.00    -0.072 NA
HETATM   23  C21 UNL     1       2.482   2.812   3.212  1.00  0.00     0.182 A 
HETATM   24  C22 UNL     1       3.622   2.183   2.703  1.00  0.00     0.180 A 
HETATM   25  F1  UNL     1       4.847   2.110   3.312  1.00  0.00    -0.200 F 
HETATM   26  N6  UNL     1       0.319   1.964   0.300  1.00  0.00    -0.186 N 
HETATM   27  H21 UNL     1       4.934   0.289   1.531  1.00  0.00     0.167 HD
HETATM   28  H23 UNL     1       0.535   2.832  -0.229  1.00  0.00     0.184 HD
ENDROOT
BRANCH  11  29
HETATM   29  C14 UNL     1       1.483  -2.627   2.687  1.00  0.00     0.293 C 
HETATM   30  O4  UNL     1       0.898  -3.703   2.870  1.00  0.00    -0.302 OA
ENDBRANCH  11  29
BRANCH   5  31
HETATM   31  O2  UNL     1      -2.496  -1.609  -1.924  1.00  0.00    -0.351 OA
HETATM   32  C7  UNL     1      -2.775  -1.357  -3.318  1.00  0.00     0.210 C 
ENDBRANCH   5  31
BRANCH   6  33
HETATM   33  O3  UNL     1      -4.615  -0.164  -1.108  1.00  0.00    -0.351 OA
HETATM   34  C9  UNL     1      -5.341  -0.947  -0.184  1.00  0.00     0.210 C 
ENDBRANCH   6  33
BRANCH   1  35
HETATM   35  O1  UNL     1      -4.320   2.117   0.254  1.00  0.00    -0.353 OA
HETATM   36  C1  UNL     1      -4.248   3.312   0.967  1.00  0.00     0.210 C 
ENDBRANCH   1  35
TORSDOF 4
