REMARK  7 active torsions:
REMARK  status: ('A' for Active; 'I' for Inactive)
REMARK    1  A    between atoms: N1_1  and  C1_2 
REMARK    2  A    between atoms: C5_7  and  C6_8 
REMARK    3  A    between atoms: C6_8  and  O1_9 
REMARK    4  A    between atoms: C6_8  and  C7_10 
REMARK    5  A    between atoms: C8_11  and  C9_12 
REMARK    6  A    between atoms: C10_13  and  C11_14 
REMARK    7  A    between atoms: C16_22  and  C17_23 
ROOT
HETATM    1  C1  UNL     1       0.471  -1.368   0.953  1.00  0.00     0.130 A 
HETATM    2  N2  UNL     1      -0.812  -1.733   0.814  1.00  0.00    -0.235 NA
HETATM    3  C2  UNL     1      -1.736  -1.003   0.194  1.00  0.00     0.049 A 
HETATM    4  C3  UNL     1      -1.415   0.244  -0.380  1.00  0.00    -0.027 A 
HETATM    5  C4  UNL     1      -0.070   0.623  -0.233  1.00  0.00     0.023 A 
HETATM    6  C5  UNL     1       0.881  -0.161   0.423  1.00  0.00     0.020 A 
HETATM    7  C12 UNL     1      -2.143   1.308  -1.133  1.00  0.00     0.089 C 
HETATM    8  C13 UNL     1      -3.361   0.680  -1.685  1.00  0.00     0.116 C 
HETATM    9  N3  UNL     1      -4.318   0.629  -0.847  1.00  0.00    -0.196 NA
HETATM   10  N4  UNL     1      -5.534   0.074  -1.161  1.00  0.00    -0.315 N 
HETATM   11  C14 UNL     1      -5.480  -0.266   0.265  1.00  0.00     0.142 C 
HETATM   12  C15 UNL     1      -4.043  -0.320   0.706  1.00  0.00     0.033 C 
HETATM   13  C16 UNL     1      -3.187  -1.334   0.001  1.00  0.00     0.054 C 
HETATM   14  H15 UNL     1      -5.838   0.171  -2.152  1.00  0.00     0.182 HD
ENDROOT
BRANCH   6  15
HETATM   15  C6  UNL     1       2.299   0.249   0.572  1.00  0.00     0.177 C 
BRANCH  15  16
HETATM   16  O1  UNL     1       2.311   1.265   1.526  1.00  0.00    -0.387 OA
HETATM   17  H5  UNL     1       2.322   0.845   2.436  1.00  0.00     0.210 HD
ENDBRANCH  15  16
BRANCH  15  18
HETATM   18  C7  UNL     1       2.849   0.786  -0.702  1.00  0.00     0.009 C 
HETATM   19  C8  UNL     1       4.120   1.151  -0.745  1.00  0.00    -0.001 C 
BRANCH  19  20
HETATM   20  C9  UNL     1       4.973   1.034   0.422  1.00  0.00    -0.002 C 
HETATM   21  C10 UNL     1       6.249   1.371   0.477  1.00  0.00     0.004 C 
BRANCH  21  22
HETATM   22  C11 UNL     1       7.216   1.932  -0.489  1.00  0.00     0.249 C 
HETATM   23  F1  UNL     1       6.651   2.146  -1.727  1.00  0.00    -0.251 F 
ENDBRANCH  21  22
ENDBRANCH  19  20
ENDBRANCH  15  18
ENDBRANCH   6  15
BRANCH   1  24
HETATM   24  N1  UNL     1       1.347  -2.262   1.648  1.00  0.00    -0.383 N 
HETATM   25  H1  UNL     1       1.167  -2.510   2.664  1.00  0.00     0.157 HD
HETATM   26  H2  UNL     1       2.185  -2.684   1.146  1.00  0.00     0.157 HD
ENDBRANCH   1  24
BRANCH  13  27
HETATM   27  C17 UNL     1      -3.488  -2.662   0.726  1.00  0.00     0.125 C 
HETATM   28 CL1  UNL     1      -2.499  -3.967   0.069  1.00  0.00    -0.130 Cl
ENDBRANCH  13  27
TORSDOF 7
