REMARK  5 active torsions:
REMARK  status: ('A' for Active; 'I' for Inactive)
REMARK    1  A    between atoms: O1_2  and  C2_3 
REMARK    2  A    between atoms: C4_5  and  C5_6 
REMARK    3  A    between atoms: N1_8  and  C7_9 
REMARK    4  A    between atoms: C12_16  and  C13_17 
REMARK    5  A    between atoms: C20_28  and  N5_29 
ROOT
HETATM    1  C5  UNL     1      -0.136  -0.095  -0.652  1.00  0.00     0.024 A 
HETATM    2  C6  UNL     1       1.093  -0.752  -0.683  1.00  0.00     0.127 A 
HETATM    3  N1  UNL     1       2.015   0.207  -0.401  1.00  0.00    -0.275 N 
HETATM    4  N3  UNL     1       1.394   1.337  -0.217  1.00  0.00    -0.171 NA
HETATM    5  C12 UNL     1       0.064   1.237  -0.354  1.00  0.00     0.103 A 
ENDROOT
BRANCH   1   6
HETATM    6  C4  UNL     1      -1.322  -0.911  -0.925  1.00  0.00    -0.002 A 
HETATM    7  C3  UNL     1      -2.169  -0.897   0.169  1.00  0.00     0.054 A 
HETATM    8  C2  UNL     1      -3.367  -1.618   0.126  1.00  0.00     0.114 A 
HETATM    9  C20 UNL     1      -3.662  -2.326  -1.024  1.00  0.00     0.154 A 
HETATM   10  N4  UNL     1      -2.816  -2.318  -2.068  1.00  0.00    -0.240 NA
HETATM   11  C19 UNL     1      -1.663  -1.633  -2.047  1.00  0.00     0.131 A 
BRANCH   8  12
HETATM   12  O1  UNL     1      -4.338  -1.734   1.097  1.00  0.00    -0.352 OA
HETATM   13  C1  UNL     1      -4.138  -1.047   2.321  1.00  0.00     0.210 C 
ENDBRANCH   8  12
BRANCH   9  14
HETATM   14  N5  UNL     1      -4.844  -3.112  -1.226  1.00  0.00    -0.382 N 
HETATM   15  H19 UNL     1      -5.418  -3.085  -2.099  1.00  0.00     0.157 HD
HETATM   16  H20 UNL     1      -5.288  -3.802  -0.556  1.00  0.00     0.157 HD
ENDBRANCH   9  14
ENDBRANCH   1   6
BRANCH   5  17
HETATM   17  C13 UNL     1      -1.050   2.172  -0.258  1.00  0.00     0.042 A 
HETATM   18  C14 UNL     1      -1.687   2.408  -1.460  1.00  0.00     0.048 A 
HETATM   19 CL1  UNL     1      -1.246   1.695  -3.001  1.00  0.00    -0.083 Cl
HETATM   20  C15 UNL     1      -2.778   3.278  -1.521  1.00  0.00     0.028 A 
HETATM   21  C16 UNL     1      -3.165   3.869  -0.336  1.00  0.00     0.046 A 
HETATM   22  C17 UNL     1      -2.548   3.653   0.880  1.00  0.00     0.139 A 
HETATM   23  F1  UNL     1      -2.940   4.237   2.026  1.00  0.00    -0.204 F 
HETATM   24  C18 UNL     1      -1.462   2.778   0.911  1.00  0.00     0.086 A 
HETATM   25 CL2  UNL     1      -0.579   2.405   2.390  1.00  0.00    -0.080 Cl
ENDBRANCH   5  17
BRANCH   3  26
HETATM   26  C7  UNL     1       3.444   0.025  -0.317  1.00  0.00     0.113 C 
HETATM   27  C8  UNL     1       4.074   0.865   0.770  1.00  0.00     0.057 C 
HETATM   28  C9  UNL     1       5.062   0.042   1.566  1.00  0.00     0.271 C 
HETATM   29  N2  UNL     1       5.959  -0.579   0.623  1.00  0.00     0.083 N 
HETATM   30  C10 UNL     1       5.247  -1.657  -0.015  1.00  0.00     0.271 C 
HETATM   31  H11 UNL     1       6.218   0.123  -0.089  1.00  0.00     0.315 HD
HETATM   32  C11 UNL     1       3.766  -1.439  -0.140  1.00  0.00     0.057 C 
ENDBRANCH   3  26
TORSDOF 5
