REMARK  9 active torsions:
REMARK  status: ('A' for Active; 'I' for Inactive)
REMARK    1  A    between atoms: C5_6  and  N2_7 
REMARK    2  A    between atoms: N2_7  and  C6_8 
REMARK    3  A    between atoms: C7_9  and  C8_10 
REMARK    4  A    between atoms: C10_13  and  N4_14 
REMARK    5  A    between atoms: C11_15  and  O1_16 
REMARK    6  A    between atoms: O1_16  and  C12_17 
REMARK    7  A    between atoms: C14_20  and  O2_21 
REMARK    8  A    between atoms: O2_21  and  C15_22 
REMARK    9  A    between atoms: C16_23  and  C17_24 
ROOT
HETATM    1  C8  UNL     1       1.076  -1.033   0.486  1.00  0.00    -0.000 A 
HETATM    2  C9  UNL     1       1.862  -2.033   1.021  1.00  0.00     0.131 A 
HETATM    3  N3  UNL     1       1.248  -3.209   1.307  1.00  0.00    -0.245 NA
HETATM    4  C10 UNL     1      -0.064  -3.401   1.084  1.00  0.00     0.134 A 
HETATM    5  C11 UNL     1      -0.903  -2.441   0.552  1.00  0.00     0.116 A 
HETATM    6  C21 UNL     1      -0.269  -1.234   0.259  1.00  0.00     0.054 A 
ENDROOT
BRANCH   1   7
HETATM    7  C7  UNL     1       1.610   0.295   0.125  1.00  0.00     0.039 A 
HETATM    8  C6  UNL     1       2.694   0.853  -0.394  1.00  0.00     0.136 A 
HETATM    9  N5  UNL     1       2.127   2.146  -0.280  1.00  0.00    -0.242 NA
HETATM   10  C22 UNL     1       1.050   1.653   0.230  1.00  0.00     0.135 A 
BRANCH   8  11
HETATM   11  N2  UNL     1       3.948   0.396  -0.885  1.00  0.00    -0.367 N 
HETATM   12  H11 UNL     1       3.951  -0.554  -1.340  1.00  0.00     0.161 HD
BRANCH  11  13
HETATM   13  C5  UNL     1       5.178   1.181  -0.777  1.00  0.00     0.117 C 
HETATM   14  C2  UNL     1       5.483   1.437   0.663  1.00  0.00     0.239 C 
HETATM   15  C1  UNL     1       5.205   2.870   1.069  1.00  0.00     0.045 C 
HETATM   16  N1  UNL     1       6.863   1.085   0.908  1.00  0.00     0.089 N 
HETATM   17  C3  UNL     1       7.127   0.003  -0.016  1.00  0.00     0.272 C 
HETATM   18  H5  UNL     1       6.942   0.791   1.907  1.00  0.00     0.316 HD
HETATM   19  C4  UNL     1       6.330   0.339  -1.259  1.00  0.00     0.057 C 
ENDBRANCH  11  13
ENDBRANCH   8  11
ENDBRANCH   1   7
BRANCH   5  20
HETATM   20  O1  UNL     1      -2.222  -2.753   0.369  1.00  0.00    -0.310 OA
BRANCH  20  21
HETATM   21  C12 UNL     1      -3.189  -1.907  -0.150  1.00  0.00     0.078 A 
HETATM   22  C13 UNL     1      -3.968  -1.293   0.725  1.00  0.00     0.097 A 
HETATM   23 CL1  UNL     1      -3.798  -1.526   2.451  1.00  0.00    -0.079 Cl
HETATM   24  C14 UNL     1      -5.009  -0.399   0.247  1.00  0.00     0.095 A 
HETATM   25  C18 UNL     1      -5.112  -0.255  -1.065  1.00  0.00     0.013 A 
HETATM   26  C19 UNL     1      -4.306  -0.885  -2.140  1.00  0.00     0.037 A 
HETATM   27  C20 UNL     1      -3.226  -1.797  -1.625  1.00  0.00     0.071 A 
BRANCH  24  28
HETATM   28  O2  UNL     1      -5.858   0.275   1.112  1.00  0.00    -0.322 OA
BRANCH  28  29
HETATM   29  C15 UNL     1      -6.786   1.177   0.671  1.00  0.00     0.141 C 
HETATM   30  C16 UNL     1      -6.630   2.251  -0.084  1.00  0.00     0.029 C 
BRANCH  30  31
HETATM   31  C17 UNL     1      -7.587   3.262  -0.593  1.00  0.00     0.251 C 
HETATM   32  F1  UNL     1      -7.515   3.211  -1.984  1.00  0.00    -0.251 F 
ENDBRANCH  30  31
ENDBRANCH  28  29
ENDBRANCH  24  28
ENDBRANCH  20  21
ENDBRANCH   5  20
BRANCH   4  33
HETATM   33  N4  UNL     1      -0.582  -4.679   1.428  1.00  0.00    -0.285 NA
HETATM   34  H13 UNL     1      -0.606  -5.167   0.499  1.00  0.00     0.125 HD
HETATM   35  H14 UNL     1      -0.859  -5.611   1.070  1.00  0.00     0.125 HD
ENDBRANCH   4  33
TORSDOF 9
