REMARK  5 active torsions:
REMARK  status: ('A' for Active; 'I' for Inactive)
REMARK    1  A    between atoms: C2_2  and  O1_3 
REMARK    2  A    between atoms: C2_2  and  C15_21 
REMARK    3  A    between atoms: O1_3  and  C3_4 
REMARK    4  A    between atoms: C6_9  and  C7_10 
REMARK    5  A    between atoms: N4_13  and  C9_14 
ROOT
HETATM    1  C3  UNL     1       1.508  -1.657  -2.278  1.00  0.00     0.259 A 
HETATM    2  N1  UNL     1       2.109  -2.812  -2.975  1.00  0.00    -0.354 N 
HETATM    3  C4  UNL     1       1.776  -4.187  -3.073  1.00  0.00     0.204 A 
HETATM    4  N2  UNL     1       0.700  -4.483  -2.436  1.00  0.00    -0.256 NA
HETATM    5  C5  UNL     1      -0.027  -3.489  -1.727  1.00  0.00     0.130 A 
HETATM    6  C6  UNL     1       0.297  -2.191  -1.628  1.00  0.00     0.021 A 
HETATM    7  H6  UNL     1       2.953  -2.388  -3.462  1.00  0.00     0.163 HD
ENDROOT
BRANCH   1   8
HETATM    8  O1  UNL     1       2.382  -1.232  -1.280  1.00  0.00    -0.353 OA
BRANCH   8   9
HETATM    9  C2  UNL     1       2.772   0.078  -1.344  1.00  0.00     0.157 C 
HETATM   10  C1  UNL     1       4.296   0.076  -1.609  1.00  0.00     0.045 C 
BRANCH   9  11
HETATM   11  C15 UNL     1       2.637   0.682   0.004  1.00  0.00     0.017 A 
HETATM   12  C16 UNL     1       2.662  -0.140   1.114  1.00  0.00     0.044 A 
HETATM   13 CL1  UNL     1       2.848  -1.885   0.983  1.00  0.00    -0.084 Cl
HETATM   14  C17 UNL     1       2.542   0.358   2.395  1.00  0.00     0.028 A 
HETATM   15  C18 UNL     1       2.392   1.736   2.554  1.00  0.00     0.046 A 
HETATM   16  C19 UNL     1       2.366   2.568   1.439  1.00  0.00     0.138 A 
HETATM   17  F1  UNL     1       2.225   3.917   1.497  1.00  0.00    -0.204 F 
HETATM   18  C20 UNL     1       2.487   2.062   0.160  1.00  0.00     0.083 A 
HETATM   19 CL2  UNL     1       2.460   3.075  -1.267  1.00  0.00    -0.080 Cl
ENDBRANCH   9  11
ENDBRANCH   8   9
ENDBRANCH   1   8
BRANCH   6  20
HETATM   20  C7  UNL     1      -0.671  -1.444  -0.846  1.00  0.00     0.012 A 
HETATM   21  C8  UNL     1      -1.784  -1.897  -0.176  1.00  0.00     0.152 A 
HETATM   22  N3  UNL     1      -2.430  -0.876   0.406  1.00  0.00    -0.184 NA
HETATM   23  N4  UNL     1      -1.781   0.242   0.144  1.00  0.00    -0.276 N 
HETATM   24  C14 UNL     1      -0.720  -0.088  -0.610  1.00  0.00     0.126 A 
BRANCH  23  25
HETATM   25  C9  UNL     1      -2.239   1.525   0.641  1.00  0.00     0.113 C 
HETATM   26  C10 UNL     1      -2.292   1.522   2.146  1.00  0.00     0.057 C 
HETATM   27  C11 UNL     1      -3.571   0.881   2.631  1.00  0.00     0.271 C 
HETATM   28  N5  UNL     1      -4.706   1.679   2.240  1.00  0.00     0.083 N 
HETATM   29  C12 UNL     1      -4.431   2.551   1.116  1.00  0.00     0.271 C 
HETATM   30  H15 UNL     1      -5.498   1.029   2.034  1.00  0.00     0.315 HD
HETATM   31  C13 UNL     1      -3.596   1.816   0.064  1.00  0.00     0.057 C 
ENDBRANCH  23  25
ENDBRANCH   6  20
TORSDOF 5
