REMARK  10 active torsions:
REMARK  status: ('A' for Active; 'I' for Inactive)
REMARK    1  A    between atoms: N1_3  and  C3_4 
REMARK    2  A    between atoms: C8_11  and  O1_12 
REMARK    3  A    between atoms: O1_12  and  C9_13 
REMARK    4  A    between atoms: C9_13  and  O2_14 
REMARK    5  A    between atoms: N4_17  and  C12_18 
REMARK    6  A    between atoms: C12_18  and  N5_19 
REMARK    7  A    between atoms: C12_18  and  C13_20 
REMARK    8  A    between atoms: C16_23  and  O3_24 
REMARK    9  A    between atoms: O3_24  and  C17_25 
REMARK   10  A    between atoms: C17_25  and  C19_27 
ROOT
HETATM    1  C1  UNL     1      -1.652   1.835  -1.241  1.00  0.00     0.064 C 
HETATM    2  C2  UNL     1      -1.706   0.682  -0.607  1.00  0.00     0.099 C 
HETATM    3  N1  UNL     1      -2.685  -0.313  -0.836  1.00  0.00    -0.316 N 
HETATM    4  C10 UNL     1      -2.195  -1.541  -0.246  1.00  0.00     0.152 C 
HETATM    5  C11 UNL     1      -0.861  -1.213   0.372  1.00  0.00     0.147 C 
HETATM    6  N4  UNL     1      -0.799   0.253   0.401  1.00  0.00    -0.333 N 
ENDROOT
BRANCH   6   7
HETATM    7  C12 UNL     1       0.021   1.042   1.278  1.00  0.00     0.354 C 
BRANCH   7   8
HETATM    8  N5  UNL     1      -0.179   2.454   1.032  1.00  0.00     0.106 N 
HETATM    9  H13 UNL     1       0.669   2.916   0.607  1.00  0.00     0.316 HD
HETATM   10  H14 UNL     1      -0.345   2.991   1.930  1.00  0.00     0.316 HD
ENDBRANCH   7   8
BRANCH   7  11
HETATM   11  C13 UNL     1       1.478   0.702   1.115  1.00  0.00    -0.006 A 
HETATM   12  C14 UNL     1       1.942   0.586  -0.177  1.00  0.00     0.014 A 
HETATM   13  C15 UNL     1       3.258   0.278  -0.445  1.00  0.00     0.037 A 
HETATM   14  C16 UNL     1       4.165   0.073   0.573  1.00  0.00     0.069 A 
HETATM   15  C21 UNL     1       3.692   0.191   1.888  1.00  0.00     0.037 A 
HETATM   16  C22 UNL     1       2.355   0.504   2.160  1.00  0.00     0.014 A 
BRANCH  14  17
HETATM   17  O3  UNL     1       5.495  -0.236   0.595  1.00  0.00    -0.346 OA
BRANCH  17  18
HETATM   18  C17 UNL     1       6.229  -0.414  -0.568  1.00  0.00     0.124 C 
HETATM   19  C18 UNL     1       6.778  -1.840  -0.545  1.00  0.00     0.040 C 
BRANCH  18  20
HETATM   20  C19 UNL     1       7.403   0.569  -0.661  1.00  0.00     0.027 C 
HETATM   21  C20 UNL     1       8.302   0.333   0.529  1.00  0.00     0.007 C 
ENDBRANCH  18  20
ENDBRANCH  17  18
ENDBRANCH  14  17
ENDBRANCH   7  11
ENDBRANCH   6   7
BRANCH   3  22
HETATM   22  C3  UNL     1      -3.939  -0.234  -1.503  1.00  0.00     0.145 A 
HETATM   23  N2  UNL     1      -3.896   0.141  -2.813  1.00  0.00    -0.223 NA
HETATM   24  C4  UNL     1      -5.039   0.249  -3.547  1.00  0.00     0.236 A 
HETATM   25  N3  UNL     1      -6.251  -0.016  -2.981  1.00  0.00    -0.238 NA
HETATM   26  C5  UNL     1      -6.338  -0.392  -1.681  1.00  0.00     0.105 A 
HETATM   27  C6  UNL     1      -5.173  -0.498  -0.946  1.00  0.00     0.044 A 
HETATM   28  C8  UNL     1      -7.000  -0.800  -0.442  1.00  0.00     0.102 A 
HETATM   29  C7  UNL     1      -5.885  -0.902   0.261  1.00  0.00     0.057 A 
BRANCH  28  30
HETATM   30  O1  UNL     1      -8.371  -0.962  -0.287  1.00  0.00    -0.324 OA
BRANCH  30  31
HETATM   31  C9  UNL     1      -8.997  -0.497   0.912  1.00  0.00     0.341 C 
BRANCH  31  32
HETATM   32  O2  UNL     1     -10.383  -0.742   0.883  1.00  0.00    -0.377 OA
HETATM   33  H7  UNL     1     -10.907   0.091   0.763  1.00  0.00     0.212 HD
ENDBRANCH  31  32
ENDBRANCH  30  31
ENDBRANCH  28  30
ENDBRANCH   3  22
TORSDOF 10
