REMARK  2 active torsions:
REMARK  status: ('A' for Active; 'I' for Inactive)
REMARK    1  A    between atoms: C2_2  and  N1_3 
REMARK    2  A    between atoms: N5_21  and  N6_22 
ROOT
HETATM    1  N1  UNL     1      -2.622  -1.153   0.639  1.00  0.00     0.089 N 
HETATM    2  C3  UNL     1      -3.524  -0.278   1.310  1.00  0.00     0.291 C 
HETATM    3  C4  UNL     1      -3.487   1.165   0.959  1.00  0.00     0.152 C 
HETATM    4  N2  UNL     1      -2.154   1.723   0.886  1.00  0.00    -0.387 N 
HETATM    5  C5  UNL     1      -1.514   2.943   0.588  1.00  0.00     0.085 C 
HETATM    6  C6  UNL     1      -0.475   3.164  -0.174  1.00  0.00     0.019 C 
HETATM    7  C7  UNL     1       0.464   2.483  -0.997  1.00  0.00     0.025 C 
HETATM    8  C8  UNL     1       0.577   1.231  -1.259  1.00  0.00     0.004 C 
HETATM    9  C9  UNL     1       0.592  -0.188  -1.466  1.00  0.00     0.038 C 
HETATM   10  B1  UNL     1      -0.291  -1.055  -0.410  1.00  0.00     0.359 B 
HETATM   11  N3  UNL     1       0.522  -1.804   0.671  1.00  0.00    -0.363 NA
HETATM   12  C10 UNL     1       1.796  -1.697   0.767  1.00  0.00     0.088 C 
HETATM   13  C11 UNL     1       2.944  -1.058   0.176  1.00  0.00     0.141 C 
HETATM   14  C12 UNL     1       2.621   0.413  -0.013  1.00  0.00     0.055 C 
HETATM   15  C13 UNL     1       3.056   0.898  -1.169  1.00  0.00     0.141 C 
HETATM   16  N4  UNL     1       1.910   1.497  -1.813  1.00  0.00    -0.342 N 
HETATM   17  O1  UNL     1       4.345   0.489  -0.967  1.00  0.00    -0.320 OA
HETATM   18  C14 UNL     1       4.856   0.194   0.328  1.00  0.00     0.286 C 
HETATM   19  N5  UNL     1       4.161  -0.943   0.966  1.00  0.00    -0.217 NA
HETATM   20  C15 UNL     1      -1.593  -0.356   0.072  1.00  0.00     0.225 C 
HETATM   21  C16 UNL     1      -1.248   0.638   1.205  1.00  0.00     0.150 C 
HETATM   22  H18 UNL     1       2.516   1.939  -2.487  1.00  0.00     0.167 HD
ENDROOT
BRANCH  19  23
HETATM   23  N6  UNL     1       4.925  -2.090   0.929  1.00  0.00    -0.266 NA
HETATM   24  H21 UNL     1       4.880  -2.581   0.023  1.00  0.00     0.137 HD
HETATM   25  H22 UNL     1       4.577  -2.713   1.692  1.00  0.00     0.137 HD
ENDBRANCH  19  23
BRANCH   1  26
HETATM   26  C2  UNL     1      -3.195  -2.156  -0.190  1.00  0.00     0.267 C 
HETATM   27  C1  UNL     1      -3.871  -1.673  -1.433  1.00  0.00     0.037 C 
ENDBRANCH   1  26
TORSDOF 2
