REMARK  7 active torsions:
REMARK  status: ('A' for Active; 'I' for Inactive)
REMARK    1  A    between atoms: N1_1  and  C1_2 
REMARK    2  A    between atoms: C1_2  and  C2_3 
REMARK    3  A    between atoms: C4_6  and  C5_7 
REMARK    4  A    between atoms: N4_10  and  C7_11 
REMARK    5  A    between atoms: C14_19  and  O1_20 
REMARK    6  A    between atoms: O1_20  and  C15_21 
REMARK    7  A    between atoms: C15_21  and  C16_22 
ROOT
HETATM    1  C2  UNL     1      -1.954  -1.098  -1.781  1.00  0.00     0.095 A 
HETATM    2  N2  UNL     1      -0.708  -1.523  -2.140  1.00  0.00    -0.260 NA
HETATM    3  C3  UNL     1       0.357  -1.295  -1.387  1.00  0.00     0.129 A 
HETATM    4  C4  UNL     1       0.237  -0.617  -0.212  1.00  0.00    -0.003 A 
HETATM    5  C13 UNL     1      -1.005  -0.171   0.183  1.00  0.00     0.052 A 
HETATM    6  C14 UNL     1      -2.129  -0.396  -0.583  1.00  0.00     0.096 A 
ENDROOT
BRANCH   4   7
HETATM    7  C5  UNL     1       1.410  -0.391   0.587  1.00  0.00     0.012 A 
HETATM    8  C6  UNL     1       1.593  -0.275   1.936  1.00  0.00     0.152 A 
HETATM    9  N3  UNL     1       2.894  -0.074   2.211  1.00  0.00    -0.184 NA
HETATM   10  N4  UNL     1       3.568  -0.056   1.065  1.00  0.00    -0.276 N 
HETATM   11  C12 UNL     1       2.693  -0.245   0.082  1.00  0.00     0.126 A 
BRANCH  10  12
HETATM   12  C7  UNL     1       4.985   0.130   0.976  1.00  0.00     0.113 C 
HETATM   13  C8  UNL     1       5.407   1.567   0.764  1.00  0.00     0.057 C 
HETATM   14  C9  UNL     1       6.890   1.607   1.157  1.00  0.00     0.271 C 
HETATM   15  N5  UNL     1       7.651   0.576   0.512  1.00  0.00     0.083 N 
HETATM   16  C10 UNL     1       6.959  -0.125  -0.531  1.00  0.00     0.271 C 
HETATM   17  H12 UNL     1       8.473   1.065   0.045  1.00  0.00     0.315 HD
HETATM   18  C11 UNL     1       5.618  -0.666  -0.143  1.00  0.00     0.057 C 
ENDBRANCH  10  12
ENDBRANCH   4   7
BRANCH   6  19
HETATM   19  O1  UNL     1      -3.429  -0.037  -0.360  1.00  0.00    -0.344 OA
BRANCH  19  20
HETATM   20  C15 UNL     1      -3.946   0.667   0.737  1.00  0.00     0.218 C 
BRANCH  20  21
HETATM   21  C16 UNL     1      -5.431   0.854   0.581  1.00  0.00     0.012 A 
HETATM   22  C17 UNL     1      -5.901   1.826  -0.295  1.00  0.00     0.044 A 
HETATM   23 CL1  UNL     1      -4.717   2.771  -1.161  1.00  0.00    -0.084 Cl
HETATM   24  C18 UNL     1      -7.259   2.008  -0.448  1.00  0.00     0.027 A 
HETATM   25  C19 UNL     1      -8.199   1.268   0.231  1.00  0.00     0.046 A 
HETATM   26  C20 UNL     1      -7.723   0.307   1.097  1.00  0.00     0.138 A 
HETATM   27  F1  UNL     1      -8.558  -0.483   1.819  1.00  0.00    -0.204 F 
HETATM   28  C21 UNL     1      -6.356   0.096   1.276  1.00  0.00     0.082 A 
HETATM   29 CL2  UNL     1      -5.727  -1.129   2.376  1.00  0.00    -0.080 Cl
ENDBRANCH  20  21
ENDBRANCH  19  20
ENDBRANCH   6  19
BRANCH   1  30
HETATM   30  C1  UNL     1      -3.105  -1.414  -2.696  1.00  0.00     0.328 C 
BRANCH  30  31
HETATM   31  N1  UNL     1      -3.812  -2.537  -2.076  1.00  0.00     0.084 N 
HETATM   32  H1  UNL     1      -3.891  -2.327  -1.048  1.00  0.00     0.313 HD
HETATM   33  H2  UNL     1      -3.165  -3.372  -2.120  1.00  0.00     0.313 HD
ENDBRANCH  30  31
ENDBRANCH   1  30
TORSDOF 7
