REMARK  2 active torsions:
REMARK  status: ('A' for Active; 'I' for Inactive)
REMARK    1  A    between atoms: C2_2  and  C3_3 
REMARK    2  A    between atoms: C3_3  and  O1_4 
ROOT
HETATM    1  C3  UNL     1      -1.686   0.231   1.097  1.00  0.00     0.138 C 
HETATM    2  C4  UNL     1      -1.256  -0.883   0.176  1.00  0.00    -0.042 C 
HETATM    3  C5  UNL     1      -1.906  -1.407  -0.846  1.00  0.00    -0.017 C 
HETATM    4  C6  UNL     1      -3.058  -1.039  -1.711  1.00  0.00     0.056 C 
HETATM    5  C7  UNL     1      -2.848   0.347  -2.228  1.00  0.00    -0.006 C 
HETATM    6  C8  UNL     1      -2.658   1.530  -1.722  1.00  0.00     0.081 C 
HETATM    7  N1  UNL     1      -2.197   2.066  -0.488  1.00  0.00    -0.374 N 
HETATM    8  C9  UNL     1      -1.324   1.571   0.532  1.00  0.00     0.247 C 
HETATM    9  N2  UNL     1      -0.003   1.509   0.020  1.00  0.00    -0.276 NA
HETATM   10  C10 UNL     1       0.816   2.450  -0.087  1.00  0.00     0.086 C 
HETATM   11  C11 UNL     1       1.980   1.749  -0.680  1.00  0.00     0.046 C 
HETATM   12  C12 UNL     1       2.915   1.339   0.439  1.00  0.00     0.007 C 
HETATM   13  C13 UNL     1       4.029   0.450  -0.092  1.00  0.00     0.019 C 
HETATM   14  C14 UNL     1       3.439  -0.843  -0.636  1.00  0.00     0.113 C 
HETATM   15  N3  UNL     1       2.824  -1.548   0.426  1.00  0.00    -0.421 N 
HETATM   16  C15 UNL     1       2.059  -2.695   0.125  1.00  0.00     0.114 C 
HETATM   17  C16 UNL     1       0.724  -2.303  -0.584  1.00  0.00     0.023 C 
HETATM   18  C17 UNL     1       0.022  -1.483   0.399  1.00  0.00     0.039 C 
HETATM   19  H10 UNL     1      -2.619   3.028  -0.348  1.00  0.00     0.161 HD
HETATM   20  H21 UNL     1       2.698  -1.092   1.325  1.00  0.00     0.153 HD
ENDROOT
BRANCH   1  21
HETATM   21  C2  UNL     1      -3.111   0.115   1.493  1.00  0.00     0.009 C 
HETATM   22  C1  UNL     1      -3.397   0.834   2.581  1.00  0.00     0.010 C 
ENDBRANCH   1  21
BRANCH   1  23
HETATM   23  O1  UNL     1      -0.925   0.105   2.260  1.00  0.00    -0.377 OA
HETATM   24  H4  UNL     1      -1.223  -0.583   2.875  1.00  0.00     0.211 HD
ENDBRANCH   1  23
TORSDOF 2
