REMARK  0 active torsions:
REMARK  status: ('A' for Active; 'I' for Inactive)
ROOT
HETATM    1  C1  UNL     1      -3.831   0.251   0.051  1.00  0.00     0.146 C 
HETATM    2  N1  UNL     1      -2.559  -0.395   0.328  1.00  0.00    -0.376 N 
HETATM    3  C2  UNL     1      -2.240  -1.799   0.654  1.00  0.00     0.124 C 
HETATM    4  C3  UNL     1      -1.644  -2.670  -0.500  1.00  0.00     0.058 C 
HETATM    5  C4  UNL     1      -0.242  -2.311  -0.727  1.00  0.00    -0.056 A 
HETATM    6  C5  UNL     1       1.061  -2.740  -1.030  1.00  0.00     0.009 A 
HETATM    7  C6  UNL     1       2.206  -1.944  -0.986  1.00  0.00     0.030 A 
HETATM    8  C7  UNL     1       2.268  -0.615  -0.643  1.00  0.00     0.040 A 
HETATM    9  C8  UNL     1       1.111  -0.008  -0.322  1.00  0.00     0.035 A 
HETATM   10  C9  UNL     1       0.170  -1.036  -0.457  1.00  0.00     0.021 A 
HETATM   11  C10 UNL     1       0.416   1.199   0.188  1.00  0.00     0.346 A 
HETATM   12  N2  UNL     1       0.767   2.091   1.034  1.00  0.00    -0.232 NA
HETATM   13  C11 UNL     1       2.107   1.964   1.667  1.00  0.00     0.226 C 
HETATM   14  N3  UNL     1       3.285   1.572   1.204  1.00  0.00    -0.264 NA
HETATM   15  C12 UNL     1       4.071   1.105   0.142  1.00  0.00     0.272 C 
HETATM   16  N4  UNL     1       3.593  -0.099  -0.586  1.00  0.00    -0.371 N 
HETATM   17  N5  UNL     1      -0.859   1.855   0.141  1.00  0.00     0.163 N 
HETATM   18  C13 UNL     1      -1.192   3.254   0.026  1.00  0.00     0.318 C 
HETATM   19  C14 UNL     1      -1.769   0.821   0.216  1.00  0.00     0.351 A 
HETATM   20  O1  UNL     1      -0.653   1.004   0.297  1.00  0.00     0.000 OA
HETATM   21  H14 UNL     1       4.194  -0.738  -1.145  1.00  0.00     0.161 HD
ENDROOT
TORSDOF 0
