REMARK  10 active torsions:
REMARK  status: ('A' for Active; 'I' for Inactive)
REMARK    1  A    between atoms: N1_2  and  C2_3 
REMARK    2  A    between atoms: C2_3  and  C3_4 
REMARK    3  A    between atoms: C3_4  and  N2_5 
REMARK    4  A    between atoms: N2_5  and  C4_6 
REMARK    5  A    between atoms: C9_13  and  O1_14 
REMARK    6  A    between atoms: C11_16  and  O2_17 
REMARK    7  A    between atoms: O2_17  and  C12_18 
REMARK    8  A    between atoms: C12_18  and  C13_19 
REMARK    9  A    between atoms: C13_19  and  C14_20 
REMARK   10  A    between atoms: C14_20  and  N5_21 
ROOT
HETATM    1  C4  UNL     1      -3.567  -1.049   0.590  1.00  0.00     0.137 A 
HETATM    2  N3  UNL     1      -3.672  -1.729   1.758  1.00  0.00    -0.224 NA
HETATM    3  C5  UNL     1      -2.689  -2.512   2.245  1.00  0.00     0.235 A 
HETATM    4  N4  UNL     1      -1.519  -2.655   1.563  1.00  0.00    -0.242 NA
HETATM    5  C6  UNL     1      -1.336  -2.006   0.384  1.00  0.00     0.085 A 
HETATM    6  C7  UNL     1      -2.370  -1.219  -0.069  1.00  0.00     0.040 A 
HETATM    7  C8  UNL     1      -1.945  -0.631  -1.341  1.00  0.00     0.052 A 
HETATM    8  C9  UNL     1      -0.705  -1.056  -1.627  1.00  0.00     0.081 A 
HETATM    9  C11 UNL     1      -0.182  -1.968  -0.578  1.00  0.00     0.230 A 
ENDROOT
BRANCH   9  10
HETATM   10  O2  UNL     1       0.976  -1.492   0.004  1.00  0.00    -0.373 OA
BRANCH  10  11
HETATM   11  C12 UNL     1       2.007  -2.417  -0.126  1.00  0.00     0.171 C 
BRANCH  11  12
HETATM   12  C13 UNL     1       3.296  -1.926   0.501  1.00  0.00     0.056 C 
BRANCH  12  13
HETATM   13  C14 UNL     1       3.720  -0.646  -0.179  1.00  0.00     0.274 C 
BRANCH  13  14
HETATM   14  N5  UNL     1       4.959  -0.117   0.385  1.00  0.00     0.088 N 
HETATM   15  C15 UNL     1       4.673   0.322   1.711  1.00  0.00     0.272 C 
HETATM   16  C16 UNL     1       5.643   1.290   2.307  1.00  0.00     0.030 C 
HETATM   17  C17 UNL     1       5.826   2.447   1.341  1.00  0.00     0.003 C 
HETATM   18  C18 UNL     1       6.457   1.825   0.092  1.00  0.00     0.030 C 
HETATM   19  C19 UNL     1       5.429   0.914  -0.494  1.00  0.00     0.272 C 
ENDBRANCH  13  14
ENDBRANCH  12  13
ENDBRANCH  11  12
ENDBRANCH  10  11
ENDBRANCH   9  10
BRANCH   8  20
HETATM   20  O1  UNL     1       0.141  -0.785  -2.721  1.00  0.00    -0.357 OA
HETATM   21  C10 UNL     1      -0.506  -0.216  -3.869  1.00  0.00     0.209 C 
ENDBRANCH   8  20
BRANCH   1  22
HETATM   22  N2  UNL     1      -4.618  -0.229   0.098  1.00  0.00    -0.372 N 
HETATM   23  H9  UNL     1      -4.468   0.262  -0.802  1.00  0.00     0.161 HD
BRANCH  22  24
HETATM   24  C3  UNL     1      -5.828  -0.106   0.845  1.00  0.00     0.151 C 
BRANCH  24  25
HETATM   25  C2  UNL     1      -6.842   0.807   0.185  1.00  0.00     0.288 C 
BRANCH  25  26
HETATM   26  N1  UNL     1      -6.341   2.143   0.011  1.00  0.00     0.080 N 
HETATM   27  C1  UNL     1      -7.356   2.991  -0.627  1.00  0.00     0.306 C 
HETATM   28  H4  UNL     1      -6.072   2.605   0.899  1.00  0.00     0.315 HD
ENDBRANCH  25  26
ENDBRANCH  24  25
ENDBRANCH  22  24
ENDBRANCH   1  22
TORSDOF 10
