REMARK  5 active torsions:
REMARK  status: ('A' for Active; 'I' for Inactive)
REMARK    1  A    between atoms: C2_2  and  C6_8 
REMARK    2  A    between atoms: C3_3  and  C4_4 
REMARK    3  A    between atoms: C6_8  and  C7_9 
REMARK       I    between atoms: C7_9  and  N1_11 
REMARK    4  A    between atoms: N1_11  and  S1_12 
REMARK    5  A    between atoms: S1_12  and  C8_15 
ROOT
HETATM    1  C7  UNL     1       1.184   1.058  -0.012  1.00  0.00     0.235 C 
HETATM    2  O1  UNL     1       1.143   0.212  -0.960  1.00  0.00    -0.272 OA
HETATM    3  N1  UNL     1       0.158   2.045   0.025  1.00  0.00    -0.250 N 
HETATM    4  H8  UNL     1       0.261   2.705   0.835  1.00  0.00     0.181 HD
ENDROOT
BRANCH   3   5
HETATM    5  S1  UNL     1      -1.048   2.019  -1.203  1.00  0.00     0.265 S 
HETATM    6  O2  UNL     1      -1.533   3.378  -1.585  1.00  0.00    -0.200 OA
HETATM    7  O3  UNL     1      -0.441   1.402  -2.443  1.00  0.00    -0.200 OA
BRANCH   5   8
HETATM    8  C8  UNL     1      -2.414   1.015  -0.727  1.00  0.00     0.080 A 
HETATM    9  C9  UNL     1      -3.445   1.665  -0.038  1.00  0.00     0.026 A 
HETATM   10  C10 UNL     1      -4.545   0.922   0.360  1.00  0.00     0.008 A 
HETATM   11  C11 UNL     1      -4.619  -0.436   0.080  1.00  0.00    -0.062 A 
HETATM   12  C12 UNL     1      -5.779  -1.292   0.483  1.00  0.00     0.048 C 
HETATM   13  C13 UNL     1      -3.590  -1.056  -0.601  1.00  0.00     0.008 A 
HETATM   14  C14 UNL     1      -2.483  -0.337  -1.008  1.00  0.00     0.026 A 
ENDBRANCH   5   8
ENDBRANCH   3   5
BRANCH   1  15
HETATM   15  C6  UNL     1       2.322   0.867   0.915  1.00  0.00     0.137 C 
BRANCH  15  16
HETATM   16  C2  UNL     1       3.079  -0.300   0.421  1.00  0.00    -0.075 C 
HETATM   17  C1  UNL     1       2.399  -1.613   0.325  1.00  0.00     0.044 C 
HETATM   18  C3  UNL     1       4.345  -0.157   0.074  1.00  0.00     0.007 C 
BRANCH  18  19
HETATM   19  C4  UNL     1       5.214  -1.192  -0.423  1.00  0.00     0.055 C 
HETATM   20  C5  UNL     1       6.492  -1.076  -0.779  1.00  0.00     0.185 C 
HETATM   21  F1  UNL     1       7.182  -2.172  -1.236  1.00  0.00    -0.193 F 
HETATM   22 CL1  UNL     1       7.217   0.512  -0.635  1.00  0.00    -0.051 Cl
ENDBRANCH  18  19
ENDBRANCH  15  16
ENDBRANCH   1  15
TORSDOF 5
