REMARK  6 active torsions:
REMARK  status: ('A' for Active; 'I' for Inactive)
REMARK    1  A    between atoms: O1_2  and  C2_3 
REMARK    2  A    between atoms: C5_6  and  C6_7 
REMARK    3  A    between atoms: C6_7  and  N1_8 
REMARK    4  A    between atoms: C7_9  and  O2_10 
REMARK    5  A    between atoms: O2_10  and  C8_11 
REMARK    6  A    between atoms: C10_13  and  C11_14 
ROOT
HETATM    1  C8  UNL     1       0.123  -0.503   0.135  1.00  0.00     0.173 A 
HETATM    2  C9  UNL     1       1.347   0.145  -0.065  1.00  0.00     0.090 A 
HETATM    3  C10 UNL     1       2.563  -0.227   0.496  1.00  0.00     0.072 A 
HETATM    4  N2  UNL     1       2.567  -1.320   1.315  1.00  0.00    -0.241 NA
HETATM    5  C17 UNL     1       1.395  -1.955   1.519  1.00  0.00     0.236 A 
HETATM    6  N3  UNL     1       0.259  -1.549   0.951  1.00  0.00    -0.217 NA
ENDROOT
BRANCH   1   7
HETATM    7  O2  UNL     1      -0.827   0.156  -0.580  1.00  0.00    -0.291 OA
BRANCH   7   8
HETATM    8  C7  UNL     1      -2.137  -0.170  -0.677  1.00  0.00     0.088 A 
HETATM    9  C5  UNL     1      -2.796  -1.254  -1.199  1.00  0.00     0.004 A 
HETATM   10  C4  UNL     1      -4.189  -1.321  -1.166  1.00  0.00     0.014 A 
HETATM   11  C3  UNL     1      -4.985  -0.334  -0.623  1.00  0.00     0.037 A 
HETATM   12  C2  UNL     1      -4.333   0.763  -0.093  1.00  0.00     0.070 A 
HETATM   13  C18 UNL     1      -2.939   0.839  -0.122  1.00  0.00     0.074 A 
BRANCH   9  14
HETATM   14  C6  UNL     1      -2.032  -2.344  -1.794  1.00  0.00     0.308 C 
BRANCH  14  15
HETATM   15  N1  UNL     1      -1.481  -3.305  -0.874  1.00  0.00     0.082 N 
HETATM   16  H8  UNL     1      -1.486  -4.289  -1.211  1.00  0.00     0.313 HD
HETATM   17  H9  UNL     1      -1.900  -3.216   0.089  1.00  0.00     0.313 HD
ENDBRANCH  14  15
ENDBRANCH   9  14
BRANCH  12  18
HETATM   18  O1  UNL     1      -5.137   1.733   0.442  1.00  0.00    -0.356 OA
HETATM   19  C1  UNL     1      -4.752   2.930   1.035  1.00  0.00     0.210 C 
ENDBRANCH  12  18
ENDBRANCH   7   8
ENDBRANCH   1   7
BRANCH   3  20
HETATM   20  C11 UNL     1       3.846   0.427   0.304  1.00  0.00    -0.005 A 
HETATM   21  C12 UNL     1       4.948  -0.081   0.940  1.00  0.00     0.017 A 
HETATM   22  C13 UNL     1       6.202   0.508   0.796  1.00  0.00     0.045 A 
HETATM   23  C14 UNL     1       6.398   1.607   0.025  1.00  0.00     0.138 A 
HETATM   24  F1  UNL     1       7.620   2.182  -0.117  1.00  0.00    -0.204 F 
HETATM   25  C15 UNL     1       5.297   2.123  -0.617  1.00  0.00     0.073 A 
HETATM   26 CL1  UNL     1       5.493   3.537  -1.623  1.00  0.00    -0.081 Cl
HETATM   27  C16 UNL     1       4.069   1.533  -0.466  1.00  0.00     0.040 A 
ENDBRANCH   3  20
TORSDOF 6
