REMARK  6 active torsions:
REMARK  status: ('A' for Active; 'I' for Inactive)
REMARK    1  A    between atoms: N1_1  and  S1_2 
REMARK    2  A    between atoms: S1_2  and  P1_4 
REMARK    3  A    between atoms: S1_2  and  C9_15 
REMARK    4  A    between atoms: P1_4  and  C1_5 
REMARK    5  A    between atoms: C1_5  and  C2_7 
REMARK    6  A    between atoms: C2_7  and  C3_8 
ROOT
HETATM    1  S1  UNL     1      -2.251  -1.392  -1.008  1.00  0.00     0.068 S 
HETATM    2  O1  UNL     1      -1.743  -1.053  -2.401  1.00  0.00    -0.245 OA
ENDROOT
BRANCH   1   3
HETATM    3  N1  UNL     1      -3.121  -2.884  -1.032  1.00  0.00    -0.255 NA
HETATM    4  H1  UNL     1      -2.766  -3.509  -1.783  1.00  0.00     0.133 HD
HETATM    5  H2  UNL     1      -3.014  -3.405  -0.125  1.00  0.00     0.133 HD
ENDBRANCH   1   3
BRANCH   1   6
HETATM    6  P1  UNL     1      -0.706  -1.612   0.116  1.00  0.00     0.109 P 
BRANCH   6   7
HETATM    7  C1  UNL     1       0.847  -0.649  -0.226  1.00  0.00     0.175 C 
HETATM    8  O2  UNL     1       0.873   0.258  -1.071  1.00  0.00    -0.291 OA
BRANCH   7   9
HETATM    9  C2  UNL     1       1.983  -1.092   0.605  1.00  0.00     0.123 C 
BRANCH   9  10
HETATM   10  C3  UNL     1       3.240  -0.382   0.393  1.00  0.00    -0.051 A 
HETATM   11  C4  UNL     1       4.217  -0.715  -0.496  1.00  0.00     0.010 A 
HETATM   12  C5  UNL     1       5.391  -0.019  -0.667  1.00  0.00     0.043 A 
HETATM   13  C6  UNL     1       5.635   1.111   0.103  1.00  0.00     0.116 A 
HETATM   14  F1  UNL     1       6.717   1.920   0.081  1.00  0.00    -0.206 F 
HETATM   15  C7  UNL     1       4.685   1.504   1.022  1.00  0.00     0.043 A 
HETATM   16  C8  UNL     1       3.518   0.764   1.153  1.00  0.00     0.010 A 
ENDBRANCH   9  10
ENDBRANCH   7   9
ENDBRANCH   6   7
ENDBRANCH   1   6
BRANCH   1  17
HETATM   17  C9  UNL     1      -3.198  -0.080  -0.374  1.00  0.00     0.038 A 
HETATM   18  C10 UNL     1      -3.968   0.688  -1.229  1.00  0.00     0.021 A 
HETATM   19  C11 UNL     1      -4.749   1.753  -0.780  1.00  0.00     0.001 A 
HETATM   20  C12 UNL     1      -4.696   1.985   0.586  1.00  0.00     0.000 A 
HETATM   21  C13 UNL     1      -3.953   1.266   1.508  1.00  0.00     0.001 A 
HETATM   22  C14 UNL     1      -3.212   0.231   0.974  1.00  0.00     0.021 A 
ENDBRANCH   1  17
TORSDOF 6
