REMARK  4 active torsions:
REMARK  status: ('A' for Active; 'I' for Inactive)
REMARK    1  A    between atoms: C6_6  and  S1_7 
REMARK    2  A    between atoms: S1_7  and  N1_10 
REMARK       I    between atoms: N1_10  and  C7_11 
REMARK    3  A    between atoms: C7_11  and  C8_13 
REMARK    4  A    between atoms: C8_13  and  C9_14 
ROOT
HETATM    1  N1  UNL     1      -0.404  -0.894  -1.836  1.00  0.00    -0.250 N 
HETATM    2  C7  UNL     1      -1.222  -0.513  -0.736  1.00  0.00     0.235 C 
HETATM    3  O3  UNL     1      -1.007  -0.926   0.441  1.00  0.00    -0.272 OA
HETATM    4  H6  UNL     1      -0.554  -0.571  -2.822  1.00  0.00     0.181 HD
ENDROOT
BRANCH   1   5
HETATM    5  S1  UNL     1       0.901  -1.962  -1.432  1.00  0.00     0.261 S 
HETATM    6  O1  UNL     1       0.512  -2.851  -0.277  1.00  0.00    -0.200 OA
HETATM    7  O2  UNL     1       1.164  -2.922  -2.582  1.00  0.00    -0.200 OA
BRANCH   5   8
HETATM    8  C6  UNL     1       2.346  -1.069  -1.010  1.00  0.00     0.061 A 
HETATM    9  C5  UNL     1       3.129  -0.813  -2.043  1.00  0.00     0.021 A 
HETATM   10  C4  UNL     1       4.377  -0.078  -1.880  1.00  0.00     0.002 A 
HETATM   11  C3  UNL     1       4.795   0.373  -0.695  1.00  0.00     0.007 A 
HETATM   12  C2  UNL     1       3.910   0.076   0.426  1.00  0.00    -0.063 A 
HETATM   13  C1  UNL     1       4.270   0.497   1.630  1.00  0.00     0.019 C 
HETATM   14  C15 UNL     1       2.620  -0.661   0.385  1.00  0.00     0.090 A 
ENDBRANCH   5   8
ENDBRANCH   1   5
BRANCH   2  15
HETATM   15  C8  UNL     1      -2.362   0.401  -1.002  1.00  0.00     0.142 C 
BRANCH  15  16
HETATM   16  C9  UNL     1      -3.124   0.714   0.215  1.00  0.00    -0.049 A 
HETATM   17  C10 UNL     1      -4.181  -0.115   0.540  1.00  0.00     0.011 A 
HETATM   18  C11 UNL     1      -4.986   0.052   1.649  1.00  0.00     0.043 A 
HETATM   19  C12 UNL     1      -4.698   1.123   2.475  1.00  0.00     0.116 A 
HETATM   20  F1  UNL     1      -5.461   1.311   3.559  1.00  0.00    -0.206 F 
HETATM   21  C13 UNL     1      -3.644   1.998   2.204  1.00  0.00     0.043 A 
HETATM   22  C14 UNL     1      -2.889   1.764   1.080  1.00  0.00     0.011 A 
ENDBRANCH  15  16
ENDBRANCH   2  15
TORSDOF 4
