REMARK  5 active torsions:
REMARK  status: ('A' for Active; 'I' for Inactive)
REMARK    1  A    between atoms: C8_8  and  S1_9 
REMARK    2  A    between atoms: S1_9  and  N1_11 
REMARK    3  A    between atoms: N1_11  and  C9_12 
REMARK    4  A    between atoms: C9_12  and  C10_13 
REMARK    5  A    between atoms: C10_13  and  C11_14 
ROOT
HETATM    1  N1  UNL     1       0.296  -1.292  -1.278  1.00  0.00    -0.238 NA
HETATM    2  H12 UNL     1      -0.275  -2.068  -0.915  1.00  0.00     0.137 HD
ENDROOT
BRANCH   1   3
HETATM    3  S1  UNL     1      -0.684   0.110  -1.490  1.00  0.00     0.121 S 
HETATM    4  O1  UNL     1      -1.262   0.211  -2.892  1.00  0.00    -0.236 OA
BRANCH   3   5
HETATM    5  C8  UNL     1      -1.978   0.083  -0.256  1.00  0.00     0.028 C 
HETATM    6  C2  UNL     1      -2.898  -1.053  -0.315  1.00  0.00     0.047 C 
HETATM    7  C1  UNL     1      -2.484  -2.075   0.722  1.00  0.00     0.020 C 
HETATM    8  C3  UNL     1      -4.311  -0.702  -0.053  1.00  0.00    -0.021 C 
HETATM    9  C4  UNL     1      -4.949   0.312   0.533  1.00  0.00    -0.030 C 
HETATM   10  C5  UNL     1      -4.352   1.506   1.156  1.00  0.00     0.030 C 
HETATM   11  C6  UNL     1      -2.964   1.270   1.699  1.00  0.00     0.032 C 
HETATM   12  C7  UNL     1      -1.984   1.099   0.603  1.00  0.00    -0.008 C 
ENDBRANCH   3   5
ENDBRANCH   1   3
BRANCH   1  13
HETATM   13  C9  UNL     1       1.479  -1.044  -0.479  1.00  0.00     0.106 C 
BRANCH  13  14
HETATM   14  C10 UNL     1       2.342  -0.008  -1.114  1.00  0.00     0.054 C 
BRANCH  14  15
HETATM   15  C11 UNL     1       3.557   0.285  -0.348  1.00  0.00    -0.057 A 
HETATM   16  C12 UNL     1       4.696  -0.449  -0.611  1.00  0.00     0.010 A 
HETATM   17  C13 UNL     1       5.807  -0.105   0.163  1.00  0.00     0.043 A 
HETATM   18  C14 UNL     1       5.836   0.873   1.127  1.00  0.00     0.116 A 
HETATM   19  F1  UNL     1       6.951   1.143   1.831  1.00  0.00    -0.206 F 
HETATM   20  C15 UNL     1       4.672   1.582   1.356  1.00  0.00     0.043 A 
HETATM   21  C16 UNL     1       3.542   1.272   0.607  1.00  0.00     0.010 A 
ENDBRANCH  14  15
ENDBRANCH  13  14
ENDBRANCH   1  13
TORSDOF 5
