REMARK  6 active torsions:
REMARK  status: ('A' for Active; 'I' for Inactive)
REMARK    1  A    between atoms: C3_3  and  C4_4 
REMARK    2  A    between atoms: C5_5  and  C6_6 
REMARK    3  A    between atoms: C5_5  and  S1_8 
REMARK    4  A    between atoms: S1_8  and  N1_11 
REMARK       I    between atoms: N1_11  and  C8_12 
REMARK    5  A    between atoms: C8_12  and  C9_14 
REMARK    6  A    between atoms: C9_14  and  C10_15 
ROOT
HETATM    1  C1  UNL     1      -5.259   0.761   2.350  1.00  0.00     0.012 C 
HETATM    2  C2  UNL     1      -4.984  -0.299   1.799  1.00  0.00    -0.114 C 
HETATM    3  C3  UNL     1      -4.671  -1.581   1.154  1.00  0.00     0.121 C 
ENDROOT
BRANCH   3   4
HETATM    4  C4  UNL     1      -3.632  -1.389   0.149  1.00  0.00     0.010 C 
HETATM    5  C5  UNL     1      -2.825  -0.544  -0.457  1.00  0.00     0.076 C 
BRANCH   5   6
HETATM    6  C6  UNL     1      -2.896   0.841  -0.036  1.00  0.00     0.014 C 
HETATM    7  C7  UNL     1      -2.096   1.751  -0.622  1.00  0.00     0.013 C 
ENDBRANCH   5   6
BRANCH   5   8
HETATM    8  S1  UNL     1      -1.711  -0.998  -1.694  1.00  0.00     0.265 S 
HETATM    9  O1  UNL     1      -1.619   0.186  -2.648  1.00  0.00    -0.200 OA
HETATM   10  O2  UNL     1      -2.334  -2.099  -2.504  1.00  0.00    -0.200 OA
BRANCH   8  11
HETATM   11  N1  UNL     1      -0.174  -1.468  -1.110  1.00  0.00    -0.250 N 
HETATM   12  C8  UNL     1       0.917  -0.585  -0.910  1.00  0.00     0.235 C 
HETATM   13  O3  UNL     1       0.916   0.655  -1.129  1.00  0.00    -0.272 OA
HETATM   14  H8  UNL     1      -0.080  -2.500  -0.897  1.00  0.00     0.181 HD
BRANCH  12  15
HETATM   15  C9  UNL     1       2.162  -1.169  -0.401  1.00  0.00     0.142 C 
BRANCH  15  16
HETATM   16  C10 UNL     1       3.241  -0.163  -0.225  1.00  0.00    -0.049 A 
HETATM   17  C11 UNL     1       3.441   0.531   0.972  1.00  0.00     0.011 A 
HETATM   18  C12 UNL     1       4.444   1.461   1.121  1.00  0.00     0.043 A 
HETATM   19  C13 UNL     1       5.289   1.718   0.037  1.00  0.00     0.116 A 
HETATM   20  F1  UNL     1       6.308   2.609   0.066  1.00  0.00    -0.206 F 
HETATM   21  C14 UNL     1       5.130   1.058  -1.161  1.00  0.00     0.043 A 
HETATM   22  C15 UNL     1       4.112   0.126  -1.284  1.00  0.00     0.011 A 
ENDBRANCH  15  16
ENDBRANCH  12  15
ENDBRANCH   8  11
ENDBRANCH   5   8
ENDBRANCH   3   4
TORSDOF 6
