REMARK  3 active torsions:
REMARK  status: ('A' for Active; 'I' for Inactive)
REMARK    1  A    between atoms: C2_2  and  C3_3 
REMARK    2  A    between atoms: C8_9  and  N2_10 
REMARK    3  A    between atoms: N2_10  and  C9_11 
ROOT
HETATM    1  C3  UNL     1       4.932  -0.321  -0.156  1.00  0.00     0.056 A 
HETATM    2  C4  UNL     1       3.851  -1.299  -0.293  1.00  0.00    -0.003 A 
HETATM    3  C5  UNL     1       2.674  -0.809   0.060  1.00  0.00    -0.010 A 
HETATM    4  C6  UNL     1       1.414  -1.603   0.011  1.00  0.00     0.161 C 
HETATM    5  N1  UNL     1       0.246  -0.771  -0.218  1.00  0.00    -0.379 N 
HETATM    6  C7  UNL     1      -0.172   0.430   0.404  1.00  0.00     0.129 A 
HETATM    7  C8  UNL     1      -1.537   0.523   0.471  1.00  0.00     0.160 A 
HETATM    8  N3  UNL     1      -2.015   1.637   1.030  1.00  0.00    -0.222 NA
HETATM    9  C15 UNL     1      -1.247   2.612   1.502  1.00  0.00     0.238 A 
HETATM   10  N4  UNL     1       0.106   2.533   1.444  1.00  0.00    -0.215 NA
HETATM   11  C16 UNL     1       0.662   1.419   0.884  1.00  0.00     0.202 A 
HETATM   12  O1  UNL     1       2.045   1.526   0.918  1.00  0.00    -0.290 OA
HETATM   13  C17 UNL     1       2.948   0.577   0.462  1.00  0.00     0.083 A 
HETATM   14  C18 UNL     1       4.227   0.881   0.350  1.00  0.00     0.023 A 
HETATM   15  H8  UNL     1      -0.440  -1.066  -0.971  1.00  0.00     0.160 HD
ENDROOT
BRANCH   7  16
HETATM   16  N2  UNL     1      -2.415  -0.499   0.018  1.00  0.00    -0.339 N 
HETATM   17  H9  UNL     1      -2.186  -1.456  -0.324  1.00  0.00     0.167 HD
BRANCH  16  18
HETATM   18  C9  UNL     1      -3.837  -0.388  -0.039  1.00  0.00     0.035 A 
HETATM   19  C10 UNL     1      -4.731  -1.443  -0.013  1.00  0.00     0.032 A 
HETATM   20  C11 UNL     1      -6.095  -1.325  -0.081  1.00  0.00     0.046 A 
HETATM   21  C12 UNL     1      -6.657  -0.073  -0.185  1.00  0.00     0.138 A 
HETATM   22  F1  UNL     1      -8.008  -0.042  -0.246  1.00  0.00    -0.204 F 
HETATM   23  C13 UNL     1      -5.826   1.020  -0.217  1.00  0.00     0.074 A 
HETATM   24 CL1  UNL     1      -6.618   2.571  -0.349  1.00  0.00    -0.081 Cl
HETATM   25  C14 UNL     1      -4.439   0.859  -0.145  1.00  0.00     0.056 A 
ENDBRANCH  16  18
ENDBRANCH   7  16
BRANCH   1  26
HETATM   26  C2  UNL     1       5.586  -0.059  -1.466  1.00  0.00    -0.024 C 
HETATM   27  C1  UNL     1       6.890  -0.152  -1.741  1.00  0.00     0.008 C 
ENDBRANCH   1  26
TORSDOF 3
