REMARK  6 active torsions:
REMARK  status: ('A' for Active; 'I' for Inactive)
REMARK    1  A    between atoms: C2_2  and  N1_3 
REMARK    2  A    between atoms: C2_2  and  C9_15 
REMARK    3  A    between atoms: N1_3  and  S1_4 
REMARK    4  A    between atoms: S1_4  and  N2_6 
REMARK    5  A    between atoms: N2_6  and  C3_7 
REMARK    6  A    between atoms: C8_13  and  O2_14 
ROOT
HETATM    1  S1  UNL     1      -0.924  -0.466  -0.069  1.00  0.00     0.196 S 
HETATM    2  O1  UNL     1      -1.154   0.013   1.331  1.00  0.00    -0.218 OA
ENDROOT
BRANCH   1   3
HETATM    3  N1  UNL     1       0.726  -0.598  -0.535  1.00  0.00    -0.216 NA
HETATM    4  H5  UNL     1       0.949  -1.618  -0.612  1.00  0.00     0.139 HD
BRANCH   3   5
HETATM    5  C2  UNL     1       1.602  -0.032   0.469  1.00  0.00     0.099 C 
HETATM    6  C1  UNL     1       1.263   1.440   0.614  1.00  0.00     0.032 C 
BRANCH   5   7
HETATM    7  C9  UNL     1       3.036  -0.237   0.187  1.00  0.00    -0.040 A 
HETATM    8  C10 UNL     1       3.466  -1.473  -0.250  1.00  0.00     0.012 A 
HETATM    9  C11 UNL     1       4.795  -1.733  -0.530  1.00  0.00     0.043 A 
HETATM   10  C12 UNL     1       5.754  -0.748  -0.379  1.00  0.00     0.116 A 
HETATM   11  F2  UNL     1       7.072  -0.977  -0.648  1.00  0.00    -0.206 F 
HETATM   12  C13 UNL     1       5.348   0.499   0.057  1.00  0.00     0.043 A 
HETATM   13  C14 UNL     1       4.029   0.711   0.321  1.00  0.00     0.012 A 
ENDBRANCH   5   7
ENDBRANCH   3   5
ENDBRANCH   1   3
BRANCH   1  14
HETATM   14  N2  UNL     1      -1.949   0.279  -1.258  1.00  0.00    -0.290 N 
HETATM   15  H6  UNL     1      -1.722   0.811  -2.127  1.00  0.00     0.177 HD
BRANCH  14  16
HETATM   16  C3  UNL     1      -3.270  -0.015  -0.756  1.00  0.00     0.074 A 
HETATM   17  C4  UNL     1      -4.013  -1.148  -1.029  1.00  0.00     0.036 A 
HETATM   18  C5  UNL     1      -5.269  -1.264  -0.460  1.00  0.00     0.044 A 
HETATM   19  C6  UNL     1      -5.767  -0.269   0.360  1.00  0.00     0.119 A 
HETATM   20  F1  UNL     1      -7.011  -0.492   0.862  1.00  0.00    -0.206 F 
HETATM   21  C7  UNL     1      -5.009   0.843   0.614  1.00  0.00     0.081 A 
HETATM   22  C8  UNL     1      -3.764   0.986   0.066  1.00  0.00     0.095 A 
BRANCH  22  23
HETATM   23  O2  UNL     1      -3.087   2.153   0.391  1.00  0.00    -0.358 OA
HETATM   24  H10 UNL     1      -3.036   2.931  -0.263  1.00  0.00     0.217 HD
ENDBRANCH  22  23
ENDBRANCH  14  16
ENDBRANCH   1  14
TORSDOF 6
