REMARK  9 active torsions:
REMARK  status: ('A' for Active; 'I' for Inactive)
REMARK    1  A    between atoms: C5_5  and  S1_6 
REMARK    2  A    between atoms: S1_6  and  N1_9 
REMARK    3  A    between atoms: N1_9  and  C6_10 
REMARK    4  A    between atoms: C6_10  and  C7_11 
REMARK    5  A    between atoms: C7_11  and  C8_12 
REMARK    6  A    between atoms: C8_12  and  C9_13 
REMARK    7  A    between atoms: C9_13  and  O3_14 
REMARK    8  A    between atoms: C9_13  and  C10_15 
REMARK    9  A    between atoms: C11_16  and  C12_17 
ROOT
HETATM    1  N1  UNL     1      -0.232  -1.618   1.212  1.00  0.00    -0.216 NA
HETATM    2  H6  UNL     1      -0.582  -0.975   1.974  1.00  0.00     0.139 HD
ENDROOT
BRANCH   1   3
HETATM    3  S1  UNL     1      -1.567  -2.510   0.560  1.00  0.00     0.241 S 
HETATM    4  O1  UNL     1      -2.079  -3.408   1.629  1.00  0.00    -0.206 OA
HETATM    5  O2  UNL     1      -1.042  -3.320  -0.574  1.00  0.00    -0.206 OA
BRANCH   3   6
HETATM    6  C5  UNL     1      -2.799  -1.367   0.003  1.00  0.00     0.074 A 
HETATM    7  C4  UNL     1      -3.801  -0.940   0.868  1.00  0.00     0.025 A 
HETATM    8  C3  UNL     1      -4.748  -0.047   0.401  1.00  0.00     0.008 A 
HETATM    9  C2  UNL     1      -4.719   0.424  -0.894  1.00  0.00    -0.062 A 
HETATM   10  C1  UNL     1      -5.689   1.382  -1.486  1.00  0.00     0.048 C 
HETATM   11  C14 UNL     1      -3.702  -0.026  -1.728  1.00  0.00     0.008 A 
HETATM   12  C13 UNL     1      -2.732  -0.919  -1.305  1.00  0.00     0.025 A 
ENDBRANCH   3   6
ENDBRANCH   1   3
BRANCH   1  13
HETATM   13  C6  UNL     1       0.367  -0.768   0.172  1.00  0.00     0.104 C 
BRANCH  13  14
HETATM   14  C7  UNL     1       1.504  -0.036   0.811  1.00  0.00     0.018 C 
BRANCH  14  15
HETATM   15  C8  UNL     1       2.240   0.894  -0.128  1.00  0.00     0.037 C 
BRANCH  15  16
HETATM   16  C9  UNL     1       3.347   1.529   0.720  1.00  0.00     0.140 C 
BRANCH  16  17
HETATM   17  O3  UNL     1       2.668   2.194   1.750  1.00  0.00    -0.392 OA
HETATM   18  H14 UNL     1       2.331   3.049   1.365  1.00  0.00     0.210 HD
ENDBRANCH  16  17
BRANCH  16  19
HETATM   19  C10 UNL     1       4.164   0.433   1.253  1.00  0.00     0.003 C 
HETATM   20  C11 UNL     1       5.176  -0.062   0.557  1.00  0.00     0.002 C 
BRANCH  20  21
HETATM   21  C12 UNL     1       5.600   0.402  -0.790  1.00  0.00     0.249 C 
HETATM   22  F1  UNL     1       5.510  -0.660  -1.678  1.00  0.00    -0.251 F 
ENDBRANCH  20  21
ENDBRANCH  16  19
ENDBRANCH  15  16
ENDBRANCH  14  15
ENDBRANCH  13  14
ENDBRANCH   1  13
TORSDOF 9
