REMARK  5 active torsions:
REMARK  status: ('A' for Active; 'I' for Inactive)
REMARK    1  A    between atoms: C4_5  and  S1_6 
REMARK    2  A    between atoms: S1_6  and  N2_9 
REMARK    3  A    between atoms: N2_9  and  C5_10 
REMARK    4  A    between atoms: C5_10  and  C6_11 
REMARK    5  A    between atoms: C6_11  and  C7_12 
ROOT
HETATM    1  N2  UNL     1      -0.599  -1.638  -1.546  1.00  0.00    -0.217 NA
HETATM    2  H5  UNL     1      -0.461  -1.231  -2.496  1.00  0.00     0.139 HD
ENDROOT
BRANCH   1   3
HETATM    3  S1  UNL     1       0.868  -2.124  -0.814  1.00  0.00     0.236 S 
HETATM    4  O1  UNL     1       1.601  -3.136  -1.653  1.00  0.00    -0.209 OA
HETATM    5  O2  UNL     1       0.524  -2.827   0.485  1.00  0.00    -0.209 OA
BRANCH   3   6
HETATM    6  C4  UNL     1       1.978  -0.819  -0.464  1.00  0.00     0.269 C 
HETATM    7  N1  UNL     1       1.509   0.101   0.528  1.00  0.00    -0.261 NA
HETATM    8  C3  UNL     1       2.320   0.795   1.246  1.00  0.00     0.087 C 
HETATM    9  C2  UNL     1       3.622   0.587   1.164  1.00  0.00    -0.031 C 
HETATM   10  C1  UNL     1       4.610   1.666   1.432  1.00  0.00     0.050 C 
HETATM   11  C13 UNL     1       4.058  -0.769   0.792  1.00  0.00     0.008 C 
HETATM   12  C12 UNL     1       3.259  -1.460  -0.003  1.00  0.00     0.018 C 
ENDBRANCH   3   6
ENDBRANCH   1   3
BRANCH   1  13
HETATM   13  C5  UNL     1      -1.302  -0.753  -0.650  1.00  0.00     0.109 C 
BRANCH  13  14
HETATM   14  C6  UNL     1      -2.616  -0.275  -1.224  1.00  0.00     0.056 C 
BRANCH  14  15
HETATM   15  C7  UNL     1      -3.304   0.624  -0.283  1.00  0.00    -0.024 C 
HETATM   16  C8  UNL     1      -4.517   0.375   0.221  1.00  0.00     0.009 C 
HETATM   17  C9  UNL     1      -5.264   1.218   1.159  1.00  0.00    -0.005 C 
HETATM   18  C10 UNL     1      -5.410   2.527   1.053  1.00  0.00    -0.101 C 
HETATM   19  B1  UNL     1      -3.322   2.946   1.394  1.00  0.00     0.279 B 
HETATM   20  C11 UNL     1      -2.647   1.859   0.135  1.00  0.00     0.104 C 
HETATM   21  O3  UNL     1      -1.572   2.261  -0.341  1.00  0.00    -0.307 OA
ENDBRANCH  14  15
ENDBRANCH  13  14
ENDBRANCH   1  13
TORSDOF 5
