REMARK  6 active torsions:
REMARK  status: ('A' for Active; 'I' for Inactive)
REMARK    1  A    between atoms: C1_2  and  C2_3 
REMARK       I    between atoms: C1_2  and  N1_11 
REMARK    2  A    between atoms: C2_3  and  P1_4 
REMARK    3  A    between atoms: N1_11  and  S1_12 
REMARK    4  A    between atoms: S1_12  and  P2_13 
REMARK    5  A    between atoms: S1_12  and  C8_15 
REMARK    6  A    between atoms: P2_13  and  O2_14 
ROOT
HETATM    1  O1  UNL     1      -0.116  -0.411   1.525  1.00  0.00    -0.272 OA
HETATM    2  C1  UNL     1       0.376  -0.491   0.354  1.00  0.00     0.231 C 
HETATM    3  N1  UNL     1      -0.525  -1.073  -0.581  1.00  0.00    -0.300 N 
HETATM    4  H8  UNL     1      -0.394  -1.266  -1.617  1.00  0.00     0.177 HD
ENDROOT
BRANCH   3   5
HETATM    5  S1  UNL     1      -2.100  -1.613  -0.198  1.00  0.00    -0.028 SA
BRANCH   5   6
HETATM    6  P2  UNL     1      -2.276  -2.862   1.210  1.00  0.00     0.166 P 
BRANCH   6   7
HETATM    7  O2  UNL     1      -1.038  -3.544   2.179  1.00  0.00    -0.356 OA
HETATM    8  H9  UNL     1      -0.742  -2.953   2.914  1.00  0.00     0.216 HD
ENDBRANCH   6   7
ENDBRANCH   5   6
BRANCH   5   9
HETATM    9  C8  UNL     1      -3.376  -0.444  -0.360  1.00  0.00     0.017 A 
HETATM   10  C9  UNL     1      -3.844   0.434   0.619  1.00  0.00     0.023 A 
HETATM   11  C10 UNL     1      -4.875   1.320   0.353  1.00  0.00     0.043 A 
HETATM   12  C11 UNL     1      -5.471   1.362  -0.890  1.00  0.00     0.116 A 
HETATM   13  F2  UNL     1      -6.488   2.216  -1.200  1.00  0.00    -0.206 F 
HETATM   14  C12 UNL     1      -5.012   0.496  -1.862  1.00  0.00     0.043 A 
HETATM   15  C13 UNL     1      -3.973  -0.400  -1.601  1.00  0.00     0.023 A 
ENDBRANCH   5   9
ENDBRANCH   3   5
BRANCH   2  16
HETATM   16  C2  UNL     1       1.686  -0.112  -0.257  1.00  0.00     0.135 C 
BRANCH  16  17
HETATM   17  P1  UNL     1       2.793   0.617   0.950  1.00  0.00    -0.105 P 
HETATM   18  C3  UNL     1       3.823  -0.535   1.436  1.00  0.00    -0.024 C 
HETATM   19  C4  UNL     1       4.625  -0.959   0.490  1.00  0.00     0.054 C 
HETATM   20  C5  UNL     1       5.492  -0.002  -0.190  1.00  0.00     0.113 C 
HETATM   21  F1  UNL     1       6.686  -0.392  -0.698  1.00  0.00    -0.206 F 
HETATM   22  C6  UNL     1       5.101   1.257  -0.307  1.00  0.00     0.020 C 
HETATM   23  C7  UNL     1       3.843   1.885   0.173  1.00  0.00     0.062 C 
HETATM   24  H3  UNL     1       2.145   1.096   2.101  1.00  0.00     0.059 HD
ENDBRANCH  16  17
ENDBRANCH   2  16
TORSDOF 6
