REMARK  6 active torsions:
REMARK  status: ('A' for Active; 'I' for Inactive)
REMARK    1  A    between atoms: C1_2  and  C2_3 
REMARK       I    between atoms: C1_2  and  N1_10 
REMARK    2  A    between atoms: C2_3  and  C3_4 
REMARK    3  A    between atoms: N1_10  and  C9_11 
REMARK    4  A    between atoms: C9_11  and  S1_12 
REMARK    5  A    between atoms: S1_12  and  N2_13 
REMARK    6  A    between atoms: S1_12  and  C10_15 
ROOT
HETATM    1  O1  UNL     1       1.734   0.396   0.310  1.00  0.00    -0.273 OA
HETATM    2  C1  UNL     1       1.463  -0.812   0.073  1.00  0.00     0.222 C 
HETATM    3  N1  UNL     1       0.277  -1.544  -0.120  1.00  0.00    -0.351 N 
HETATM    4  H8  UNL     1       0.441  -2.556  -0.300  1.00  0.00     0.163 HD
ENDROOT
BRANCH   3   5
HETATM    5  C9  UNL     1      -0.893  -0.663  -0.012  1.00  0.00     0.217 C 
BRANCH   5   6
HETATM    6  S1  UNL     1      -2.409  -1.561  -0.252  1.00  0.00    -0.018 SA
BRANCH   6   7
HETATM    7  N2  UNL     1      -2.441  -2.097  -1.737  1.00  0.00    -0.057 NA
HETATM    8  F1  UNL     1      -3.484  -2.806  -2.164  1.00  0.00    -0.067 F 
ENDBRANCH   6   7
BRANCH   6   9
HETATM    9  C10 UNL     1      -3.754  -0.386  -0.098  1.00  0.00     0.015 A 
HETATM   10  C11 UNL     1      -4.203   0.275  -1.220  1.00  0.00     0.021 A 
HETATM   11  C12 UNL     1      -5.250   1.189  -1.103  1.00  0.00     0.025 A 
HETATM   12  C13 UNL     1      -5.834   1.436   0.117  1.00  0.00     0.034 A 
HETATM   13 CL1  UNL     1      -7.140   2.591   0.198  1.00  0.00    -0.084 Cl
HETATM   14  C14 UNL     1      -5.372   0.762   1.244  1.00  0.00     0.025 A 
HETATM   15  C15 UNL     1      -4.324  -0.158   1.144  1.00  0.00     0.021 A 
ENDBRANCH   6   9
ENDBRANCH   5   6
ENDBRANCH   3   5
BRANCH   2  16
HETATM   16  C2  UNL     1       2.820  -1.420   0.025  1.00  0.00     0.141 C 
BRANCH  16  17
HETATM   17  C3  UNL     1       3.804  -0.310   0.278  1.00  0.00    -0.050 A 
HETATM   18  C4  UNL     1       4.229   0.334  -0.876  1.00  0.00     0.007 A 
HETATM   19  C5  UNL     1       5.135   1.374  -0.778  1.00  0.00     0.001 A 
HETATM   20  C6  UNL     1       5.575   1.721   0.478  1.00  0.00     0.000 A 
HETATM   21  C7  UNL     1       5.154   1.083   1.617  1.00  0.00     0.001 A 
HETATM   22  C8  UNL     1       4.244   0.037   1.538  1.00  0.00     0.007 A 
ENDBRANCH  16  17
ENDBRANCH   2  16
TORSDOF 6
