REMARK  6 active torsions:
REMARK  status: ('A' for Active; 'I' for Inactive)
REMARK    1  A    between atoms: C3_3  and  C4_5 
REMARK    2  A    between atoms: C5_6  and  N1_7 
REMARK    3  A    between atoms: N1_7  and  S1_8 
REMARK    4  A    between atoms: S1_8  and  N2_11 
REMARK       I    between atoms: N2_11  and  C6_12 
REMARK    5  A    between atoms: C6_12  and  C7_14 
REMARK    6  A    between atoms: C7_14  and  C8_15 
ROOT
HETATM    1  N2  UNL     1      -0.946   0.727  -0.351  1.00  0.00    -0.237 N 
HETATM    2  C6  UNL     1      -1.072  -0.450  -1.126  1.00  0.00     0.236 C 
HETATM    3  O3  UNL     1      -0.314  -0.789  -2.075  1.00  0.00    -0.272 OA
HETATM    4  H8  UNL     1      -1.659   0.892   0.421  1.00  0.00     0.183 HD
ENDROOT
BRANCH   1   5
HETATM    5  S1  UNL     1       0.231   1.966  -0.487  1.00  0.00     0.325 S 
HETATM    6  O1  UNL     1       0.986   2.072   0.802  1.00  0.00    -0.182 OA
HETATM    7  O2  UNL     1      -0.441   3.270  -0.873  1.00  0.00    -0.182 OA
BRANCH   5   8
HETATM    8  N1  UNL     1       1.380   1.635  -1.728  1.00  0.00    -0.278 N 
HETATM    9  H7  UNL     1       1.664   2.102  -2.623  1.00  0.00     0.179 HD
BRANCH   8  10
HETATM   10  C5  UNL     1       2.068   0.432  -1.403  1.00  0.00     0.103 C 
HETATM   11  C4  UNL     1       3.137   0.747  -0.690  1.00  0.00     0.041 C 
BRANCH  11  12
HETATM   12  C3  UNL     1       4.340   0.464   0.053  1.00  0.00     0.031 C 
HETATM   13  C2  UNL     1       5.447   0.360   0.751  1.00  0.00    -0.007 C 
HETATM   14  C1  UNL     1       5.955  -1.036   0.949  1.00  0.00     0.038 C 
HETATM   15 CL1  UNL     1       4.197  -1.268  -0.196  1.00  0.00    -0.085 Cl
ENDBRANCH  11  12
ENDBRANCH   8  10
ENDBRANCH   5   8
ENDBRANCH   1   5
BRANCH   2  16
HETATM   16  C7  UNL     1      -2.153  -1.439  -0.888  1.00  0.00     0.142 C 
BRANCH  16  17
HETATM   17  C8  UNL     1      -3.248  -0.802  -0.100  1.00  0.00    -0.049 A 
HETATM   18  C9  UNL     1      -3.220  -0.905   1.288  1.00  0.00     0.011 A 
HETATM   19  C10 UNL     1      -4.194  -0.340   2.083  1.00  0.00     0.043 A 
HETATM   20  C11 UNL     1      -5.244   0.358   1.490  1.00  0.00     0.116 A 
HETATM   21  F1  UNL     1      -6.193   0.909   2.255  1.00  0.00    -0.206 F 
HETATM   22  C12 UNL     1      -5.215   0.422   0.130  1.00  0.00     0.043 A 
HETATM   23  C13 UNL     1      -4.285  -0.111  -0.735  1.00  0.00     0.011 A 
ENDBRANCH  16  17
ENDBRANCH   2  16
TORSDOF 6
