REMARK  4 active torsions:
REMARK  status: ('A' for Active; 'I' for Inactive)
REMARK    1  A    between atoms: C1_2  and  C2_3 
REMARK       I    between atoms: C1_2  and  N2_11 
REMARK    2  A    between atoms: C2_3  and  C3_4 
REMARK    3  A    between atoms: N2_11  and  S1_12 
REMARK    4  A    between atoms: S1_12  and  C8_15 
ROOT
HETATM    1  O1  UNL     1       0.622   1.088   1.293  1.00  0.00    -0.272 OA
HETATM    2  C1  UNL     1       0.694   0.241   0.337  1.00  0.00     0.235 C 
HETATM    3  N2  UNL     1      -0.679   0.050  -0.046  1.00  0.00    -0.250 N 
HETATM    4  H8  UNL     1      -1.000  -0.602  -0.827  1.00  0.00     0.181 HD
ENDROOT
BRANCH   3   5
HETATM    5  S1  UNL     1      -1.833   0.971   0.862  1.00  0.00     0.265 S 
HETATM    6  O2  UNL     1      -1.540   2.439   0.812  1.00  0.00    -0.200 OA
HETATM    7  O3  UNL     1      -1.807   0.578   2.319  1.00  0.00    -0.200 OA
BRANCH   5   8
HETATM    8  C8  UNL     1      -3.426   0.600   0.247  1.00  0.00     0.080 A 
HETATM    9  C9  UNL     1      -4.237  -0.418   0.716  1.00  0.00     0.027 A 
HETATM   10  C10 UNL     1      -5.490  -0.606   0.134  1.00  0.00     0.025 A 
HETATM   11  C11 UNL     1      -5.914   0.213  -0.894  1.00  0.00     0.034 A 
HETATM   12 CL1  UNL     1      -7.485  -0.063  -1.585  1.00  0.00    -0.084 Cl
HETATM   13  C12 UNL     1      -5.105   1.235  -1.368  1.00  0.00     0.025 A 
HETATM   14  C13 UNL     1      -3.864   1.411  -0.783  1.00  0.00     0.027 A 
ENDBRANCH   5   8
ENDBRANCH   3   5
BRANCH   2  15
HETATM   15  C2  UNL     1       1.624  -0.580  -0.485  1.00  0.00     0.139 C 
BRANCH  15  16
HETATM   16  C3  UNL     1       3.045  -0.391  -0.111  1.00  0.00    -0.052 A 
HETATM   17  C4  UNL     1       3.648   0.353   0.799  1.00  0.00     0.094 A 
HETATM   18  N1  UNL     1       5.060   0.366   0.972  1.00  0.00    -0.343 N 
HETATM   19  C5  UNL     1       5.898  -0.438   0.158  1.00  0.00     0.184 A 
HETATM   20  H4  UNL     1       5.427   0.990   1.720  1.00  0.00     0.167 HD
HETATM   21  F1  UNL     1       7.242  -0.435   0.313  1.00  0.00    -0.187 F 
HETATM   22  C6  UNL     1       5.273  -1.169  -0.740  1.00  0.00     0.039 A 
HETATM   23  C7  UNL     1       3.824  -1.272  -1.021  1.00  0.00     0.067 A 
ENDBRANCH  15  16
ENDBRANCH   2  15
TORSDOF 4
