REMARK  3 active torsions:
REMARK  status: ('A' for Active; 'I' for Inactive)
REMARK       I    between atoms: C1_2  and  N1_3 
REMARK    1  A    between atoms: C1_2  and  C8_14 
REMARK    2  A    between atoms: N1_3  and  S1_4 
REMARK    3  A    between atoms: S1_4  and  C2_7 
ROOT
HETATM    1  O1  UNL     1      -0.609  -2.018  -1.030  1.00  0.00    -0.271 OA
HETATM    2  C1  UNL     1      -0.584  -1.120  -0.141  1.00  0.00     0.242 C 
HETATM    3  N1  UNL     1       0.706  -0.598   0.138  1.00  0.00    -0.249 N 
HETATM    4  H1  UNL     1       0.790   0.147   0.864  1.00  0.00     0.182 HD
ENDROOT
BRANCH   3   5
HETATM    5  S1  UNL     1       2.040  -1.253  -0.760  1.00  0.00     0.265 S 
HETATM    6  O2  UNL     1       1.791  -1.121  -2.224  1.00  0.00    -0.200 OA
HETATM    7  O3  UNL     1       2.156  -2.726  -0.461  1.00  0.00    -0.200 OA
BRANCH   5   8
HETATM    8  C2  UNL     1       3.528  -0.488  -0.276  1.00  0.00     0.080 A 
HETATM    9  C3  UNL     1       4.013   0.664  -0.897  1.00  0.00     0.027 A 
HETATM   10  C4  UNL     1       5.189   1.263  -0.509  1.00  0.00     0.025 A 
HETATM   11  C5  UNL     1       5.924   0.727   0.517  1.00  0.00     0.034 A 
HETATM   12 CL1  UNL     1       7.426   1.414   1.080  1.00  0.00    -0.084 Cl
HETATM   13  C6  UNL     1       5.469  -0.409   1.147  1.00  0.00     0.025 A 
HETATM   14  C7  UNL     1       4.287  -1.001   0.749  1.00  0.00     0.027 A 
ENDBRANCH   5   8
ENDBRANCH   3   5
BRANCH   2  15
HETATM   15  C8  UNL     1      -1.808  -0.626   0.577  1.00  0.00     0.123 C 
HETATM   16  C9  UNL     1      -2.021   0.820   0.364  1.00  0.00    -0.011 C 
HETATM   17  C10 UNL     1      -2.875   1.769  -0.005  1.00  0.00    -0.004 C 
HETATM   18  C11 UNL     1      -4.244   2.026  -0.470  1.00  0.00     0.198 C 
HETATM   19  O4  UNL     1      -4.984   0.877  -0.704  1.00  0.00    -0.350 OA
HETATM   20  C12 UNL     1      -5.054   0.010   0.369  1.00  0.00     0.330 C 
HETATM   21  F1  UNL     1      -6.372  -0.401   0.495  1.00  0.00    -0.215 F 
HETATM   22  C13 UNL     1      -4.266  -1.209   0.037  1.00  0.00     0.035 C 
HETATM   23  C14 UNL     1      -2.961  -1.449   0.126  1.00  0.00    -0.008 C 
ENDBRANCH   2  15
TORSDOF 3
