REMARK  7 active torsions:
REMARK  status: ('A' for Active; 'I' for Inactive)
REMARK    1  A    between atoms: C3_3  and  C4_5 
REMARK    2  A    between atoms: C4_5  and  C5_6 
REMARK    3  A    between atoms: C5_6  and  C6_7 
REMARK    4  A    between atoms: C6_7  and  S1_8 
REMARK    5  A    between atoms: S1_8  and  N1_11 
REMARK       I    between atoms: N1_11  and  C7_12 
REMARK    6  A    between atoms: C7_12  and  C8_14 
REMARK    7  A    between atoms: C8_14  and  C9_15 
ROOT
HETATM    1  N1  UNL     1       0.045  -0.713   0.130  1.00  0.00    -0.251 N 
HETATM    2  C7  UNL     1      -1.219  -0.113   0.171  1.00  0.00     0.235 C 
HETATM    3  O3  UNL     1      -1.644   0.900   0.797  1.00  0.00    -0.272 OA
HETATM    4  H7  UNL     1       0.187  -1.552  -0.456  1.00  0.00     0.181 HD
ENDROOT
BRANCH   1   5
HETATM    5  S1  UNL     1       1.298   0.005   1.079  1.00  0.00     0.256 S 
HETATM    6  O1  UNL     1       0.675   0.631   2.300  1.00  0.00    -0.201 OA
HETATM    7  O2  UNL     1       2.142  -1.102   1.625  1.00  0.00    -0.201 OA
BRANCH   5   8
HETATM    8  C6  UNL     1       2.111   1.173   0.155  1.00  0.00     0.144 C 
BRANCH   8   9
HETATM    9  C5  UNL     1       2.973   0.849  -0.803  1.00  0.00    -0.011 C 
BRANCH   9  10
HETATM   10  C4  UNL     1       3.956   0.210  -1.436  1.00  0.00     0.036 C 
BRANCH  10  11
HETATM   11  C3  UNL     1       5.218  -0.016  -0.768  1.00  0.00     0.030 C 
HETATM   12  C2  UNL     1       5.764  -0.975  -0.036  1.00  0.00    -0.007 C 
HETATM   13  C1  UNL     1       5.496  -2.324   0.539  1.00  0.00     0.038 C 
HETATM   14 CL1  UNL     1       5.929   1.531  -1.250  1.00  0.00    -0.085 Cl
ENDBRANCH  10  11
ENDBRANCH   9  10
ENDBRANCH   8   9
ENDBRANCH   5   8
ENDBRANCH   1   5
BRANCH   2  15
HETATM   15  C8  UNL     1      -2.365  -0.671  -0.622  1.00  0.00     0.142 C 
BRANCH  15  16
HETATM   16  C9  UNL     1      -3.584   0.133  -0.412  1.00  0.00    -0.049 A 
HETATM   17  C10 UNL     1      -3.920   1.221  -1.199  1.00  0.00     0.011 A 
HETATM   18  C11 UNL     1      -5.066   1.978  -1.003  1.00  0.00     0.043 A 
HETATM   19  C12 UNL     1      -5.872   1.576   0.046  1.00  0.00     0.116 A 
HETATM   20  F1  UNL     1      -7.022   2.267   0.310  1.00  0.00    -0.206 F 
HETATM   21  C13 UNL     1      -5.609   0.507   0.873  1.00  0.00     0.043 A 
HETATM   22  C14 UNL     1      -4.444  -0.200   0.613  1.00  0.00     0.011 A 
ENDBRANCH  15  16
ENDBRANCH   2  15
TORSDOF 7
