REMARK  8 active torsions:
REMARK  status: ('A' for Active; 'I' for Inactive)
REMARK    1  A    between atoms: S1_2  and  N1_3 
REMARK    2  A    between atoms: S1_2  and  C9_16 
REMARK    3  A    between atoms: N1_3  and  C1_4 
REMARK    4  A    between atoms: C1_4  and  S2_5 
REMARK    5  A    between atoms: S2_5  and  N2_6 
REMARK    6  A    between atoms: N2_6  and  C2_7 
REMARK    7  A    between atoms: C2_7  and  C3_8 
REMARK    8  A    between atoms: C8_14  and  O2_15 
ROOT
HETATM    1  C1  UNL     1       1.014  -2.058   0.734  1.00  0.00     0.321 C 
ENDROOT
BRANCH   1   2
HETATM    2  N1  UNL     1       1.011  -2.211  -0.685  1.00  0.00    -0.318 N 
HETATM    3  H1  UNL     1       0.530  -2.987  -1.187  1.00  0.00     0.171 HD
BRANCH   2   4
HETATM    4  S1  UNL     1       1.884  -1.006  -1.641  1.00  0.00     0.147 S 
HETATM    5  O1  UNL     1       0.972  -0.166  -2.488  1.00  0.00    -0.230 OA
BRANCH   4   6
HETATM    6  C9  UNL     1       3.023  -0.104  -0.669  1.00  0.00     0.052 A 
HETATM    7  C10 UNL     1       2.731   1.064   0.003  1.00  0.00     0.024 A 
HETATM    8  C11 UNL     1       3.694   1.714   0.751  1.00  0.00     0.020 A 
HETATM    9  C12 UNL     1       4.979   1.208   0.845  1.00  0.00     0.011 A 
HETATM   10 BR1  UNL     1       6.269   2.137   1.885  1.00  0.00    -0.051 Br
HETATM   11  C13 UNL     1       5.303   0.034   0.180  1.00  0.00     0.020 A 
HETATM   12  C14 UNL     1       4.329  -0.594  -0.557  1.00  0.00     0.024 A 
ENDBRANCH   4   6
ENDBRANCH   2   4
ENDBRANCH   1   2
BRANCH   1  13
HETATM   13  S2  UNL     1      -0.376  -2.722   1.405  1.00  0.00    -0.133 SA
BRANCH  13  14
HETATM   14  N2  UNL     1      -1.696  -2.026   0.713  1.00  0.00    -0.192 NA
BRANCH  14  15
HETATM   15  C2  UNL     1      -1.422  -0.722   0.098  1.00  0.00     0.162 C 
BRANCH  15  16
HETATM   16  C3  UNL     1      -2.623   0.139   0.190  1.00  0.00    -0.010 A 
HETATM   17  C4  UNL     1      -2.805   1.181   1.063  1.00  0.00     0.014 A 
HETATM   18  C5  UNL     1      -3.985   1.897   1.029  1.00  0.00     0.043 A 
HETATM   19  C6  UNL     1      -4.976   1.555   0.112  1.00  0.00     0.119 A 
HETATM   20  F1  UNL     1      -6.133   2.295   0.114  1.00  0.00    -0.206 F 
HETATM   21  C7  UNL     1      -4.786   0.509  -0.760  1.00  0.00     0.079 A 
HETATM   22  C8  UNL     1      -3.594  -0.210  -0.721  1.00  0.00     0.076 A 
BRANCH  22  23
HETATM   23  O2  UNL     1      -3.507  -1.255  -1.654  1.00  0.00    -0.360 OA
HETATM   24  H8  UNL     1      -3.486  -1.066  -2.651  1.00  0.00     0.217 HD
ENDBRANCH  22  23
ENDBRANCH  15  16
ENDBRANCH  14  15
ENDBRANCH  13  14
ENDBRANCH   1  13
TORSDOF 8
