REMARK  7 active torsions:
REMARK  status: ('A' for Active; 'I' for Inactive)
REMARK    1  A    between atoms: C1_2  and  C2_3 
REMARK       I    between atoms: C1_2  and  N1_11 
REMARK    2  A    between atoms: C2_3  and  C3_4 
REMARK    3  A    between atoms: N1_11  and  S1_12 
REMARK    4  A    between atoms: S1_12  and  C9_15 
REMARK    5  A    between atoms: C9_15  and  C10_16 
REMARK    6  A    between atoms: C11_17  and  C12_18 
REMARK    7  A    between atoms: C12_18  and  C13_19 
ROOT
HETATM    1  O1  UNL     1      -1.748  -0.631   1.111  1.00  0.00    -0.272 OA
HETATM    2  C1  UNL     1      -1.454  -0.532  -0.120  1.00  0.00     0.235 C 
HETATM    3  N1  UNL     1      -0.075  -0.678  -0.499  1.00  0.00    -0.254 N 
HETATM    4  H7  UNL     1       0.229  -0.606  -1.512  1.00  0.00     0.181 HD
ENDROOT
BRANCH   3   5
HETATM    5  S1  UNL     1       1.081  -0.979   0.768  1.00  0.00     0.236 S 
HETATM    6  O2  UNL     1       1.026   0.116   1.773  1.00  0.00    -0.205 OA
HETATM    7  O3  UNL     1       0.734  -2.290   1.386  1.00  0.00    -0.205 OA
BRANCH   5   8
HETATM    8  C9  UNL     1       2.692  -1.115   0.017  1.00  0.00     0.190 C 
BRANCH   8   9
HETATM    9  C10 UNL     1       3.060   0.121  -0.696  1.00  0.00    -0.014 C 
HETATM   10  C11 UNL     1       4.116   0.869  -0.421  1.00  0.00    -0.029 C 
BRANCH  10  11
HETATM   11  C12 UNL     1       5.176   0.720   0.600  1.00  0.00     0.037 C 
BRANCH  11  12
HETATM   12  C13 UNL     1       6.512   0.610  -0.141  1.00  0.00     0.089 C 
HETATM   13 BR1  UNL     1       6.813   2.190  -1.185  1.00  0.00    -0.096 Br
ENDBRANCH  11  12
ENDBRANCH  10  11
ENDBRANCH   8   9
ENDBRANCH   5   8
ENDBRANCH   3   5
BRANCH   2  14
HETATM   14  C2  UNL     1      -2.390  -0.279  -1.228  1.00  0.00     0.142 C 
BRANCH  14  15
HETATM   15  C3  UNL     1      -3.787  -0.134  -0.820  1.00  0.00    -0.049 A 
HETATM   16  C4  UNL     1      -4.725  -1.149  -0.714  1.00  0.00     0.011 A 
HETATM   17  C5  UNL     1      -6.021  -0.829  -0.308  1.00  0.00     0.043 A 
HETATM   18  C6  UNL     1      -6.340   0.484  -0.023  1.00  0.00     0.116 A 
HETATM   19  F1  UNL     1      -7.616   0.796   0.377  1.00  0.00    -0.206 F 
HETATM   20  C7  UNL     1      -5.419   1.518  -0.121  1.00  0.00     0.043 A 
HETATM   21  C8  UNL     1      -4.142   1.180  -0.525  1.00  0.00     0.011 A 
ENDBRANCH  14  15
ENDBRANCH   2  14
TORSDOF 7
