REMARK  6 active torsions:
REMARK  status: ('A' for Active; 'I' for Inactive)
REMARK    1  A    between atoms: C2_2  and  C3_3 
REMARK    2  A    between atoms: C3_3  and  C4_4 
REMARK    3  A    between atoms: C5_5  and  S1_7 
REMARK    4  A    between atoms: S1_7  and  N1_10 
REMARK       I    between atoms: N1_10  and  C7_11 
REMARK    5  A    between atoms: C7_11  and  C8_13 
REMARK    6  A    between atoms: C8_13  and  B1_14 
ROOT
HETATM    1  N1  UNL     1       0.799  -1.085   0.247  1.00  0.00    -0.251 N 
HETATM    2  C7  UNL     1      -0.365  -0.286   0.448  1.00  0.00     0.222 C 
HETATM    3  O3  UNL     1      -0.492   0.449   1.468  1.00  0.00    -0.274 OA
HETATM    4  H10 UNL     1       0.887  -1.693  -0.611  1.00  0.00     0.181 HD
ENDROOT
BRANCH   1   5
HETATM    5  S1  UNL     1       2.009  -0.973   1.487  1.00  0.00     0.260 S 
HETATM    6  O1  UNL     1       2.479   0.416   1.720  1.00  0.00    -0.200 OA
HETATM    7  O2  UNL     1       1.401  -1.508   2.783  1.00  0.00    -0.200 OA
BRANCH   5   8
HETATM    8  C5  UNL     1       3.330  -2.016   1.048  1.00  0.00     0.050 C 
HETATM    9  C4  UNL     1       4.431  -1.812   0.305  1.00  0.00    -0.001 C 
HETATM   10  C6  UNL     1       3.207  -3.392   1.609  1.00  0.00     0.063 C 
BRANCH   9  11
HETATM   11  C3  UNL     1       4.381  -0.445  -0.151  1.00  0.00     0.021 C 
BRANCH  11  12
HETATM   12  C2  UNL     1       4.706   0.675  -0.746  1.00  0.00    -0.006 C 
HETATM   13  C1  UNL     1       5.446   1.686  -1.554  1.00  0.00     0.011 C 
ENDBRANCH  11  12
ENDBRANCH   9  11
ENDBRANCH   5   8
ENDBRANCH   1   5
BRANCH   2  14
HETATM   14  C8  UNL     1      -1.412  -0.367  -0.599  1.00  0.00     0.059 C 
BRANCH  14  15
HETATM   15  B1  UNL     1      -2.659   0.522  -0.334  1.00  0.00     0.215 B 
HETATM   16  C9  UNL     1      -2.615   1.960   0.253  1.00  0.00    -0.077 A 
HETATM   17  C10 UNL     1      -3.623   2.817   0.314  1.00  0.00    -0.015 A 
HETATM   18  C11 UNL     1      -4.885   2.325  -0.233  1.00  0.00     0.000 A 
HETATM   19  C12 UNL     1      -5.036   1.134  -0.751  1.00  0.00    -0.092 A 
HETATM   20  C13 UNL     1      -6.397   0.768  -1.276  1.00  0.00     0.042 C 
HETATM   21  C14 UNL     1      -4.059   0.043  -0.915  1.00  0.00    -0.010 A 
ENDBRANCH  14  15
ENDBRANCH   2  14
TORSDOF 6
