REMARK  0 active torsions:
REMARK  status: ('A' for Active; 'I' for Inactive)
ROOT
HETATM    1  C1  UNL     1      -2.435  -1.127  -1.250  1.00  0.00     0.042 C 
HETATM    2  C2  UNL     1      -1.322  -1.595  -0.292  1.00  0.00     0.155 C 
HETATM    3  C3  UNL     1      -1.162  -0.526   0.807  1.00  0.00     0.104 C 
HETATM    4  C4  UNL     1      -2.433  -0.079   1.355  1.00  0.00     0.096 C 
HETATM    5  F1  UNL     1      -3.128  -1.103   1.816  1.00  0.00    -0.211 F 
HETATM    6  C5  UNL     1      -2.754   1.198   1.343  1.00  0.00     0.037 C 
HETATM    7  C6  UNL     1      -2.466   2.568   1.033  1.00  0.00    -0.001 C 
HETATM    8  C7  UNL     1      -1.411   3.191   0.475  1.00  0.00    -0.020 C 
HETATM    9  C8  UNL     1      -0.088   3.442  -0.152  1.00  0.00     0.033 C 
HETATM   10  C9  UNL     1       1.111   3.381  -0.680  1.00  0.00     0.076 C 
HETATM   11  C10 UNL     1       1.976   2.327  -0.912  1.00  0.00    -0.169 C 
HETATM   12  C11 UNL     1       2.695   1.424  -1.095  1.00  0.00     0.018 C 
HETATM   13  C12 UNL     1       3.533   0.333  -1.307  1.00  0.00     0.066 C 
HETATM   14  C13 UNL     1       3.464  -0.804  -0.520  1.00  0.00     0.013 C 
HETATM   15  C14 UNL     1       2.707  -1.396   0.666  1.00  0.00     0.170 C 
HETATM   16  S1  UNL     1       1.778  -2.831   0.213  1.00  0.00     0.249 S 
HETATM   17  O1  UNL     1       2.692  -3.935  -0.211  1.00  0.00    -0.204 OA
HETATM   18  O2  UNL     1       0.978  -3.279   1.390  1.00  0.00    -0.204 OA
HETATM   19  N1  UNL     1       0.704  -2.476  -1.086  1.00  0.00    -0.192 N 
HETATM   20  O3  UNL     1      -0.166  -1.597  -0.960  1.00  0.00    -0.265 OA
HETATM   21  H16 UNL     1       1.003  -2.865  -1.998  1.00  0.00     0.207 HD
ENDROOT
TORSDOF 0
