REMARK  4 active torsions:
REMARK  status: ('A' for Active; 'I' for Inactive)
REMARK    1  A    between atoms: C1_2  and  C2_3 
REMARK       I    between atoms: C1_2  and  N1_11 
REMARK    2  A    between atoms: C2_3  and  C3_4 
REMARK    3  A    between atoms: N1_11  and  S1_12 
REMARK    4  A    between atoms: S1_12  and  C9_15 
ROOT
HETATM    1  O1  UNL     1      -0.230  -0.713   0.986  1.00  0.00    -0.272 OA
HETATM    2  C1  UNL     1      -0.422  -0.697  -0.251  1.00  0.00     0.235 C 
HETATM    3  N1  UNL     1       0.738  -1.113  -0.987  1.00  0.00    -0.250 N 
HETATM    4  H7  UNL     1       0.763  -1.163  -2.048  1.00  0.00     0.181 HD
ENDROOT
BRANCH   3   5
HETATM    5  S1  UNL     1       2.177  -1.559  -0.125  1.00  0.00     0.266 S 
HETATM    6  O2  UNL     1       1.777  -2.147   1.214  1.00  0.00    -0.200 OA
HETATM    7  O3  UNL     1       2.891  -2.602  -0.943  1.00  0.00    -0.200 OA
BRANCH   5   8
HETATM    8  C9  UNL     1       3.221  -0.179   0.131  1.00  0.00     0.092 C 
HETATM    9  C10 UNL     1       3.191   0.621   1.156  1.00  0.00     0.012 C 
HETATM   10  C11 UNL     1       4.247   1.168   1.640  1.00  0.00     0.006 C 
HETATM   11  C12 UNL     1       5.327   1.197   0.911  1.00  0.00     0.023 C 
HETATM   12 BR1  UNL     1       7.000   1.725   1.691  1.00  0.00    -0.050 Br
HETATM   13  C13 UNL     1       5.316   0.833  -0.519  1.00  0.00     0.021 C 
HETATM   14  C14 UNL     1       4.235   0.136  -0.881  1.00  0.00     0.027 C 
ENDBRANCH   5   8
ENDBRANCH   3   5
BRANCH   2  15
HETATM   15  C2  UNL     1      -1.578  -0.346  -1.102  1.00  0.00     0.142 C 
BRANCH  15  16
HETATM   16  C3  UNL     1      -2.772   0.080  -0.376  1.00  0.00    -0.049 A 
HETATM   17  C4  UNL     1      -3.661  -0.930  -0.029  1.00  0.00     0.011 A 
HETATM   18  C5  UNL     1      -4.831  -0.649   0.662  1.00  0.00     0.043 A 
HETATM   19  C6  UNL     1      -5.089   0.665   0.997  1.00  0.00     0.116 A 
HETATM   20  F1  UNL     1      -6.228   0.951   1.672  1.00  0.00    -0.206 F 
HETATM   21  C7  UNL     1      -4.230   1.707   0.671  1.00  0.00     0.043 A 
HETATM   22  C8  UNL     1      -3.070   1.380  -0.022  1.00  0.00     0.011 A 
ENDBRANCH  15  16
ENDBRANCH   2  15
TORSDOF 4
