REMARK  4 active torsions:
REMARK  status: ('A' for Active; 'I' for Inactive)
REMARK    1  A    between atoms: C1_2  and  C2_3 
REMARK       I    between atoms: C1_2  and  N1_11 
REMARK    2  A    between atoms: C2_3  and  C3_4 
REMARK    3  A    between atoms: N1_11  and  S1_12 
REMARK    4  A    between atoms: S1_12  and  C9_14 
ROOT
HETATM    1  O1  UNL     1      -1.095  -0.380  -1.318  1.00  0.00    -0.272 OA
HETATM    2  C1  UNL     1      -0.840  -0.107  -0.102  1.00  0.00     0.233 C 
HETATM    3  N1  UNL     1       0.540  -0.044   0.171  1.00  0.00    -0.272 N 
HETATM    4  H7  UNL     1       0.932   0.167   1.110  1.00  0.00     0.179 HD
ENDROOT
BRANCH   3   5
HETATM    5  S1  UNL     1       1.684  -0.329  -1.105  1.00  0.00     0.153 S 
HETATM    6  O2  UNL     1       1.412  -1.600  -1.887  1.00  0.00    -0.230 OA
BRANCH   5   7
HETATM    7  C9  UNL     1       3.354  -0.204  -0.554  1.00  0.00     0.052 A 
HETATM    8  C10 UNL     1       3.857   1.091  -0.669  1.00  0.00     0.024 A 
HETATM    9  C11 UNL     1       5.144   1.424  -0.297  1.00  0.00     0.020 A 
HETATM   10  C12 UNL     1       5.942   0.396   0.209  1.00  0.00     0.011 A 
HETATM   11 BR1  UNL     1       7.727   0.744   0.750  1.00  0.00    -0.051 Br
HETATM   12  C13 UNL     1       5.450  -0.887   0.325  1.00  0.00     0.020 A 
HETATM   13  C14 UNL     1       4.164  -1.202  -0.050  1.00  0.00     0.024 A 
ENDBRANCH   5   7
ENDBRANCH   3   5
BRANCH   2  14
HETATM   14  C2  UNL     1      -1.790   0.144   1.025  1.00  0.00     0.142 C 
BRANCH  14  15
HETATM   15  C3  UNL     1      -3.194   0.029   0.521  1.00  0.00    -0.049 A 
HETATM   16  C4  UNL     1      -3.852  -1.182   0.544  1.00  0.00     0.011 A 
HETATM   17  C5  UNL     1      -5.152  -1.227   0.064  1.00  0.00     0.043 A 
HETATM   18  C6  UNL     1      -5.784  -0.081  -0.430  1.00  0.00     0.116 A 
HETATM   19  F1  UNL     1      -7.038  -0.073  -0.905  1.00  0.00    -0.206 F 
HETATM   20  C7  UNL     1      -5.098   1.122  -0.441  1.00  0.00     0.043 A 
HETATM   21  C8  UNL     1      -3.787   1.199   0.036  1.00  0.00     0.011 A 
ENDBRANCH  14  15
ENDBRANCH   2  14
TORSDOF 4
