REMARK  5 active torsions:
REMARK  status: ('A' for Active; 'I' for Inactive)
REMARK    1  A    between atoms: C1_2  and  C2_3 
REMARK    2  A    between atoms: C1_2  and  S1_12 
REMARK    3  A    between atoms: C2_3  and  B1_4 
REMARK    4  A    between atoms: B1_4  and  C3_5 
REMARK    5  A    between atoms: S1_12  and  C9_15 
ROOT
HETATM    1  O1  UNL     1      -0.177   0.719   0.664  1.00  0.00    -0.281 OA
HETATM    2  C1  UNL     1       0.228  -0.403   0.343  1.00  0.00     0.239 C 
ENDROOT
BRANCH   2   3
HETATM    3  C2  UNL     1      -0.591  -0.990  -0.748  1.00  0.00     0.047 C 
BRANCH   3   4
HETATM    4  B1  UNL     1      -1.909  -1.592  -0.076  1.00  0.00     0.203 B 
HETATM    5  H3  UNL     1      -1.792  -2.567   0.562  1.00  0.00    -0.021 HD
BRANCH   4   6
HETATM    6  C3  UNL     1      -3.088  -0.595   0.096  1.00  0.00    -0.102 A 
HETATM    7  C4  UNL     1      -3.992  -0.600  -0.971  1.00  0.00    -0.002 A 
HETATM    8  C5  UNL     1      -5.080   0.264  -0.923  1.00  0.00     0.042 A 
HETATM    9  C6  UNL     1      -5.282   1.115   0.142  1.00  0.00     0.116 A 
HETATM   10  F1  UNL     1      -6.355   1.974   0.193  1.00  0.00    -0.206 F 
HETATM   11  C7  UNL     1      -4.387   1.117   1.193  1.00  0.00     0.042 A 
HETATM   12  C8  UNL     1      -3.288   0.254   1.160  1.00  0.00    -0.002 A 
ENDBRANCH   4   6
ENDBRANCH   3   4
ENDBRANCH   2   3
BRANCH   2  13
HETATM   13  S1  UNL     1       1.606  -0.874   1.286  1.00  0.00     0.239 S 
HETATM   14  O2  UNL     1       1.535  -0.397   2.684  1.00  0.00    -0.214 OA
HETATM   15  O3  UNL     1       1.717  -2.384   1.301  1.00  0.00    -0.214 OA
BRANCH  13  16
HETATM   16  C9  UNL     1       3.049  -0.263   0.507  1.00  0.00     0.067 A 
HETATM   17  C10 UNL     1       3.427   1.014   0.947  1.00  0.00     0.025 A 
HETATM   18  C11 UNL     1       4.534   1.690   0.467  1.00  0.00     0.020 A 
HETATM   19  C12 UNL     1       5.276   1.037  -0.497  1.00  0.00     0.011 A 
HETATM   20 BR1  UNL     1       6.818   1.889  -1.219  1.00  0.00    -0.051 Br
HETATM   21  C13 UNL     1       4.936  -0.210  -0.950  1.00  0.00     0.020 A 
HETATM   22  C14 UNL     1       3.823  -0.854  -0.445  1.00  0.00     0.025 A 
ENDBRANCH  13  16
ENDBRANCH   2  13
TORSDOF 5
