REMARK  7 active torsions:
REMARK  status: ('A' for Active; 'I' for Inactive)
REMARK    1  A    between atoms: C3_4  and  C4_5 
REMARK    2  A    between atoms: C5_6  and  S1_7 
REMARK    3  A    between atoms: S1_7  and  N1_10 
REMARK    4  A    between atoms: N1_10  and  C6_11 
REMARK    5  A    between atoms: C6_11  and  C7_13 
REMARK    6  A    between atoms: C7_13  and  O3_14 
REMARK    7  A    between atoms: O3_14  and  C8_15 
ROOT
HETATM    1  N1  UNL     1       0.514   0.822  -0.277  1.00  0.00    -0.175 NA
HETATM    2  H5  UNL     1       0.869   0.668  -1.240  1.00  0.00     0.143 HD
ENDROOT
BRANCH   1   3
HETATM    3  S1  UNL     1       1.707   1.583   0.719  1.00  0.00     0.284 S 
HETATM    4  O1  UNL     1       2.117   2.887   0.139  1.00  0.00    -0.198 OA
HETATM    5  O2  UNL     1       1.135   1.815   2.080  1.00  0.00    -0.198 OA
BRANCH   3   6
HETATM    6  C5  UNL     1       3.054   0.473   0.768  1.00  0.00     0.048 C 
HETATM    7  C4  UNL     1       3.997  -0.289   0.804  1.00  0.00    -0.060 C 
BRANCH   7   8
HETATM    8  C3  UNL     1       5.120  -1.186   0.822  1.00  0.00     0.079 C 
HETATM    9  C2  UNL     1       6.265  -0.695   0.345  1.00  0.00    -0.007 C 
HETATM   10  C1  UNL     1       6.167   0.724  -0.130  1.00  0.00     0.057 C 
HETATM   11 BR1  UNL     1       7.858  -1.747   0.294  1.00  0.00    -0.056 Br
ENDBRANCH   7   8
ENDBRANCH   3   6
ENDBRANCH   1   3
BRANCH   1  12
HETATM   12  C6  UNL     1       0.104  -0.430   0.329  1.00  0.00     0.281 C 
HETATM   13  F1  UNL     1       0.448  -1.448  -0.521  1.00  0.00    -0.230 F 
BRANCH  12  14
HETATM   14  C7  UNL     1      -1.378  -0.431   0.645  1.00  0.00     0.229 C 
BRANCH  14  15
HETATM   15  O3  UNL     1      -2.154  -0.249  -0.532  1.00  0.00    -0.347 OA
BRANCH  15  16
HETATM   16  C8  UNL     1      -3.539  -0.233  -0.365  1.00  0.00     0.068 A 
HETATM   17  C9  UNL     1      -4.159  -0.047  -1.598  1.00  0.00     0.037 A 
HETATM   18  C10 UNL     1      -5.554   0.003  -1.682  1.00  0.00     0.003 A 
HETATM   19  C11 UNL     1      -6.311  -0.133  -0.531  1.00  0.00     0.000 A 
HETATM   20  C12 UNL     1      -5.663  -0.315   0.673  1.00  0.00     0.003 A 
HETATM   21  C13 UNL     1      -4.296  -0.368   0.779  1.00  0.00     0.037 A 
ENDBRANCH  15  16
ENDBRANCH  14  15
ENDBRANCH  12  14
ENDBRANCH   1  12
TORSDOF 7
