REMARK  6 active torsions:
REMARK  status: ('A' for Active; 'I' for Inactive)
REMARK    1  A    between atoms: C3_3  and  B1_4 
REMARK    2  A    between atoms: B1_4  and  C4_5 
REMARK    3  A    between atoms: C5_6  and  S1_7 
REMARK    4  A    between atoms: S1_7  and  N1_10 
REMARK       I    between atoms: N1_10  and  C6_11 
REMARK    5  A    between atoms: C6_11  and  C7_13 
REMARK    6  A    between atoms: C7_13  and  C8_14 
ROOT
HETATM    1  S1  UNL     1      -1.094  -1.705   2.144  1.00  0.00     0.264 S 
HETATM    2  O1  UNL     1      -1.481  -2.659   3.231  1.00  0.00    -0.200 OA
HETATM    3  O2  UNL     1      -1.374  -0.303   2.634  1.00  0.00    -0.200 OA
ENDROOT
BRANCH   1   4
HETATM    4  C5  UNL     1      -2.067  -2.050   0.719  1.00  0.00     0.075 A 
HETATM    5  C4  UNL     1      -2.571  -1.362  -0.301  1.00  0.00    -0.075 A 
HETATM    6  C15 UNL     1      -3.157  -2.604  -0.821  1.00  0.00    -0.002 A 
HETATM    7  C14 UNL     1      -2.656  -3.288   0.193  1.00  0.00     0.024 A 
BRANCH   5   8
HETATM    8  B1  UNL     1      -2.665   0.084  -0.921  1.00  0.00     0.220 B 
HETATM    9  H6  UNL     1      -1.641   0.627  -1.181  1.00  0.00    -0.016 HD
BRANCH   8  10
HETATM   10  C3  UNL     1      -3.982   0.586  -1.589  1.00  0.00    -0.081 C 
HETATM   11  C2  UNL     1      -4.639   1.676  -1.220  1.00  0.00    -0.046 C 
HETATM   12  C1  UNL     1      -4.097   2.480  -0.100  1.00  0.00     0.034 C 
ENDBRANCH   8  10
ENDBRANCH   5   8
ENDBRANCH   1   4
BRANCH   1  13
HETATM   13  N1  UNL     1       0.580  -1.874   1.745  1.00  0.00    -0.250 N 
HETATM   14  C6  UNL     1       1.329  -0.764   1.261  1.00  0.00     0.235 C 
HETATM   15  O3  UNL     1       0.584   0.251   1.196  1.00  0.00    -0.272 OA
HETATM   16  H7  UNL     1       0.975  -2.845   1.890  1.00  0.00     0.181 HD
BRANCH  14  17
HETATM   17  C7  UNL     1       2.757  -1.087   0.966  1.00  0.00     0.142 C 
BRANCH  17  18
HETATM   18  C8  UNL     1       3.494   0.092   0.468  1.00  0.00    -0.049 A 
HETATM   19  C9  UNL     1       3.506   0.304  -0.906  1.00  0.00     0.009 A 
HETATM   20  C10 UNL     1       4.186   1.402  -1.425  1.00  0.00     0.024 A 
HETATM   21  C11 UNL     1       4.849   2.277  -0.557  1.00  0.00     0.034 A 
HETATM   22 CL1  UNL     1       5.717   3.676  -1.203  1.00  0.00    -0.084 Cl
HETATM   23  C12 UNL     1       4.847   2.083   0.809  1.00  0.00     0.024 A 
HETATM   24  C13 UNL     1       4.160   0.981   1.289  1.00  0.00     0.009 A 
ENDBRANCH  17  18
ENDBRANCH  14  17
ENDBRANCH   1  13
TORSDOF 6
