REMARK  6 active torsions:
REMARK  status: ('A' for Active; 'I' for Inactive)
REMARK    1  A    between atoms: S1_2  and  N1_4 
REMARK    2  A    between atoms: S1_2  and  C9_15 
REMARK    3  A    between atoms: N1_4  and  C1_5 
REMARK    4  A    between atoms: C1_5  and  C2_6 
REMARK    5  A    between atoms: C2_6  and  C3_7 
REMARK    6  A    between atoms: C5_9  and  O3_10 
ROOT
HETATM    1  N1  UNL     1       0.686   1.837   1.252  1.00  0.00    -0.315 N 
HETATM    2  H1  UNL     1       0.795   2.706   0.720  1.00  0.00     0.172 HD
ENDROOT
BRANCH   1   3
HETATM    3  S1  UNL     1       2.132   1.145   1.856  1.00  0.00     0.258 S 
HETATM    4  O1  UNL     1       3.043   2.281   2.253  1.00  0.00    -0.201 OA
HETATM    5  O2  UNL     1       1.832   0.256   3.025  1.00  0.00    -0.201 OA
BRANCH   3   6
HETATM    6  C9  UNL     1       2.900   0.241   0.571  1.00  0.00     0.079 A 
HETATM    7  C10 UNL     1       3.823   0.846  -0.289  1.00  0.00     0.025 A 
HETATM    8  C11 UNL     1       4.445   0.159  -1.311  1.00  0.00     0.002 A 
HETATM    9  C12 UNL     1       4.162  -1.193  -1.520  1.00  0.00     0.000 A 
HETATM   10  C13 UNL     1       3.242  -1.787  -0.659  1.00  0.00     0.002 A 
HETATM   11  C14 UNL     1       2.619  -1.093   0.367  1.00  0.00     0.025 A 
ENDBRANCH   3   6
ENDBRANCH   1   3
BRANCH   1  12
HETATM   12  C1  UNL     1      -0.290   0.905   0.799  1.00  0.00     0.137 C 
BRANCH  12  13
HETATM   13  C2  UNL     1      -1.549   1.587   0.274  1.00  0.00     0.060 C 
BRANCH  13  14
HETATM   14  C3  UNL     1      -2.458   0.491  -0.156  1.00  0.00    -0.032 A 
HETATM   15  C4  UNL     1      -3.534   0.147   0.633  1.00  0.00     0.045 A 
HETATM   16  C5  UNL     1      -4.395  -0.882   0.237  1.00  0.00     0.066 A 
HETATM   17  C6  UNL     1      -4.171  -1.560  -0.948  1.00  0.00     0.038 A 
HETATM   18  C7  UNL     1      -3.085  -1.202  -1.730  1.00  0.00     0.027 A 
HETATM   19  C8  UNL     1      -2.235  -0.186  -1.338  1.00  0.00     0.040 A 
HETATM   20 CL1  UNL     1      -0.883   0.208  -2.381  1.00  0.00    -0.084 Cl
BRANCH  16  21
HETATM   21  O3  UNL     1      -5.452  -1.160   1.094  1.00  0.00    -0.361 OA
HETATM   22  H7  UNL     1      -5.341  -1.603   1.977  1.00  0.00     0.217 HD
ENDBRANCH  16  21
ENDBRANCH  13  14
ENDBRANCH  12  13
ENDBRANCH   1  12
TORSDOF 6
