REMARK  6 active torsions:
REMARK  status: ('A' for Active; 'I' for Inactive)
REMARK    1  A    between atoms: N1_2  and  C2_3 
REMARK    2  A    between atoms: C2_3  and  S1_8 
REMARK    3  A    between atoms: C3_4  and  C4_5 
REMARK    4  A    between atoms: S1_8  and  N2_11 
REMARK       I    between atoms: N2_11  and  C7_12 
REMARK    5  A    between atoms: C7_12  and  C8_14 
REMARK    6  A    between atoms: C8_14  and  C9_15 
ROOT
HETATM    1  N2  UNL     1      -0.103  -0.425  -0.084  1.00  0.00    -0.249 N 
HETATM    2  C7  UNL     1      -1.470  -0.099   0.118  1.00  0.00     0.235 C 
HETATM    3  O3  UNL     1      -1.605   0.956   0.798  1.00  0.00    -0.272 OA
HETATM    4  H9  UNL     1       0.185  -1.285  -0.637  1.00  0.00     0.182 HD
ENDROOT
BRANCH   1   5
HETATM    5  S1  UNL     1       1.036   0.670   0.631  1.00  0.00     0.280 S 
HETATM    6  O1  UNL     1       0.880   0.709   2.128  1.00  0.00    -0.199 OA
HETATM    7  O2  UNL     1       0.829   2.069   0.122  1.00  0.00    -0.199 OA
BRANCH   5   8
HETATM    8  C2  UNL     1       2.646   0.102   0.275  1.00  0.00     0.145 C 
HETATM    9  C3  UNL     1       3.282  -0.735   1.076  1.00  0.00     0.050 C 
BRANCH   8  10
HETATM   10  N1  UNL     1       3.460   0.434  -0.859  1.00  0.00    -0.384 N 
HETATM   11  C1  UNL     1       4.128   1.730  -0.830  1.00  0.00     0.147 C 
HETATM   12  H4  UNL     1       3.550  -0.244  -1.657  1.00  0.00     0.159 HD
ENDBRANCH   8  10
BRANCH   9  13
HETATM   13  C4  UNL     1       4.624  -1.174   0.726  1.00  0.00    -0.055 A 
HETATM   14  C5  UNL     1       5.687  -1.923   1.067  1.00  0.00    -0.015 A 
HETATM   15  C6  UNL     1       5.798  -1.178  -0.165  1.00  0.00     0.066 A 
ENDBRANCH   9  13
ENDBRANCH   5   8
ENDBRANCH   1   5
BRANCH   2  16
HETATM   16  C8  UNL     1      -2.473  -1.021  -0.485  1.00  0.00     0.142 C 
BRANCH  16  17
HETATM   17  C9  UNL     1      -3.864  -0.577  -0.208  1.00  0.00    -0.049 A 
HETATM   18  C10 UNL     1      -4.397   0.286  -1.168  1.00  0.00     0.009 A 
HETATM   19  C11 UNL     1      -5.670   0.772  -1.038  1.00  0.00     0.024 A 
HETATM   20  C12 UNL     1      -6.447   0.413   0.052  1.00  0.00     0.034 A 
HETATM   21 CL1  UNL     1      -8.071   1.031   0.222  1.00  0.00    -0.084 Cl
HETATM   22  C13 UNL     1      -5.920  -0.439   0.999  1.00  0.00     0.024 A 
HETATM   23  C14 UNL     1      -4.641  -0.932   0.876  1.00  0.00     0.009 A 
ENDBRANCH  16  17
ENDBRANCH   2  16
TORSDOF 6
