REMARK  5 active torsions:
REMARK  status: ('A' for Active; 'I' for Inactive)
REMARK    1  A    between atoms: C5_5  and  S1_6 
REMARK    2  A    between atoms: S1_6  and  N1_9 
REMARK    3  A    between atoms: N1_9  and  C6_10 
REMARK    4  A    between atoms: C6_10  and  O3_11 
REMARK    5  A    between atoms: C6_10  and  C7_12 
ROOT
HETATM    1  N1  UNL     1      -0.899  -1.198  -0.684  1.00  0.00    -0.184 NA
HETATM    2  H6  UNL     1      -0.619  -2.101  -0.269  1.00  0.00     0.143 HD
ENDROOT
BRANCH   1   3
HETATM    3  S1  UNL     1       0.296  -0.563  -1.748  1.00  0.00     0.243 S 
HETATM    4  O1  UNL     1      -0.257   0.618  -2.488  1.00  0.00    -0.206 OA
HETATM    5  O2  UNL     1       0.606  -1.628  -2.765  1.00  0.00    -0.206 OA
BRANCH   3   6
HETATM    6  C5  UNL     1       1.769  -0.134  -0.942  1.00  0.00     0.074 A 
HETATM    7  C4  UNL     1       2.752  -1.104  -0.814  1.00  0.00     0.025 A 
HETATM    8  C3  UNL     1       3.961  -0.907  -0.203  1.00  0.00     0.008 A 
HETATM    9  C2  UNL     1       4.254   0.328   0.330  1.00  0.00    -0.062 A 
HETATM   10  C1  UNL     1       5.548   0.606   1.005  1.00  0.00     0.048 C 
HETATM   11  C14 UNL     1       3.293   1.311   0.216  1.00  0.00     0.008 A 
HETATM   12  C13 UNL     1       2.080   1.094  -0.403  1.00  0.00     0.025 A 
ENDBRANCH   3   6
ENDBRANCH   1   3
BRANCH   1  13
HETATM   13  C6  UNL     1      -1.229  -0.180   0.284  1.00  0.00     0.239 C 
BRANCH  13  14
HETATM   14  O3  UNL     1      -0.912  -0.725   1.548  1.00  0.00    -0.376 OA
HETATM   15  H8  UNL     1      -1.644  -0.424   2.148  1.00  0.00     0.212 HD
ENDBRANCH  13  14
BRANCH  13  16
HETATM   16  C7  UNL     1      -2.704   0.116   0.210  1.00  0.00    -0.015 A 
HETATM   17  C8  UNL     1      -3.453  -1.059   0.144  1.00  0.00     0.013 A 
HETATM   18  C9  UNL     1      -4.832  -1.032   0.069  1.00  0.00     0.024 A 
HETATM   19  C10 UNL     1      -5.441   0.226   0.063  1.00  0.00     0.034 A 
HETATM   20 CL1  UNL     1      -7.197   0.334  -0.031  1.00  0.00    -0.084 Cl
HETATM   21  C11 UNL     1      -4.697   1.386   0.128  1.00  0.00     0.024 A 
HETATM   22  C12 UNL     1      -3.320   1.350   0.202  1.00  0.00     0.013 A 
ENDBRANCH  13  16
ENDBRANCH   1  13
TORSDOF 5
