REMARK  0 active torsions:
REMARK  status: ('A' for Active; 'I' for Inactive)
ROOT
HETATM    1  O1  UNL     1      -0.791   0.793   2.295  1.00  0.00    -0.272 OA
HETATM    2  C1  UNL     1      -0.528   1.300   1.205  1.00  0.00     0.235 C 
HETATM    3  C2  UNL     1       0.574   1.967   0.460  1.00  0.00     0.142 C 
HETATM    4  C3  UNL     1       1.547   0.980  -0.005  1.00  0.00    -0.043 A 
HETATM    5  C4  UNL     1       2.801   1.619  -0.094  1.00  0.00     0.010 A 
HETATM    6  C5  UNL     1       3.993   1.068  -0.520  1.00  0.00     0.024 A 
HETATM    7  C6  UNL     1       4.076  -0.243  -0.923  1.00  0.00     0.034 A 
HETATM    8 CL1  UNL     1       5.434  -1.133  -1.486  1.00  0.00    -0.084 Cl
HETATM    9  C7  UNL     1       2.904  -0.963  -0.874  1.00  0.00     0.031 A 
HETATM   10  C8  UNL     1       1.784  -0.332  -0.440  1.00  0.00    -0.045 A 
HETATM   11  C9  UNL     1       0.460  -0.805  -0.255  1.00  0.00     0.035 C 
HETATM   12  C10 UNL     1      -0.593  -1.457   0.135  1.00  0.00     0.052 C 
HETATM   13  C11 UNL     1      -1.613  -2.316   0.709  1.00  0.00     0.110 C 
HETATM   14  F1  UNL     1      -0.498  -2.809   1.254  1.00  0.00    -0.207 F 
HETATM   15  C12 UNL     1      -2.803  -1.985   0.286  1.00  0.00     0.032 C 
HETATM   16  C13 UNL     1      -3.204  -0.954  -0.635  1.00  0.00     0.193 C 
HETATM   17  S1  UNL     1      -3.524   0.608   0.218  1.00  0.00     0.236 S 
HETATM   18  O2  UNL     1      -4.136   1.633  -0.612  1.00  0.00    -0.205 OA
HETATM   19  O3  UNL     1      -4.374   0.292   1.386  1.00  0.00    -0.205 OA
HETATM   20  N1  UNL     1      -1.877   0.989   0.760  1.00  0.00    -0.254 N 
HETATM   21  H11 UNL     1      -1.656   1.405  -0.169  1.00  0.00     0.181 HD
ENDROOT
TORSDOF 0
