REMARK  7 active torsions:
REMARK  status: ('A' for Active; 'I' for Inactive)
REMARK    1  A    between atoms: C2_2  and  O3_19 
REMARK    2  A    between atoms: C3_3  and  C4_4 
REMARK    3  A    between atoms: C5_5  and  S1_6 
REMARK    4  A    between atoms: S1_6  and  N1_9 
REMARK    5  A    between atoms: N1_9  and  C6_10 
REMARK    6  A    between atoms: C6_10  and  C7_11 
REMARK    7  A    between atoms: C7_11  and  C8_12 
ROOT
HETATM    1  N1  UNL     1      -0.687  -0.262  -0.745  1.00  0.00    -0.209 NA
HETATM    2  H5  UNL     1      -0.780  -1.270  -0.887  1.00  0.00     0.140 HD
ENDROOT
BRANCH   1   3
HETATM    3  S1  UNL     1       0.531   0.466  -1.718  1.00  0.00     0.281 S 
HETATM    4  O1  UNL     1       0.312  -0.054  -3.131  1.00  0.00    -0.198 OA
HETATM    5  O2  UNL     1       0.346   1.953  -1.766  1.00  0.00    -0.198 OA
BRANCH   3   6
HETATM    6  C5  UNL     1       2.104   0.041  -1.152  1.00  0.00     0.048 C 
HETATM    7  C4  UNL     1       3.216  -0.259  -0.765  1.00  0.00    -0.058 C 
BRANCH   7   8
HETATM    8  C3  UNL     1       4.547  -0.635  -0.319  1.00  0.00     0.100 C 
HETATM    9  C2  UNL     1       5.318   0.203   0.356  1.00  0.00     0.093 C 
HETATM   10  C1  UNL     1       6.672  -0.285   0.768  1.00  0.00     0.080 C 
BRANCH   9  11
HETATM   11  O3  UNL     1       4.814   1.469   0.630  1.00  0.00    -0.160 OA
HETATM   12  F1  UNL     1       4.412   1.838   1.850  1.00  0.00    -0.042 F 
ENDBRANCH   9  11
ENDBRANCH   7   8
ENDBRANCH   3   6
ENDBRANCH   1   3
BRANCH   1  13
HETATM   13  C6  UNL     1      -0.639   0.164   0.628  1.00  0.00     0.109 C 
BRANCH  13  14
HETATM   14  C7  UNL     1      -1.737  -0.518   1.416  1.00  0.00     0.054 C 
BRANCH  14  15
HETATM   15  C8  UNL     1      -3.079  -0.208   0.898  1.00  0.00    -0.057 A 
HETATM   16  C9  UNL     1      -3.856   0.854   1.313  1.00  0.00     0.009 A 
HETATM   17  C10 UNL     1      -5.114   1.079   0.774  1.00  0.00     0.024 A 
HETATM   18  C11 UNL     1      -5.621   0.237  -0.198  1.00  0.00     0.034 A 
HETATM   19 CL1  UNL     1      -7.209   0.515  -0.884  1.00  0.00    -0.084 Cl
HETATM   20  C12 UNL     1      -4.851  -0.826  -0.619  1.00  0.00     0.024 A 
HETATM   21  C13 UNL     1      -3.588  -1.052  -0.077  1.00  0.00     0.009 A 
ENDBRANCH  14  15
ENDBRANCH  13  14
ENDBRANCH   1  13
TORSDOF 7
