REMARK  2 active torsions:
REMARK  status: ('A' for Active; 'I' for Inactive)
REMARK    1  A    between atoms: C4_5  and  N1_6 
REMARK    2  A    between atoms: N1_6  and  C5_7 
ROOT
HETATM    1  C5  UNL     1      -1.344  -0.593  -0.016  1.00  0.00     0.158 A 
HETATM    2  N2  UNL     1      -1.888  -1.785  -0.273  1.00  0.00    -0.222 NA
HETATM    3  C6  UNL     1      -1.139  -2.891  -0.304  1.00  0.00     0.236 A 
HETATM    4  N3  UNL     1       0.206  -2.855  -0.076  1.00  0.00    -0.240 NA
HETATM    5  C7  UNL     1       0.804  -1.659   0.190  1.00  0.00     0.089 A 
HETATM    6  C8  UNL     1       0.010  -0.502   0.221  1.00  0.00     0.104 A 
HETATM    7  N4  UNL     1       0.510   0.792   0.506  1.00  0.00    -0.381 N 
HETATM    8  C9  UNL     1       1.736   1.445   0.155  1.00  0.00     0.159 C 
HETATM    9  C10 UNL     1       2.919   0.561   0.097  1.00  0.00    -0.032 C 
HETATM   10  C11 UNL     1       3.839   1.457  -0.305  1.00  0.00     0.011 C 
HETATM   11  C12 UNL     1       5.270   1.200  -0.558  1.00  0.00     0.025 C 
HETATM   12  C13 UNL     1       6.034   0.201  -0.164  1.00  0.00     0.135 C 
HETATM   13  O1  UNL     1       5.575  -0.843   0.608  1.00  0.00    -0.359 OA
HETATM   14  C14 UNL     1       4.418  -1.613   0.639  1.00  0.00     0.213 C 
HETATM   15  C15 UNL     1       3.172  -0.853   0.359  1.00  0.00    -0.024 C 
HETATM   16  C16 UNL     1       2.256  -1.824   0.400  1.00  0.00     0.044 C 
HETATM   17  H5  UNL     1      -0.206   1.320   1.098  1.00  0.00     0.160 HD
ENDROOT
BRANCH   1  18
HETATM   18  N1  UNL     1      -2.116   0.596   0.011  1.00  0.00    -0.339 N 
HETATM   19  H3  UNL     1      -1.731   1.557   0.098  1.00  0.00     0.167 HD
BRANCH  18  20
HETATM   20  C4  UNL     1      -3.526   0.695  -0.094  1.00  0.00     0.035 A 
HETATM   21  C3  UNL     1      -4.215   1.893  -0.330  1.00  0.00     0.032 A 
HETATM   22  C2  UNL     1      -5.575   2.014  -0.428  1.00  0.00     0.046 A 
HETATM   23  C1  UNL     1      -6.368   0.898  -0.291  1.00  0.00     0.138 A 
HETATM   24  F1  UNL     1      -7.700   1.103  -0.401  1.00  0.00    -0.204 F 
HETATM   25  C18 UNL     1      -5.753  -0.315  -0.058  1.00  0.00     0.074 A 
HETATM   26  C17 UNL     1      -4.387  -0.358   0.028  1.00  0.00     0.056 A 
HETATM   27 CL1  UNL     1      -6.829  -1.678   0.103  1.00  0.00    -0.081 Cl
ENDBRANCH  18  20
ENDBRANCH   1  18
TORSDOF 2
