REMARK  5 active torsions:
REMARK  status: ('A' for Active; 'I' for Inactive)
REMARK    1  A    between atoms: C2_2  and  C3_3 
REMARK    2  A    between atoms: C2_2  and  N1_10 
REMARK    3  A    between atoms: C3_3  and  C4_4 
REMARK    4  A    between atoms: N1_10  and  S1_11 
REMARK    5  A    between atoms: S1_11  and  C9_14 
ROOT
HETATM    1  N1  UNL     1       0.467  -0.905   1.689  1.00  0.00    -0.211 NA
HETATM    2  H11 UNL     1       0.711   0.018   2.080  1.00  0.00     0.140 HD
ENDROOT
BRANCH   1   3
HETATM    3  C2  UNL     1      -0.665  -0.846   0.784  1.00  0.00     0.068 C 
HETATM    4  C1  UNL     1      -1.855  -1.494   1.391  1.00  0.00     0.027 C 
BRANCH   3   5
HETATM    5  C3  UNL     1      -0.878   0.569   0.353  1.00  0.00     0.032 C 
BRANCH   5   6
HETATM    6  C4  UNL     1      -1.935   0.779  -0.668  1.00  0.00     0.034 A 
HETATM    7  C5  UNL     1      -1.952   2.266  -0.929  1.00  0.00    -0.016 A 
HETATM    8  C6  UNL     1      -3.124   2.819  -0.651  1.00  0.00     0.020 A 
HETATM    9  C7  UNL     1      -3.989   1.733  -0.177  1.00  0.00     0.030 A 
HETATM   10 CL1  UNL     1      -5.635   2.133   0.282  1.00  0.00    -0.085 Cl
HETATM   11  C8  UNL     1      -3.320   0.590  -0.187  1.00  0.00     0.006 A 
ENDBRANCH   5   6
ENDBRANCH   3   5
ENDBRANCH   1   3
BRANCH   1  12
HETATM   12  S1  UNL     1       1.788  -1.799   1.095  1.00  0.00     0.241 S 
HETATM   13  O1  UNL     1       2.843  -1.803   2.155  1.00  0.00    -0.206 OA
HETATM   14  O2  UNL     1       1.328  -3.195   0.797  1.00  0.00    -0.206 OA
BRANCH  12  15
HETATM   15  C9  UNL     1       2.392  -1.078  -0.352  1.00  0.00     0.074 A 
HETATM   16  C10 UNL     1       2.009  -1.340  -1.657  1.00  0.00     0.028 A 
HETATM   17  C11 UNL     1       2.576  -0.688  -2.730  1.00  0.00     0.044 A 
HETATM   18  C12 UNL     1       3.560   0.261  -2.532  1.00  0.00     0.116 A 
HETATM   19  F1  UNL     1       4.102   0.889  -3.604  1.00  0.00    -0.206 F 
HETATM   20  C13 UNL     1       3.988   0.568  -1.238  1.00  0.00     0.044 A 
HETATM   21  C14 UNL     1       3.388  -0.113  -0.198  1.00  0.00     0.028 A 
ENDBRANCH  12  15
ENDBRANCH   1  12
TORSDOF 5
