REMARK  7 active torsions:
REMARK  status: ('A' for Active; 'I' for Inactive)
REMARK    1  A    between atoms: C2_2  and  P1_3 
REMARK    2  A    between atoms: P1_3  and  C3_5 
REMARK    3  A    between atoms: C3_5  and  C4_6 
REMARK    4  A    between atoms: C5_7  and  C6_8 
REMARK    5  A    between atoms: C6_8  and  C7_9 
REMARK       I    between atoms: C7_9  and  N1_11 
REMARK    6  A    between atoms: N1_11  and  S1_12 
REMARK    7  A    between atoms: S1_12  and  C8_15 
ROOT
HETATM    1  C7  UNL     1       0.369  -1.053  -0.502  1.00  0.00     0.234 C 
HETATM    2  O1  UNL     1       0.262  -2.274  -0.209  1.00  0.00    -0.272 OA
HETATM    3  N1  UNL     1      -0.906  -0.423  -0.402  1.00  0.00    -0.250 N 
HETATM    4  H8  UNL     1      -1.054   0.611  -0.605  1.00  0.00     0.181 HD
ENDROOT
BRANCH   3   5
HETATM    5  S1  UNL     1      -2.207  -1.478   0.080  1.00  0.00     0.265 S 
HETATM    6  O2  UNL     1      -2.319  -2.524  -0.993  1.00  0.00    -0.200 OA
HETATM    7  O3  UNL     1      -1.907  -2.114   1.403  1.00  0.00    -0.200 OA
BRANCH   5   8
HETATM    8  C8  UNL     1      -3.662  -0.506   0.137  1.00  0.00     0.080 A 
HETATM    9  C9  UNL     1      -4.432  -0.401  -1.009  1.00  0.00     0.027 A 
HETATM   10  C10 UNL     1      -5.594   0.347  -1.045  1.00  0.00     0.025 A 
HETATM   11  C11 UNL     1      -6.037   1.028   0.083  1.00  0.00     0.034 A 
HETATM   12 CL2  UNL     1      -7.504   1.983   0.065  1.00  0.00    -0.084 Cl
HETATM   13  C12 UNL     1      -5.268   0.926   1.235  1.00  0.00     0.025 A 
HETATM   14  C13 UNL     1      -4.107   0.170   1.246  1.00  0.00     0.027 A 
ENDBRANCH   5   8
ENDBRANCH   3   5
BRANCH   1  15
HETATM   15  C6  UNL     1       1.480  -0.125  -0.920  1.00  0.00     0.131 C 
BRANCH  15  16
HETATM   16  C5  UNL     1       2.735  -0.905  -0.982  1.00  0.00    -0.017 C 
HETATM   17  C4  UNL     1       3.956  -0.929  -0.425  1.00  0.00    -0.001 C 
BRANCH  17  18
HETATM   18  C3  UNL     1       3.845   0.182   0.457  1.00  0.00     0.034 C 
BRANCH  18  19
HETATM   19  P1  UNL     1       5.412  -0.039   1.006  1.00  0.00     0.074 P 
HETATM   20 CL1  UNL     1       6.522  -1.630   0.213  1.00  0.00    -0.078 Cl
BRANCH  19  21
HETATM   21  C2  UNL     1       6.183   1.373   0.661  1.00  0.00    -0.131 C 
HETATM   22  C1  UNL     1       6.716   2.403   0.013  1.00  0.00     0.098 C 
ENDBRANCH  19  21
ENDBRANCH  18  19
ENDBRANCH  17  18
ENDBRANCH  15  16
ENDBRANCH   1  15
TORSDOF 7
