REMARK  5 active torsions:
REMARK  status: ('A' for Active; 'I' for Inactive)
REMARK    1  A    between atoms: C1_2  and  C2_3 
REMARK       I    between atoms: C1_2  and  N1_11 
REMARK    2  A    between atoms: C2_3  and  C3_4 
REMARK    3  A    between atoms: C6_7  and  O2_8 
REMARK    4  A    between atoms: N1_11  and  S1_12 
REMARK    5  A    between atoms: S1_12  and  C9_14 
ROOT
HETATM    1  O1  UNL     1      -0.980  -0.162   1.105  1.00  0.00    -0.272 OA
HETATM    2  C1  UNL     1      -0.513   0.059  -0.042  1.00  0.00     0.233 C 
HETATM    3  N1  UNL     1       0.851   0.205  -0.385  1.00  0.00    -0.272 N 
HETATM    4  H8  UNL     1       1.108   0.388  -1.385  1.00  0.00     0.179 HD
ENDROOT
BRANCH   2   5
HETATM    5  C2  UNL     1      -1.528   0.172  -1.116  1.00  0.00     0.142 C 
BRANCH   5   6
HETATM    6  C3  UNL     1      -2.901   0.002  -0.627  1.00  0.00    -0.049 A 
HETATM    7  C4  UNL     1      -3.734   1.019  -0.171  1.00  0.00     0.010 A 
HETATM    8  C5  UNL     1      -5.005   0.726   0.264  1.00  0.00     0.037 A 
HETATM    9  C6  UNL     1      -5.503  -0.561   0.267  1.00  0.00     0.065 A 
HETATM   10  C7  UNL     1      -4.709  -1.607  -0.179  1.00  0.00     0.037 A 
HETATM   11  C8  UNL     1      -3.440  -1.280  -0.607  1.00  0.00     0.010 A 
BRANCH   9  12
HETATM   12  O2  UNL     1      -6.790  -0.802   0.715  1.00  0.00    -0.361 OA
HETATM   13  H5  UNL     1      -7.255  -1.685   0.543  1.00  0.00     0.217 HD
ENDBRANCH   9  12
ENDBRANCH   5   6
ENDBRANCH   2   5
BRANCH   3  14
HETATM   14  S1  UNL     1       1.971   0.053   0.964  1.00  0.00     0.153 S 
HETATM   15  O3  UNL     1       1.690   1.100   2.014  1.00  0.00    -0.230 OA
BRANCH  14  16
HETATM   16  C9  UNL     1       3.602   0.268   0.306  1.00  0.00     0.052 A 
HETATM   17  C10 UNL     1       4.186  -0.920  -0.106  1.00  0.00     0.024 A 
HETATM   18  C11 UNL     1       5.465  -0.948  -0.650  1.00  0.00     0.025 A 
HETATM   19  C12 UNL     1       6.124   0.273  -0.758  1.00  0.00     0.034 A 
HETATM   20 CL1  UNL     1       7.740   0.303  -1.436  1.00  0.00    -0.084 Cl
HETATM   21  C13 UNL     1       5.536   1.452  -0.346  1.00  0.00     0.025 A 
HETATM   22  C14 UNL     1       4.270   1.477   0.192  1.00  0.00     0.024 A 
ENDBRANCH  14  16
ENDBRANCH   3  14
TORSDOF 5
