REMARK  6 active torsions:
REMARK  status: ('A' for Active; 'I' for Inactive)
REMARK    1  A    between atoms: C1_2  and  C2_3 
REMARK    2  A    between atoms: C2_3  and  C3_4 
REMARK    3  A    between atoms: C2_3  and  N1_12 
REMARK    4  A    between atoms: C3_4  and  C4_5 
REMARK    5  A    between atoms: N1_12  and  S1_13 
REMARK    6  A    between atoms: S1_13  and  C10_16 
ROOT
HETATM    1  N1  UNL     1       0.559   2.065   0.071  1.00  0.00    -0.280 N 
HETATM    2  H7  UNL     1       0.437   2.972  -0.431  1.00  0.00     0.179 HD
ENDROOT
BRANCH   1   3
HETATM    3  C2  UNL     1      -0.443   1.063  -0.070  1.00  0.00     0.078 C 
BRANCH   3   4
HETATM    4  C1  UNL     1      -0.137  -0.204  -0.298  1.00  0.00     0.247 C 
HETATM    5  O1  UNL     1       0.045  -1.299  -0.889  1.00  0.00    -0.282 OA
ENDBRANCH   3   4
BRANCH   3   6
HETATM    6  C3  UNL     1      -1.841   1.502   0.049  1.00  0.00     0.100 C 
BRANCH   6   7
HETATM    7  C4  UNL     1      -2.844   0.443  -0.101  1.00  0.00    -0.052 A 
HETATM    8  C5  UNL     1      -3.330   0.175  -1.361  1.00  0.00     0.009 A 
HETATM    9  C6  UNL     1      -4.287  -0.803  -1.656  1.00  0.00     0.024 A 
HETATM   10  C7  UNL     1      -4.746  -1.525  -0.577  1.00  0.00     0.034 A 
HETATM   11 CL1  UNL     1      -5.947  -2.761  -0.910  1.00  0.00    -0.084 Cl
HETATM   12  C8  UNL     1      -4.308  -1.317   0.719  1.00  0.00     0.024 A 
HETATM   13  C9  UNL     1      -3.368  -0.337   0.920  1.00  0.00     0.009 A 
ENDBRANCH   6   7
ENDBRANCH   3   6
ENDBRANCH   1   3
BRANCH   1  14
HETATM   14  S1  UNL     1       1.946   1.764   1.062  1.00  0.00     0.263 S 
HETATM   15  O2  UNL     1       1.548   1.471   2.478  1.00  0.00    -0.200 OA
HETATM   16  O3  UNL     1       2.795   3.000   1.117  1.00  0.00    -0.200 OA
BRANCH  14  17
HETATM   17  C10 UNL     1       2.897   0.421   0.489  1.00  0.00     0.080 A 
HETATM   18  C11 UNL     1       3.907   0.744  -0.421  1.00  0.00     0.027 A 
HETATM   19  C12 UNL     1       4.764  -0.202  -0.982  1.00  0.00     0.025 A 
HETATM   20  C13 UNL     1       4.595  -1.520  -0.611  1.00  0.00     0.034 A 
HETATM   21 CL2  UNL     1       5.638  -2.737  -1.281  1.00  0.00    -0.084 Cl
HETATM   22  C14 UNL     1       3.616  -1.846   0.275  1.00  0.00     0.025 A 
HETATM   23  C15 UNL     1       2.784  -0.918   0.818  1.00  0.00     0.027 A 
ENDBRANCH  14  17
ENDBRANCH   1  14
TORSDOF 6
