REMARK  6 active torsions:
REMARK  status: ('A' for Active; 'I' for Inactive)
REMARK    1  A    between atoms: S1_2  and  N1_4 
REMARK    2  A    between atoms: S1_2  and  C8_15 
REMARK    3  A    between atoms: N1_4  and  N2_5 
REMARK    4  A    between atoms: N2_5  and  C1_6 
REMARK    5  A    between atoms: C1_6  and  C2_7 
REMARK    6  A    between atoms: C7_13  and  O3_14 
ROOT
HETATM    1  N1  UNL     1       0.046  -0.625   0.306  1.00  0.00    -0.227 N 
HETATM    2  H1  UNL     1       0.525  -1.499   0.505  1.00  0.00     0.200 HD
ENDROOT
BRANCH   1   3
HETATM    3  S1  UNL     1      -1.051  -0.019   1.430  1.00  0.00     0.275 S 
HETATM    4  O1  UNL     1      -0.945  -0.899   2.670  1.00  0.00    -0.199 OA
HETATM    5  O2  UNL     1      -0.738   1.385   1.918  1.00  0.00    -0.199 OA
BRANCH   3   6
HETATM    6  C8  UNL     1      -2.733  -0.109   0.923  1.00  0.00     0.081 A 
HETATM    7  C9  UNL     1      -3.311   0.931   0.225  1.00  0.00     0.027 A 
HETATM    8  C10 UNL     1      -4.623   0.941  -0.208  1.00  0.00     0.025 A 
HETATM    9  C11 UNL     1      -5.412  -0.177   0.084  1.00  0.00     0.034 A 
HETATM   10 CL2  UNL     1      -7.091  -0.222  -0.441  1.00  0.00    -0.084 Cl
HETATM   11  C12 UNL     1      -4.853  -1.240   0.787  1.00  0.00     0.025 A 
HETATM   12  C13 UNL     1      -3.537  -1.217   1.204  1.00  0.00     0.027 A 
ENDBRANCH   3   6
ENDBRANCH   1   3
BRANCH   1  13
HETATM   13  N2  UNL     1       0.134  -0.052  -0.909  1.00  0.00    -0.323 N 
HETATM   14  H2  UNL     1      -0.558  -0.256  -1.628  1.00  0.00     0.181 HD
BRANCH  13  15
HETATM   15  C1  UNL     1       1.134   0.910  -1.169  1.00  0.00     0.181 C 
BRANCH  15  16
HETATM   16  C2  UNL     1       2.538   0.399  -0.983  1.00  0.00    -0.006 A 
HETATM   17  C3  UNL     1       3.385   0.063  -2.027  1.00  0.00     0.013 A 
HETATM   18  C4  UNL     1       4.647  -0.396  -1.756  1.00  0.00     0.024 A 
HETATM   19  C5  UNL     1       5.097  -0.532  -0.478  1.00  0.00     0.036 A 
HETATM   20 CL1  UNL     1       6.721  -1.122  -0.122  1.00  0.00    -0.084 Cl
HETATM   21  C6  UNL     1       4.293  -0.210   0.608  1.00  0.00     0.060 A 
HETATM   22  C7  UNL     1       3.012   0.256   0.321  1.00  0.00     0.075 A 
BRANCH  22  23
HETATM   23  O3  UNL     1       2.244   0.565   1.429  1.00  0.00    -0.360 OA
HETATM   24  H8  UNL     1       2.259   1.485   1.829  1.00  0.00     0.217 HD
ENDBRANCH  22  23
ENDBRANCH  15  16
ENDBRANCH  13  15
ENDBRANCH   1  13
TORSDOF 6
