REMARK  4 active torsions:
REMARK  status: ('A' for Active; 'I' for Inactive)
REMARK    1  A    between atoms: C1_2  and  C2_3 
REMARK       I    between atoms: C1_2  and  N1_11 
REMARK    2  A    between atoms: C2_3  and  C3_4 
REMARK    3  A    between atoms: N1_11  and  S1_12 
REMARK    4  A    between atoms: S1_12  and  C9_15 
ROOT
HETATM    1  O1  UNL     1      -0.915   1.632   0.106  1.00  0.00    -0.272 OA
HETATM    2  C1  UNL     1       0.052   0.818  -0.095  1.00  0.00     0.235 C 
HETATM    3  N1  UNL     1      -0.140  -0.562  -0.255  1.00  0.00    -0.250 N 
HETATM    4  H7  UNL     1       0.692  -1.175  -0.415  1.00  0.00     0.181 HD
ENDROOT
BRANCH   3   5
HETATM    5  S1  UNL     1      -1.616  -1.457  -0.227  1.00  0.00     0.261 S 
HETATM    6  O2  UNL     1      -1.787  -2.187  -1.520  1.00  0.00    -0.200 OA
HETATM    7  O3  UNL     1      -1.615  -2.474   0.886  1.00  0.00    -0.200 OA
BRANCH   5   8
HETATM    8  C9  UNL     1      -2.966  -0.345   0.022  1.00  0.00     0.062 A 
HETATM    9  C10 UNL     1      -3.653   0.262  -0.958  1.00  0.00     0.044 A 
HETATM   10  C11 UNL     1      -4.683   1.094  -0.351  1.00  0.00     0.031 A 
HETATM   11 CL2  UNL     1      -5.830   2.085  -1.252  1.00  0.00    -0.085 Cl
HETATM   12  C12 UNL     1      -4.595   0.972   0.951  1.00  0.00     0.002 A 
HETATM   13  C13 UNL     1      -3.496   0.047   1.337  1.00  0.00     0.081 A 
ENDBRANCH   5   8
ENDBRANCH   3   5
BRANCH   2  14
HETATM   14  C2  UNL     1       1.352   1.486  -0.137  1.00  0.00     0.142 C 
BRANCH  14  15
HETATM   15  C3  UNL     1       2.492   0.545   0.051  1.00  0.00    -0.049 A 
HETATM   16  C4  UNL     1       3.028  -0.015  -1.098  1.00  0.00     0.009 A 
HETATM   17  C5  UNL     1       4.087  -0.899  -1.047  1.00  0.00     0.024 A 
HETATM   18  C6  UNL     1       4.620  -1.226   0.193  1.00  0.00     0.034 A 
HETATM   19 CL1  UNL     1       5.964  -2.334   0.410  1.00  0.00    -0.084 Cl
HETATM   20  C7  UNL     1       4.111  -0.687   1.362  1.00  0.00     0.024 A 
HETATM   21  C8  UNL     1       3.045   0.197   1.268  1.00  0.00     0.009 A 
ENDBRANCH  14  15
ENDBRANCH   2  14
TORSDOF 4
