REMARK  3 active torsions:
REMARK  status: ('A' for Active; 'I' for Inactive)
REMARK    1  A    between atoms: C7_8  and  C8_9 
REMARK       I    between atoms: C8_9  and  N1_11 
REMARK    2  A    between atoms: N1_11  and  S1_12 
REMARK    3  A    between atoms: S1_12  and  C9_15 
ROOT
HETATM    1  C8  UNL     1      -0.740  -0.328   0.193  1.00  0.00     0.265 C 
HETATM    2  O1  UNL     1      -0.504   0.449   1.202  1.00  0.00    -0.267 OA
HETATM    3  N1  UNL     1       0.499  -0.740  -0.345  1.00  0.00    -0.249 N 
HETATM    4  H7  UNL     1       0.291  -1.393  -1.155  1.00  0.00     0.182 HD
ENDROOT
BRANCH   3   5
HETATM    5  S1  UNL     1       1.760  -0.006   0.559  1.00  0.00     0.245 S 
HETATM    6  O2  UNL     1       1.599  -0.477   1.979  1.00  0.00    -0.204 OA
HETATM    7  O3  UNL     1       1.632   1.476   0.578  1.00  0.00    -0.204 OA
BRANCH   5   8
HETATM    8  C9  UNL     1       3.358  -0.549   0.028  1.00  0.00     0.196 C 
HETATM    9  C10 UNL     1       3.418  -0.546  -1.495  1.00  0.00     0.034 C 
HETATM   10  C11 UNL     1       4.642  -0.527  -1.975  1.00  0.00     0.083 C 
HETATM   11  N2  UNL     1       5.651  -0.565  -1.175  1.00  0.00    -0.258 NA
HETATM   12  C12 UNL     1       5.601   0.411  -0.106  1.00  0.00     0.133 C 
HETATM   13  C13 UNL     1       4.395   0.379   0.482  1.00  0.00     0.030 C 
HETATM   14 BR1  UNL     1       4.112   1.612   1.923  1.00  0.00    -0.052 Br
ENDBRANCH   5   8
ENDBRANCH   3   5
BRANCH   1  15
HETATM   15  C7  UNL     1      -2.167  -0.515  -0.068  1.00  0.00     0.038 A 
HETATM   16  C2  UNL     1      -2.880   0.670   0.027  1.00  0.00    -0.045 A 
HETATM   17  C1  UNL     1      -2.285   1.983   0.401  1.00  0.00     0.049 C 
HETATM   18  C3  UNL     1      -4.260   0.671  -0.226  1.00  0.00     0.031 A 
HETATM   19  C4  UNL     1      -4.876  -0.510  -0.564  1.00  0.00     0.034 A 
HETATM   20 CL1  UNL     1      -6.592  -0.482  -0.875  1.00  0.00    -0.084 Cl
HETATM   21  C5  UNL     1      -4.171  -1.689  -0.657  1.00  0.00     0.025 A 
HETATM   22  C6  UNL     1      -2.816  -1.680  -0.407  1.00  0.00     0.019 A 
ENDBRANCH   1  15
TORSDOF 3
