REMARK  4 active torsions:
REMARK  status: ('A' for Active; 'I' for Inactive)
REMARK    1  A    between atoms: C5_5  and  S1_6 
REMARK    2  A    between atoms: S1_6  and  N1_9 
REMARK       I    between atoms: N1_9  and  C6_10 
REMARK    3  A    between atoms: C6_10  and  C7_12 
REMARK    4  A    between atoms: C7_12  and  C8_13 
ROOT
HETATM    1  N1  UNL     1      -0.409  -1.893   0.188  1.00  0.00    -0.250 N 
HETATM    2  C6  UNL     1       0.815  -1.227   0.481  1.00  0.00     0.235 C 
HETATM    3  O3  UNL     1       0.747  -0.491   1.523  1.00  0.00    -0.272 OA
HETATM    4  H6  UNL     1      -0.497  -2.535  -0.646  1.00  0.00     0.181 HD
ENDROOT
BRANCH   1   5
HETATM    5  S1  UNL     1      -1.745  -1.603   1.259  1.00  0.00     0.261 S 
HETATM    6  O1  UNL     1      -1.341  -1.504   2.682  1.00  0.00    -0.200 OA
HETATM    7  O2  UNL     1      -2.671  -2.802   1.114  1.00  0.00    -0.200 OA
BRANCH   5   8
HETATM    8  C5  UNL     1      -2.683  -0.230   0.706  1.00  0.00     0.061 A 
HETATM    9  C4  UNL     1      -2.308   0.967   1.181  1.00  0.00     0.021 A 
HETATM   10  C3  UNL     1      -3.219   1.968   0.595  1.00  0.00     0.004 A 
HETATM   11  C2  UNL     1      -4.092   1.363  -0.193  1.00  0.00    -0.079 A 
HETATM   12  C1  UNL     1      -5.207   1.923  -1.006  1.00  0.00     0.044 C 
HETATM   13  C14 UNL     1      -3.826  -0.101  -0.192  1.00  0.00     0.086 A 
ENDBRANCH   5   8
ENDBRANCH   1   5
BRANCH   2  14
HETATM   14  C7  UNL     1       1.941  -1.488  -0.443  1.00  0.00     0.142 C 
BRANCH  14  15
HETATM   15  C8  UNL     1       3.176  -0.774  -0.089  1.00  0.00    -0.049 A 
HETATM   16  C9  UNL     1       4.188  -1.251   0.749  1.00  0.00     0.009 A 
HETATM   17  C10 UNL     1       5.292  -0.455   0.984  1.00  0.00     0.024 A 
HETATM   18  C11 UNL     1       5.483   0.802   0.447  1.00  0.00     0.034 A 
HETATM   19 CL1  UNL     1       6.900   1.740   0.793  1.00  0.00    -0.084 Cl
HETATM   20  C12 UNL     1       4.478   1.273  -0.382  1.00  0.00     0.024 A 
HETATM   21  C13 UNL     1       3.366   0.495  -0.632  1.00  0.00     0.009 A 
ENDBRANCH  14  15
ENDBRANCH   2  14
TORSDOF 4
