REMARK  2 active torsions:
REMARK  status: ('A' for Active; 'I' for Inactive)
REMARK    1  A    between atoms: O1_2  and  C2_3 
REMARK    2  A    between atoms: N3_13  and  C9_14 
ROOT
HETATM    1  C2  UNL     1       4.004  -0.639  -0.789  1.00  0.00     0.070 A 
HETATM    2  C3  UNL     1       3.759  -1.738   0.031  1.00  0.00     0.037 A 
HETATM    3  C4  UNL     1       2.782  -1.716   1.002  1.00  0.00     0.012 A 
HETATM    4  C5  UNL     1       2.014  -0.557   1.166  1.00  0.00    -0.024 A 
HETATM    5  C6  UNL     1       2.244   0.529   0.368  1.00  0.00     0.081 A 
HETATM    6  C7  UNL     1       3.233   0.477  -0.599  1.00  0.00     0.074 A 
HETATM    7  O2  UNL     1       1.605   1.739   0.376  1.00  0.00    -0.318 OA
HETATM    8  C8  UNL     1       0.260   2.055   0.671  1.00  0.00     0.306 A 
HETATM    9  N1  UNL     1      -0.482   2.459  -0.487  1.00  0.00    -0.136 NA
HETATM   10  N2  UNL     1      -1.535   1.877  -0.814  1.00  0.00    -0.064 NA
HETATM   11  N3  UNL     1      -2.139   0.819  -0.177  1.00  0.00    -0.227 N 
HETATM   12  C15 UNL     1      -1.547   0.281   0.993  1.00  0.00     0.128 A 
HETATM   13  C16 UNL     1      -0.434   0.917   1.315  1.00  0.00    -0.010 A 
HETATM   14  C17 UNL     1       0.135   0.305   2.547  1.00  0.00     0.045 C 
HETATM   15  C18 UNL     1       1.063  -0.827   2.264  1.00  0.00     0.046 C 
ENDROOT
BRANCH  11  16
HETATM   16  C9  UNL     1      -3.342   0.288  -0.704  1.00  0.00     0.061 A 
HETATM   17  C10 UNL     1      -3.882   0.851  -1.850  1.00  0.00     0.032 A 
HETATM   18  C11 UNL     1      -5.049   0.387  -2.419  1.00  0.00     0.004 A 
HETATM   19  C12 UNL     1      -5.718  -0.672  -1.848  1.00  0.00     0.024 A 
HETATM   20  C13 UNL     1      -5.209  -1.269  -0.693  1.00  0.00     0.036 A 
HETATM   21 CL1  UNL     1      -6.062  -2.616   0.031  1.00  0.00    -0.084 Cl
HETATM   22  C14 UNL     1      -4.046  -0.768  -0.169  1.00  0.00     0.055 A 
ENDBRANCH  11  16
BRANCH   1  23
HETATM   23  O1  UNL     1       5.020  -0.818  -1.717  1.00  0.00    -0.356 OA
HETATM   24  C1  UNL     1       5.378   0.208  -2.613  1.00  0.00     0.210 C 
ENDBRANCH   1  23
TORSDOF 2
