REMARK  6 active torsions:
REMARK  status: ('A' for Active; 'I' for Inactive)
REMARK    1  A    between atoms: C1_2  and  C2_3 
REMARK       I    between atoms: C1_2  and  N1_11 
REMARK    2  A    between atoms: C2_3  and  C3_4 
REMARK    3  A    between atoms: C3_4  and  C7_9 
REMARK    4  A    between atoms: C5_6  and  P1_7 
REMARK    5  A    between atoms: N1_11  and  S1_12 
REMARK    6  A    between atoms: S1_12  and  C8_15 
ROOT
HETATM    1  O1  UNL     1       0.902   1.166   1.571  1.00  0.00    -0.273 OA
HETATM    2  C1  UNL     1       1.028   0.293   0.676  1.00  0.00     0.232 C 
HETATM    3  N1  UNL     1      -0.202  -0.123   0.121  1.00  0.00    -0.250 N 
HETATM    4  H6  UNL     1      -0.293  -0.833  -0.629  1.00  0.00     0.181 HD
ENDROOT
BRANCH   3   5
HETATM    5  S1  UNL     1      -1.703   0.562   0.688  1.00  0.00     0.265 S 
HETATM    6  O2  UNL     1      -1.780   0.330   2.169  1.00  0.00    -0.200 OA
HETATM    7  O3  UNL     1      -1.565   2.054   0.432  1.00  0.00    -0.200 OA
BRANCH   5   8
HETATM    8  C8  UNL     1      -3.078  -0.092  -0.127  1.00  0.00     0.080 A 
HETATM    9  C9  UNL     1      -3.659   0.397  -1.284  1.00  0.00     0.027 A 
HETATM   10  C10 UNL     1      -4.767  -0.216  -1.850  1.00  0.00     0.025 A 
HETATM   11  C11 UNL     1      -5.321  -1.339  -1.267  1.00  0.00     0.034 A 
HETATM   12 CL2  UNL     1      -6.734  -2.106  -2.005  1.00  0.00    -0.084 Cl
HETATM   13  C12 UNL     1      -4.773  -1.861  -0.111  1.00  0.00     0.025 A 
HETATM   14  C13 UNL     1      -3.674  -1.224   0.419  1.00  0.00     0.027 A 
ENDBRANCH   5   8
ENDBRANCH   3   5
BRANCH   2  15
HETATM   15  C2  UNL     1       2.151  -0.463   0.000  1.00  0.00     0.121 C 
BRANCH  15  16
HETATM   16  C3  UNL     1       3.453  -0.039   0.577  1.00  0.00     0.025 A 
HETATM   17  C4  UNL     1       3.862  -1.283   1.064  1.00  0.00     0.040 A 
HETATM   18  C5  UNL     1       4.580  -0.252   1.205  1.00  0.00    -0.069 A 
BRANCH  18  19
HETATM   19  P1  UNL     1       5.348   0.893   1.346  1.00  0.00    -0.119 P 
HETATM   20  C6  UNL     1       5.678   1.405   1.401  1.00  0.00     0.108 A 
HETATM   21  C7  UNL     1       4.148   1.423   0.611  1.00  0.00     0.070 A 
HETATM   22 CL1  UNL     1       2.642   2.312  -0.363  1.00  0.00    -0.113 Cl
HETATM   23  H4  UNL     1       6.737   2.867   1.621  1.00  0.00     0.050 HD
ENDBRANCH  18  19
ENDBRANCH  15  16
ENDBRANCH   2  15
TORSDOF 6
