REMARK  4 active torsions:
REMARK  status: ('A' for Active; 'I' for Inactive)
REMARK    1  A    between atoms: C5_5  and  S1_6 
REMARK    2  A    between atoms: S1_6  and  N1_9 
REMARK       I    between atoms: N1_9  and  C6_10 
REMARK    3  A    between atoms: C6_10  and  C7_12 
REMARK    4  A    between atoms: C7_12  and  C8_13 
ROOT
HETATM    1  N1  UNL     1       0.106   0.239   0.310  1.00  0.00    -0.250 N 
HETATM    2  C6  UNL     1       1.476  -0.032   0.038  1.00  0.00     0.235 C 
HETATM    3  O3  UNL     1       1.767  -0.947  -0.792  1.00  0.00    -0.272 OA
HETATM    4  H6  UNL     1      -0.204   0.991   0.994  1.00  0.00     0.181 HD
ENDROOT
BRANCH   1   5
HETATM    5  S1  UNL     1      -1.005  -0.762  -0.566  1.00  0.00     0.265 S 
HETATM    6  O1  UNL     1      -0.720  -0.569  -2.029  1.00  0.00    -0.200 OA
HETATM    7  O2  UNL     1      -0.701  -2.174  -0.130  1.00  0.00    -0.200 OA
BRANCH   5   8
HETATM    8  C5  UNL     1      -2.668  -0.390  -0.196  1.00  0.00     0.080 A 
HETATM    9  C4  UNL     1      -3.365   0.568  -0.942  1.00  0.00     0.026 A 
HETATM   10  C3  UNL     1      -4.681   0.837  -0.620  1.00  0.00     0.008 A 
HETATM   11  C2  UNL     1      -5.272   0.156   0.424  1.00  0.00    -0.062 A 
HETATM   12  C1  UNL     1      -6.706   0.466   0.755  1.00  0.00     0.048 C 
HETATM   13  C15 UNL     1      -4.607  -0.796   1.178  1.00  0.00     0.008 A 
HETATM   14  C14 UNL     1      -3.288  -1.050   0.839  1.00  0.00     0.026 A 
ENDBRANCH   5   8
ENDBRANCH   1   5
BRANCH   2  15
HETATM   15  C7  UNL     1       2.494   0.795   0.759  1.00  0.00     0.142 C 
BRANCH  15  16
HETATM   16  C8  UNL     1       3.868   0.403   0.378  1.00  0.00    -0.049 A 
HETATM   17  C9  UNL     1       4.556   0.985  -0.688  1.00  0.00     0.009 A 
HETATM   18  C10 UNL     1       5.844   0.609  -1.035  1.00  0.00     0.019 A 
HETATM   19  C11 UNL     1       6.436  -0.382  -0.273  1.00  0.00     0.011 A 
HETATM   20 BR1  UNL     1       8.196  -0.953  -0.683  1.00  0.00    -0.051 Br
HETATM   21  C12 UNL     1       5.783  -0.991   0.803  1.00  0.00     0.019 A 
HETATM   22  C13 UNL     1       4.499  -0.594   1.124  1.00  0.00     0.009 A 
ENDBRANCH  15  16
ENDBRANCH   2  15
TORSDOF 4
