REMARK  3 active torsions:
REMARK  status: ('A' for Active; 'I' for Inactive)
REMARK    1  A    between atoms: C5_5  and  O1_6 
REMARK    2  A    between atoms: C16_22  and  C17_23 
REMARK    3  A    between atoms: C17_23  and  O4_24 
ROOT
HETATM    1  C1  UNL     1      -5.139   1.626   2.887  1.00  0.00     0.012 C 
HETATM    2  C2  UNL     1      -4.127   1.452   2.265  1.00  0.00    -0.111 C 
HETATM    3  C3  UNL     1      -2.927   1.233   1.532  1.00  0.00     0.023 C 
HETATM    4  C4  UNL     1      -3.006  -0.068   1.290  1.00  0.00     0.124 C 
HETATM    5  C5  UNL     1      -2.802  -1.453   0.868  1.00  0.00     0.364 C 
HETATM    6  N1  UNL     1      -1.386  -1.689   0.596  1.00  0.00     0.135 N 
HETATM    7  C7  UNL     1      -1.054  -3.076   0.384  1.00  0.00     0.443 C 
HETATM    8  O2  UNL     1       0.276  -3.343   0.386  1.00  0.00    -0.337 OA
HETATM    9  C8  UNL     1       1.115  -2.750  -0.496  1.00  0.00     0.347 C 
HETATM   10  O3  UNL     1       1.331  -1.463  -0.593  1.00  0.00    -0.326 OA
HETATM   11  C9  UNL     1       1.543  -0.204  -0.686  1.00  0.00     0.081 A 
HETATM   12  C10 UNL     1       0.880   0.914  -0.251  1.00  0.00     0.053 A 
HETATM   13  C11 UNL     1       1.144   2.245  -0.381  1.00  0.00     0.021 A 
HETATM   14  C12 UNL     1       0.215   3.114   0.179  1.00  0.00     0.053 A 
HETATM   15  N2  UNL     1       0.480   4.414   0.026  1.00  0.00    -0.245 NA
HETATM   16  C13 UNL     1       1.594   4.839  -0.641  1.00  0.00     0.234 A 
HETATM   17  N3  UNL     1       2.496   3.969  -1.186  1.00  0.00    -0.241 NA
HETATM   18  C14 UNL     1       2.248   2.665  -1.044  1.00  0.00     0.071 A 
HETATM   19  C15 UNL     1       2.994   1.619  -1.524  1.00  0.00     0.044 A 
HETATM   20  C16 UNL     1       2.683   0.261  -1.369  1.00  0.00     0.001 A 
HETATM   21  C19 UNL     1      -1.060   3.174   0.913  1.00  0.00     0.055 C 
HETATM   22  C20 UNL     1      -2.092   2.457   1.334  1.00  0.00     0.019 C 
HETATM   23  H7  UNL     1      -1.160  -1.166  -0.332  1.00  0.00     0.322 HD
ENDROOT
BRANCH   5  24
HETATM   24  O1  UNL     1      -3.562  -1.832  -0.220  1.00  0.00    -0.362 OA
HETATM   25  C6  UNL     1      -4.366  -2.931   0.041  1.00  0.00     0.204 C 
ENDBRANCH   5  24
BRANCH  20  26
HETATM   26  C17 UNL     1       3.622  -0.731  -1.968  1.00  0.00     0.208 C 
BRANCH  26  27
HETATM   27  O4  UNL     1       4.380  -1.292  -0.958  1.00  0.00    -0.391 OA
HETATM   28  C18 UNL     1       5.135  -0.381  -0.251  1.00  0.00     0.201 C 
ENDBRANCH  26  27
ENDBRANCH  20  26
TORSDOF 3
