REMARK  5 active torsions:
REMARK  status: ('A' for Active; 'I' for Inactive)
REMARK    1  A    between atoms: S1_2  and  N1_4 
REMARK    2  A    between atoms: S1_2  and  C8_14 
REMARK    3  A    between atoms: N1_4  and  O3_5 
REMARK    4  A    between atoms: O3_5  and  C1_6 
REMARK    5  A    between atoms: C1_6  and  C2_7 
ROOT
HETATM    1  N1  UNL     1      -0.782  -1.613  -1.987  1.00  0.00    -0.090 NA
HETATM    2  H1  UNL     1      -1.280  -1.232  -2.812  1.00  0.00     0.173 HD
ENDROOT
BRANCH   1   3
HETATM    3  S1  UNL     1      -1.972  -1.910  -0.771  1.00  0.00     0.263 S 
HETATM    4  O1  UNL     1      -1.359  -2.524   0.463  1.00  0.00    -0.204 OA
HETATM    5  O2  UNL     1      -3.012  -2.844  -1.261  1.00  0.00    -0.204 OA
BRANCH   3   6
HETATM    6  C8  UNL     1      -2.630  -0.353  -0.312  1.00  0.00     0.076 A 
HETATM    7  C9  UNL     1      -2.019   0.338   0.726  1.00  0.00     0.026 A 
HETATM    8  C10 UNL     1      -2.482   1.579   1.150  1.00  0.00     0.020 A 
HETATM    9  C11 UNL     1      -3.576   2.152   0.534  1.00  0.00     0.011 A 
HETATM   10 BR1  UNL     1      -4.177   3.852   1.144  1.00  0.00    -0.051 Br
HETATM   11  C12 UNL     1      -4.181   1.461  -0.498  1.00  0.00     0.020 A 
HETATM   12  C13 UNL     1      -3.727   0.218  -0.931  1.00  0.00     0.026 A 
ENDBRANCH   3   6
ENDBRANCH   1   3
BRANCH   1  13
HETATM   13  O3  UNL     1       0.224  -0.855  -1.552  1.00  0.00    -0.287 OA
BRANCH  13  14
HETATM   14  C1  UNL     1       1.292  -1.539  -1.010  1.00  0.00     0.233 C 
BRANCH  14  15
HETATM   15  C2  UNL     1       2.378  -0.642  -0.544  1.00  0.00    -0.033 A 
HETATM   16  C3  UNL     1       3.393  -0.280  -1.398  1.00  0.00     0.011 A 
HETATM   17  C4  UNL     1       4.400   0.555  -0.954  1.00  0.00     0.024 A 
HETATM   18  C5  UNL     1       4.378   1.024   0.359  1.00  0.00     0.034 A 
HETATM   19 CL1  UNL     1       5.675   2.074   0.857  1.00  0.00    -0.084 Cl
HETATM   20  C6  UNL     1       3.345   0.654   1.220  1.00  0.00     0.024 A 
HETATM   21  C7  UNL     1       2.361  -0.173   0.761  1.00  0.00     0.011 A 
ENDBRANCH  14  15
ENDBRANCH  13  14
ENDBRANCH   1  13
TORSDOF 5
