REMARK  8 active torsions:
REMARK  status: ('A' for Active; 'I' for Inactive)
REMARK    1  A    between atoms: O1_2  and  C2_3 
REMARK    2  A    between atoms: C2_3  and  C3_4 
REMARK    3  A    between atoms: C3_4  and  O2_5 
REMARK    4  A    between atoms: O2_5  and  C4_6 
REMARK    5  A    between atoms: C5_7  and  O3_8 
REMARK    6  A    between atoms: O3_8  and  C6_9 
REMARK    7  A    between atoms: C6_9  and  C7_10 
REMARK    8  A    between atoms: C7_10  and  O4_11 
ROOT
HETATM    1  C4  UNL     1      -0.338  -0.697   0.421  1.00  0.00     0.099 C 
HETATM    2  C5  UNL     1      -0.021   0.682   0.493  1.00  0.00     0.090 C 
HETATM    3  C9  UNL     1       1.349   0.508   0.416  1.00  0.00     0.152 C 
HETATM    4  C10 UNL     1       2.551   0.829  -0.087  1.00  0.00    -0.139 C 
HETATM    5  C11 UNL     1       3.539   1.072  -0.500  1.00  0.00     0.014 A 
HETATM    6  C12 UNL     1       4.730   1.340  -0.999  1.00  0.00    -0.040 A 
HETATM    7  C13 UNL     1       5.489   2.343  -1.691  1.00  0.00     0.047 C 
HETATM    8  C14 UNL     1       4.943   0.116  -0.534  1.00  0.00     0.154 A 
HETATM    9  N1  UNL     1       4.094  -0.793   0.138  1.00  0.00    -0.361 N 
HETATM   10  C15 UNL     1       3.208  -1.918   0.120  1.00  0.00     0.133 A 
HETATM   11  N2  UNL     1       4.236  -2.592  -0.027  1.00  0.00    -0.225 NA
HETATM   12  C16 UNL     1       4.153  -4.003  -0.136  1.00  0.00     0.229 A 
HETATM   13  N3  UNL     1       2.980  -4.476  -0.065  1.00  0.00    -0.278 NA
HETATM   14  C17 UNL     1       1.717  -3.867   0.104  1.00  0.00     0.192 A 
HETATM   15  C18 UNL     1       1.828  -2.380   0.190  1.00  0.00     0.010 A 
HETATM   16  C19 UNL     1       0.551  -1.921   0.294  1.00  0.00     0.052 C 
HETATM   17  H21 UNL     1       4.347  -0.280   1.043  1.00  0.00     0.162 HD
ENDROOT
BRANCH   1  18
HETATM   18  O2  UNL     1      -1.669  -0.777   0.485  1.00  0.00    -0.346 OA
BRANCH  18  19
HETATM   19  C3  UNL     1      -2.581  -0.651  -0.596  1.00  0.00     0.201 C 
BRANCH  19  20
HETATM   20  C2  UNL     1      -3.947  -0.903  -0.015  1.00  0.00     0.193 C 
BRANCH  20  21
HETATM   21  O1  UNL     1      -4.944  -0.811  -0.946  1.00  0.00    -0.394 OA
HETATM   22  C1  UNL     1      -4.851  -1.693  -1.991  1.00  0.00     0.201 C 
ENDBRANCH  20  21
ENDBRANCH  19  20
ENDBRANCH  18  19
ENDBRANCH   1  18
BRANCH   2  23
HETATM   23  O3  UNL     1      -1.120   1.453   0.595  1.00  0.00    -0.350 OA
BRANCH  23  24
HETATM   24  C6  UNL     1      -1.483   2.351   1.597  1.00  0.00     0.201 C 
BRANCH  24  25
HETATM   25  C7  UNL     1      -2.832   2.932   1.187  1.00  0.00     0.193 C 
BRANCH  25  26
HETATM   26  O4  UNL     1      -3.326   3.849   2.093  1.00  0.00    -0.394 OA
HETATM   27  C8  UNL     1      -4.551   4.294   1.598  1.00  0.00     0.201 C 
ENDBRANCH  25  26
ENDBRANCH  24  25
ENDBRANCH  23  24
ENDBRANCH   2  23
TORSDOF 8
