REMARK  4 active torsions:
REMARK  status: ('A' for Active; 'I' for Inactive)
REMARK    1  A    between atoms: C1_2  and  C2_3 
REMARK       I    between atoms: C1_2  and  N1_11 
REMARK    2  A    between atoms: C2_3  and  C3_4 
REMARK    3  A    between atoms: N1_11  and  S1_12 
REMARK    4  A    between atoms: S1_12  and  C9_15 
ROOT
HETATM    1  O1  UNL     1       1.217  -0.483  -0.835  1.00  0.00    -0.272 OA
HETATM    2  C1  UNL     1       0.821   0.022   0.265  1.00  0.00     0.235 C 
HETATM    3  N1  UNL     1      -0.577   0.204   0.387  1.00  0.00    -0.250 N 
HETATM    4  H7  UNL     1      -1.015   0.613   1.251  1.00  0.00     0.181 HD
ENDROOT
BRANCH   3   5
HETATM    5  S1  UNL     1      -1.455  -0.312  -1.016  1.00  0.00     0.265 S 
HETATM    6  O2  UNL     1      -1.000   0.503  -2.214  1.00  0.00    -0.200 OA
HETATM    7  O3  UNL     1      -1.165  -1.753  -1.280  1.00  0.00    -0.200 OA
BRANCH   5   8
HETATM    8  C9  UNL     1      -3.165  -0.083  -0.854  1.00  0.00     0.080 A 
HETATM    9  C10 UNL     1      -3.738   1.122  -1.266  1.00  0.00     0.027 A 
HETATM   10  C11 UNL     1      -5.084   1.422  -1.187  1.00  0.00     0.020 A 
HETATM   11  C12 UNL     1      -5.923   0.454  -0.662  1.00  0.00     0.011 A 
HETATM   12 BR1  UNL     1      -7.769   0.876  -0.560  1.00  0.00    -0.051 Br
HETATM   13  C13 UNL     1      -5.391  -0.749  -0.246  1.00  0.00     0.020 A 
HETATM   14  C14 UNL     1      -4.035  -1.039  -0.330  1.00  0.00     0.027 A 
ENDBRANCH   5   8
ENDBRANCH   3   5
BRANCH   2  15
HETATM   15  C2  UNL     1       1.730   0.413   1.382  1.00  0.00     0.142 C 
BRANCH  15  16
HETATM   16  C3  UNL     1       3.138   0.119   1.000  1.00  0.00    -0.049 A 
HETATM   17  C4  UNL     1       3.882   1.094   0.355  1.00  0.00     0.009 A 
HETATM   18  C5  UNL     1       5.196   0.827  -0.004  1.00  0.00     0.024 A 
HETATM   19  C6  UNL     1       5.686  -0.423   0.313  1.00  0.00     0.034 A 
HETATM   20 CL1  UNL     1       7.350  -0.798  -0.126  1.00  0.00    -0.084 Cl
HETATM   21  C7  UNL     1       4.973  -1.419   0.956  1.00  0.00     0.024 A 
HETATM   22  C8  UNL     1       3.670  -1.122   1.299  1.00  0.00     0.009 A 
ENDBRANCH  15  16
ENDBRANCH   2  15
TORSDOF 4
