REMARK  4 active torsions:
REMARK  status: ('A' for Active; 'I' for Inactive)
REMARK    1  A    between atoms: C1_2  and  C2_3 
REMARK       I    between atoms: C1_2  and  N1_11 
REMARK    2  A    between atoms: C2_3  and  P1_4 
REMARK    3  A    between atoms: N1_11  and  S1_12 
REMARK    4  A    between atoms: S1_12  and  C8_15 
ROOT
HETATM    1  O1  UNL     1      -0.381  -1.965   0.896  1.00  0.00    -0.268 OA
HETATM    2  C1  UNL     1       0.298  -1.007   0.426  1.00  0.00     0.256 C 
HETATM    3  N1  UNL     1      -0.274  -0.609  -0.804  1.00  0.00    -0.247 N 
HETATM    4  H6  UNL     1       0.208   0.189  -1.253  1.00  0.00     0.182 HD
ENDROOT
BRANCH   3   5
HETATM    5  S1  UNL     1      -1.665  -1.441  -1.395  1.00  0.00     0.265 S 
HETATM    6  O2  UNL     1      -1.669  -2.871  -1.012  1.00  0.00    -0.200 OA
HETATM    7  O3  UNL     1      -1.650  -1.357  -2.893  1.00  0.00    -0.200 OA
BRANCH   5   8
HETATM    8  C8  UNL     1      -3.062  -0.586  -0.746  1.00  0.00     0.080 A 
HETATM    9  C9  UNL     1      -3.628  -0.925   0.470  1.00  0.00     0.025 A 
HETATM   10  C10 UNL     1      -4.728  -0.178   0.878  1.00  0.00     0.002 A 
HETATM   11  C11 UNL     1      -5.248   0.857   0.125  1.00  0.00     0.000 A 
HETATM   12  C12 UNL     1      -4.646   1.156  -1.083  1.00  0.00     0.002 A 
HETATM   13  C13 UNL     1      -3.551   0.440  -1.528  1.00  0.00     0.025 A 
ENDBRANCH   5   8
ENDBRANCH   3   5
BRANCH   2  14
HETATM   14  C2  UNL     1       1.419  -0.592   1.235  1.00  0.00     0.089 C 
BRANCH  14  15
HETATM   15  P1  UNL     1       2.582   0.560   1.028  1.00  0.00    -0.042 P 
HETATM   16  C3  UNL     1       3.238   0.330  -0.515  1.00  0.00     0.016 A 
HETATM   17  C4  UNL     1       4.677   0.493  -0.722  1.00  0.00     0.020 A 
HETATM   18  C5  UNL     1       5.508   0.820   0.284  1.00  0.00     0.011 A 
HETATM   19 BR1  UNL     1       7.356   0.993  -0.157  1.00  0.00    -0.051 Br
HETATM   20  C6  UNL     1       5.185   1.060   1.672  1.00  0.00     0.020 A 
HETATM   21  C7  UNL     1       3.927   0.978   2.146  1.00  0.00     0.016 A 
ENDBRANCH  14  15
ENDBRANCH   2  14
TORSDOF 4
