REMARK  4 active torsions:
REMARK  status: ('A' for Active; 'I' for Inactive)
REMARK    1  A    between atoms: C1_2  and  C2_3 
REMARK       I    between atoms: C1_2  and  N1_11 
REMARK    2  A    between atoms: C2_3  and  C3_4 
REMARK    3  A    between atoms: N1_11  and  S1_12 
REMARK    4  A    between atoms: S1_12  and  C9_15 
ROOT
HETATM    1  O1  UNL     1      -0.175  -0.560  -1.192  1.00  0.00    -0.272 OA
HETATM    2  C1  UNL     1      -0.414  -1.067  -0.064  1.00  0.00     0.235 C 
HETATM    3  N1  UNL     1       0.695  -1.735   0.534  1.00  0.00    -0.250 N 
HETATM    4  H7  UNL     1       0.598  -2.194   1.481  1.00  0.00     0.181 HD
ENDROOT
BRANCH   3   5
HETATM    5  S1  UNL     1       2.173  -1.747  -0.364  1.00  0.00     0.265 S 
HETATM    6  O2  UNL     1       2.955  -2.942   0.133  1.00  0.00    -0.200 OA
HETATM    7  O3  UNL     1       1.942  -1.881  -1.824  1.00  0.00    -0.200 OA
BRANCH   5   8
HETATM    8  C9  UNL     1       3.057  -0.339   0.107  1.00  0.00     0.079 A 
HETATM    9  C10 UNL     1       3.958  -0.292   1.150  1.00  0.00     0.025 A 
HETATM   10  C11 UNL     1       4.645   0.867   1.488  1.00  0.00     0.002 A 
HETATM   11  C12 UNL     1       4.423   2.019   0.758  1.00  0.00     0.000 A 
HETATM   12  C13 UNL     1       3.518   2.004  -0.304  1.00  0.00     0.002 A 
HETATM   13  C14 UNL     1       2.875   0.815  -0.577  1.00  0.00     0.025 A 
ENDBRANCH   5   8
ENDBRANCH   3   5
BRANCH   2  14
HETATM   14  C2  UNL     1      -1.675  -1.057   0.702  1.00  0.00     0.142 C 
BRANCH  14  15
HETATM   15  C3  UNL     1      -2.787  -0.374   0.075  1.00  0.00    -0.049 A 
HETATM   16  C4  UNL     1      -3.635  -1.057  -0.742  1.00  0.00     0.009 A 
HETATM   17  C5  UNL     1      -4.715  -0.470  -1.372  1.00  0.00     0.019 A 
HETATM   18  C6  UNL     1      -4.964   0.882  -1.176  1.00  0.00     0.011 A 
HETATM   19 BR1  UNL     1      -6.455   1.705  -2.043  1.00  0.00    -0.051 Br
HETATM   20  C7  UNL     1      -4.111   1.616  -0.342  1.00  0.00     0.019 A 
HETATM   21  C8  UNL     1      -3.046   0.978   0.263  1.00  0.00     0.009 A 
ENDBRANCH  14  15
ENDBRANCH   2  14
TORSDOF 4
