REMARK  4 active torsions:
REMARK  status: ('A' for Active; 'I' for Inactive)
REMARK    1  A    between atoms: C5_5  and  S1_6 
REMARK    2  A    between atoms: S1_6  and  N1_9 
REMARK       I    between atoms: N1_9  and  C6_10 
REMARK    3  A    between atoms: C6_10  and  C7_12 
REMARK    4  A    between atoms: C7_12  and  C8_13 
ROOT
HETATM    1  N1  UNL     1       0.310   0.712  -1.198  1.00  0.00    -0.250 N 
HETATM    2  C6  UNL     1       1.270   0.354  -0.213  1.00  0.00     0.231 C 
HETATM    3  O3  UNL     1       1.291   0.776   0.967  1.00  0.00    -0.273 OA
HETATM    4  H6  UNL     1       0.345   0.324  -2.173  1.00  0.00     0.181 HD
ENDROOT
BRANCH   1   5
HETATM    5  S1  UNL     1      -0.971   1.821  -0.810  1.00  0.00     0.265 S 
HETATM    6  O1  UNL     1      -0.465   2.862   0.174  1.00  0.00    -0.200 OA
HETATM    7  O2  UNL     1      -1.324   2.568  -2.073  1.00  0.00    -0.200 OA
BRANCH   5   8
HETATM    8  C5  UNL     1      -2.379   1.010  -0.209  1.00  0.00     0.080 A 
HETATM    9  C4  UNL     1      -3.332   0.613  -1.147  1.00  0.00     0.026 A 
HETATM   10  C3  UNL     1      -4.511  -0.046  -0.814  1.00  0.00     0.008 A 
HETATM   11  C2  UNL     1      -4.759  -0.327   0.515  1.00  0.00    -0.062 A 
HETATM   12  C1  UNL     1      -6.031  -1.031   0.814  1.00  0.00     0.048 C 
HETATM   13  C14 UNL     1      -3.834   0.058   1.438  1.00  0.00     0.008 A 
HETATM   14  C13 UNL     1      -2.679   0.704   1.104  1.00  0.00     0.026 A 
ENDBRANCH   5   8
ENDBRANCH   1   5
BRANCH   2  15
HETATM   15  C7  UNL     1       2.318  -0.590  -0.633  1.00  0.00     0.114 C 
BRANCH  15  16
HETATM   16  C8  UNL     1       3.296  -0.914   0.480  1.00  0.00     0.039 A 
HETATM   17  C9  UNL     1       4.361  -1.839   0.150  1.00  0.00    -0.022 A 
HETATM   18  C10 UNL     1       5.313  -0.965   0.314  1.00  0.00    -0.009 A 
HETATM   19  C11 UNL     1       4.364   0.089   0.670  1.00  0.00     0.039 A 
HETATM   20  C12 UNL     1       4.417   1.204  -0.356  1.00  0.00     0.032 C 
HETATM   21 BR1  UNL     1       4.532   0.723   2.490  1.00  0.00    -0.081 Br
ENDBRANCH  15  16
ENDBRANCH   2  15
TORSDOF 4
