REMARK  4 active torsions:
REMARK  status: ('A' for Active; 'I' for Inactive)
REMARK    1  A    between atoms: C5_5  and  S1_6 
REMARK    2  A    between atoms: S1_6  and  N1_8 
REMARK       I    between atoms: N1_8  and  C6_9 
REMARK    3  A    between atoms: C6_9  and  C7_11 
REMARK    4  A    between atoms: C7_11  and  C8_12 
ROOT
HETATM    1  N1  UNL     1      -0.114   0.428   1.716  1.00  0.00    -0.272 N 
HETATM    2  C6  UNL     1      -1.218   0.580   0.866  1.00  0.00     0.233 C 
HETATM    3  O2  UNL     1      -1.233   1.460  -0.053  1.00  0.00    -0.272 OA
HETATM    4  H6  UNL     1      -0.017  -0.270   2.499  1.00  0.00     0.179 HD
ENDROOT
BRANCH   1   5
HETATM    5  S1  UNL     1       1.337   1.367   1.656  1.00  0.00     0.153 S 
HETATM    6  O1  UNL     1       1.867   1.780   3.004  1.00  0.00    -0.230 OA
BRANCH   5   7
HETATM    7  C5  UNL     1       2.567   0.673   0.598  1.00  0.00     0.052 A 
HETATM    8  C4  UNL     1       2.722   0.935  -0.748  1.00  0.00     0.023 A 
HETATM    9  C3  UNL     1       3.722   0.336  -1.486  1.00  0.00     0.008 A 
HETATM   10  C2  UNL     1       4.616  -0.560  -0.894  1.00  0.00    -0.062 A 
HETATM   11  C1  UNL     1       5.707  -1.230  -1.649  1.00  0.00     0.048 C 
HETATM   12  C15 UNL     1       4.444  -0.812   0.461  1.00  0.00     0.008 A 
HETATM   13  C14 UNL     1       3.446  -0.219   1.218  1.00  0.00     0.023 A 
ENDBRANCH   5   7
ENDBRANCH   1   5
BRANCH   2  14
HETATM   14  C7  UNL     1      -2.314  -0.377   1.168  1.00  0.00     0.142 C 
BRANCH  14  15
HETATM   15  C8  UNL     1      -3.468  -0.189   0.249  1.00  0.00    -0.049 A 
HETATM   16  C9  UNL     1      -4.448   0.712   0.662  1.00  0.00     0.009 A 
HETATM   17  C10 UNL     1      -5.599   1.011  -0.074  1.00  0.00     0.019 A 
HETATM   18  C11 UNL     1      -5.744   0.358  -1.277  1.00  0.00     0.011 A 
HETATM   19 BR1  UNL     1      -7.285   0.703  -2.353  1.00  0.00    -0.051 Br
HETATM   20  C12 UNL     1      -4.782  -0.540  -1.706  1.00  0.00     0.019 A 
HETATM   21  C13 UNL     1      -3.653  -0.827  -0.974  1.00  0.00     0.009 A 
ENDBRANCH  14  15
ENDBRANCH   2  14
TORSDOF 4
