REMARK  6 active torsions:
REMARK  status: ('A' for Active; 'I' for Inactive)
REMARK    1  A    between atoms: C3_3  and  C4_4 
REMARK    2  A    between atoms: C5_5  and  C6_6 
REMARK    3  A    between atoms: C7_7  and  S1_8 
REMARK    4  A    between atoms: S1_8  and  N1_10 
REMARK       I    between atoms: N1_10  and  C8_11 
REMARK    5  A    between atoms: C8_11  and  B1_13 
REMARK    6  A    between atoms: B1_13  and  C9_14 
ROOT
HETATM    1  N1  UNL     1       0.969   1.332  -0.301  1.00  0.00    -0.283 N 
HETATM    2  C8  UNL     1       1.966   1.263   0.722  1.00  0.00     0.175 C 
HETATM    3  O2  UNL     1       1.701   0.695   1.811  1.00  0.00    -0.288 OA
HETATM    4  H10 UNL     1       1.120   1.790  -1.235  1.00  0.00     0.178 HD
ENDROOT
BRANCH   1   5
HETATM    5  S1  UNL     1      -0.678   0.744  -0.362  1.00  0.00     0.141 S 
HETATM    6  O1  UNL     1      -0.768  -0.310  -1.464  1.00  0.00    -0.231 OA
BRANCH   5   7
HETATM    7  C7  UNL     1      -1.112  -0.070   1.150  1.00  0.00     0.101 C 
HETATM    8  C6  UNL     1      -2.373  -0.461   1.231  1.00  0.00     0.011 C 
BRANCH   8   9
HETATM    9  C5  UNL     1      -3.298  -0.218   0.130  1.00  0.00     0.001 C 
HETATM   10  C4  UNL     1      -4.583  -0.574   0.119  1.00  0.00    -0.000 C 
BRANCH  10  11
HETATM   11  C3  UNL     1      -5.478  -0.313  -1.004  1.00  0.00    -0.004 C 
HETATM   12  C2  UNL     1      -6.747  -0.697  -0.944  1.00  0.00    -0.031 C 
HETATM   13  C1  UNL     1      -7.056  -1.377   0.354  1.00  0.00     0.036 C 
ENDBRANCH  10  11
ENDBRANCH   8   9
ENDBRANCH   5   7
ENDBRANCH   1   5
BRANCH   2  14
HETATM   14  B1  UNL     1       3.330   1.940   0.330  1.00  0.00     0.306 B 
HETATM   15  H11 UNL     1       3.284   3.067  -0.075  1.00  0.00    -0.010 HD
BRANCH  14  16
HETATM   16  C9  UNL     1       4.553   1.038  -0.078  1.00  0.00    -0.090 A 
HETATM   17  C10 UNL     1       5.105   1.008  -1.337  1.00  0.00    -0.003 A 
HETATM   18  C11 UNL     1       6.179   0.183  -1.604  1.00  0.00     0.018 A 
HETATM   19  C12 UNL     1       6.734  -0.635  -0.624  1.00  0.00     0.011 A 
HETATM   20 BR1  UNL     1       8.218  -1.780  -0.976  1.00  0.00    -0.051 Br
HETATM   21  C13 UNL     1       6.202  -0.629   0.657  1.00  0.00     0.018 A 
HETATM   22  C14 UNL     1       5.114   0.218   0.891  1.00  0.00    -0.003 A 
ENDBRANCH  14  16
ENDBRANCH   2  14
TORSDOF 6
