REMARK  6 active torsions:
REMARK  status: ('A' for Active; 'I' for Inactive)
REMARK    1  A    between atoms: O1_2  and  C2_3 
REMARK    2  A    between atoms: C3_4  and  C4_5 
REMARK    3  A    between atoms: C4_5  and  C5_6 
REMARK    4  A    between atoms: C5_6  and  S1_7 
REMARK    5  A    between atoms: S1_7  and  C6_10 
REMARK    6  A    between atoms: C11_15  and  O4_16 
ROOT
HETATM    1  S1  UNL     1       1.260  -0.704  -0.870  1.00  0.00     0.178 S 
HETATM    2  O2  UNL     1       0.560  -1.385   0.312  1.00  0.00    -0.223 OA
HETATM    3  O3  UNL     1       0.941  -1.441  -2.122  1.00  0.00    -0.223 OA
ENDROOT
BRANCH   1   4
HETATM    4  C5  UNL     1       0.802   0.964  -0.906  1.00  0.00     0.150 C 
BRANCH   4   5
HETATM    5  C4  UNL     1      -0.634   1.163  -1.263  1.00  0.00     0.056 C 
BRANCH   5   6
HETATM    6  C3  UNL     1      -1.649   0.536  -0.422  1.00  0.00    -0.028 A 
HETATM    7  C2  UNL     1      -2.441   1.215   0.430  1.00  0.00     0.056 A 
HETATM    8  C15 UNL     1      -3.411   0.381   1.188  1.00  0.00     0.098 A 
HETATM    9  C13 UNL     1      -3.122  -0.958   0.618  1.00  0.00    -0.077 A 
HETATM   10  C12 UNL     1      -2.138  -0.824  -0.254  1.00  0.00     0.012 A 
HETATM   11  C14 UNL     1      -3.845  -2.186   1.024  1.00  0.00     0.044 C 
BRANCH   7  12
HETATM   12  O1  UNL     1      -2.399   2.606   0.627  1.00  0.00    -0.359 OA
HETATM   13  C1  UNL     1      -3.591   3.362   0.475  1.00  0.00     0.209 C 
ENDBRANCH   7  12
ENDBRANCH   5   6
ENDBRANCH   4   5
ENDBRANCH   1   4
BRANCH   1  14
HETATM   14  C6  UNL     1       2.970  -0.943  -0.521  1.00  0.00     0.092 A 
HETATM   15  C7  UNL     1       3.808  -1.591  -1.415  1.00  0.00     0.026 A 
HETATM   16  C8  UNL     1       5.130  -1.744  -1.081  1.00  0.00     0.002 A 
HETATM   17  C9  UNL     1       5.608  -1.264   0.114  1.00  0.00     0.003 A 
HETATM   18  C10 UNL     1       4.761  -0.631   0.973  1.00  0.00     0.038 A 
HETATM   19  C11 UNL     1       3.415  -0.440   0.704  1.00  0.00     0.087 A 
BRANCH  19  20
HETATM   20  O4  UNL     1       2.559   0.202   1.576  1.00  0.00    -0.359 OA
HETATM   21  H12 UNL     1       2.955   1.020   2.059  1.00  0.00     0.217 HD
ENDBRANCH  19  20
ENDBRANCH   1  14
TORSDOF 6
