REMARK  5 active torsions:
REMARK  status: ('A' for Active; 'I' for Inactive)
REMARK    1  A    between atoms: C5_5  and  O1_6 
REMARK    2  A    between atoms: C7_8  and  C8_9 
REMARK    3  A    between atoms: C8_9  and  C9_10 
REMARK       I    between atoms: C9_10  and  N1_12 
REMARK    4  A    between atoms: N1_12  and  S1_13 
REMARK    5  A    between atoms: S1_13  and  C10_16 
ROOT
HETATM    1  C9  UNL     1      -0.384  -0.455  -0.253  1.00  0.00     0.235 C 
HETATM    2  O2  UNL     1      -0.533   0.786  -0.448  1.00  0.00    -0.272 OA
HETATM    3  N1  UNL     1       0.751  -1.205  -0.654  1.00  0.00    -0.250 N 
HETATM    4  H10 UNL     1       0.814  -2.233  -0.462  1.00  0.00     0.181 HD
ENDROOT
BRANCH   1   5
HETATM    5  C8  UNL     1      -1.466  -1.228   0.452  1.00  0.00     0.146 C 
BRANCH   5   6
HETATM    6  C7  UNL     1      -2.608  -0.379   0.835  1.00  0.00    -0.007 A 
HETATM    7  C2  UNL     1      -2.468   0.765   1.730  1.00  0.00    -0.036 A 
HETATM    8  C1  UNL     1      -1.373   1.210   2.313  1.00  0.00     0.024 C 
HETATM    9  C3  UNL     1      -3.819   1.324   1.847  1.00  0.00     0.014 A 
HETATM   10  C4  UNL     1      -4.587   0.567   1.101  1.00  0.00     0.038 A 
HETATM   11  C5  UNL     1      -3.858  -0.510   0.453  1.00  0.00     0.075 A 
BRANCH  11  12
HETATM   12  O1  UNL     1      -4.310  -1.506  -0.401  1.00  0.00    -0.355 OA
HETATM   13  C6  UNL     1      -4.434  -1.160  -1.777  1.00  0.00     0.210 C 
ENDBRANCH  11  12
ENDBRANCH   5   6
ENDBRANCH   1   5
BRANCH   3  14
HETATM   14  S1  UNL     1       2.059  -0.467  -1.463  1.00  0.00     0.265 S 
HETATM   15  O3  UNL     1       2.644  -1.474  -2.436  1.00  0.00    -0.200 OA
HETATM   16  O4  UNL     1       1.520   0.659  -2.295  1.00  0.00    -0.200 OA
BRANCH  14  17
HETATM   17  C10 UNL     1       3.294   0.143  -0.420  1.00  0.00     0.079 A 
HETATM   18  C11 UNL     1       4.325  -0.744  -0.102  1.00  0.00     0.025 A 
HETATM   19  C12 UNL     1       5.376  -0.382   0.724  1.00  0.00     0.002 A 
HETATM   20  C13 UNL     1       5.402   0.903   1.249  1.00  0.00     0.000 A 
HETATM   21  C14 UNL     1       4.396   1.796   0.949  1.00  0.00     0.002 A 
HETATM   22  C15 UNL     1       3.337   1.432   0.117  1.00  0.00     0.025 A 
ENDBRANCH  14  17
ENDBRANCH   3  14
TORSDOF 5
