REMARK  4 active torsions:
REMARK  status: ('A' for Active; 'I' for Inactive)
REMARK    1  A    between atoms: O1_2  and  C2_3 
REMARK    2  A    between atoms: C6_7  and  C7_8 
REMARK       I    between atoms: C7_8  and  N1_10 
REMARK    3  A    between atoms: N1_10  and  S1_11 
REMARK    4  A    between atoms: S1_11  and  C8_14 
ROOT
HETATM    1  C7  UNL     1      -0.130  -0.081   0.698  1.00  0.00     0.239 C 
HETATM    2  O2  UNL     1      -1.239  -0.540   1.137  1.00  0.00    -0.272 OA
HETATM    3  N1  UNL     1      -0.352   0.498  -0.604  1.00  0.00    -0.250 N 
HETATM    4  H8  UNL     1       0.397   0.952  -1.198  1.00  0.00     0.182 HD
ENDROOT
BRANCH   3   5
HETATM    5  S1  UNL     1      -1.834   0.593  -1.489  1.00  0.00     0.265 S 
HETATM    6  O3  UNL     1      -1.636  -0.117  -2.806  1.00  0.00    -0.200 OA
HETATM    7  O4  UNL     1      -2.110   2.036  -1.794  1.00  0.00    -0.200 OA
BRANCH   5   8
HETATM    8  C8  UNL     1      -3.171  -0.119  -0.632  1.00  0.00     0.079 A 
HETATM    9  C9  UNL     1      -3.870   0.757   0.195  1.00  0.00     0.025 A 
HETATM   10  C10 UNL     1      -4.954   0.287   0.922  1.00  0.00     0.002 A 
HETATM   11  C11 UNL     1      -5.341  -1.026   0.835  1.00  0.00     0.000 A 
HETATM   12  C12 UNL     1      -4.635  -1.878   0.010  1.00  0.00     0.002 A 
HETATM   13  C13 UNL     1      -3.544  -1.439  -0.732  1.00  0.00     0.025 A 
ENDBRANCH   5   8
ENDBRANCH   3   5
BRANCH   1  14
HETATM   14  C6  UNL     1       1.289   0.031   1.126  1.00  0.00     0.107 A 
HETATM   15  C5  UNL     1       1.725   1.445   1.199  1.00  0.00    -0.012 A 
HETATM   16  C4  UNL     1       2.719   2.122   0.655  1.00  0.00    -0.001 A 
HETATM   17  C3  UNL     1       3.595   1.342  -0.207  1.00  0.00     0.032 A 
HETATM   18  C2  UNL     1       3.269   0.068  -0.321  1.00  0.00     0.046 A 
HETATM   19  C14 UNL     1       2.192  -0.759   0.241  1.00  0.00     0.082 A 
BRANCH  18  20
HETATM   20  O1  UNL     1       4.118  -0.682  -1.155  1.00  0.00    -0.360 OA
HETATM   21  C1  UNL     1       5.464  -0.864  -0.746  1.00  0.00     0.209 C 
ENDBRANCH  18  20
ENDBRANCH   1  14
TORSDOF 4
