REMARK  5 active torsions:
REMARK  status: ('A' for Active; 'I' for Inactive)
REMARK    1  A    between atoms: O1_2  and  C2_3 
REMARK    2  A    between atoms: C5_6  and  C6_7 
REMARK    3  A    between atoms: C6_7  and  C7_8 
REMARK       I    between atoms: C7_8  and  N1_10 
REMARK    4  A    between atoms: N1_10  and  S1_11 
REMARK    5  A    between atoms: S1_11  and  C8_14 
ROOT
HETATM    1  C7  UNL     1       0.232  -0.143   0.160  1.00  0.00     0.235 C 
HETATM    2  O2  UNL     1       0.363   0.656   1.122  1.00  0.00    -0.272 OA
HETATM    3  N1  UNL     1      -1.178  -0.271  -0.107  1.00  0.00    -0.250 N 
HETATM    4  H9  UNL     1      -1.642  -0.863  -0.848  1.00  0.00     0.181 HD
ENDROOT
BRANCH   3   5
HETATM    5  S1  UNL     1      -2.263   0.650   0.901  1.00  0.00     0.265 S 
HETATM    6  O3  UNL     1      -2.079   0.178   2.333  1.00  0.00    -0.200 OA
HETATM    7  O4  UNL     1      -1.917   2.104   0.821  1.00  0.00    -0.200 OA
BRANCH   5   8
HETATM    8  C8  UNL     1      -3.919   0.410   0.482  1.00  0.00     0.079 A 
HETATM    9  C9  UNL     1      -4.438   1.280  -0.469  1.00  0.00     0.025 A 
HETATM   10  C10 UNL     1      -5.739   1.243  -0.930  1.00  0.00     0.002 A 
HETATM   11  C11 UNL     1      -6.573   0.260  -0.394  1.00  0.00     0.000 A 
HETATM   12  C12 UNL     1      -6.075  -0.610   0.549  1.00  0.00     0.002 A 
HETATM   13  C13 UNL     1      -4.766  -0.532   0.977  1.00  0.00     0.025 A 
ENDBRANCH   5   8
ENDBRANCH   3   5
BRANCH   1  14
HETATM   14  C6  UNL     1       1.070  -0.963  -0.747  1.00  0.00     0.142 C 
BRANCH  14  15
HETATM   15  C5  UNL     1       2.516  -0.830  -0.470  1.00  0.00    -0.051 A 
HETATM   16  C4  UNL     1       3.444  -1.590  -1.300  1.00  0.00     0.006 A 
HETATM   17  C3  UNL     1       4.678  -1.305  -0.860  1.00  0.00     0.009 A 
HETATM   18  C2  UNL     1       4.635  -0.343   0.282  1.00  0.00     0.167 A 
HETATM   19  C14 UNL     1       3.152  -0.125   0.421  1.00  0.00     0.016 A 
BRANCH  18  20
HETATM   20  O1  UNL     1       5.225   0.861  -0.030  1.00  0.00    -0.383 OA
HETATM   21  C1  UNL     1       6.177   1.216   0.927  1.00  0.00     0.202 C 
ENDBRANCH  18  20
ENDBRANCH  14  15
ENDBRANCH   1  14
TORSDOF 5
