REMARK  6 active torsions:
REMARK  status: ('A' for Active; 'I' for Inactive)
REMARK    1  A    between atoms: O1_2  and  C2_3 
REMARK    2  A    between atoms: C5_6  and  C6_7 
REMARK    3  A    between atoms: C6_7  and  C7_8 
REMARK    4  A    between atoms: C7_8  and  S1_10 
REMARK    5  A    between atoms: S1_10  and  C8_11 
REMARK    6  A    between atoms: C15_18  and  C16_19 
ROOT
HETATM    1  C6  UNL     1       1.001  -0.151  -1.779  1.00  0.00     0.130 C 
ENDROOT
BRANCH   1   2
HETATM    2  C5  UNL     1       2.296  -0.357  -1.046  1.00  0.00    -0.037 A 
HETATM    3  C4  UNL     1       3.044  -1.514  -1.058  1.00  0.00     0.011 A 
HETATM    4  C3  UNL     1       4.220  -1.552  -0.334  1.00  0.00     0.037 A 
HETATM    5  C2  UNL     1       4.697  -0.500   0.405  1.00  0.00     0.069 A 
HETATM    6  C17 UNL     1       3.938   0.652   0.408  1.00  0.00     0.051 A 
HETATM    7  C15 UNL     1       2.758   0.721  -0.306  1.00  0.00     0.011 A 
BRANCH   5   8
HETATM    8  O1  UNL     1       5.904  -0.643   1.106  1.00  0.00    -0.356 OA
HETATM    9  C1  UNL     1       6.418   0.414   1.867  1.00  0.00     0.210 C 
ENDBRANCH   5   8
BRANCH   7  10
HETATM   10  C16 UNL     1       2.048   1.990  -0.223  1.00  0.00     0.270 C 
HETATM   11  O3  UNL     1       2.449   2.996   0.449  1.00  0.00    -0.301 OA
ENDBRANCH   7  10
ENDBRANCH   1   2
BRANCH   1  12
HETATM   12  C7  UNL     1      -0.164  -0.213  -0.856  1.00  0.00     0.195 C 
HETATM   13  O2  UNL     1       0.066  -0.414   0.340  1.00  0.00    -0.285 OA
BRANCH  12  14
HETATM   14  S1  UNL     1      -1.627   0.040  -1.847  1.00  0.00    -0.053 SA
BRANCH  14  15
HETATM   15  C8  UNL     1      -3.048  -0.029  -0.806  1.00  0.00     0.008 A 
HETATM   16  C9  UNL     1      -3.148  -0.237   0.555  1.00  0.00     0.019 A 
HETATM   17  C10 UNL     1      -4.376  -0.254   1.175  1.00  0.00     0.008 A 
HETATM   18  C11 UNL     1      -5.553  -0.065   0.478  1.00  0.00    -0.062 A 
HETATM   19  C12 UNL     1      -6.877  -0.083   1.151  1.00  0.00     0.048 C 
HETATM   20  C13 UNL     1      -5.482   0.148  -0.902  1.00  0.00     0.008 A 
HETATM   21  C14 UNL     1      -4.232   0.164  -1.529  1.00  0.00     0.019 A 
ENDBRANCH  14  15
ENDBRANCH  12  14
ENDBRANCH   1  12
TORSDOF 6
