REMARK  4 active torsions:
REMARK  status: ('A' for Active; 'I' for Inactive)
REMARK    1  A    between atoms: O1_2  and  C2_3 
REMARK    2  A    between atoms: C7_9  and  N4_25 
REMARK    3  A    between atoms: C10_13  and  C11_14 
REMARK    4  A    between atoms: C12_15  and  C13_17 
ROOT
HETATM    1  C2  UNL     1      -2.184   1.716   1.440  1.00  0.00     0.063 C 
HETATM    2  C3  UNL     1      -3.160   0.869   1.091  1.00  0.00     0.015 C 
HETATM    3  C4  UNL     1      -4.000  -0.136   0.480  1.00  0.00     0.025 C 
HETATM    4  C5  UNL     1      -4.125  -1.031  -0.440  1.00  0.00     0.029 C 
HETATM    5  C6  UNL     1      -3.539  -1.788  -1.633  1.00  0.00     0.291 C 
HETATM    6  N1  UNL     1      -2.262  -1.313  -1.951  1.00  0.00     0.247 N 
HETATM    7  C7  UNL     1      -1.539  -1.765  -0.697  1.00  0.00     0.598 A 
HETATM    8  C8  UNL     1       0.040  -1.623  -0.728  1.00  0.00     0.171 C 
HETATM    9  N2  UNL     1       1.225  -1.216  -1.465  1.00  0.00    -0.367 N 
HETATM   10  C9  UNL     1       1.932   0.026  -1.031  1.00  0.00     0.011 C 
HETATM   11  C10 UNL     1       3.133  -0.389  -0.660  1.00  0.00     0.028 C 
HETATM   12  C14 UNL     1       1.382   1.404  -1.034  1.00  0.00     0.088 C 
HETATM   13  C15 UNL     1       0.059   1.430  -0.213  1.00  0.00     0.059 C 
HETATM   14  C16 UNL     1      -0.965   1.633   0.619  1.00  0.00     0.104 C 
HETATM   15  N3  UNL     1      -0.536   0.323  -1.035  1.00  0.00    -0.330 N 
HETATM   16  O2  UNL     1      -1.128  -0.699  -1.861  1.00  0.00     0.000 OA
HETATM   17  C17 UNL     1      -1.720  -1.751  -0.832  1.00  0.00     0.656 A 
HETATM   18  N4  UNL     1      -1.273  -2.193   0.236  1.00  0.00     0.285 N 
HETATM   19  C18 UNL     1      -2.278  -3.005   1.091  1.00  0.00     0.545 A 
HETATM   20  N5  UNL     1      -1.199  -2.353   0.575  1.00  0.00     0.285 N 
HETATM   21  H10 UNL     1       1.525  -1.823  -2.292  1.00  0.00     0.165 HD
HETATM   22  H18 UNL     1      -0.754   1.341  -1.558  1.00  0.00     0.180 HD
ENDROOT
BRANCH  11  23
HETATM   23  C11 UNL     1       4.286   0.252  -0.150  1.00  0.00     0.041 C 
HETATM   24  C12 UNL     1       5.521   0.101   0.261  1.00  0.00     0.107 C 
HETATM   25  F1  UNL     1       6.373   1.034   0.722  1.00  0.00    -0.210 F 
BRANCH  24  26
HETATM   26  C13 UNL     1       6.301  -1.177   0.284  1.00  0.00     0.184 C 
HETATM   27 CL1  UNL     1       7.761  -0.862  -0.737  1.00  0.00    -0.123 Cl
ENDBRANCH  24  26
ENDBRANCH  11  23
BRANCH   1  28
HETATM   28  O1  UNL     1      -1.785   2.713   2.297  1.00  0.00    -0.356 OA
HETATM   29  C1  UNL     1      -1.980   4.085   2.084  1.00  0.00     0.210 C 
ENDBRANCH   1  28
TORSDOF 4
