REMARK  7 active torsions:
REMARK  status: ('A' for Active; 'I' for Inactive)
REMARK    1  A    between atoms: N1_4  and  C3_5 
REMARK    2  A    between atoms: C7_10  and  S2_11 
REMARK    3  A    between atoms: S2_11  and  N2_12 
REMARK       I    between atoms: N2_12  and  C8_13 
REMARK    4  A    between atoms: C8_13  and  C9_15 
REMARK    5  A    between atoms: C9_15  and  C10_16 
REMARK    6  A    between atoms: C10_16  and  C11_17 
REMARK    7  A    between atoms: C13_19  and  O3_20 
ROOT
HETATM    1  N2  UNL     1      -1.471  -0.561  -1.962  1.00  0.00    -0.296 N 
HETATM    2  C8  UNL     1      -0.292  -0.680  -1.178  1.00  0.00     0.228 C 
HETATM    3  O2  UNL     1       0.069  -1.459  -0.252  1.00  0.00    -0.273 OA
HETATM    4  H9  UNL     1      -1.256   0.250  -2.594  1.00  0.00     0.177 HD
ENDROOT
BRANCH   1   5
HETATM    5  S2  UNL     1      -2.595  -1.795  -1.464  1.00  0.00    -0.011 SA
BRANCH   5   6
HETATM    6  C7  UNL     1      -3.693  -1.208  -0.219  1.00  0.00     0.043 C 
HETATM    7  C2  UNL     1      -4.555  -2.297   0.313  1.00  0.00     0.031 C 
HETATM    8  C1  UNL     1      -4.144  -3.558   0.326  1.00  0.00     0.034 C 
HETATM    9  S1  UNL     1      -6.211  -1.955   0.971  1.00  0.00    -0.010 SA
HETATM   10  N1  UNL     1      -6.272  -0.168   0.992  1.00  0.00    -0.291 N 
HETATM   11  C4  UNL     1      -4.929   0.209   1.390  1.00  0.00     0.175 C 
HETATM   12  C5  UNL     1      -3.923  -0.044   0.334  1.00  0.00    -0.045 C 
HETATM   13  C6  UNL     1      -3.079   1.041  -0.217  1.00  0.00     0.046 C 
BRANCH  10  14
HETATM   14  C3  UNL     1      -7.432   0.629   0.674  1.00  0.00     0.362 C 
HETATM   15  O1  UNL     1      -7.858  -0.567   0.524  1.00  0.00    -0.283 OA
ENDBRANCH  10  14
ENDBRANCH   5   6
ENDBRANCH   1   5
BRANCH   2  16
HETATM   16  C9  UNL     1       0.976   0.121  -1.193  1.00  0.00     0.108 C 
BRANCH  16  17
HETATM   17  C10 UNL     1       1.864  -0.484  -0.126  1.00  0.00     0.043 C 
BRANCH  17  18
HETATM   18  C11 UNL     1       3.175   0.196  -0.018  1.00  0.00    -0.074 A 
HETATM   19  C12 UNL     1       4.236  -0.558  -0.238  1.00  0.00     0.060 A 
HETATM   20  C13 UNL     1       5.434   0.239  -0.096  1.00  0.00     0.159 A 
HETATM   21  N3  UNL     1       5.436   1.457   0.194  1.00  0.00    -0.267 NA
HETATM   22  C15 UNL     1       4.330   2.314   0.443  1.00  0.00     0.156 A 
HETATM   23  C16 UNL     1       3.015   1.610   0.323  1.00  0.00     0.056 A 
BRANCH  20  24
HETATM   24  O3  UNL     1       6.692  -0.344  -0.285  1.00  0.00    -0.340 OA
HETATM   25  C14 UNL     1       7.910   0.311   0.001  1.00  0.00     0.211 C 
ENDBRANCH  20  24
ENDBRANCH  17  18
ENDBRANCH  16  17
ENDBRANCH   2  16
TORSDOF 7
