REMARK  5 active torsions:
REMARK  status: ('A' for Active; 'I' for Inactive)
REMARK    1  A    between atoms: O1_2  and  C2_3 
REMARK    2  A    between atoms: C5_6  and  C6_7 
REMARK    3  A    between atoms: C6_7  and  C7_8 
REMARK       I    between atoms: C7_8  and  N1_10 
REMARK    4  A    between atoms: N1_10  and  C8_11 
REMARK    5  A    between atoms: C8_11  and  C9_12 
ROOT
HETATM    1  C7  UNL     1       0.166  -0.078   0.306  1.00  0.00     0.221 C 
HETATM    2  O2  UNL     1       0.772  -0.251  -0.801  1.00  0.00    -0.273 OA
HETATM    3  N1  UNL     1      -1.241   0.108   0.362  1.00  0.00    -0.360 N 
HETATM    4  H8  UNL     1      -1.569   0.234   1.343  1.00  0.00     0.162 HD
ENDROOT
BRANCH   1   5
HETATM    5  C6  UNL     1       1.060  -0.090   1.504  1.00  0.00     0.141 C 
BRANCH   5   6
HETATM    6  C5  UNL     1       2.443  -0.311   0.998  1.00  0.00    -0.049 A 
HETATM    7  C4  UNL     1       3.254   0.753   0.655  1.00  0.00     0.010 A 
HETATM    8  C3  UNL     1       4.539   0.554   0.184  1.00  0.00     0.037 A 
HETATM    9  C2  UNL     1       5.035  -0.708   0.048  1.00  0.00     0.068 A 
HETATM   10  C15 UNL     1       4.232  -1.792   0.388  1.00  0.00     0.037 A 
HETATM   11  C14 UNL     1       2.943  -1.605   0.861  1.00  0.00     0.010 A 
BRANCH   9  12
HETATM   12  O1  UNL     1       6.280  -1.131  -0.399  1.00  0.00    -0.356 OA
HETATM   13  C1  UNL     1       7.213  -0.144  -0.785  1.00  0.00     0.210 C 
ENDBRANCH   9  12
ENDBRANCH   5   6
ENDBRANCH   1   5
BRANCH   3  14
HETATM   14  C8  UNL     1      -1.831   0.071  -0.941  1.00  0.00     0.143 C 
BRANCH  14  15
HETATM   15  C9  UNL     1      -3.330   0.269  -0.885  1.00  0.00     0.130 C 
HETATM   16  C10 UNL     1      -3.627   1.632  -0.251  1.00  0.00     0.048 C 
HETATM   17  C11 UNL     1      -5.127   1.800  -0.238  1.00  0.00    -0.028 C 
HETATM   18  C12 UNL     1      -5.960   0.876   0.277  1.00  0.00    -0.016 C 
HETATM   19  C13 UNL     1      -5.472  -0.391   0.879  1.00  0.00     0.167 C 
HETATM   20  S1  UNL     1      -4.034  -1.017   0.084  1.00  0.00     0.153 S 
HETATM   21  O3  UNL     1      -3.034  -1.561   1.037  1.00  0.00    -0.227 OA
HETATM   22  O4  UNL     1      -4.430  -2.149  -0.854  1.00  0.00    -0.227 OA
ENDBRANCH  14  15
ENDBRANCH   3  14
TORSDOF 5
