REMARK  5 active torsions:
REMARK  status: ('A' for Active; 'I' for Inactive)
REMARK    1  A    between atoms: O1_2  and  C2_3 
REMARK    2  A    between atoms: C5_6  and  C6_7 
REMARK    3  A    between atoms: C6_7  and  C7_8 
REMARK       I    between atoms: C7_8  and  N1_10 
REMARK    4  A    between atoms: N1_10  and  S1_11 
REMARK    5  A    between atoms: C10_15  and  C11_16 
ROOT
HETATM    1  C7  UNL     1      -0.157   0.303  -1.248  1.00  0.00     0.233 C 
HETATM    2  O2  UNL     1      -0.450   0.367  -0.005  1.00  0.00    -0.272 OA
HETATM    3  N1  UNL     1      -1.268   0.659  -2.050  1.00  0.00    -0.283 N 
HETATM    4  H8  UNL     1      -1.199   0.659  -3.111  1.00  0.00     0.178 HD
ENDROOT
BRANCH   1   5
HETATM    5  C6  UNL     1       1.080  -0.062  -1.939  1.00  0.00     0.142 C 
BRANCH   5   6
HETATM    6  C5  UNL     1       2.181  -0.418  -0.989  1.00  0.00    -0.049 A 
HETATM    7  C4  UNL     1       2.365  -1.713  -0.555  1.00  0.00     0.010 A 
HETATM    8  C3  UNL     1       3.391  -2.023   0.326  1.00  0.00     0.037 A 
HETATM    9  C2  UNL     1       4.246  -1.034   0.783  1.00  0.00     0.068 A 
HETATM   10  C15 UNL     1       4.059   0.252   0.349  1.00  0.00     0.037 A 
HETATM   11  C14 UNL     1       3.034   0.566  -0.532  1.00  0.00     0.010 A 
BRANCH   9  12
HETATM   12  O1  UNL     1       5.234  -1.464   1.660  1.00  0.00    -0.356 OA
HETATM   13  C1  UNL     1       6.140  -0.516   2.167  1.00  0.00     0.210 C 
ENDBRANCH   9  12
ENDBRANCH   5   6
ENDBRANCH   1   5
BRANCH   3  14
HETATM   14  S1  UNL     1      -2.791   1.112  -1.425  1.00  0.00     0.049 S 
HETATM   15  O3  UNL     1      -3.507   2.059  -2.378  1.00  0.00    -0.245 OA
HETATM   16  C8  UNL     1      -2.703   1.878  -0.037  1.00  0.00     0.087 C 
HETATM   17  C9  UNL     1      -3.748   1.636   0.974  1.00  0.00     0.020 C 
HETATM   18  C10 UNL     1      -4.270   0.425   1.091  1.00  0.00    -0.019 C 
HETATM   19  C12 UNL     1      -3.832  -0.691   0.236  1.00  0.00     0.055 C 
HETATM   20  C13 UNL     1      -3.827  -0.290  -1.229  1.00  0.00     0.126 C 
BRANCH  18  21
HETATM   21  C11 UNL     1      -5.290   0.233   2.093  1.00  0.00     0.265 C 
HETATM   22  O4  UNL     1      -5.639   1.220   2.809  1.00  0.00    -0.302 OA
ENDBRANCH  18  21
ENDBRANCH   3  14
TORSDOF 5
