REMARK  8 active torsions:
REMARK  status: ('A' for Active; 'I' for Inactive)
REMARK    1  A    between atoms: C3_3  and  C5_5 
REMARK    2  A    between atoms: C5_5  and  C6_6 
REMARK    3  A    between atoms: C6_6  and  C7_7 
REMARK    4  A    between atoms: C7_7  and  S1_8 
REMARK    5  A    between atoms: S1_8  and  N1_11 
REMARK       I    between atoms: N1_11  and  C8_12 
REMARK    6  A    between atoms: C8_12  and  C9_14 
REMARK    7  A    between atoms: C9_14  and  C10_15 
REMARK    8  A    between atoms: C12_17  and  O4_18 
ROOT
HETATM    1  C1  UNL     1      -4.265   2.889  -0.308  1.00  0.00     0.097 C 
HETATM    2  C2  UNL     1      -4.520   1.606  -0.328  1.00  0.00    -0.148 C 
HETATM    3  C3  UNL     1      -4.823   0.318  -0.387  1.00  0.00    -0.021 C 
HETATM    4  C4  UNL     1      -6.173   0.016  -0.903  1.00  0.00     0.057 C 
ENDROOT
BRANCH   3   5
HETATM    5  C5  UNL     1      -3.745  -0.528   0.074  1.00  0.00     0.012 C 
BRANCH   5   6
HETATM    6  C6  UNL     1      -3.281  -0.842   1.273  1.00  0.00    -0.009 C 
BRANCH   6   7
HETATM    7  C7  UNL     1      -2.176  -1.712   1.683  1.00  0.00     0.190 C 
BRANCH   7   8
HETATM    8  S1  UNL     1      -1.362  -2.437   0.306  1.00  0.00     0.236 S 
HETATM    9  O1  UNL     1      -2.328  -3.302  -0.485  1.00  0.00    -0.205 OA
HETATM   10  O2  UNL     1      -0.285  -3.371   0.778  1.00  0.00    -0.205 OA
BRANCH   8  11
HETATM   11  N1  UNL     1      -0.703  -1.213  -0.734  1.00  0.00    -0.254 N 
HETATM   12  C8  UNL     1       0.624  -0.834  -0.409  1.00  0.00     0.235 C 
HETATM   13  O3  UNL     1       1.358  -1.266   0.514  1.00  0.00    -0.272 OA
HETATM   14  H10 UNL     1      -1.179  -0.761  -1.531  1.00  0.00     0.181 HD
BRANCH  12  15
HETATM   15  C9  UNL     1       1.271   0.220  -1.257  1.00  0.00     0.142 C 
BRANCH  15  16
HETATM   16  C10 UNL     1       2.650   0.502  -0.792  1.00  0.00    -0.051 A 
HETATM   17  C11 UNL     1       3.854   0.432  -1.308  1.00  0.00     0.016 A 
HETATM   18  C12 UNL     1       4.877   0.865  -0.311  1.00  0.00     0.167 A 
HETATM   19  C14 UNL     1       4.039   1.195   0.871  1.00  0.00     0.009 A 
HETATM   20  C15 UNL     1       2.760   0.985   0.591  1.00  0.00     0.006 A 
BRANCH  18  21
HETATM   21  O4  UNL     1       5.654  -0.251  -0.042  1.00  0.00    -0.383 OA
HETATM   22  C13 UNL     1       6.972   0.072  -0.326  1.00  0.00     0.202 C 
ENDBRANCH  18  21
ENDBRANCH  15  16
ENDBRANCH  12  15
ENDBRANCH   8  11
ENDBRANCH   7   8
ENDBRANCH   6   7
ENDBRANCH   5   6
ENDBRANCH   3   5
TORSDOF 8
