REMARK  5 active torsions:
REMARK  status: ('A' for Active; 'I' for Inactive)
REMARK    1  A    between atoms: O1_2  and  C2_3 
REMARK    2  A    between atoms: C5_6  and  C6_7 
REMARK    3  A    between atoms: C6_7  and  C7_8 
REMARK       I    between atoms: C7_8  and  N1_10 
REMARK       I    between atoms: N1_10  and  C8_11 
REMARK    4  A    between atoms: C8_11  and  S1_13 
REMARK    5  A    between atoms: S1_13  and  C9_15 
ROOT
HETATM    1  C7  UNL     1       0.244  -0.751  -0.134  1.00  0.00     0.229 C 
HETATM    2  O2  UNL     1       0.711  -1.403  -1.118  1.00  0.00    -0.273 OA
HETATM    3  N1  UNL     1      -1.067  -1.044   0.367  1.00  0.00    -0.286 N 
HETATM    4  C8  UNL     1      -1.857  -2.078  -0.244  1.00  0.00     0.321 C 
HETATM    5  O3  UNL     1      -1.420  -2.753  -1.235  1.00  0.00    -0.257 OA
HETATM    6  H8  UNL     1      -1.547  -0.570   1.169  1.00  0.00     0.172 HD
ENDROOT
BRANCH   1   7
HETATM    7  C6  UNL     1       0.889   0.342   0.630  1.00  0.00     0.141 C 
BRANCH   7   8
HETATM    8  C5  UNL     1       2.247   0.643   0.108  1.00  0.00    -0.049 A 
HETATM    9  C4  UNL     1       3.250  -0.101   0.718  1.00  0.00     0.010 A 
HETATM   10  C3  UNL     1       4.588   0.052   0.352  1.00  0.00     0.037 A 
HETATM   11  C2  UNL     1       4.866   0.972  -0.639  1.00  0.00     0.068 A 
HETATM   12  C16 UNL     1       3.861   1.715  -1.248  1.00  0.00     0.037 A 
HETATM   13  C15 UNL     1       2.536   1.545  -0.866  1.00  0.00     0.010 A 
BRANCH  11  14
HETATM   14  O1  UNL     1       6.135   1.253  -1.127  1.00  0.00    -0.356 OA
HETATM   15  C1  UNL     1       7.226   0.547  -0.571  1.00  0.00     0.210 C 
ENDBRANCH  11  14
ENDBRANCH   7   8
ENDBRANCH   1   7
BRANCH   4  16
HETATM   16  S1  UNL     1      -3.482  -2.476   0.340  1.00  0.00     0.143 S 
HETATM   17  O4  UNL     1      -3.466  -3.028   1.749  1.00  0.00    -0.243 OA
BRANCH  16  18
HETATM   18  C9  UNL     1      -4.575  -1.086   0.190  1.00  0.00     0.041 A 
HETATM   19  C10 UNL     1      -5.256  -1.015  -1.022  1.00  0.00     0.021 A 
HETATM   20  C11 UNL     1      -6.130   0.064  -1.188  1.00  0.00     0.001 A 
HETATM   21  C12 UNL     1      -6.334   1.026  -0.227  1.00  0.00     0.000 A 
HETATM   22  C13 UNL     1      -5.638   0.930   0.977  1.00  0.00     0.001 A 
HETATM   23  C14 UNL     1      -4.770  -0.126   1.166  1.00  0.00     0.021 A 
ENDBRANCH  16  18
ENDBRANCH   4  16
TORSDOF 5
