REMARK  1 active torsions:
REMARK  status: ('A' for Active; 'I' for Inactive)
REMARK    1  A    between atoms: O1_2  and  C2_3 
ROOT
HETATM    1  C2  UNL     1       3.819  -0.114   0.554  1.00  0.00     0.070 A 
HETATM    2  C3  UNL     1       3.833   1.127  -0.046  1.00  0.00     0.039 A 
HETATM    3  C4  UNL     1       2.654   1.641  -0.552  1.00  0.00     0.035 A 
HETATM    4  C5  UNL     1       1.513   0.876  -0.427  1.00  0.00     0.066 A 
HETATM    5  C6  UNL     1       1.520  -0.387   0.188  1.00  0.00     0.099 A 
HETATM    6  C7  UNL     1       2.695  -0.901   0.693  1.00  0.00     0.075 A 
HETATM    7  O2  UNL     1       0.389  -1.203   0.337  1.00  0.00    -0.332 OA
HETATM    8  C8  UNL     1      -0.752  -1.188  -0.467  1.00  0.00     0.220 C 
HETATM    9  C9  UNL     1      -1.640  -2.375  -0.304  1.00  0.00     0.123 C 
HETATM   10  N1  UNL     1      -3.034  -2.538  -0.047  1.00  0.00    -0.288 NA
HETATM   11  C10 UNL     1      -3.983  -1.338   0.071  1.00  0.00     0.092 A 
HETATM   12  C11 UNL     1      -4.544  -0.883  -1.230  1.00  0.00     0.048 C 
HETATM   13  C12 UNL     1      -5.202   0.356  -0.422  1.00  0.00     0.120 C 
HETATM   14 CL1  UNL     1      -6.818  -0.032   0.020  1.00  0.00    -0.122 Cl
HETATM   15  C13 UNL     1      -4.130  -0.005   0.524  1.00  0.00     0.082 A 
HETATM   16  C14 UNL     1      -3.714  -0.666   1.495  1.00  0.00     0.060 A 
HETATM   17  N2  UNL     1      -2.873   0.701  -0.200  1.00  0.00    -0.376 N 
HETATM   18  C15 UNL     1      -1.447   0.144  -0.482  1.00  0.00     0.056 C 
HETATM   19  C16 UNL     1      -0.941   1.328  -0.717  1.00  0.00     0.116 C 
HETATM   20  N3  UNL     1       0.415   1.618  -1.013  1.00  0.00    -0.362 N 
HETATM   21  H12 UNL     1      -2.857   1.717  -0.621  1.00  0.00     0.160 HD
HETATM   22  H14 UNL     1       0.557   2.394  -1.662  1.00  0.00     0.165 HD
ENDROOT
BRANCH   1  23
HETATM   23  O1  UNL     1       4.995  -0.659   1.074  1.00  0.00    -0.356 OA
HETATM   24  C1  UNL     1       6.177   0.099   0.962  1.00  0.00     0.210 C 
ENDBRANCH   1  23
TORSDOF 1
