REMARK  8 active torsions:
REMARK  status: ('A' for Active; 'I' for Inactive)
REMARK    1  A    between atoms: C5_5  and  S1_6 
REMARK    2  A    between atoms: S1_6  and  N1_8 
REMARK       I    between atoms: N1_8  and  C6_9 
REMARK    3  A    between atoms: C6_9  and  C7_11 
REMARK    4  A    between atoms: C7_11  and  C8_12 
REMARK    5  A    between atoms: C8_12  and  C9_13 
REMARK    6  A    between atoms: C10_14  and  C11_15 
REMARK    7  A    between atoms: C12_16  and  C13_17 
REMARK    8  A    between atoms: C13_17  and  C14_18 
ROOT
HETATM    1  N1  UNL     1       1.321  -0.290   0.398  1.00  0.00    -0.272 N 
HETATM    2  C6  UNL     1       0.037  -0.798   0.654  1.00  0.00     0.229 C 
HETATM    3  O2  UNL     1       0.015  -2.041   0.358  1.00  0.00    -0.273 OA
HETATM    4  H6  UNL     1       1.615   0.720   0.556  1.00  0.00     0.179 HD
ENDROOT
BRANCH   1   5
HETATM    5  S1  UNL     1       2.551  -1.364  -0.227  1.00  0.00     0.153 S 
HETATM    6  O1  UNL     1       2.082  -1.851  -1.612  1.00  0.00    -0.230 OA
BRANCH   5   7
HETATM    7  C5  UNL     1       4.089  -0.547  -0.483  1.00  0.00     0.052 A 
HETATM    8  C4  UNL     1       4.555   0.089  -1.616  1.00  0.00     0.023 A 
HETATM    9  C3  UNL     1       5.802   0.676  -1.614  1.00  0.00     0.008 A 
HETATM   10  C2  UNL     1       6.602   0.640  -0.490  1.00  0.00    -0.062 A 
HETATM   11  C1  UNL     1       7.952   1.282  -0.505  1.00  0.00     0.048 C 
HETATM   12  C16 UNL     1       6.162   0.013   0.650  1.00  0.00     0.008 A 
HETATM   13  C15 UNL     1       4.904  -0.579   0.649  1.00  0.00     0.023 A 
ENDBRANCH   5   7
ENDBRANCH   1   5
BRANCH   2  14
HETATM   14  C7  UNL     1      -0.973   0.125   1.177  1.00  0.00     0.107 C 
BRANCH  14  15
HETATM   15  C8  UNL     1      -2.322  -0.491   1.428  1.00  0.00     0.036 C 
BRANCH  15  16
HETATM   16  C9  UNL     1      -2.967  -1.069   0.247  1.00  0.00    -0.026 C 
HETATM   17  C10 UNL     1      -4.098  -0.812  -0.355  1.00  0.00    -0.004 C 
BRANCH  17  18
HETATM   18  C11 UNL     1      -4.996   0.218   0.125  1.00  0.00    -0.004 C 
HETATM   19  C12 UNL     1      -6.122   0.428  -0.526  1.00  0.00    -0.020 C 
BRANCH  19  20
HETATM   20  C13 UNL     1      -7.198   1.410  -0.243  1.00  0.00     0.096 C 
BRANCH  20  21
HETATM   21  C14 UNL     1      -8.470   0.649  -0.002  1.00  0.00     0.234 C 
HETATM   22  O3  UNL     1      -8.708   0.074   1.043  1.00  0.00    -0.307 OA
ENDBRANCH  20  21
ENDBRANCH  19  20
ENDBRANCH  17  18
ENDBRANCH  15  16
ENDBRANCH  14  15
ENDBRANCH   2  14
TORSDOF 8
