REMARK  1 active torsions:
REMARK  status: ('A' for Active; 'I' for Inactive)
REMARK    1  A    between atoms: C3_7  and  O3_8 
ROOT
HETATM    1  O1  UNL     1       0.708  -2.241   2.800  1.00  0.00    -0.206 OA
HETATM    2  S1  UNL     1       0.301  -2.048   1.404  1.00  0.00     0.242 S 
HETATM    3  O2  UNL     1      -0.069  -3.345   0.780  1.00  0.00    -0.206 OA
HETATM    4  N1  UNL     1      -1.017  -0.902   1.337  1.00  0.00    -0.212 NA
HETATM    5  C1  UNL     1      -1.389  -0.819  -0.094  1.00  0.00     0.141 C 
HETATM    6  C2  UNL     1      -2.397   0.272  -0.142  1.00  0.00    -0.030 C 
HETATM    7  C3  UNL     1      -2.760   0.789   1.022  1.00  0.00     0.069 C 
HETATM    8  C4  UNL     1      -1.488   1.549   1.411  1.00  0.00     0.034 C 
HETATM    9  C5  UNL     1      -0.113   1.547   1.216  1.00  0.00    -0.011 C 
HETATM   10  C6  UNL     1       0.746   1.385   0.003  1.00  0.00     0.065 C 
HETATM   11  C7  UNL     1      -0.078   1.442  -1.270  1.00  0.00    -0.017 C 
HETATM   12  C8  UNL     1      -1.276   1.290  -1.937  1.00  0.00    -0.025 C 
HETATM   13  C9  UNL     1      -2.607   0.568  -1.610  1.00  0.00     0.065 C 
HETATM   14  C10 UNL     1       1.536   0.136   0.005  1.00  0.00    -0.021 A 
HETATM   15  C11 UNL     1       2.707   0.419  -0.719  1.00  0.00     0.052 A 
HETATM   16  C12 UNL     1       3.807  -0.390  -1.041  1.00  0.00     0.117 A 
HETATM   17  F1  UNL     1       4.897  -0.060  -1.739  1.00  0.00    -0.206 F 
HETATM   18  C13 UNL     1       3.732  -1.690  -0.565  1.00  0.00     0.044 A 
HETATM   19  C14 UNL     1       2.623  -2.052   0.152  1.00  0.00     0.028 A 
HETATM   20  C15 UNL     1       1.578  -1.216   0.434  1.00  0.00     0.082 A 
HETATM   21  H1  UNL     1      -1.866  -1.284   1.829  1.00  0.00     0.140 HD
ENDROOT
BRANCH   7  22
HETATM   22  O3  UNL     1      -3.725   0.929   1.973  1.00  0.00    -0.360 OA
HETATM   23  H4  UNL     1      -4.558   1.468   1.887  1.00  0.00     0.217 HD
ENDBRANCH   7  22
TORSDOF 1
