REMARK  5 active torsions:
REMARK  status: ('A' for Active; 'I' for Inactive)
REMARK    1  A    between atoms: O1_2  and  C2_3 
REMARK    2  A    between atoms: C5_6  and  O2_7 
REMARK    3  A    between atoms: O2_7  and  C6_8 
REMARK       I    between atoms: C6_8  and  N1_10 
REMARK    4  A    between atoms: N1_10  and  S1_11 
REMARK    5  A    between atoms: S1_11  and  C7_14 
ROOT
HETATM    1  C6  UNL     1       0.008  -0.106   0.020  1.00  0.00     0.379 C 
HETATM    2  O3  UNL     1      -0.574  -1.022   0.687  1.00  0.00    -0.237 OA
HETATM    3  N1  UNL     1       1.433   0.013  -0.146  1.00  0.00    -0.225 N 
HETATM    4  H6  UNL     1       1.803   0.811  -0.718  1.00  0.00     0.184 HD
ENDROOT
BRANCH   3   5
HETATM    5  S1  UNL     1       2.437  -1.174   0.614  1.00  0.00     0.267 S 
HETATM    6  O4  UNL     1       2.317  -1.147   2.098  1.00  0.00    -0.200 OA
HETATM    7  O5  UNL     1       2.086  -2.554   0.138  1.00  0.00    -0.200 OA
BRANCH   5   8
HETATM    8  C7  UNL     1       4.099  -0.746   0.221  1.00  0.00     0.080 A 
HETATM    9  C8  UNL     1       4.753  -1.217  -0.895  1.00  0.00     0.028 A 
HETATM   10  C9  UNL     1       6.056  -0.834  -1.131  1.00  0.00     0.044 A 
HETATM   11  C10 UNL     1       6.717   0.017  -0.264  1.00  0.00     0.116 A 
HETATM   12  F1  UNL     1       7.998   0.384  -0.511  1.00  0.00    -0.206 F 
HETATM   13  C11 UNL     1       6.097   0.508   0.861  1.00  0.00     0.044 A 
HETATM   14  C12 UNL     1       4.797   0.100   1.057  1.00  0.00     0.028 A 
ENDBRANCH   5   8
ENDBRANCH   3   5
BRANCH   1  15
HETATM   15  O2  UNL     1      -0.793   0.862  -0.600  1.00  0.00    -0.261 OA
BRANCH  15  16
HETATM   16  C5  UNL     1      -2.169   0.735  -0.431  1.00  0.00     0.081 A 
HETATM   17  C4  UNL     1      -3.060   0.042  -1.220  1.00  0.00     0.040 A 
HETATM   18  C3  UNL     1      -4.395   0.034  -0.886  1.00  0.00     0.039 A 
HETATM   19  C2  UNL     1      -4.856   0.698   0.210  1.00  0.00     0.068 A 
HETATM   20  C14 UNL     1      -3.978   1.398   1.014  1.00  0.00     0.039 A 
HETATM   21  C13 UNL     1      -2.617   1.423   0.697  1.00  0.00     0.040 A 
BRANCH  19  22
HETATM   22  O1  UNL     1      -6.175   0.702   0.557  1.00  0.00    -0.356 OA
HETATM   23  C1  UNL     1      -7.200   0.039  -0.153  1.00  0.00     0.210 C 
ENDBRANCH  19  22
ENDBRANCH  15  16
ENDBRANCH   1  15
TORSDOF 5
