REMARK  5 active torsions:
REMARK  status: ('A' for Active; 'I' for Inactive)
REMARK    1  A    between atoms: O1_2  and  C2_3 
REMARK    2  A    between atoms: C5_6  and  C6_7 
REMARK    3  A    between atoms: C7_8  and  C8_9 
REMARK       I    between atoms: C8_9  and  N1_11 
REMARK    4  A    between atoms: N1_11  and  S1_12 
REMARK    5  A    between atoms: S1_12  and  C9_15 
ROOT
HETATM    1  C8  UNL     1      -0.466  -1.968   0.204  1.00  0.00     0.310 C 
HETATM    2  O2  UNL     1      -0.945  -2.682   1.149  1.00  0.00    -0.257 OA
HETATM    3  N1  UNL     1      -1.269  -1.672  -0.948  1.00  0.00    -0.239 N 
HETATM    4  H6  UNL     1      -0.801  -1.074  -1.690  1.00  0.00     0.182 HD
ENDROOT
BRANCH   1   5
HETATM    5  C7  UNL     1       0.883  -1.454   0.285  1.00  0.00     0.001 C 
HETATM    6  C6  UNL     1       2.007  -1.004   0.347  1.00  0.00    -0.057 C 
BRANCH   6   7
HETATM    7  C5  UNL     1       3.337  -0.446   0.414  1.00  0.00     0.018 A 
HETATM    8  C4  UNL     1       3.930   0.098  -0.707  1.00  0.00     0.023 A 
HETATM    9  C3  UNL     1       5.200   0.637  -0.669  1.00  0.00     0.038 A 
HETATM   10  C2  UNL     1       5.916   0.644   0.512  1.00  0.00     0.068 A 
HETATM   11  C17 UNL     1       5.328   0.101   1.642  1.00  0.00     0.038 A 
HETATM   12  C16 UNL     1       4.046  -0.447   1.615  1.00  0.00     0.023 A 
BRANCH  10  13
HETATM   13  O1  UNL     1       7.174   1.121   0.779  1.00  0.00    -0.356 OA
HETATM   14  C1  UNL     1       7.985   1.724  -0.207  1.00  0.00     0.210 C 
ENDBRANCH  10  13
ENDBRANCH   6   7
ENDBRANCH   1   5
BRANCH   3  15
HETATM   15  S1  UNL     1      -2.878  -2.184  -1.230  1.00  0.00     0.266 S 
HETATM   16  O3  UNL     1      -3.132  -2.237  -2.705  1.00  0.00    -0.200 OA
HETATM   17  O4  UNL     1      -3.163  -3.496  -0.565  1.00  0.00    -0.200 OA
BRANCH  15  18
HETATM   18  C9  UNL     1      -3.991  -0.998  -0.584  1.00  0.00     0.080 A 
HETATM   19  C10 UNL     1      -4.473  -1.043   0.711  1.00  0.00     0.026 A 
HETATM   20  C11 UNL     1      -5.337  -0.102   1.173  1.00  0.00     0.008 A 
HETATM   21  C12 UNL     1      -5.763   0.925   0.377  1.00  0.00    -0.062 A 
HETATM   22  C13 UNL     1      -6.712   1.989   0.828  1.00  0.00     0.048 C 
HETATM   23  C14 UNL     1      -5.315   1.025  -0.935  1.00  0.00     0.008 A 
HETATM   24  C15 UNL     1      -4.442   0.046  -1.353  1.00  0.00     0.026 A 
ENDBRANCH  15  18
ENDBRANCH   3  15
TORSDOF 5
