REMARK  6 active torsions:
REMARK  status: ('A' for Active; 'I' for Inactive)
REMARK    1  A    between atoms: C2_2  and  N1_3 
REMARK    2  A    between atoms: C2_2  and  C9_14 
REMARK    3  A    between atoms: N1_3  and  S1_4 
REMARK    4  A    between atoms: S1_4  and  C3_7 
REMARK    5  A    between atoms: C12_17  and  O3_18 
REMARK    6  A    between atoms: O3_18  and  B1_19 
ROOT
HETATM    1  N1  UNL     1       0.409  -1.502  -1.619  1.00  0.00    -0.307 N 
HETATM    2  H5  UNL     1      -0.009  -0.777  -2.202  1.00  0.00     0.173 HD
ENDROOT
BRANCH   1   3
HETATM    3  C2  UNL     1      -0.291  -1.799  -0.428  1.00  0.00     0.122 C 
HETATM    4  C1  UNL     1      -0.924  -3.181  -0.489  1.00  0.00     0.038 C 
BRANCH   3   5
HETATM    5  C9  UNL     1      -1.281  -0.801   0.019  1.00  0.00    -0.035 A 
HETATM    6  C10 UNL     1      -1.130   0.560   0.055  1.00  0.00     0.012 A 
HETATM    7  C11 UNL     1      -2.107   1.424   0.489  1.00  0.00     0.035 A 
HETATM    8  C12 UNL     1      -3.325   0.950   0.923  1.00  0.00     0.051 A 
HETATM    9  C13 UNL     1      -3.536  -0.394   0.910  1.00  0.00     0.035 A 
HETATM   10  C14 UNL     1      -2.531  -1.250   0.466  1.00  0.00     0.012 A 
BRANCH   8  11
HETATM   11  O3  UNL     1      -4.341   1.767   1.368  1.00  0.00    -0.390 OA
BRANCH  11  12
HETATM   12  B1  UNL     1      -3.881   3.431   1.775  1.00  0.00     0.557 B 
HETATM   13  O4  UNL     1      -4.282   4.971   0.302  1.00  0.00    -0.293 OA
ENDBRANCH  11  12
ENDBRANCH   8  11
ENDBRANCH   3   5
ENDBRANCH   1   3
BRANCH   1  14
HETATM   14  S1  UNL     1       2.095  -1.399  -1.499  1.00  0.00     0.259 S 
HETATM   15  O1  UNL     1       2.794  -1.183  -2.780  1.00  0.00    -0.201 OA
HETATM   16  O2  UNL     1       2.669  -2.647  -0.885  1.00  0.00    -0.201 OA
BRANCH  14  17
HETATM   17  C3  UNL     1       2.493  -0.102  -0.393  1.00  0.00     0.079 A 
HETATM   18  C4  UNL     1       2.667  -0.191   0.970  1.00  0.00     0.027 A 
HETATM   19  C5  UNL     1       2.980   0.934   1.701  1.00  0.00     0.025 A 
HETATM   20  C6  UNL     1       3.135   2.185   1.125  1.00  0.00     0.034 A 
HETATM   21 CL1  UNL     1       3.532   3.511   2.184  1.00  0.00    -0.084 Cl
HETATM   22  C7  UNL     1       2.961   2.279  -0.243  1.00  0.00     0.025 A 
HETATM   23  C8  UNL     1       2.646   1.147  -0.978  1.00  0.00     0.027 A 
ENDBRANCH  14  17
ENDBRANCH   1  14
TORSDOF 6
