REMARK  6 active torsions:
REMARK  status: ('A' for Active; 'I' for Inactive)
REMARK    1  A    between atoms: O1_2  and  S1_3 
REMARK    2  A    between atoms: S1_3  and  C2_4 
REMARK    3  A    between atoms: C5_7  and  C6_8 
REMARK    4  A    between atoms: C6_8  and  C7_9 
REMARK       I    between atoms: C7_9  and  N1_11 
REMARK    5  A    between atoms: N1_11  and  S2_12 
REMARK    6  A    between atoms: S2_12  and  C8_14 
ROOT
HETATM    1  C7  UNL     1      -0.718  -0.149  -1.317  1.00  0.00     0.233 C 
HETATM    2  O2  UNL     1      -0.692  -1.337  -0.876  1.00  0.00    -0.272 OA
HETATM    3  N1  UNL     1      -1.984   0.329  -1.759  1.00  0.00    -0.272 N 
HETATM    4  H8  UNL     1      -2.333   1.234  -2.165  1.00  0.00     0.179 HD
ENDROOT
BRANCH   1   5
HETATM    5  C6  UNL     1       0.327   0.906  -1.483  1.00  0.00     0.142 C 
BRANCH   5   6
HETATM    6  C5  UNL     1       1.661   0.432  -1.028  1.00  0.00    -0.049 A 
HETATM    7  C4  UNL     1       2.189   0.541   0.241  1.00  0.00     0.009 A 
HETATM    8  C3  UNL     1       3.447   0.056   0.530  1.00  0.00     0.021 A 
HETATM    9  C2  UNL     1       4.203  -0.550  -0.454  1.00  0.00     0.028 A 
HETATM   10  C15 UNL     1       3.697  -0.670  -1.729  1.00  0.00     0.021 A 
HETATM   11  C14 UNL     1       2.428  -0.181  -2.019  1.00  0.00     0.009 A 
BRANCH   9  12
HETATM   12  S1  UNL     1       5.834  -1.214  -0.211  1.00  0.00     0.028 SA
BRANCH  12  13
HETATM   13  O1  UNL     1       6.390  -1.027   1.395  1.00  0.00    -0.320 OA
HETATM   14  C1  UNL     1       6.492   0.303   1.770  1.00  0.00     0.220 C 
ENDBRANCH  12  13
ENDBRANCH   9  12
ENDBRANCH   5   6
ENDBRANCH   1   5
BRANCH   3  15
HETATM   15  S2  UNL     1      -3.420  -0.677  -1.694  1.00  0.00     0.153 S 
HETATM   16  O3  UNL     1      -3.042  -2.160  -1.779  1.00  0.00    -0.230 OA
BRANCH  15  17
HETATM   17  C8  UNL     1      -4.229  -0.450  -0.128  1.00  0.00     0.052 A 
HETATM   18  C9  UNL     1      -4.017  -1.163   1.035  1.00  0.00     0.024 A 
HETATM   19  C10 UNL     1      -4.752  -0.832   2.155  1.00  0.00     0.025 A 
HETATM   20  C11 UNL     1      -5.680   0.191   2.111  1.00  0.00     0.034 A 
HETATM   21 CL1  UNL     1      -6.572   0.541   3.596  1.00  0.00    -0.084 Cl
HETATM   22  C12 UNL     1      -5.908   0.916   0.959  1.00  0.00     0.025 A 
HETATM   23  C13 UNL     1      -5.167   0.586  -0.179  1.00  0.00     0.024 A 
ENDBRANCH  15  17
ENDBRANCH   3  15
TORSDOF 6
