REMARK  10 active torsions:
REMARK  status: ('A' for Active; 'I' for Inactive)
REMARK    1  A    between atoms: B1_1  and  O1_2 
REMARK    2  A    between atoms: O1_2  and  C1_3 
REMARK    3  A    between atoms: C1_3  and  C2_4 
REMARK    4  A    between atoms: C2_4  and  C3_5 
REMARK    5  A    between atoms: C3_5  and  C4_6 
REMARK    6  A    between atoms: C3_5  and  O4_20 
REMARK    7  A    between atoms: C4_6  and  C5_7 
REMARK    8  A    between atoms: C5_7  and  C6_8 
REMARK       I    between atoms: C6_8  and  N1_10 
REMARK    9  A    between atoms: N1_10  and  S1_11 
REMARK   10  A    between atoms: S1_11  and  C7_13 
ROOT
HETATM    1  C6  UNL     1      -0.778   0.848  -0.422  1.00  0.00     0.229 C 
HETATM    2  O2  UNL     1      -0.745   1.969  -0.997  1.00  0.00    -0.273 OA
HETATM    3  N1  UNL     1      -2.116   0.373  -0.177  1.00  0.00    -0.272 N 
HETATM    4  H12 UNL     1      -2.351  -0.543   0.293  1.00  0.00     0.179 HD
ENDROOT
BRANCH   1   5
HETATM    5  C5  UNL     1       0.335  -0.040   0.031  1.00  0.00     0.106 C 
BRANCH   5   6
HETATM    6  C4  UNL     1       1.661   0.596  -0.297  1.00  0.00     0.041 C 
BRANCH   6   7
HETATM    7  C3  UNL     1       2.826  -0.275   0.147  1.00  0.00     0.123 C 
BRANCH   7   8
HETATM    8  C2  UNL     1       4.084   0.490  -0.247  1.00  0.00     0.056 C 
BRANCH   8   9
HETATM    9  C1  UNL     1       5.332  -0.276   0.144  1.00  0.00     0.144 C 
BRANCH   9  10
HETATM   10  O1  UNL     1       6.418   0.502  -0.256  1.00  0.00    -0.462 OA
BRANCH  10  11
HETATM   11  B1  UNL     1       7.695  -0.151   0.076  1.00  0.00     0.291 B 
HETATM   12  H1  UNL     1       8.234   0.072   1.125  1.00  0.00     0.002 HD
HETATM   13  H2  UNL     1       8.455  -0.291  -0.825  1.00  0.00     0.002 HD
ENDBRANCH  10  11
ENDBRANCH   9  10
ENDBRANCH   8   9
ENDBRANCH   7   8
BRANCH   7  14
HETATM   14  O4  UNL     1       2.758  -0.462   1.507  1.00  0.00    -0.391 OA
HETATM   15  C13 UNL     1       2.656  -1.807   1.860  1.00  0.00     0.202 C 
ENDBRANCH   7  14
ENDBRANCH   6   7
ENDBRANCH   5   6
ENDBRANCH   1   5
BRANCH   3  16
HETATM   16  S1  UNL     1      -3.373   1.467  -0.735  1.00  0.00     0.153 S 
HETATM   17  O3  UNL     1      -3.178   1.697  -2.225  1.00  0.00    -0.230 OA
BRANCH  16  18
HETATM   18  C7  UNL     1      -4.973   0.791  -0.386  1.00  0.00     0.052 A 
HETATM   19  C8  UNL     1      -5.686  -0.025  -1.235  1.00  0.00     0.024 A 
HETATM   20  C9  UNL     1      -6.937  -0.510  -0.878  1.00  0.00     0.025 A 
HETATM   21  C10 UNL     1      -7.474  -0.168   0.350  1.00  0.00     0.034 A 
HETATM   22 CL1  UNL     1      -9.039  -0.765   0.817  1.00  0.00    -0.084 Cl
HETATM   23  C11 UNL     1      -6.743   0.650   1.186  1.00  0.00     0.025 A 
HETATM   24  C12 UNL     1      -5.486   1.142   0.835  1.00  0.00     0.024 A 
ENDBRANCH  16  18
ENDBRANCH   3  16
TORSDOF 10
