REMARK  4 active torsions:
REMARK  status: ('A' for Active; 'I' for Inactive)
REMARK    1  A    between atoms: C2_2  and  C3_3 
REMARK    2  A    between atoms: C3_3  and  C4_4 
REMARK    3  A    between atoms: C4_4  and  N1_5 
REMARK    4  A    between atoms: N1_5  and  C5_6 
ROOT
HETATM    1  C5  UNL     1       0.299   0.835   0.376  1.00  0.00     0.053 C 
HETATM    2  C6  UNL     1       0.173   0.916   1.753  1.00  0.00     0.054 C 
HETATM    3  C7  UNL     1      -0.622   1.959   2.569  1.00  0.00     0.234 C 
HETATM    4  O1  UNL     1      -1.848   1.207   2.961  1.00  0.00    -0.345 OA
HETATM    5  C8  UNL     1      -2.018   0.054   2.060  1.00  0.00     0.079 A 
HETATM    6  C9  UNL     1      -2.732   0.458   0.953  1.00  0.00     0.074 A 
HETATM    7  C10 UNL     1      -2.861  -0.649   0.094  1.00  0.00     0.079 A 
HETATM    8  C11 UNL     1      -2.409  -1.914   0.280  1.00  0.00     0.038 A 
HETATM    9  C12 UNL     1      -1.709  -2.274   1.400  1.00  0.00     0.014 A 
HETATM   10  C13 UNL     1      -1.545  -1.231   2.239  1.00  0.00    -0.007 A 
HETATM   11  C14 UNL     1      -0.386  -1.229   3.242  1.00  0.00     0.161 C 
HETATM   12  N2  UNL     1       0.664  -0.360   2.429  1.00  0.00    -0.385 N 
HETATM   13  O2  UNL     1      -3.531   0.227  -0.822  1.00  0.00    -0.304 OA
HETATM   14  C15 UNL     1      -2.592   1.418  -1.040  1.00  0.00     0.253 C 
HETATM   15  N3  UNL     1      -1.365   1.957  -1.122  1.00  0.00    -0.272 NA
HETATM   16  C16 UNL     1      -0.170   1.198  -0.953  1.00  0.00     0.209 C 
HETATM   17  H14 UNL     1       1.689  -0.369   2.121  1.00  0.00     0.159 HD
ENDROOT
BRANCH   1  18
HETATM   18  N1  UNL     1       1.175  -0.290   0.031  1.00  0.00    -0.366 N 
HETATM   19  H6  UNL     1       0.899  -1.215   0.439  1.00  0.00     0.165 HD
BRANCH  18  20
HETATM   20  C4  UNL     1       2.318  -0.184  -0.798  1.00  0.00     0.088 C 
BRANCH  20  21
HETATM   21  C3  UNL     1       3.279  -0.132  -1.649  1.00  0.00     0.013 C 
BRANCH  21  22
HETATM   22  C2  UNL     1       2.979  -0.551  -3.033  1.00  0.00    -0.025 C 
HETATM   23  C1  UNL     1       3.666  -0.640  -4.157  1.00  0.00     0.031 C 
ENDBRANCH  21  22
ENDBRANCH  20  21
ENDBRANCH  18  20
ENDBRANCH   1  18
TORSDOF 4
