REMARK  5 active torsions:
REMARK  status: ('A' for Active; 'I' for Inactive)
REMARK    1  A    between atoms: P1_2  and  C2_3 
REMARK    2  A    between atoms: C5_6  and  C6_7 
REMARK    3  A    between atoms: C6_7  and  C7_8 
REMARK       I    between atoms: C7_8  and  N1_10 
REMARK    4  A    between atoms: N1_10  and  S1_11 
REMARK    5  A    between atoms: S1_11  and  C8_14 
ROOT
HETATM    1  C7  UNL     1      -0.240  -0.357  -1.221  1.00  0.00     0.231 C 
HETATM    2  O1  UNL     1      -0.295  -0.957  -2.342  1.00  0.00    -0.273 OA
HETATM    3  N1  UNL     1       0.898  -0.001  -0.482  1.00  0.00    -0.250 N 
HETATM    4  H11 UNL     1       0.779   0.497   0.437  1.00  0.00     0.181 HD
ENDROOT
BRANCH   3   5
HETATM    5  S1  UNL     1       2.418  -0.430  -1.177  1.00  0.00     0.265 S 
HETATM    6  O2  UNL     1       2.569   0.197  -2.512  1.00  0.00    -0.200 OA
HETATM    7  O3  UNL     1       2.529  -1.929  -1.354  1.00  0.00    -0.200 OA
BRANCH   5   8
HETATM    8  C8  UNL     1       3.771   0.057  -0.180  1.00  0.00     0.080 A 
HETATM    9  C9  UNL     1       4.303   1.330  -0.407  1.00  0.00     0.027 A 
HETATM   10  C10 UNL     1       5.379   1.869   0.299  1.00  0.00     0.025 A 
HETATM   11  C11 UNL     1       5.918   1.058   1.271  1.00  0.00     0.034 A 
HETATM   12 CL1  UNL     1       7.267   1.706   2.171  1.00  0.00    -0.084 Cl
HETATM   13  C12 UNL     1       5.424  -0.208   1.529  1.00  0.00     0.025 A 
HETATM   14  C13 UNL     1       4.359  -0.705   0.809  1.00  0.00     0.027 A 
ENDBRANCH   5   8
ENDBRANCH   3   5
BRANCH   1  15
HETATM   15  C6  UNL     1      -1.584  -0.020  -0.685  1.00  0.00     0.113 C 
BRANCH  15  16
HETATM   16  C5  UNL     1      -2.688  -0.479  -1.614  1.00  0.00     0.028 A 
HETATM   17  C2  UNL     1      -4.021  -0.122  -1.040  1.00  0.00     0.041 A 
HETATM   18  C3  UNL     1      -4.266  -1.556  -0.998  1.00  0.00    -0.021 A 
HETATM   19  C4  UNL     1      -3.109  -1.853  -1.497  1.00  0.00    -0.024 A 
BRANCH  17  20
HETATM   20  P1  UNL     1      -3.929   0.569   0.690  1.00  0.00    -0.124 P 
HETATM   21  C1  UNL     1      -5.482   0.296   1.637  1.00  0.00     0.041 C 
HETATM   22  H4  UNL     1      -3.507   1.951   0.707  1.00  0.00     0.058 HD
ENDBRANCH  17  20
ENDBRANCH  15  16
ENDBRANCH   1  15
TORSDOF 5
