REMARK  6 active torsions:
REMARK  status: ('A' for Active; 'I' for Inactive)
REMARK    1  A    between atoms: O1_2  and  C2_3 
REMARK    2  A    between atoms: C5_6  and  C6_7 
REMARK    3  A    between atoms: C6_7  and  C7_8 
REMARK       I    between atoms: C7_8  and  N1_10 
REMARK    4  A    between atoms: N1_10  and  S1_11 
REMARK    5  A    between atoms: S1_11  and  C8_14 
REMARK    6  A    between atoms: C9_15  and  C10_16 
ROOT
HETATM    1  C7  UNL     1       0.344   0.762   0.494  1.00  0.00     0.235 C 
HETATM    2  O2  UNL     1       0.534   0.820  -0.749  1.00  0.00    -0.272 OA
HETATM    3  N1  UNL     1      -0.898   1.371   0.871  1.00  0.00    -0.251 N 
HETATM    4  H8  UNL     1      -1.185   1.395   1.873  1.00  0.00     0.181 HD
ENDROOT
BRANCH   1   5
HETATM    5  C6  UNL     1       1.164   0.186   1.617  1.00  0.00     0.142 C 
BRANCH   5   6
HETATM    6  C5  UNL     1       2.414  -0.412   1.098  1.00  0.00    -0.049 A 
HETATM    7  C4  UNL     1       3.595   0.287   0.955  1.00  0.00     0.010 A 
HETATM    8  C3  UNL     1       4.734  -0.320   0.465  1.00  0.00     0.037 A 
HETATM    9  C2  UNL     1       4.723  -1.670   0.097  1.00  0.00     0.068 A 
HETATM   10  C14 UNL     1       3.537  -2.358   0.245  1.00  0.00     0.037 A 
HETATM   11  C13 UNL     1       2.370  -1.764   0.739  1.00  0.00     0.010 A 
BRANCH   9  12
HETATM   12  O1  UNL     1       5.878  -2.265  -0.393  1.00  0.00    -0.356 OA
HETATM   13  C1  UNL     1       7.042  -1.463  -0.503  1.00  0.00     0.210 C 
ENDBRANCH   9  12
ENDBRANCH   5   6
ENDBRANCH   1   5
BRANCH   3  14
HETATM   14  S1  UNL     1      -1.931   2.068  -0.314  1.00  0.00     0.255 S 
HETATM   15  O3  UNL     1      -2.715   3.155   0.336  1.00  0.00    -0.201 OA
HETATM   16  O4  UNL     1      -1.146   2.676  -1.441  1.00  0.00    -0.201 OA
BRANCH  14  17
HETATM   17  C8  UNL     1      -3.021   0.854  -0.878  1.00  0.00     0.131 C 
HETATM   18  C9  UNL     1      -4.336   0.766  -0.861  1.00  0.00     0.014 C 
BRANCH  18  19
HETATM   19  C10 UNL     1      -5.289  -0.233  -1.322  1.00  0.00     0.015 C 
HETATM   20  C11 UNL     1      -6.577  -0.036  -1.159  1.00  0.00    -0.015 C 
HETATM   21  C12 UNL     1      -6.885   1.252  -0.490  1.00  0.00     0.056 C 
HETATM   22 BR1  UNL     1      -7.666  -1.439  -1.821  1.00  0.00    -0.056 Br
ENDBRANCH  18  19
ENDBRANCH  14  17
ENDBRANCH   3  14
TORSDOF 6
