REMARK  10 active torsions:
REMARK  status: ('A' for Active; 'I' for Inactive)
REMARK    1  A    between atoms: N1_1  and  C1_2 
REMARK    2  A    between atoms: C1_2  and  C2_3 
REMARK    3  A    between atoms: C2_3  and  C3_4 
REMARK    4  A    between atoms: C3_4  and  C4_5 
REMARK    5  A    between atoms: C4_5  and  C5_6 
REMARK    6  A    between atoms: C6_7  and  C7_8 
REMARK    7  A    between atoms: C7_8  and  C8_9 
REMARK    8  A    between atoms: C8_9  and  C9_10 
REMARK       I    between atoms: C9_10  and  N2_12 
REMARK    9  A    between atoms: N2_12  and  S1_13 
REMARK   10  A    between atoms: S1_13  and  C10_16 
ROOT
HETATM    1  C9  UNL     1       1.165  -0.358   0.500  1.00  0.00     0.231 C 
HETATM    2  O1  UNL     1       1.011  -0.918  -0.619  1.00  0.00    -0.273 OA
HETATM    3  N2  UNL     1       2.260  -0.427   1.375  1.00  0.00    -0.250 N 
HETATM    4  H11 UNL     1       2.210   0.109   2.267  1.00  0.00     0.181 HD
ENDROOT
BRANCH   1   5
HETATM    5  C8  UNL     1      -0.080   0.421   0.731  1.00  0.00     0.107 C 
BRANCH   5   6
HETATM    6  C7  UNL     1      -0.977   0.192  -0.485  1.00  0.00     0.038 C 
BRANCH   6   7
HETATM    7  C6  UNL     1      -2.244   0.965  -0.283  1.00  0.00    -0.004 C 
HETATM    8  C5  UNL     1      -3.393   0.510  -0.728  1.00  0.00     0.032 C 
BRANCH   8   9
HETATM    9  C4  UNL     1      -4.451  -0.250  -0.686  1.00  0.00    -0.065 C 
BRANCH   9  10
HETATM   10  C3  UNL     1      -5.612  -0.814  -0.637  1.00  0.00    -0.093 C 
BRANCH  10  11
HETATM   11  C2  UNL     1      -6.843  -1.244  -0.822  1.00  0.00     0.110 C 
BRANCH  11  12
HETATM   12  C1  UNL     1      -8.022  -0.535  -0.247  1.00  0.00     0.285 C 
BRANCH  12  13
HETATM   13  N1  UNL     1      -7.531   0.748   0.261  1.00  0.00     0.079 N 
HETATM   14  H1  UNL     1      -6.752   1.088  -0.332  1.00  0.00     0.312 HD
HETATM   15  H2  UNL     1      -8.284   1.458   0.337  1.00  0.00     0.312 HD
ENDBRANCH  12  13
ENDBRANCH  11  12
ENDBRANCH  10  11
ENDBRANCH   9  10
ENDBRANCH   8   9
ENDBRANCH   6   7
ENDBRANCH   5   6
ENDBRANCH   1   5
BRANCH   3  16
HETATM   16  S1  UNL     1       3.636  -1.399   0.926  1.00  0.00     0.265 S 
HETATM   17  O2  UNL     1       4.293  -1.964   2.151  1.00  0.00    -0.200 OA
HETATM   18  O3  UNL     1       3.216  -2.556   0.070  1.00  0.00    -0.200 OA
BRANCH  16  19
HETATM   19  C10 UNL     1       4.791  -0.446   0.029  1.00  0.00     0.080 A 
HETATM   20  C11 UNL     1       5.815   0.252   0.644  1.00  0.00     0.027 A 
HETATM   21  C12 UNL     1       6.753   1.018  -0.013  1.00  0.00     0.020 A 
HETATM   22  C13 UNL     1       6.614   1.057  -1.399  1.00  0.00     0.011 A 
HETATM   23 BR1  UNL     1       7.879   2.101  -2.385  1.00  0.00    -0.051 Br
HETATM   24  C14 UNL     1       5.608   0.377  -2.054  1.00  0.00     0.020 A 
HETATM   25  C15 UNL     1       4.692  -0.378  -1.352  1.00  0.00     0.027 A 
ENDBRANCH  16  19
ENDBRANCH   3  16
TORSDOF 10
