REMARK  6 active torsions:
REMARK  status: ('A' for Active; 'I' for Inactive)
REMARK    1  A    between atoms: O1_2  and  C2_3 
REMARK    2  A    between atoms: C5_6  and  C6_7 
REMARK    3  A    between atoms: C6_7  and  C7_8 
REMARK    4  A    between atoms: C7_8  and  N1_9 
REMARK    5  A    between atoms: N1_9  and  S1_10 
REMARK    6  A    between atoms: C8_12  and  O3_13 
ROOT
HETATM    1  N1  UNL     1       1.233  -0.691   0.714  1.00  0.00    -0.250 NA
HETATM    2  H10 UNL     1       1.436  -1.596   0.231  1.00  0.00     0.136 HD
ENDROOT
BRANCH   1   3
HETATM    3  C7  UNL     1      -0.174  -0.410   0.810  1.00  0.00     0.105 C 
BRANCH   3   4
HETATM    4  C6  UNL     1      -0.737  -0.125  -0.571  1.00  0.00     0.054 C 
BRANCH   4   5
HETATM    5  C5  UNL     1      -2.198   0.152  -0.350  1.00  0.00    -0.057 A 
HETATM    6  C4  UNL     1      -3.068  -0.942  -0.403  1.00  0.00     0.010 A 
HETATM    7  C3  UNL     1      -4.432  -0.837  -0.219  1.00  0.00     0.037 A 
HETATM    8  C2  UNL     1      -4.977   0.397   0.029  1.00  0.00     0.068 A 
HETATM    9  C15 UNL     1      -4.123   1.491   0.085  1.00  0.00     0.037 A 
HETATM   10  C14 UNL     1      -2.759   1.394  -0.098  1.00  0.00     0.010 A 
BRANCH   8  11
HETATM   11  O1  UNL     1      -6.320   0.648   0.232  1.00  0.00    -0.356 OA
HETATM   12  C1  UNL     1      -7.297  -0.366   0.204  1.00  0.00     0.210 C 
ENDBRANCH   8  11
ENDBRANCH   4   5
ENDBRANCH   3   4
ENDBRANCH   1   3
BRANCH   1  13
HETATM   13  S1  UNL     1       2.148   0.614   0.045  1.00  0.00     0.045 S 
HETATM   14  O2  UNL     1       1.457   1.925   0.218  1.00  0.00    -0.252 OA
HETATM   15  C8  UNL     1       3.548   0.584   0.797  1.00  0.00     0.187 C 
HETATM   16  C9  UNL     1       4.421  -0.554   0.363  1.00  0.00     0.056 C 
HETATM   17  C10 UNL     1       5.539  -0.802   1.317  1.00  0.00     0.018 C 
HETATM   18  C11 UNL     1       4.896  -0.182  -1.003  1.00  0.00    -0.022 C 
HETATM   19  C12 UNL     1       3.986   0.210  -1.889  1.00  0.00    -0.017 C 
HETATM   20  C13 UNL     1       2.517   0.324  -1.670  1.00  0.00     0.142 C 
BRANCH  15  21
HETATM   21  O3  UNL     1       3.912   1.533   1.764  1.00  0.00    -0.372 OA
HETATM   22  H11 UNL     1       4.162   2.476   1.476  1.00  0.00     0.212 HD
ENDBRANCH  15  21
ENDBRANCH   1  13
TORSDOF 6
