REMARK  5 active torsions:
REMARK  status: ('A' for Active; 'I' for Inactive)
REMARK    1  A    between atoms: C3_3  and  O1_4 
REMARK    2  A    between atoms: P1_9  and  C8_10 
REMARK    3  A    between atoms: C8_10  and  C9_11 
REMARK       I    between atoms: C9_11  and  N1_13 
REMARK    4  A    between atoms: N1_13  and  S1_14 
REMARK    5  A    between atoms: S1_14  and  C10_17 
ROOT
HETATM    1  C9  UNL     1       0.043  -1.910   0.856  1.00  0.00     0.235 C 
HETATM    2  O2  UNL     1       0.063  -1.741   2.101  1.00  0.00    -0.272 OA
HETATM    3  N1  UNL     1      -1.119  -1.341   0.282  1.00  0.00    -0.250 N 
HETATM    4  H11 UNL     1      -1.336  -1.361  -0.741  1.00  0.00     0.181 HD
ENDROOT
BRANCH   1   5
HETATM    5  C8  UNL     1       0.985  -2.572  -0.066  1.00  0.00     0.147 C 
BRANCH   5   6
HETATM    6  P1  UNL     1       2.108  -1.411  -0.935  1.00  0.00    -0.049 P 
HETATM    7  C2  UNL     1       3.468  -0.812   0.135  1.00  0.00    -0.003 A 
HETATM    8  C1  UNL     1       4.206  -1.806   0.496  1.00  0.00     0.027 C 
HETATM    9  C3  UNL     1       3.542   0.610   0.425  1.00  0.00     0.078 A 
HETATM   10  C5  UNL     1       2.732   1.520   0.012  1.00  0.00     0.037 A 
HETATM   11  C6  UNL     1       1.585   1.264  -0.834  1.00  0.00     0.004 A 
HETATM   12  C7  UNL     1       1.170   0.111  -1.325  1.00  0.00     0.012 A 
BRANCH   9  13
HETATM   13  O1  UNL     1       4.629   0.908   1.230  1.00  0.00    -0.355 OA
HETATM   14  C4  UNL     1       5.514   1.929   0.830  1.00  0.00     0.210 C 
ENDBRANCH   9  13
ENDBRANCH   5   6
ENDBRANCH   1   5
BRANCH   3  15
HETATM   15  S1  UNL     1      -2.210  -0.576   1.400  1.00  0.00     0.265 S 
HETATM   16  O3  UNL     1      -2.762  -1.578   2.365  1.00  0.00    -0.200 OA
HETATM   17  O4  UNL     1      -1.459   0.480   2.140  1.00  0.00    -0.200 OA
BRANCH  15  18
HETATM   18  C10 UNL     1      -3.556   0.104   0.534  1.00  0.00     0.080 A 
HETATM   19  C11 UNL     1      -4.686  -0.649   0.252  1.00  0.00     0.027 A 
HETATM   20  C12 UNL     1      -5.799  -0.185  -0.426  1.00  0.00     0.020 A 
HETATM   21  C13 UNL     1      -5.719   1.151  -0.833  1.00  0.00     0.011 A 
HETATM   22 BR1  UNL     1      -7.218   1.860  -1.773  1.00  0.00    -0.051 Br
HETATM   23  C14 UNL     1      -4.631   1.972  -0.594  1.00  0.00     0.020 A 
HETATM   24  C15 UNL     1      -3.567   1.414   0.093  1.00  0.00     0.027 A 
ENDBRANCH  15  18
ENDBRANCH   3  15
TORSDOF 5
