REMARK  5 active torsions:
REMARK  status: ('A' for Active; 'I' for Inactive)
REMARK    1  A    between atoms: C5_5  and  N1_6 
REMARK    2  A    between atoms: N1_6  and  S1_7 
REMARK    3  A    between atoms: S1_7  and  N2_9 
REMARK       I    between atoms: N2_9  and  C6_10 
REMARK    4  A    between atoms: C6_10  and  C7_12 
REMARK    5  A    between atoms: C7_12  and  C8_13 
ROOT
HETATM    1  N2  UNL     1      -0.625   1.106   0.626  1.00  0.00    -0.258 N 
HETATM    2  C6  UNL     1      -1.751   0.375   0.174  1.00  0.00     0.234 C 
HETATM    3  O2  UNL     1      -1.723  -0.736  -0.375  1.00  0.00    -0.272 OA
HETATM    4  H7  UNL     1      -0.599   2.048   1.091  1.00  0.00     0.181 HD
ENDROOT
BRANCH   1   5
HETATM    5  S1  UNL     1       1.085   0.792   0.601  1.00  0.00     0.225 S 
HETATM    6  O1  UNL     1       1.701   0.798   1.999  1.00  0.00    -0.211 OA
BRANCH   5   7
HETATM    7  N1  UNL     1       1.485  -0.707  -0.224  1.00  0.00    -0.273 N 
HETATM    8  H6  UNL     1       1.240  -1.641  -0.647  1.00  0.00     0.179 HD
BRANCH   7   9
HETATM    9  C5  UNL     1       2.899  -0.455  -0.360  1.00  0.00     0.136 A 
HETATM   10  C4  UNL     1       3.711  -0.982   0.636  1.00  0.00     0.051 A 
HETATM   11  C3  UNL     1       5.095  -0.810   0.648  1.00  0.00     0.012 A 
HETATM   12  C2  UNL     1       5.641  -0.076  -0.398  1.00  0.00    -0.044 A 
HETATM   13  C1  UNL     1       7.105   0.133  -0.424  1.00  0.00     0.049 C 
HETATM   14  C14 UNL     1       4.825   0.441  -1.381  1.00  0.00     0.125 A 
HETATM   15  N3  UNL     1       3.488   0.241  -1.339  1.00  0.00    -0.242 NA
ENDBRANCH   7   9
ENDBRANCH   5   7
ENDBRANCH   1   5
BRANCH   2  16
HETATM   16  C7  UNL     1      -2.962   1.167   0.470  1.00  0.00     0.142 C 
BRANCH  16  17
HETATM   17  C8  UNL     1      -4.189   0.456   0.066  1.00  0.00    -0.048 A 
HETATM   18  C9  UNL     1      -4.770  -0.347   1.052  1.00  0.00     0.007 A 
HETATM   19  C10 UNL     1      -5.939  -1.060   0.785  1.00  0.00     0.002 A 
HETATM   20  C11 UNL     1      -6.525  -0.962  -0.483  1.00  0.00     0.019 A 
HETATM   21  C12 UNL     1      -5.956  -0.163  -1.483  1.00  0.00     0.011 A 
HETATM   22 BR1  UNL     1      -6.734  -0.012  -3.216  1.00  0.00    -0.051 Br
HETATM   23  C13 UNL     1      -4.790   0.533  -1.180  1.00  0.00     0.026 A 
ENDBRANCH  16  17
ENDBRANCH   2  16
TORSDOF 5
