REMARK  3 active torsions:
REMARK  status: ('A' for Active; 'I' for Inactive)
REMARK    1  A    between atoms: C5_5  and  S1_6 
REMARK    2  A    between atoms: S1_6  and  N1_9 
REMARK       I    between atoms: N1_9  and  C6_10 
REMARK    3  A    between atoms: C6_10  and  C7_12 
ROOT
HETATM    1  N1  UNL     1       0.485  -0.469  -0.382  1.00  0.00    -0.246 N 
HETATM    2  C6  UNL     1       1.718  -1.062  -0.741  1.00  0.00     0.261 C 
HETATM    3  O3  UNL     1       1.642  -2.047  -1.518  1.00  0.00    -0.267 OA
HETATM    4  H6  UNL     1       0.462   0.338   0.247  1.00  0.00     0.182 HD
ENDROOT
BRANCH   1   5
HETATM    5  S1  UNL     1      -0.905  -1.227  -1.095  1.00  0.00     0.265 S 
HETATM    6  O1  UNL     1      -0.945  -2.694  -0.748  1.00  0.00    -0.200 OA
HETATM    7  O2  UNL     1      -0.756  -1.160  -2.600  1.00  0.00    -0.200 OA
BRANCH   5   8
HETATM    8  C5  UNL     1      -2.371  -0.418  -0.588  1.00  0.00     0.080 A 
HETATM    9  C4  UNL     1      -3.028  -0.835   0.551  1.00  0.00     0.026 A 
HETATM   10  C3  UNL     1      -4.187  -0.274   1.044  1.00  0.00     0.008 A 
HETATM   11  C2  UNL     1      -4.738   0.793   0.343  1.00  0.00    -0.062 A 
HETATM   12  C1  UNL     1      -5.988   1.395   0.879  1.00  0.00     0.048 C 
HETATM   13  C14 UNL     1      -4.101   1.243  -0.814  1.00  0.00     0.008 A 
HETATM   14  C13 UNL     1      -2.935   0.648  -1.275  1.00  0.00     0.026 A 
ENDBRANCH   5   8
ENDBRANCH   1   5
BRANCH   2  15
HETATM   15  C7  UNL     1       3.013  -0.596  -0.264  1.00  0.00     0.011 C 
HETATM   16  C8  UNL     1       3.123   0.437   0.554  1.00  0.00    -0.009 C 
HETATM   17  C9  UNL     1       4.518   0.813   0.968  1.00  0.00     0.074 C 
HETATM   18  C10 UNL     1       5.489   0.700  -0.129  1.00  0.00    -0.011 C 
HETATM   19 BR1  UNL     1       6.941   1.917  -0.489  1.00  0.00    -0.056 Br
HETATM   20  C11 UNL     1       5.341  -0.332  -0.934  1.00  0.00    -0.007 C 
HETATM   21  C12 UNL     1       4.247  -1.296  -0.706  1.00  0.00     0.072 C 
ENDBRANCH   2  15
TORSDOF 3
