REMARK  1 active torsions:
REMARK  status: ('A' for Active; 'I' for Inactive)
REMARK    1  A    between atoms: N3_13  and  C9_14 
ROOT
HETATM    1 CL1  UNL     1       5.222   2.207  -1.459  1.00  0.00    -0.200 Cl
HETATM    2  C1  UNL     1       3.656   1.496  -0.915  1.00  0.00     0.068 A 
HETATM    3  C2  UNL     1       4.461   2.539  -0.482  1.00  0.00     0.117 A 
HETATM    4  C3  UNL     1       3.199   2.135   0.139  1.00  0.00     0.101 A 
HETATM    5  C4  UNL     1       2.207   1.813   0.649  1.00  0.00    -0.011 C 
HETATM    6  O1  UNL     1       1.065   1.418   1.223  1.00  0.00    -0.302 OA
HETATM    7  C5  UNL     1       0.825  -0.046   1.287  1.00  0.00     0.218 C 
HETATM    8  C6  UNL     1       0.279  -0.226   2.630  1.00  0.00     0.171 C 
HETATM    9  N1  UNL     1      -0.658  -0.998   3.357  1.00  0.00    -0.273 NA
HETATM   10  C7  UNL     1      -1.303  -1.909   2.492  1.00  0.00     0.223 C 
HETATM   11  N2  UNL     1      -1.903  -2.728   1.598  1.00  0.00    -0.264 NA
HETATM   12  C8  UNL     1      -1.923  -2.305   0.142  1.00  0.00     0.276 C 
HETATM   13  N3  UNL     1      -1.130  -1.109   0.020  1.00  0.00    -0.337 N 
HETATM   14  C15 UNL     1       0.199  -0.506   0.074  1.00  0.00     0.355 C 
HETATM   15  N4  UNL     1       1.091  -1.501  -0.619  1.00  0.00     0.109 N 
HETATM   16  C16 UNL     1       1.570  -0.890  -1.883  1.00  0.00     0.278 C 
HETATM   17  C17 UNL     1       2.644   0.094  -1.663  1.00  0.00     0.026 C 
HETATM   18  C18 UNL     1       3.916   0.615  -2.102  1.00  0.00     0.024 C 
HETATM   19  H12 UNL     1       1.990  -1.518  -0.047  1.00  0.00     0.318 HD
ENDROOT
BRANCH  13  20
HETATM   20  C9  UNL     1      -1.879   0.013  -0.308  1.00  0.00     0.003 A 
HETATM   21  C10 UNL     1      -3.075  -0.062   0.661  1.00  0.00     0.051 A 
HETATM   22  C11 UNL     1      -4.292   0.732   0.969  1.00  0.00     0.011 A 
HETATM   23  C14 UNL     1      -2.611   1.074  -0.598  1.00  0.00     0.074 A 
HETATM   24  C12 UNL     1      -3.818   1.536  -0.041  1.00  0.00     0.041 A 
HETATM   25  C13 UNL     1      -3.404   2.295  -0.969  1.00  0.00    -0.018 A 
HETATM   26 BR1  UNL     1      -2.790   3.387  -2.320  1.00  0.00    -0.059 Br
ENDBRANCH  13  20
TORSDOF 1
