REMARK  5 active torsions:
REMARK  status: ('A' for Active; 'I' for Inactive)
REMARK    1  A    between atoms: C1_2  and  C2_3 
REMARK       I    between atoms: C1_2  and  N1_11 
REMARK    2  A    between atoms: C2_3  and  C3_4 
REMARK    3  A    between atoms: N1_11  and  O2_12 
REMARK    4  A    between atoms: O2_12  and  N2_13 
REMARK    5  A    between atoms: N2_13  and  C9_14 
ROOT
HETATM    1  O1  UNL     1      -1.617  -1.823   0.264  1.00  0.00    -0.271 OA
HETATM    2  C1  UNL     1      -0.822  -0.841   0.082  1.00  0.00     0.247 C 
HETATM    3  N1  UNL     1       0.563  -1.243   0.098  1.00  0.00    -0.209 N 
HETATM    4  H7  UNL     1       1.271  -0.468  -0.047  1.00  0.00     0.200 HD
ENDROOT
BRANCH   3   5
HETATM    5  O2  UNL     1       0.991  -2.533   0.285  1.00  0.00    -0.154 OA
BRANCH   5   6
HETATM    6  N2  UNL     1       2.363  -2.523   0.254  1.00  0.00    -0.242 N 
HETATM    7  H8  UNL     1       2.839  -3.439   0.419  1.00  0.00     0.197 HD
BRANCH   6   8
HETATM    8  C9  UNL     1       3.159  -1.344   0.009  1.00  0.00     0.056 A 
HETATM    9  C10 UNL     1       3.537  -1.077  -1.292  1.00  0.00     0.033 A 
HETATM   10  C11 UNL     1       4.298   0.054  -1.525  1.00  0.00     0.021 A 
HETATM   11  C12 UNL     1       4.666   0.889  -0.483  1.00  0.00     0.011 A 
HETATM   12 BR2  UNL     1       5.705   2.455  -0.709  1.00  0.00    -0.051 Br
HETATM   13  C13 UNL     1       4.266   0.587   0.814  1.00  0.00     0.021 A 
HETATM   14  C14 UNL     1       3.499  -0.545   1.084  1.00  0.00     0.033 A 
ENDBRANCH   6   8
ENDBRANCH   5   6
ENDBRANCH   3   5
BRANCH   2  15
HETATM   15  C2  UNL     1      -1.156   0.583  -0.131  1.00  0.00     0.143 C 
BRANCH  15  16
HETATM   16  C3  UNL     1      -2.631   0.723  -0.095  1.00  0.00    -0.049 A 
HETATM   17  C4  UNL     1      -3.215   1.016   1.135  1.00  0.00     0.009 A 
HETATM   18  C5  UNL     1      -4.575   1.174   1.321  1.00  0.00     0.019 A 
HETATM   19  C6  UNL     1      -5.425   1.044   0.256  1.00  0.00     0.011 A 
HETATM   20 BR1  UNL     1      -7.301   1.262   0.506  1.00  0.00    -0.051 Br
HETATM   21  C7  UNL     1      -4.868   0.755  -0.971  1.00  0.00     0.019 A 
HETATM   22  C8  UNL     1      -3.505   0.596  -1.151  1.00  0.00     0.009 A 
ENDBRANCH  15  16
ENDBRANCH   2  15
TORSDOF 5
