REMARK  5 active torsions:
REMARK  status: ('A' for Active; 'I' for Inactive)
REMARK    1  A    between atoms: C2_2  and  C6_7 
REMARK    2  A    between atoms: C3_3  and  C4_4 
REMARK    3  A    between atoms: C6_7  and  C7_8 
REMARK       I    between atoms: C7_8  and  N1_10 
REMARK    4  A    between atoms: N1_10  and  S1_11 
REMARK    5  A    between atoms: S1_11  and  C8_14 
ROOT
HETATM    1  C7  UNL     1       0.680   0.254  -0.690  1.00  0.00     0.235 C 
HETATM    2  O1  UNL     1       0.444   1.491  -0.906  1.00  0.00    -0.272 OA
HETATM    3  N1  UNL     1      -0.538  -0.303  -0.181  1.00  0.00    -0.250 N 
HETATM    4  H9  UNL     1      -0.657  -1.325   0.096  1.00  0.00     0.181 HD
ENDROOT
BRANCH   3   5
HETATM    5  S1  UNL     1      -1.819   0.855  -0.054  1.00  0.00     0.265 S 
HETATM    6  O2  UNL     1      -1.433   1.941   0.905  1.00  0.00    -0.200 OA
HETATM    7  O3  UNL     1      -2.219   1.434  -1.370  1.00  0.00    -0.200 OA
BRANCH   5   8
HETATM    8  C8  UNL     1      -3.213   0.014   0.580  1.00  0.00     0.080 A 
HETATM    9  C9  UNL     1      -4.147  -0.602  -0.215  1.00  0.00     0.027 A 
HETATM   10  C10 UNL     1      -5.248  -1.266   0.290  1.00  0.00     0.020 A 
HETATM   11  C11 UNL     1      -5.374  -1.285   1.671  1.00  0.00     0.011 A 
HETATM   12 BR2  UNL     1      -6.848  -2.168   2.485  1.00  0.00    -0.051 Br
HETATM   13  C12 UNL     1      -4.471  -0.686   2.527  1.00  0.00     0.020 A 
HETATM   14  C13 UNL     1      -3.392  -0.038   1.950  1.00  0.00     0.027 A 
ENDBRANCH   5   8
ENDBRANCH   3   5
BRANCH   1  15
HETATM   15  C6  UNL     1       1.838  -0.686  -0.830  1.00  0.00     0.137 C 
BRANCH  15  16
HETATM   16  C2  UNL     1       2.964   0.118  -1.368  1.00  0.00    -0.075 C 
HETATM   17  C1  UNL     1       2.691   0.733  -2.681  1.00  0.00     0.044 C 
HETATM   18  C3  UNL     1       4.125   0.290  -0.757  1.00  0.00     0.003 C 
BRANCH  18  19
HETATM   19  C4  UNL     1       4.691  -0.157   0.490  1.00  0.00     0.007 C 
HETATM   20  C5  UNL     1       5.854   0.040   1.059  1.00  0.00     0.056 C 
HETATM   21 BR1  UNL     1       6.223  -0.738   2.739  1.00  0.00    -0.064 Br
ENDBRANCH  18  19
ENDBRANCH  15  16
ENDBRANCH   1  15
TORSDOF 5
