REMARK  0 active torsions:
REMARK  status: ('A' for Active; 'I' for Inactive)
ROOT
HETATM    1  O1  UNL     1       2.577   2.703  -1.403  1.00  0.00    -0.260 OA
HETATM    2  C1  UNL     1       2.916   1.571  -1.010  1.00  0.00     0.282 C 
HETATM    3  C2  UNL     1       3.821   0.428  -0.754  1.00  0.00     0.083 C 
HETATM    4  C3  UNL     1       3.906  -0.811  -0.268  1.00  0.00     0.017 C 
HETATM    5  C4  UNL     1       2.504  -0.924   0.100  1.00  0.00    -0.036 A 
HETATM    6  C5  UNL     1       2.002  -0.614   1.340  1.00  0.00     0.012 A 
HETATM    7  C6  UNL     1       0.650  -0.726   1.557  1.00  0.00     0.013 A 
HETATM    8  C7  UNL     1      -0.145  -1.143   0.522  1.00  0.00    -0.024 A 
HETATM    9  C8  UNL     1       0.302  -1.471  -0.742  1.00  0.00     0.013 A 
HETATM   10  C9  UNL     1       1.669  -1.352  -0.942  1.00  0.00     0.012 A 
HETATM   11  C10 UNL     1      -1.623  -1.218   0.559  1.00  0.00     0.001 A 
HETATM   12  C11 UNL     1      -2.515  -2.080   1.153  1.00  0.00     0.014 A 
HETATM   13  C12 UNL     1      -3.854  -1.857   0.981  1.00  0.00     0.001 A 
HETATM   14  C13 UNL     1      -4.318  -0.801   0.237  1.00  0.00     0.002 A 
HETATM   15  C14 UNL     1      -3.458   0.081  -0.371  1.00  0.00     0.030 A 
HETATM   16  C15 UNL     1      -2.113  -0.126  -0.211  1.00  0.00     0.039 A 
HETATM   17  N1  UNL     1      -1.128   0.754  -0.816  1.00  0.00    -0.387 N 
HETATM   18  C16 UNL     1      -0.667   1.968  -0.186  1.00  0.00     0.146 C 
HETATM   19  C17 UNL     1       0.652   2.473  -0.814  1.00  0.00     0.198 C 
HETATM   20  O2  UNL     1       1.613   1.457  -0.628  1.00  0.00    -0.317 OA
HETATM   21  H11 UNL     1      -0.699   0.549  -1.749  1.00  0.00     0.159 HD
ENDROOT
TORSDOF 0
