REMARK  3 active torsions:
REMARK  status: ('A' for Active; 'I' for Inactive)
REMARK    1  A    between atoms: C9_10  and  C10_11 
REMARK    2  A    between atoms: C10_11  and  N2_12 
REMARK    3  A    between atoms: N2_12  and  C11_13 
ROOT
HETATM    1  C1  UNL     1      -6.378  -0.662   0.714  1.00  0.00     0.048 C 
HETATM    2  C2  UNL     1      -5.023  -0.108   0.457  1.00  0.00    -0.061 A 
HETATM    3  C3  UNL     1      -4.880   1.259   0.648  1.00  0.00     0.009 A 
HETATM    4  C4  UNL     1      -3.632   1.804   0.417  1.00  0.00     0.038 A 
HETATM    5  C5  UNL     1      -2.569   1.022   0.013  1.00  0.00     0.086 A 
HETATM    6  C6  UNL     1      -2.719  -0.357  -0.178  1.00  0.00    -0.006 A 
HETATM    7  C7  UNL     1      -3.970  -0.903   0.054  1.00  0.00     0.018 A 
HETATM    8  C8  UNL     1      -1.787  -1.403  -0.593  1.00  0.00     0.161 C 
HETATM    9  N1  UNL     1      -0.414  -1.192  -0.280  1.00  0.00    -0.381 N 
HETATM   10  C9  UNL     1       0.394  -0.049  -0.028  1.00  0.00     0.098 C 
HETATM   11  C16 UNL     1      -0.091   1.296  -0.307  1.00  0.00     0.209 C 
HETATM   12  N3  UNL     1       0.638   2.241  -0.741  1.00  0.00    -0.146 NA
HETATM   13  C17 UNL     1       1.954   2.308  -1.055  1.00  0.00     0.208 C 
HETATM   14  N4  UNL     1       3.058   2.378  -1.332  1.00  0.00    -0.170 NA
HETATM   15  O1  UNL     1      -1.405   1.794  -0.158  1.00  0.00    -0.289 OA
HETATM   16  H9  UNL     1       0.183  -2.070  -0.208  1.00  0.00     0.160 HD
ENDROOT
BRANCH  10  17
HETATM   17  C10 UNL     1       1.597  -0.053   0.470  1.00  0.00     0.121 C 
BRANCH  17  18
HETATM   18  N2  UNL     1       2.884   0.180   0.985  1.00  0.00    -0.366 N 
HETATM   19  H11 UNL     1       2.973   0.651   1.935  1.00  0.00     0.165 HD
BRANCH  18  20
HETATM   20  C11 UNL     1       4.159  -0.117   0.430  1.00  0.00     0.027 A 
HETATM   21  C12 UNL     1       4.402  -1.230  -0.281  1.00  0.00     0.026 A 
HETATM   22  C13 UNL     1       5.787  -1.251  -0.712  1.00  0.00    -0.001 A 
HETATM   23  C14 UNL     1       6.373  -0.176  -0.275  1.00  0.00    -0.005 A 
HETATM   24  C15 UNL     1       5.401   0.649   0.491  1.00  0.00     0.130 A 
HETATM   25 BR1  UNL     1       5.998   0.915   2.308  1.00  0.00    -0.080 Br
ENDBRANCH  18  20
ENDBRANCH  17  18
ENDBRANCH  10  17
TORSDOF 3
