REMARK  5 active torsions:
REMARK  status: ('A' for Active; 'I' for Inactive)
REMARK    1  A    between atoms: C1_2  and  C2_3 
REMARK       I    between atoms: C1_2  and  N1_11 
REMARK    2  A    between atoms: C2_3  and  C3_4 
REMARK    3  A    between atoms: N1_11  and  S1_12 
REMARK    4  A    between atoms: S1_12  and  S2_13 
REMARK    5  A    between atoms: S2_13  and  C9_15 
ROOT
HETATM    1  O1  UNL     1       0.912  -1.969   0.543  1.00  0.00    -0.272 OA
HETATM    2  C1  UNL     1       0.969  -0.768   0.115  1.00  0.00     0.232 C 
HETATM    3  N1  UNL     1       0.217   0.240   0.820  1.00  0.00    -0.289 N 
HETATM    4  H7  UNL     1       0.213   1.254   0.487  1.00  0.00     0.177 HD
ENDROOT
BRANCH   3   5
HETATM    5  S1  UNL     1      -0.729  -0.135   2.204  1.00  0.00     0.060 SA
BRANCH   5   6
HETATM    6  S2  UNL     1      -2.654   0.498   2.338  1.00  0.00     0.134 S 
HETATM    7  O2  UNL     1      -2.837   1.924   2.841  1.00  0.00    -0.239 OA
BRANCH   6   8
HETATM    8  C9  UNL     1      -3.764   0.084   1.068  1.00  0.00     0.044 A 
HETATM    9  C10 UNL     1      -4.417  -1.117   0.838  1.00  0.00     0.023 A 
HETATM   10  C11 UNL     1      -5.332  -1.317  -0.173  1.00  0.00     0.020 A 
HETATM   11  C12 UNL     1      -5.626  -0.269  -1.016  1.00  0.00     0.011 A 
HETATM   12 BR2  UNL     1      -6.903  -0.575  -2.396  1.00  0.00    -0.051 Br
HETATM   13  C13 UNL     1      -4.977   0.955  -0.803  1.00  0.00     0.020 A 
HETATM   14  C14 UNL     1      -4.069   1.135   0.208  1.00  0.00     0.023 A 
ENDBRANCH   6   8
ENDBRANCH   5   6
ENDBRANCH   3   5
BRANCH   2  15
HETATM   15  C2  UNL     1       1.803  -0.389  -1.104  1.00  0.00     0.142 C 
BRANCH  15  16
HETATM   16  C3  UNL     1       3.229  -0.279  -0.608  1.00  0.00    -0.049 A 
HETATM   17  C4  UNL     1       3.769   1.020  -0.659  1.00  0.00     0.009 A 
HETATM   18  C5  UNL     1       5.019   1.329  -0.188  1.00  0.00     0.019 A 
HETATM   19  C6  UNL     1       5.808   0.377   0.361  1.00  0.00     0.011 A 
HETATM   20 BR1  UNL     1       7.544   0.772   1.045  1.00  0.00    -0.051 Br
HETATM   21  C7  UNL     1       5.281  -0.918   0.413  1.00  0.00     0.019 A 
HETATM   22  C8  UNL     1       4.027  -1.247  -0.057  1.00  0.00     0.009 A 
ENDBRANCH  15  16
ENDBRANCH   2  15
TORSDOF 5
