REMARK  5 active torsions:
REMARK  status: ('A' for Active; 'I' for Inactive)
REMARK    1  A    between atoms: C1_2  and  C2_3 
REMARK       I    between atoms: C1_2  and  N1_11 
REMARK    2  A    between atoms: C2_3  and  C3_4 
REMARK    3  A    between atoms: N1_11  and  S1_12 
REMARK    4  A    between atoms: S1_12  and  C9_15 
REMARK    5  A    between atoms: C13_20  and  P1_21 
ROOT
HETATM    1  O1  UNL     1      -0.160   2.183  -0.728  1.00  0.00    -0.272 OA
HETATM    2  C1  UNL     1      -0.679   1.386   0.072  1.00  0.00     0.235 C 
HETATM    3  N1  UNL     1       0.267   0.382   0.286  1.00  0.00    -0.253 N 
HETATM    4  H7  UNL     1       0.220  -0.486   0.901  1.00  0.00     0.181 HD
ENDROOT
BRANCH   3   5
HETATM    5  S1  UNL     1       1.719   0.629  -0.596  1.00  0.00     0.248 S 
HETATM    6  O2  UNL     1       2.359   1.960  -0.217  1.00  0.00    -0.204 OA
HETATM    7  O3  UNL     1       1.460   0.775  -2.097  1.00  0.00    -0.204 OA
BRANCH   5   8
HETATM    8  C9  UNL     1       2.789  -0.639  -0.503  1.00  0.00     0.134 A 
HETATM    9  C10 UNL     1       3.756  -0.099   0.871  1.00  0.00     0.054 A 
HETATM   10  C11 UNL     1       5.195  -1.104   1.532  1.00  0.00     0.064 A 
HETATM   11  P1  UNL     1       4.499  -1.755   0.343  1.00  0.00    -0.088 P 
HETATM   12  C12 UNL     1       6.036  -2.690   1.155  1.00  0.00     0.069 A 
HETATM   13  C13 UNL     1       5.286  -2.243   0.752  1.00  0.00    -0.049 A 
HETATM   14 BR2  UNL     1       6.928  -1.953   2.600  1.00  0.00    -0.075 Br
HETATM   15  H10 UNL     1       4.197  -1.573   0.182  1.00  0.00     0.055 HD
ENDBRANCH   5   8
ENDBRANCH   3   5
BRANCH   2  16
HETATM   16  C2  UNL     1      -1.959   1.236   0.802  1.00  0.00     0.142 C 
BRANCH  16  17
HETATM   17  C3  UNL     1      -3.091   0.847  -0.083  1.00  0.00    -0.049 A 
HETATM   18  C4  UNL     1      -4.019   1.570  -0.786  1.00  0.00     0.009 A 
HETATM   19  C5  UNL     1      -4.963   0.905  -1.538  1.00  0.00     0.019 A 
HETATM   20  C6  UNL     1      -4.987  -0.468  -1.592  1.00  0.00     0.011 A 
HETATM   21 BR1  UNL     1      -6.347  -1.322  -2.664  1.00  0.00    -0.051 Br
HETATM   22  C7  UNL     1      -4.069  -1.271  -0.900  1.00  0.00     0.019 A 
HETATM   23  C8  UNL     1      -3.126  -0.553  -0.147  1.00  0.00     0.009 A 
ENDBRANCH  16  17
ENDBRANCH   2  16
TORSDOF 5
