REMARK  6 active torsions:
REMARK  status: ('A' for Active; 'I' for Inactive)
REMARK    1  A    between atoms: C1_2  and  O2_3 
REMARK       I    between atoms: C1_2  and  N1_4 
REMARK    2  A    between atoms: N1_4  and  C2_5 
REMARK    3  A    between atoms: C2_5  and  C3_6 
REMARK    4  A    between atoms: C8_12  and  N2_13 
REMARK    5  A    between atoms: N2_13  and  S1_14 
REMARK    6  A    between atoms: S1_14  and  C9_17 
ROOT
HETATM    1  C3  UNL     1       1.815   0.458  -0.833  1.00  0.00    -0.012 A 
HETATM    2  C4  UNL     1       2.229   0.628  -2.136  1.00  0.00     0.030 A 
HETATM    3  C5  UNL     1       1.714  -0.116  -3.170  1.00  0.00     0.011 A 
HETATM    4 BR1  UNL     1       2.308   0.146  -4.957  1.00  0.00    -0.051 Br
HETATM    5  C6  UNL     1       0.750  -1.068  -2.902  1.00  0.00     0.021 A 
HETATM    6  C7  UNL     1       0.368  -1.203  -1.586  1.00  0.00     0.032 A 
HETATM    7  C8  UNL     1       0.850  -0.481  -0.491  1.00  0.00     0.050 A 
ENDROOT
BRANCH   7   8
HETATM    8  N2  UNL     1       0.354  -0.748   0.796  1.00  0.00    -0.280 N 
HETATM    9  H8  UNL     1       0.995  -0.324   1.535  1.00  0.00     0.179 HD
BRANCH   8  10
HETATM   10  S1  UNL     1      -1.062  -1.615   1.248  1.00  0.00     0.263 S 
HETATM   11  O3  UNL     1      -0.990  -3.055   0.825  1.00  0.00    -0.200 OA
HETATM   12  O4  UNL     1      -1.127  -1.631   2.750  1.00  0.00    -0.200 OA
BRANCH  10  13
HETATM   13  C9  UNL     1      -2.494  -0.833   0.625  1.00  0.00     0.080 A 
HETATM   14  C10 UNL     1      -3.027   0.181   1.419  1.00  0.00     0.028 A 
HETATM   15  C11 UNL     1      -4.157   0.885   1.058  1.00  0.00     0.044 A 
HETATM   16  C12 UNL     1      -4.789   0.584  -0.129  1.00  0.00     0.116 A 
HETATM   17  F1  UNL     1      -5.908   1.241  -0.546  1.00  0.00    -0.206 F 
HETATM   18  C13 UNL     1      -4.288  -0.426  -0.956  1.00  0.00     0.044 A 
HETATM   19  C14 UNL     1      -3.167  -1.092  -0.550  1.00  0.00     0.028 A 
ENDBRANCH  10  13
ENDBRANCH   8  10
ENDBRANCH   7   8
BRANCH   1  20
HETATM   20  C2  UNL     1       2.377   1.262   0.275  1.00  0.00     0.166 C 
BRANCH  20  21
HETATM   21  N1  UNL     1       3.325   0.561   1.092  1.00  0.00    -0.333 N 
HETATM   22  C1  UNL     1       3.866   1.347   2.162  1.00  0.00     0.249 C 
HETATM   23  O1  UNL     1       3.490   2.545   2.307  1.00  0.00    -0.632 OA
HETATM   24  H2  UNL     1       3.681  -0.431   1.027  1.00  0.00     0.165 HD
BRANCH  22  25
HETATM   25  O2  UNL     1       4.800   0.809   3.045  1.00  0.00    -0.760 OA
HETATM   26  H1  UNL     1       5.353   1.377   3.673  1.00  0.00     0.169 HD
ENDBRANCH  22  25
ENDBRANCH  20  21
ENDBRANCH   1  20
TORSDOF 6
