REMARK  6 active torsions:
REMARK  status: ('A' for Active; 'I' for Inactive)
REMARK    1  A    between atoms: C2_2  and  C3_4 
REMARK    2  A    between atoms: C4_5  and  C5_6 
REMARK    3  A    between atoms: C5_6  and  S1_7 
REMARK    4  A    between atoms: S1_7  and  N1_10 
REMARK       I    between atoms: N1_10  and  C6_11 
REMARK    5  A    between atoms: C6_11  and  C7_13 
REMARK    6  A    between atoms: C7_13  and  C8_14 
ROOT
HETATM    1  N1  UNL     1      -0.408  -0.231   1.390  1.00  0.00    -0.254 N 
HETATM    2  C6  UNL     1       0.895   0.039   0.943  1.00  0.00     0.235 C 
HETATM    3  O3  UNL     1       1.206   0.991   0.184  1.00  0.00    -0.272 OA
HETATM    4  H7  UNL     1      -0.593  -1.035   2.015  1.00  0.00     0.181 HD
ENDROOT
BRANCH   1   5
HETATM    5  S1  UNL     1      -1.617   0.855   0.820  1.00  0.00     0.236 S 
HETATM    6  O1  UNL     1      -2.701   0.938   1.833  1.00  0.00    -0.205 OA
HETATM    7  O2  UNL     1      -1.063   2.230   0.594  1.00  0.00    -0.205 OA
BRANCH   5   8
HETATM    8  C5  UNL     1      -2.322   0.287  -0.718  1.00  0.00     0.190 C 
BRANCH   8   9
HETATM    9  C4  UNL     1      -2.950  -1.047  -0.552  1.00  0.00    -0.007 C 
HETATM   10  C3  UNL     1      -4.235  -1.245  -0.787  1.00  0.00     0.038 C 
BRANCH  10  11
HETATM   11  C2  UNL     1      -5.180  -0.251  -1.219  1.00  0.00     0.106 C 
HETATM   12  C1  UNL     1      -6.477  -0.353  -1.478  1.00  0.00     0.056 C 
HETATM   13  F1  UNL     1      -5.352   1.032  -1.548  1.00  0.00    -0.207 F 
ENDBRANCH  10  11
ENDBRANCH   8   9
ENDBRANCH   5   8
ENDBRANCH   1   5
BRANCH   2  14
HETATM   14  C7  UNL     1       2.076  -0.782   1.323  1.00  0.00     0.142 C 
BRANCH  14  15
HETATM   15  C8  UNL     1       3.286  -0.189   0.657  1.00  0.00    -0.048 A 
HETATM   16  C9  UNL     1       4.050   0.788   1.274  1.00  0.00     0.007 A 
HETATM   17  C10 UNL     1       5.167   1.317   0.629  1.00  0.00     0.002 A 
HETATM   18  C11 UNL     1       5.528   0.868  -0.647  1.00  0.00     0.019 A 
HETATM   19  C12 UNL     1       4.745  -0.107  -1.233  1.00  0.00     0.011 A 
HETATM   20 BR1  UNL     1       5.244  -0.715  -2.974  1.00  0.00    -0.051 Br
HETATM   21  C13 UNL     1       3.623  -0.648  -0.602  1.00  0.00     0.026 A 
ENDBRANCH  14  15
ENDBRANCH   2  14
TORSDOF 6
