REMARK  6 active torsions:
REMARK  status: ('A' for Active; 'I' for Inactive)
REMARK    1  A    between atoms: C2_2  and  C3_3 
REMARK    2  A    between atoms: C3_3  and  S1_7 
REMARK    3  A    between atoms: C4_4  and  C5_5 
REMARK    4  A    between atoms: S1_7  and  N1_10 
REMARK       I    between atoms: N1_10  and  C6_11 
REMARK    5  A    between atoms: C6_11  and  C7_13 
REMARK    6  A    between atoms: C7_13  and  C8_14 
ROOT
HETATM    1  N1  UNL     1      -0.379   0.257   0.511  1.00  0.00    -0.250 N 
HETATM    2  C6  UNL     1       0.877  -0.229   0.029  1.00  0.00     0.235 C 
HETATM    3  O3  UNL     1       0.807  -0.798  -1.111  1.00  0.00    -0.272 OA
HETATM    4  H9  UNL     1      -0.506   0.747   1.423  1.00  0.00     0.181 HD
ENDROOT
BRANCH   1   5
HETATM    5  S1  UNL     1      -1.769   0.009  -0.493  1.00  0.00     0.261 S 
HETATM    6  O1  UNL     1      -1.985  -1.485  -0.669  1.00  0.00    -0.200 OA
HETATM    7  O2  UNL     1      -1.532   0.564  -1.868  1.00  0.00    -0.200 OA
BRANCH   5   8
HETATM    8  C3  UNL     1      -3.224   0.652   0.220  1.00  0.00     0.056 C 
HETATM    9  C4  UNL     1      -3.453   1.930  -0.122  1.00  0.00     0.025 C 
BRANCH   8  10
HETATM   10  C2  UNL     1      -4.051  -0.217   1.099  1.00  0.00     0.048 C 
HETATM   11  C1  UNL     1      -4.552  -1.439   0.392  1.00  0.00     0.011 C 
ENDBRANCH   8  10
BRANCH   9  12
HETATM   12  C5  UNL     1      -2.928   3.072  -0.907  1.00  0.00     0.250 C 
HETATM   13  F1  UNL     1      -3.864   3.426  -1.837  1.00  0.00    -0.251 F 
ENDBRANCH   9  12
ENDBRANCH   5   8
ENDBRANCH   1   5
BRANCH   2  14
HETATM   14  C7  UNL     1       2.049   0.004   0.923  1.00  0.00     0.142 C 
BRANCH  14  15
HETATM   15  C8  UNL     1       3.297  -0.539   0.326  1.00  0.00    -0.048 A 
HETATM   16  C9  UNL     1       3.780  -1.817   0.508  1.00  0.00     0.007 A 
HETATM   17  C10 UNL     1       4.948  -2.256  -0.078  1.00  0.00     0.002 A 
HETATM   18  C11 UNL     1       5.655  -1.379  -0.875  1.00  0.00     0.019 A 
HETATM   19  C12 UNL     1       5.186  -0.100  -1.066  1.00  0.00     0.011 A 
HETATM   20 BR1  UNL     1       6.243   1.046  -2.193  1.00  0.00    -0.051 Br
HETATM   21  C13 UNL     1       4.024   0.339  -0.484  1.00  0.00     0.026 A 
ENDBRANCH  14  15
ENDBRANCH   2  14
TORSDOF 6
