REMARK  1 active torsions:
REMARK  status: ('A' for Active; 'I' for Inactive)
REMARK    1  A    between atoms: C7_8  and  C8_9 
ROOT
HETATM    1  C8  UNL     1      -1.374  -0.369  -0.619  1.00  0.00     0.080 C 
HETATM    2  C9  UNL     1      -0.525   0.549  -0.303  1.00  0.00     0.115 C 
HETATM    3  N1  UNL     1       0.689   1.206  -0.304  1.00  0.00    -0.394 N 
HETATM    4  C10 UNL     1       1.745   0.786   0.600  1.00  0.00     0.157 C 
HETATM    5  C11 UNL     1       3.006   1.609   0.452  1.00  0.00     0.192 C 
HETATM    6  O1  UNL     1       3.543   1.229  -0.837  1.00  0.00    -0.326 OA
HETATM    7  C12 UNL     1       3.732  -0.172  -0.928  1.00  0.00     0.123 C 
HETATM    8  N2  UNL     1       2.728   0.058  -1.640  1.00  0.00    -0.336 NA
HETATM    9  B1  UNL     1       1.854  -0.840  -2.438  1.00  0.00     0.342 B 
HETATM   10  C13 UNL     1       0.410  -1.237  -2.012  1.00  0.00     0.061 C 
HETATM   11  N3  UNL     1      -0.700  -1.218  -1.478  1.00  0.00    -0.272 NA
HETATM   12  C14 UNL     1       4.903  -0.545  -0.113  1.00  0.00     0.112 C 
HETATM   13  C15 UNL     1       4.733   0.141   1.223  1.00  0.00     0.003 C 
HETATM   14  C16 UNL     1       3.955   1.182   1.526  1.00  0.00     0.039 C 
HETATM   15 CL1  UNL     1       4.095   1.945   3.093  1.00  0.00    -0.086 Cl
HETATM   16  H8  UNL     1       0.932   2.023  -0.932  1.00  0.00     0.159 HD
HETATM   17  H12 UNL     1       2.119  -1.039  -3.577  1.00  0.00     0.008 HD
ENDROOT
BRANCH   1  18
HETATM   18  C7  UNL     1      -2.744  -0.607  -0.275  1.00  0.00     0.001 A 
HETATM   19  C2  UNL     1      -3.636   0.152   0.403  1.00  0.00    -0.032 A 
HETATM   20  C1  UNL     1      -3.245   1.510   0.812  1.00  0.00     0.050 C 
HETATM   21  C3  UNL     1      -4.915  -0.257   0.710  1.00  0.00     0.017 A 
HETATM   22 BR1  UNL     1      -6.097   0.886   1.673  1.00  0.00    -0.051 Br
HETATM   23  C4  UNL     1      -5.326  -1.485   0.319  1.00  0.00     0.019 A 
HETATM   24  C5  UNL     1      -4.474  -2.294  -0.368  1.00  0.00     0.002 A 
HETATM   25  C6  UNL     1      -3.212  -1.858  -0.656  1.00  0.00     0.014 A 
ENDBRANCH   1  18
TORSDOF 1
