REMARK  5 active torsions:
REMARK  status: ('A' for Active; 'I' for Inactive)
REMARK    1  A    between atoms: C2_2  and  C3_3 
REMARK    2  A    between atoms: C3_3  and  C11_13 
REMARK    3  A    between atoms: C4_4  and  C5_5 
REMARK    4  A    between atoms: C9_10  and  C10_11 
REMARK    5  A    between atoms: C11_13  and  N2_14 
ROOT
HETATM    1  C5  UNL     1      -3.235   0.797  -0.384  1.00  0.00    -0.034 A 
HETATM    2  C6  UNL     1      -3.892   0.513  -1.465  1.00  0.00     0.030 A 
HETATM    3  C7  UNL     1      -3.981  -0.381  -2.607  1.00  0.00     0.095 C 
HETATM    4  N1  UNL     1      -4.033  -1.101  -3.511  1.00  0.00    -0.192 NA
HETATM    5  C8  UNL     1      -4.837   1.598  -1.272  1.00  0.00     0.062 A 
HETATM    6  C9  UNL     1      -4.099   1.931  -0.051  1.00  0.00     0.058 A 
ENDROOT
BRANCH   1   7
HETATM    7  C4  UNL     1      -2.080   0.193   0.234  1.00  0.00     0.013 C 
HETATM    8  C3  UNL     1      -1.126  -0.748   0.229  1.00  0.00    -0.062 C 
BRANCH   8   9
HETATM    9  C2  UNL     1      -1.018  -1.768  -0.836  1.00  0.00     0.031 C 
HETATM   10  C1  UNL     1      -1.193  -3.137  -0.167  1.00  0.00     0.010 C 
ENDBRANCH   8   9
BRANCH   8  11
HETATM   11  C11 UNL     1      -0.158  -0.739   1.377  1.00  0.00     0.151 C 
BRANCH  11  12
HETATM   12  N2  UNL     1       1.162  -0.521   1.075  1.00  0.00    -0.409 N 
HETATM   13  C12 UNL     1       2.012  -1.419   0.421  1.00  0.00     0.117 C 
HETATM   14  C13 UNL     1       2.617  -0.857  -0.836  1.00  0.00     0.029 C 
HETATM   15  C14 UNL     1       3.831  -0.046  -0.677  1.00  0.00     0.040 A 
HETATM   16  C15 UNL     1       4.881  -0.410   0.299  1.00  0.00     0.175 A 
HETATM   17  C16 UNL     1       3.661   1.248   0.054  1.00  0.00     0.129 A 
HETATM   18  O2  UNL     1       4.610   0.796   0.985  1.00  0.00    -0.385 OA
HETATM   19  C17 UNL     1       2.294   1.500   0.601  1.00  0.00     0.051 C 
HETATM   20  C18 UNL     1       1.887   0.540   1.704  1.00  0.00     0.119 C 
ENDBRANCH  11  12
ENDBRANCH   8  11
ENDBRANCH   1   7
BRANCH   6  21
HETATM   21  C10 UNL     1      -3.411   3.259  -0.045  1.00  0.00     0.400 C 
HETATM   22  O1  UNL     1      -3.315   4.025   0.920  1.00  0.00    -0.429 OA
ENDBRANCH   6  21
TORSDOF 5
