REMARK  3 active torsions:
REMARK  status: ('A' for Active; 'I' for Inactive)
REMARK    1  A    between atoms: C2_2  and  C3_3 
REMARK    2  A    between atoms: C8_8  and  N1_9 
REMARK    3  A    between atoms: N2_12  and  C11_13 
ROOT
HETATM    1  C3  UNL     1      -0.577   0.597   1.388  1.00  0.00    -0.031 A 
HETATM    2  C4  UNL     1       0.770   0.640   1.659  1.00  0.00     0.025 A 
HETATM    3  C5  UNL     1       1.623   0.721   0.581  1.00  0.00     0.022 A 
HETATM    4  C6  UNL     1       1.203   0.760  -0.750  1.00  0.00    -0.041 A 
HETATM    5  C7  UNL     1      -0.162   0.714  -0.980  1.00  0.00     0.038 A 
HETATM    6  C8  UNL     1      -1.043   0.633   0.094  1.00  0.00     0.037 A 
HETATM    7  C16 UNL     1       2.139   0.850  -1.898  1.00  0.00     0.050 C 
HETATM    8  C17 UNL     1       3.208  -0.217  -1.878  1.00  0.00     0.036 C 
HETATM    9  C18 UNL     1       2.592  -1.462  -1.274  1.00  0.00     0.017 C 
HETATM   10  C19 UNL     1       4.411   0.207  -1.054  1.00  0.00     0.025 C 
HETATM   11  C20 UNL     1       4.189   0.607   0.223  1.00  0.00     0.046 C 
HETATM   12  C21 UNL     1       3.004   0.756   1.099  1.00  0.00     0.195 C 
HETATM   13  O2  UNL     1       3.241   0.918   2.324  1.00  0.00    -0.287 OA
HETATM   14  C22 UNL     1       5.545   0.963   0.701  1.00  0.00    -0.014 A 
HETATM   15  C23 UNL     1       6.280   1.687   1.517  1.00  0.00     0.012 A 
HETATM   16  C24 UNL     1       7.656   1.273   1.172  1.00  0.00     0.021 A 
HETATM   17  C25 UNL     1       7.693   0.347   0.199  1.00  0.00     0.049 A 
HETATM   18  C26 UNL     1       8.868  -0.247  -0.362  1.00  0.00     0.097 C 
HETATM   19  N3  UNL     1       9.826  -0.719  -0.822  1.00  0.00    -0.192 NA
HETATM   20  C27 UNL     1       6.337  -0.009  -0.135  1.00  0.00     0.160 A 
HETATM   21  N4  UNL     1       5.807   0.264  -1.435  1.00  0.00    -0.379 N 
HETATM   22  H30 UNL     1       5.985   0.468  -2.448  1.00  0.00     0.160 HD
ENDROOT
BRANCH   1  23
HETATM   23  C2  UNL     1      -1.575   0.499   2.446  1.00  0.00     0.036 C 
HETATM   24  C1  UNL     1      -2.050  -0.960   2.474  1.00  0.00     0.010 C 
ENDBRANCH   1  23
BRANCH   6  25
HETATM   25  N1  UNL     1      -2.382   0.614  -0.379  1.00  0.00    -0.377 N 
HETATM   26  C9  UNL     1      -3.398   1.618  -0.143  1.00  0.00     0.153 C 
HETATM   27  C10 UNL     1      -4.587   0.954   0.477  1.00  0.00     0.293 C 
HETATM   28  N2  UNL     1      -4.552  -0.479   0.408  1.00  0.00     0.100 N 
HETATM   29  C14 UNL     1      -4.086  -0.989  -0.841  1.00  0.00     0.293 C 
HETATM   30  C15 UNL     1      -2.700  -0.531  -1.169  1.00  0.00     0.153 C 
BRANCH  28  31
HETATM   31  C11 UNL     1      -5.808  -0.994   0.813  1.00  0.00     0.270 C 
HETATM   32  C12 UNL     1      -6.969  -0.531  -0.039  1.00  0.00     0.205 C 
HETATM   33  O1  UNL     1      -7.576  -1.764   0.262  1.00  0.00    -0.387 OA
HETATM   34  C13 UNL     1      -6.270  -2.309   0.292  1.00  0.00     0.205 C 
ENDBRANCH  28  31
ENDBRANCH   6  25
TORSDOF 3
