REMARK  4 active torsions:
REMARK  status: ('A' for Active; 'I' for Inactive)
REMARK    1  A    between atoms: C5_5  and  C6_6 
REMARK    2  A    between atoms: C8_9  and  N1_10 
REMARK    3  A    between atoms: N1_10  and  C9_11 
REMARK    4  A    between atoms: C12_15  and  C13_16 
ROOT
HETATM    1  C9  UNL     1       0.152  -1.419  -1.211  1.00  0.00     0.727 A 
HETATM    2  N2  UNL     1       0.814  -2.332  -1.943  1.00  0.00    -0.075 NA
HETATM    3  C10 UNL     1       2.127  -2.434  -2.014  1.00  0.00     0.139 A 
HETATM    4  C11 UNL     1       2.878  -1.539  -1.284  1.00  0.00     0.053 A 
HETATM    5  C12 UNL     1       2.262  -0.579  -0.514  1.00  0.00     0.089 A 
HETATM    6  N4  UNL     1       0.921  -0.568  -0.517  1.00  0.00    -0.062 NA
ENDROOT
BRANCH   1   7
HETATM    7  N1  UNL     1      -1.265  -1.416  -1.221  1.00  0.00    -0.188 N 
HETATM    8  H8  UNL     1      -1.737  -2.155  -1.823  1.00  0.00     0.184 HD
BRANCH   7   9
HETATM    9  C8  UNL     1      -2.172  -0.567  -0.543  1.00  0.00     0.056 A 
HETATM   10  C2  UNL     1      -3.547  -0.712  -0.672  1.00  0.00    -0.035 A 
HETATM   11  C1  UNL     1      -4.072  -1.790  -1.547  1.00  0.00     0.050 C 
HETATM   12  C3  UNL     1      -4.445   0.086  -0.035  1.00  0.00     0.010 A 
HETATM   13  C4  UNL     1      -4.033   1.091   0.780  1.00  0.00     0.015 A 
HETATM   14  C5  UNL     1      -2.681   1.297   0.958  1.00  0.00     0.004 A 
HETATM   15  C7  UNL     1      -1.806   0.465   0.294  1.00  0.00     0.045 A 
BRANCH  14  16
HETATM   16  C6  UNL     1      -2.225   2.376   1.834  1.00  0.00     0.270 C 
HETATM   17  O1  UNL     1      -3.107   3.078   2.394  1.00  0.00    -0.301 OA
ENDBRANCH  14  16
ENDBRANCH   7   9
ENDBRANCH   1   7
BRANCH   5  18
HETATM   18  C13 UNL     1       3.037   0.371   0.260  1.00  0.00     0.011 A 
HETATM   19  C14 UNL     1       4.406   0.399   0.296  1.00  0.00     0.017 A 
HETATM   20  C15 UNL     1       5.139   1.320   1.046  1.00  0.00     0.020 A 
HETATM   21  C16 UNL     1       4.469   2.264   1.803  1.00  0.00     0.116 A 
HETATM   22  N3  UNL     1       3.130   2.230   1.764  1.00  0.00    -0.272 NA
HETATM   23  C17 UNL     1       2.439   1.337   1.036  1.00  0.00     0.130 A 
ENDBRANCH   5  18
TORSDOF 4
