REMARK  7 active torsions:
REMARK  status: ('A' for Active; 'I' for Inactive)
REMARK    1  A    between atoms: C2_2  and  C3_3 
REMARK    2  A    between atoms: C3_3  and  C4_4 
REMARK    3  A    between atoms: C3_3  and  N2_29 
REMARK    4  A    between atoms: C4_4  and  C5_5 
REMARK    5  A    between atoms: C13_13  and  C14_14 
REMARK    6  A    between atoms: N1_17  and  C17_18 
REMARK    7  A    between atoms: N2_29  and  N3_30 
ROOT
HETATM    1  C5  UNL     1      -3.893  -0.455  -0.322  1.00  0.00    -0.049 A 
HETATM    2  C6  UNL     1      -4.160  -1.336   0.824  1.00  0.00     0.074 A 
HETATM    3  C7  UNL     1      -2.689  -1.332   0.892  1.00  0.00    -0.060 A 
HETATM    4  C8  UNL     1      -2.472  -0.550  -0.127  1.00  0.00    -0.040 A 
HETATM    5  C9  UNL     1      -1.184  -0.100  -0.655  1.00  0.00     0.049 A 
HETATM    6  C10 UNL     1      -1.183   1.421  -0.737  1.00  0.00     0.020 C 
HETATM    7  C11 UNL     1      -0.030  -0.496   0.152  1.00  0.00    -0.042 A 
HETATM    8  C12 UNL     1       1.214  -0.018  -0.204  1.00  0.00     0.015 A 
HETATM    9  C13 UNL     1       2.310  -0.405   0.577  1.00  0.00    -0.053 A 
HETATM   10  C22 UNL     1       2.094  -1.250   1.670  1.00  0.00     0.008 A 
HETATM   11  C23 UNL     1       0.831  -1.703   1.986  1.00  0.00     0.009 A 
HETATM   12  C24 UNL     1      -0.263  -1.318   1.209  1.00  0.00    -0.043 A 
HETATM   13  C25 UNL     1      -1.543  -1.873   1.660  1.00  0.00     0.045 A 
HETATM   14  C26 UNL     1      -1.720  -1.409   3.112  1.00  0.00     0.020 C 
ENDROOT
BRANCH   9  15
HETATM   15  C14 UNL     1       3.626   0.121   0.175  1.00  0.00     0.021 C 
HETATM   16  C15 UNL     1       4.020  -0.240  -1.223  1.00  0.00     0.029 C 
HETATM   17  C16 UNL     1       5.195   0.577  -1.655  1.00  0.00     0.118 C 
HETATM   18  N1  UNL     1       5.920   1.192  -0.600  1.00  0.00    -0.404 N 
HETATM   19  C20 UNL     1       5.173   1.971   0.314  1.00  0.00     0.118 C 
HETATM   20  C21 UNL     1       3.673   1.651   0.269  1.00  0.00     0.029 C 
BRANCH  18  21
HETATM   21  C17 UNL     1       7.092   0.556  -0.144  1.00  0.00     0.126 C 
HETATM   22  C18 UNL     1       8.212   0.335  -1.111  1.00  0.00     0.194 C 
HETATM   23  O1  UNL     1       8.469  -0.875  -0.449  1.00  0.00    -0.387 OA
HETATM   24  C19 UNL     1       7.117  -0.945  -0.113  1.00  0.00     0.194 C 
ENDBRANCH  18  21
ENDBRANCH   9  15
BRANCH   1  25
HETATM   25  C4  UNL     1      -4.772   0.124  -1.128  1.00  0.00     0.002 C 
BRANCH  25  26
HETATM   26  C3  UNL     1      -6.217  -0.055  -0.964  1.00  0.00     0.094 C 
BRANCH  26  27
HETATM   27  C2  UNL     1      -7.004   1.176  -1.372  1.00  0.00     0.020 C 
HETATM   28  C1  UNL     1      -6.603   2.372  -0.537  1.00  0.00     0.007 C 
ENDBRANCH  26  27
BRANCH  26  29
HETATM   29  N2  UNL     1      -6.729  -1.153  -1.774  1.00  0.00    -0.256 NA
HETATM   30  H35 UNL     1      -6.268  -2.050  -1.529  1.00  0.00     0.141 HD
BRANCH  29  31
HETATM   31  N3  UNL     1      -8.092  -1.283  -1.487  1.00  0.00    -0.270 NA
HETATM   32  H36 UNL     1      -8.381  -2.286  -1.545  1.00  0.00     0.137 HD
HETATM   33  H37 UNL     1      -8.331  -0.958  -0.532  1.00  0.00     0.137 HD
ENDBRANCH  29  31
ENDBRANCH  26  29
ENDBRANCH  25  26
ENDBRANCH   1  25
TORSDOF 7
