REMARK  11 active torsions:
REMARK  status: ('A' for Active; 'I' for Inactive)
REMARK    1  A    between atoms: C2_2  and  O1_3 
REMARK    2  A    between atoms: O1_3  and  C3_4 
REMARK    3  A    between atoms: N2_8  and  C6_9 
REMARK    4  A    between atoms: C11_14  and  C12_15 
REMARK    5  A    between atoms: C18_22  and  C19_23 
REMARK    6  A    between atoms: C19_23  and  C20_24 
REMARK    7  A    between atoms: C20_24  and  C21_25 
REMARK    8  A    between atoms: C21_25  and  N3_26 
REMARK    9  A    between atoms: N3_26  and  C22_27 
REMARK   10  A    between atoms: C22_27  and  C23_28 
REMARK   11  A    between atoms: C23_28  and  N4_29 
ROOT
HETATM    1  C6  UNL     1      -1.462   0.551   1.361  1.00  0.00     0.037 A 
HETATM    2  C7  UNL     1      -0.442   0.504   0.398  1.00  0.00     0.038 A 
HETATM    3  C8  UNL     1       0.909   0.477   0.681  1.00  0.00    -0.033 A 
HETATM    4  C9  UNL     1       1.238   0.498   2.018  1.00  0.00     0.022 A 
HETATM    5  C10 UNL     1       0.274   0.543   2.999  1.00  0.00     0.025 A 
HETATM    6  C11 UNL     1      -1.059   0.570   2.674  1.00  0.00    -0.031 A 
HETATM    7  C14 UNL     1       2.616   0.476   2.497  1.00  0.00     0.188 A 
HETATM    8  O2  UNL     1       2.944   0.494   3.715  1.00  0.00    -0.287 OA
HETATM    9  C15 UNL     1       3.683   0.429   1.519  1.00  0.00    -0.014 A 
HETATM   10  C16 UNL     1       5.090   0.406   1.934  1.00  0.00     0.052 C 
HETATM   11  C17 UNL     1       3.310   0.411   0.254  1.00  0.00    -0.005 A 
HETATM   12  C18 UNL     1       1.959   0.430  -0.347  1.00  0.00     0.060 A 
ENDROOT
BRANCH   1  13
HETATM   13  N2  UNL     1      -2.746   0.571   0.753  1.00  0.00    -0.370 N 
HETATM   14  C5  UNL     1      -3.846   1.502   0.615  1.00  0.00     0.154 C 
HETATM   15  C4  UNL     1      -5.178   0.859   0.500  1.00  0.00     0.292 C 
HETATM   16  N1  UNL     1      -5.253  -0.134  -0.552  1.00  0.00     0.116 N 
HETATM   17  C3  UNL     1      -3.932  -0.482  -1.043  1.00  0.00     0.378 C 
HETATM   18  H7  UNL     1      -5.784  -0.959  -0.214  1.00  0.00     0.319 HD
HETATM   19  C24 UNL     1      -2.971  -0.712   0.104  1.00  0.00     0.139 C 
HETATM   20  C25 UNL     1      -3.608  -1.741   0.994  1.00  0.00     0.037 C 
BRANCH  17  21
HETATM   21  O1  UNL     1      -3.414   0.487  -1.876  1.00  0.00    -0.356 OA
BRANCH  21  22
HETATM   22  C2  UNL     1      -3.189   0.095  -3.172  1.00  0.00     0.166 C 
HETATM   23  C1  UNL     1      -4.507  -0.344  -3.784  1.00  0.00     0.033 C 
ENDBRANCH  21  22
ENDBRANCH  17  21
ENDBRANCH   1  13
BRANCH   6  24
HETATM   24  C12 UNL     1      -2.091   0.637   3.722  1.00  0.00     0.036 C 
HETATM   25  C13 UNL     1      -2.636   2.009   3.974  1.00  0.00     0.010 C 
ENDBRANCH   6  24
BRANCH  12  26
HETATM   26  C19 UNL     1       1.822  -0.801  -1.182  1.00  0.00     0.095 C 
BRANCH  26  27
HETATM   27  C20 UNL     1       2.849  -1.309  -1.837  1.00  0.00    -0.075 C 
BRANCH  27  28
HETATM   28  C21 UNL     1       3.802  -1.597  -2.674  1.00  0.00     0.030 C 
BRANCH  28  29
HETATM   29  N3  UNL     1       4.886  -1.853  -3.279  1.00  0.00    -0.238 NA
BRANCH  29  30
HETATM   30  C22 UNL     1       6.038  -0.959  -3.204  1.00  0.00     0.190 C 
BRANCH  30  31
HETATM   31  C23 UNL     1       7.090  -1.515  -2.279  1.00  0.00     0.289 C 
BRANCH  31  32
HETATM   32  N4  UNL     1       7.529  -2.792  -2.767  1.00  0.00     0.079 N 
HETATM   33  H29 UNL     1       6.772  -3.502  -2.625  1.00  0.00     0.312 HD
HETATM   34  H30 UNL     1       8.338  -3.132  -2.183  1.00  0.00     0.312 HD
ENDBRANCH  31  32
ENDBRANCH  30  31
ENDBRANCH  29  30
ENDBRANCH  28  29
ENDBRANCH  27  28
ENDBRANCH  26  27
ENDBRANCH  12  26
TORSDOF 11
