REMARK  7 active torsions:
REMARK  status: ('A' for Active; 'I' for Inactive)
REMARK    1  A    between atoms: C5_7  and  C6_8 
REMARK    2  A    between atoms: C6_8  and  C7_9 
REMARK    3  A    between atoms: C7_9  and  N2_10 
REMARK    4  A    between atoms: C8_11  and  C9_12 
REMARK    5  A    between atoms: C9_12  and  C10_14 
REMARK    6  A    between atoms: C13_17  and  C14_18 
REMARK    7  A    between atoms: N3_22  and  C18_23 
ROOT
HETATM    1  N1  UNL     1      -7.099  -0.354   5.049  1.00  0.00    -0.191 NA
HETATM    2  C1  UNL     1      -7.407  -0.226   3.921  1.00  0.00     0.099 C 
HETATM    3  C2  UNL     1      -7.774  -0.065   2.526  1.00  0.00     0.045 A 
HETATM    4  C3  UNL     1      -9.005   0.501   2.236  1.00  0.00     0.024 A 
HETATM    5  C4  UNL     1      -9.534   0.737   0.984  1.00  0.00     0.018 A 
HETATM    6  P1  UNL     1      -8.497   0.251  -0.343  1.00  0.00    -0.027 P 
HETATM    7  C5  UNL     1      -6.996  -0.437   0.242  1.00  0.00    -0.037 A 
HETATM    8  C25 UNL     1      -6.846  -0.498   1.618  1.00  0.00     0.031 A 
ENDROOT
BRANCH   7   9
HETATM    9  C6  UNL     1      -5.962  -0.919  -0.716  1.00  0.00     0.096 C 
BRANCH   9  10
HETATM   10  C7  UNL     1      -5.003   0.118  -1.085  1.00  0.00     0.011 C 
HETATM   11  C8  UNL     1      -3.700   0.293  -1.003  1.00  0.00     0.080 C 
BRANCH  10  12
HETATM   12  N2  UNL     1      -5.841   1.138  -1.668  1.00  0.00    -0.402 N 
HETATM   13  H5  UNL     1      -6.567   1.134  -2.409  1.00  0.00     0.156 HD
HETATM   14  H6  UNL     1      -6.226   2.096  -1.807  1.00  0.00     0.156 HD
ENDBRANCH  10  12
BRANCH  11  15
HETATM   15  C9  UNL     1      -2.790  -0.671  -0.431  1.00  0.00     0.183 C 
HETATM   16  O1  UNL     1      -3.138  -1.779   0.049  1.00  0.00    -0.288 OA
BRANCH  15  17
HETATM   17  C10 UNL     1      -1.357  -0.437  -0.361  1.00  0.00     0.014 A 
HETATM   18  C11 UNL     1      -0.512  -1.373   0.191  1.00  0.00     0.016 A 
HETATM   19  C12 UNL     1       0.872  -1.184   0.276  1.00  0.00     0.008 A 
HETATM   20  C13 UNL     1       1.443  -0.026  -0.203  1.00  0.00    -0.054 A 
HETATM   21  C23 UNL     1       0.636   0.930  -0.759  1.00  0.00     0.008 A 
HETATM   22  C24 UNL     1      -0.720   0.694  -0.818  1.00  0.00     0.016 A 
BRANCH  20  23
HETATM   23  C14 UNL     1       2.905   0.208  -0.130  1.00  0.00     0.020 C 
HETATM   24  C15 UNL     1       3.190   1.463   0.628  1.00  0.00     0.011 C 
HETATM   25  C16 UNL     1       4.612   1.498   1.108  1.00  0.00     0.020 C 
HETATM   26  C17 UNL     1       5.533   1.365  -0.071  1.00  0.00     0.117 C 
HETATM   27  N3  UNL     1       5.681   0.055  -0.571  1.00  0.00    -0.404 N 
HETATM   28  C21 UNL     1       4.813  -0.305  -1.652  1.00  0.00     0.118 C 
HETATM   29  C22 UNL     1       3.439   0.276  -1.543  1.00  0.00     0.029 C 
BRANCH  27  30
HETATM   30  C18 UNL     1       6.981  -0.496  -0.637  1.00  0.00     0.126 C 
HETATM   31  C19 UNL     1       7.749  -0.625   0.641  1.00  0.00     0.194 C 
HETATM   32  O2  UNL     1       8.001  -1.986   0.417  1.00  0.00    -0.387 OA
HETATM   33  C20 UNL     1       6.935  -2.014  -0.498  1.00  0.00     0.194 C 
ENDBRANCH  27  30
ENDBRANCH  20  23
ENDBRANCH  15  17
ENDBRANCH  11  15
ENDBRANCH   9  10
ENDBRANCH   7   9
TORSDOF 7
