REMARK  2 active torsions:
REMARK  status: ('A' for Active; 'I' for Inactive)
REMARK    1  A    between atoms: C10_12  and  O2_13 
REMARK    2  A    between atoms: O2_13  and  C11_14 
ROOT
HETATM    1  C11 UNL     1       3.786   0.070   1.416  1.00  0.00     0.078 A 
HETATM    2  C12 UNL     1       4.598   0.599   2.418  1.00  0.00     0.039 A 
HETATM    3  C13 UNL     1       5.690   1.388   2.136  1.00  0.00     0.025 A 
HETATM    4  C14 UNL     1       6.042   1.700   0.826  1.00  0.00     0.044 A 
HETATM    5  C15 UNL     1       7.161   2.512   0.465  1.00  0.00     0.099 C 
HETATM    6  N2  UNL     1       8.063   3.165   0.174  1.00  0.00    -0.191 NA
HETATM    7  C16 UNL     1       5.259   1.192  -0.192  1.00  0.00     0.025 A 
HETATM    8  C17 UNL     1       4.179   0.408   0.154  1.00  0.00     0.039 A 
ENDROOT
BRANCH   1   9
HETATM    9  O2  UNL     1       2.715  -0.709   1.759  1.00  0.00    -0.286 OA
BRANCH   9  10
HETATM   10  C10 UNL     1       1.827  -1.297   0.836  1.00  0.00     0.211 C 
HETATM   11  O1  UNL     1       1.666  -2.706   0.838  1.00  0.00    -0.315 OA
HETATM   12  C9  UNL     1       0.570  -3.342   0.179  1.00  0.00     0.184 C 
HETATM   13  C8  UNL     1      -0.263  -4.134   1.106  1.00  0.00     0.010 C 
HETATM   14  C25 UNL     1      -0.159  -2.415  -0.699  1.00  0.00    -0.033 C 
HETATM   15  C7  UNL     1      -1.542  -4.021   1.482  1.00  0.00    -0.001 C 
HETATM   16  C6  UNL     1      -2.548  -3.038   1.015  1.00  0.00     0.007 C 
HETATM   17  C5  UNL     1      -2.349  -2.083   0.097  1.00  0.00    -0.058 C 
HETATM   18  C4  UNL     1      -3.104  -0.850   0.446  1.00  0.00     0.040 C 
HETATM   19  C26 UNL     1      -1.458  -2.337  -1.066  1.00  0.00     0.014 C 
HETATM   20  C3  UNL     1      -3.809  -0.195  -0.690  1.00  0.00     0.035 C 
HETATM   21  C2  UNL     1      -4.453   1.087  -0.137  1.00  0.00     0.272 C 
HETATM   22  N1  UNL     1      -3.470   2.001   0.382  1.00  0.00     0.086 N 
HETATM   23  C1  UNL     1      -4.144   3.135   1.037  1.00  0.00     0.310 C 
HETATM   24  C21 UNL     1      -2.700   2.558  -0.695  1.00  0.00     0.298 C 
HETATM   25  C20 UNL     1      -1.506   3.362  -0.269  1.00  0.00     0.200 C 
HETATM   26  O3  UNL     1      -0.573   2.641   0.483  1.00  0.00    -0.370 OA
HETATM   27  C19 UNL     1      -0.141   1.512  -0.252  1.00  0.00     0.290 C 
HETATM   28  N3  UNL     1       0.857   0.733   0.449  1.00  0.00    -0.367 N 
HETATM   29  C18 UNL     1       1.113  -0.570  -0.062  1.00  0.00     0.078 C 
HETATM   30  H18 UNL     1       1.334   1.147   1.271  1.00  0.00     0.161 HD
HETATM   31  C22 UNL     1       0.786  -1.345  -1.251  1.00  0.00     0.026 C 
HETATM   32  C23 UNL     1       1.988  -2.076  -1.771  1.00  0.00     0.027 C 
HETATM   33  C24 UNL     1       0.135  -0.628  -2.388  1.00  0.00     0.027 C 
ENDBRANCH   9  10
ENDBRANCH   1   9
TORSDOF 2
