REMARK  3 active torsions:
REMARK  status: ('A' for Active; 'I' for Inactive)
REMARK    1  A    between atoms: C9_11  and  N2_12 
REMARK    2  A    between atoms: N2_12  and  C10_13 
REMARK    3  A    between atoms: C11_14  and  C12_15 
ROOT
HETATM    1 CL1  UNL     1      -5.462   3.136   1.574  1.00  0.00    -0.084 Cl
HETATM    2  C1  UNL     1      -4.418   1.871   0.930  1.00  0.00     0.034 A 
HETATM    3  C2  UNL     1      -5.063   0.746   0.448  1.00  0.00     0.026 A 
HETATM    4  C3  UNL     1      -4.322  -0.293  -0.074  1.00  0.00     0.039 A 
HETATM    5  C4  UNL     1      -2.955  -0.136  -0.078  1.00  0.00     0.086 A 
HETATM    6  C5  UNL     1      -2.260   0.949   0.383  1.00  0.00    -0.005 A 
HETATM    7  C6  UNL     1      -3.032   1.992   0.908  1.00  0.00     0.035 A 
HETATM    8  C7  UNL     1      -0.866   1.363   0.495  1.00  0.00     0.161 C 
HETATM    9  N1  UNL     1       0.114   0.449  -0.003  1.00  0.00    -0.379 N 
HETATM   10  C8  UNL     1       0.031  -0.913  -0.313  1.00  0.00     0.129 A 
HETATM   11  C9  UNL     1       1.318  -1.459  -0.303  1.00  0.00     0.159 A 
HETATM   12  N3  UNL     1       1.468  -2.758  -0.574  1.00  0.00    -0.222 NA
HETATM   13  C13 UNL     1       0.383  -3.536  -0.854  1.00  0.00     0.238 A 
HETATM   14  N4  UNL     1      -0.879  -3.014  -0.866  1.00  0.00    -0.215 NA
HETATM   15  C14 UNL     1      -1.046  -1.694  -0.593  1.00  0.00     0.202 A 
HETATM   16  O1  UNL     1      -2.378  -1.269  -0.633  1.00  0.00    -0.289 OA
HETATM   17  H6  UNL     1       1.057   0.864  -0.165  1.00  0.00     0.160 HD
ENDROOT
BRANCH  11  18
HETATM   18  N2  UNL     1       2.515  -0.740  -0.029  1.00  0.00    -0.349 N 
HETATM   19  H7  UNL     1       2.780  -0.683   0.975  1.00  0.00     0.167 HD
BRANCH  18  20
HETATM   20  C10 UNL     1       3.278  -0.152  -1.061  1.00  0.00     0.086 C 
HETATM   21  C11 UNL     1       4.468   0.344  -0.882  1.00  0.00     0.001 C 
BRANCH  21  22
HETATM   22  C12 UNL     1       5.276   0.421   0.350  1.00  0.00     0.113 C 
HETATM   23 BR1  UNL     1       5.653   2.293   0.740  1.00  0.00    -0.092 Br
ENDBRANCH  21  22
ENDBRANCH  18  20
ENDBRANCH  11  18
TORSDOF 3
