REMARK  4 active torsions:
REMARK  status: ('A' for Active; 'I' for Inactive)
REMARK    1  A    between atoms: C2_2  and  C3_5 
REMARK    2  A    between atoms: C5_7  and  N1_8 
REMARK       I    between atoms: N1_8  and  C6_9 
REMARK       I    between atoms: C6_9  and  N2_11 
REMARK    3  A    between atoms: N2_11  and  C7_12 
REMARK    4  A    between atoms: C15_21  and  C16_22 
ROOT
HETATM    1  N1  UNL     1      -1.957  -0.649   1.484  1.00  0.00    -0.309 N 
HETATM    2  C6  UNL     1      -0.668  -0.333   1.017  1.00  0.00     0.321 C 
HETATM    3  O1  UNL     1       0.038  -1.351   0.854  1.00  0.00    -0.247 OA
HETATM    4  N2  UNL     1      -0.365   1.054   0.808  1.00  0.00    -0.334 N 
HETATM    5  H5  UNL     1      -2.661   0.123   1.682  1.00  0.00     0.170 HD
HETATM    6  H6  UNL     1      -1.122   1.779   1.001  1.00  0.00     0.165 HD
ENDROOT
BRANCH   4   7
HETATM    7  C7  UNL     1       1.005   1.230   0.351  1.00  0.00     0.042 C 
HETATM    8  C8  UNL     1       0.676   1.803  -0.814  1.00  0.00     0.095 C 
HETATM    9  C9  UNL     1       0.820   2.425  -2.115  1.00  0.00     0.046 C 
HETATM   10  C10 UNL     1       2.234   2.718  -2.436  1.00  0.00    -0.054 A 
HETATM   11  C11 UNL     1       2.786   3.117  -3.625  1.00  0.00     0.026 A 
HETATM   12  C14 UNL     1       3.350   2.649  -1.637  1.00  0.00     0.037 A 
HETATM   13  C12 UNL     1       4.174   3.320  -3.684  1.00  0.00     0.117 A 
HETATM   14  N3  UNL     1       5.064   3.166  -2.690  1.00  0.00    -0.262 NA
HETATM   15  C13 UNL     1       4.708   2.778  -1.455  1.00  0.00     0.070 A 
HETATM   16  C15 UNL     1       4.955   2.365   0.002  1.00  0.00     0.240 C 
HETATM   17  O3  UNL     1       4.062   1.330   0.287  1.00  0.00    -0.345 OA
HETATM   18  C17 UNL     1       3.392   0.818   1.294  1.00  0.00     0.134 C 
HETATM   19  C18 UNL     1       2.030   0.762   1.340  1.00  0.00     0.023 C 
BRANCH  16  20
HETATM   20  C16 UNL     1       6.384   1.885  -0.033  1.00  0.00     0.269 C 
HETATM   21  O2  UNL     1       7.171   2.832  -0.194  1.00  0.00    -0.304 OA
ENDBRANCH  16  20
ENDBRANCH   4   7
BRANCH   1  22
HETATM   22  C5  UNL     1      -2.805  -1.729   1.848  1.00  0.00     0.037 A 
HETATM   23  C4  UNL     1      -3.630  -2.248   0.838  1.00  0.00     0.046 A 
HETATM   24  C3  UNL     1      -4.484  -3.303   1.126  1.00  0.00     0.053 A 
HETATM   25  C21 UNL     1      -4.476  -3.795   2.415  1.00  0.00     0.128 A 
HETATM   26  C20 UNL     1      -3.680  -3.301   3.402  1.00  0.00     0.045 A 
HETATM   27  F3  UNL     1      -5.291  -4.838   2.772  1.00  0.00    -0.205 F 
HETATM   28  C19 UNL     1      -2.831  -2.251   3.114  1.00  0.00     0.032 A 
BRANCH  24  29
HETATM   29  C2  UNL     1      -5.399  -3.906   0.127  1.00  0.00     0.270 C 
HETATM   30  C1  UNL     1      -5.290  -3.257  -1.239  1.00  0.00     0.096 C 
HETATM   31  F1  UNL     1      -6.694  -3.799   0.605  1.00  0.00    -0.201 F 
HETATM   32  F2  UNL     1      -5.047  -5.231  -0.029  1.00  0.00    -0.201 F 
ENDBRANCH  24  29
ENDBRANCH   1  22
TORSDOF 4
