REMARK  6 active torsions:
REMARK  status: ('A' for Active; 'I' for Inactive)
REMARK       I    between atoms: N1_2  and  C2_3 
REMARK    1  A    between atoms: C2_3  and  C3_5 
REMARK    2  A    between atoms: C5_7  and  O2_8 
REMARK    3  A    between atoms: O2_8  and  C6_9 
REMARK    4  A    between atoms: C9_12  and  N2_13 
REMARK       I    between atoms: N2_13  and  C10_14 
REMARK    5  A    between atoms: C10_14  and  C11_16 
REMARK    6  A    between atoms: C15_21  and  C16_22 
ROOT
HETATM    1  C6  UNL     1       1.204  -0.030   0.720  1.00  0.00     0.076 A 
HETATM    2  C7  UNL     1       0.573   1.184   0.545  1.00  0.00     0.039 A 
HETATM    3  C8  UNL     1      -0.722   1.270   0.035  1.00  0.00     0.032 A 
HETATM    4  C9  UNL     1      -1.308   0.056  -0.274  1.00  0.00     0.035 A 
HETATM    5  C18 UNL     1      -0.734  -1.191  -0.123  1.00  0.00     0.032 A 
HETATM    6  C19 UNL     1       0.551  -1.221   0.386  1.00  0.00     0.039 A 
ENDROOT
BRANCH   4   7
HETATM    7  N2  UNL     1      -2.648   0.029  -0.809  1.00  0.00    -0.323 N 
HETATM    8  C10 UNL     1      -3.720  -0.056   0.098  1.00  0.00     0.256 C 
HETATM    9  O3  UNL     1      -3.339  -0.098   1.314  1.00  0.00    -0.267 OA
HETATM   10  H8  UNL     1      -2.841   0.069  -1.837  1.00  0.00     0.169 HD
BRANCH   8  11
HETATM   11  C11 UNL     1      -5.123  -0.092  -0.299  1.00  0.00     0.033 A 
HETATM   12  C12 UNL     1      -5.542  -0.046  -1.621  1.00  0.00     0.019 A 
HETATM   13  C13 UNL     1      -6.886  -0.085  -1.923  1.00  0.00     0.026 A 
HETATM   14  C14 UNL     1      -7.837  -0.168  -0.927  1.00  0.00     0.049 A 
HETATM   15 CL1  UNL     1      -9.513  -0.212  -1.389  1.00  0.00    -0.083 Cl
HETATM   16  C15 UNL     1      -7.395  -0.212   0.378  1.00  0.00     0.070 A 
HETATM   17  C17 UNL     1      -6.055  -0.176   0.736  1.00  0.00     0.035 A 
BRANCH  16  18
HETATM   18  C16 UNL     1      -8.514  -0.302   1.382  1.00  0.00     0.419 C 
HETATM   19  F1  UNL     1      -9.346   0.797   1.270  1.00  0.00    -0.166 F 
HETATM   20  F2  UNL     1      -9.138  -1.497   1.187  1.00  0.00    -0.166 F 
HETATM   21  F3  UNL     1      -7.898  -0.292   2.629  1.00  0.00    -0.166 F 
ENDBRANCH  16  18
ENDBRANCH   8  11
ENDBRANCH   4   7
BRANCH   1  22
HETATM   22  O2  UNL     1       2.494  -0.025   1.233  1.00  0.00    -0.311 OA
BRANCH  22  23
HETATM   23  C5  UNL     1       3.552   0.049   0.337  1.00  0.00     0.079 A 
HETATM   24  C4  UNL     1       4.843   0.056   0.828  1.00  0.00     0.074 A 
HETATM   25  C3  UNL     1       5.959   0.126   0.018  1.00  0.00     0.126 A 
HETATM   26  N3  UNL     1       5.795   0.193  -1.332  1.00  0.00    -0.255 NA
HETATM   27  C21 UNL     1       4.555   0.189  -1.849  1.00  0.00     0.120 A 
HETATM   28  C20 UNL     1       3.430   0.118  -1.035  1.00  0.00     0.056 A 
BRANCH  25  29
HETATM   29  C2  UNL     1       7.294   0.129   0.609  1.00  0.00     0.269 C 
HETATM   30  N1  UNL     1       8.424   0.202  -0.243  1.00  0.00    -0.360 N 
HETATM   31  C1  UNL     1       9.783   0.209   0.289  1.00  0.00     0.149 C 
HETATM   32  H4  UNL     1       8.334   0.255  -1.290  1.00  0.00     0.162 HD
HETATM   33  O1  UNL     1       7.563   0.071   1.837  1.00  0.00    -0.266 OA
ENDBRANCH  25  29
ENDBRANCH  22  23
ENDBRANCH   1  22
TORSDOF 6
