REMARK  5 active torsions:
REMARK  status: ('A' for Active; 'I' for Inactive)
REMARK    1  A    between atoms: C2_2  and  O1_3 
REMARK    2  A    between atoms: C2_2  and  C7_11 
REMARK    3  A    between atoms: O1_3  and  C3_4 
REMARK    4  A    between atoms: C4_5  and  C5_6 
REMARK       I    between atoms: C5_6  and  N1_7 
REMARK    5  A    between atoms: C12_16  and  C13_17 
ROOT
HETATM    1  C1  UNL     1       0.271  -2.596  -0.284  1.00  0.00     0.045 C 
HETATM    2  C2  UNL     1       0.183  -1.137   0.052  1.00  0.00     0.158 C 
ENDROOT
BRANCH   2   3
HETATM    3  O1  UNL     1       1.331  -0.502  -0.484  1.00  0.00    -0.342 OA
BRANCH   3   4
HETATM    4  C3  UNL     1       1.581   0.862  -0.352  1.00  0.00     0.096 A 
HETATM    5  C4  UNL     1       2.483   1.332   0.504  1.00  0.00     0.128 A 
HETATM    6  N2  UNL     1       2.151   2.639   0.062  1.00  0.00    -0.377 N 
HETATM    7  C6  UNL     1       1.175   2.170  -0.869  1.00  0.00     0.187 A 
HETATM    8  H7  UNL     1       2.371   3.668   0.192  1.00  0.00     0.160 HD
BRANCH   5   9
HETATM    9  C5  UNL     1       3.503   1.064   1.541  1.00  0.00     0.268 C 
HETATM   10  N1  UNL     1       3.612  -0.336   1.769  1.00  0.00    -0.365 N 
HETATM   11  H5  UNL     1       3.784  -1.346   1.792  1.00  0.00     0.159 HD
HETATM   12  H6  UNL     1       3.462  -1.249   2.252  1.00  0.00     0.159 HD
HETATM   13  O2  UNL     1       4.235   1.844   2.202  1.00  0.00    -0.266 OA
ENDBRANCH   5   9
ENDBRANCH   3   4
ENDBRANCH   2   3
BRANCH   2  14
HETATM   14  C7  UNL     1      -1.033  -0.489  -0.481  1.00  0.00    -0.014 A 
HETATM   15  C8  UNL     1      -1.021   0.080  -1.739  1.00  0.00     0.010 A 
HETATM   16  C9  UNL     1      -2.108   0.709  -2.326  1.00  0.00     0.001 A 
HETATM   17  C10 UNL     1      -3.285   0.769  -1.594  1.00  0.00     0.001 A 
HETATM   18  C11 UNL     1      -3.302   0.204  -0.337  1.00  0.00     0.017 A 
HETATM   19  C12 UNL     1      -2.216  -0.422   0.242  1.00  0.00     0.056 A 
BRANCH  19  20
HETATM   20  C13 UNL     1      -2.261  -1.022   1.594  1.00  0.00     0.418 C 
HETATM   21  F1  UNL     1      -1.983  -2.392   1.563  1.00  0.00    -0.166 F 
HETATM   22  F2  UNL     1      -3.557  -0.957   2.082  1.00  0.00    -0.166 F 
HETATM   23  F3  UNL     1      -1.487  -0.364   2.519  1.00  0.00    -0.166 F 
ENDBRANCH  19  20
ENDBRANCH   2  14
TORSDOF 5
