REMARK  6 active torsions:
REMARK  status: ('A' for Active; 'I' for Inactive)
REMARK    1  A    between atoms: O1_2  and  C2_3 
REMARK    2  A    between atoms: C5_6  and  N1_7 
REMARK    3  A    between atoms: N1_7  and  S1_8 
REMARK    4  A    between atoms: S1_8  and  O2_9 
REMARK    5  A    between atoms: C7_12  and  N2_13 
REMARK    6  A    between atoms: N2_13  and  C8_14 
ROOT
HETATM    1  C2  UNL     1      -0.729  -2.066   1.195  1.00  0.00     0.095 A 
HETATM    2  C3  UNL     1      -1.889  -2.713   0.889  1.00  0.00     0.041 A 
HETATM    3  C4  UNL     1      -2.700  -2.263  -0.125  1.00  0.00     0.035 A 
HETATM    4  C5  UNL     1      -2.303  -1.136  -0.821  1.00  0.00     0.068 A 
HETATM    5  C6  UNL     1      -1.121  -0.519  -0.471  1.00  0.00     0.065 A 
HETATM    6  C7  UNL     1      -0.285  -0.920   0.518  1.00  0.00     0.085 A 
ENDROOT
BRANCH   6   7
HETATM    7  N2  UNL     1       0.941  -0.319   0.903  1.00  0.00    -0.186 N 
HETATM    8  H8  UNL     1       1.504  -0.786   1.671  1.00  0.00     0.184 HD
BRANCH   7   9
HETATM    9  C8  UNL     1       1.470   0.857   0.331  1.00  0.00     0.724 C 
HETATM   10  N3  UNL     1       0.572   1.742   0.087  1.00  0.00    -0.086 NA
HETATM   11  C9  UNL     1       0.625   3.055  -0.474  1.00  0.00     0.290 C 
HETATM   12  N4  UNL     1       1.687   3.333  -1.377  1.00  0.00    -0.370 N 
HETATM   13  C10 UNL     1       3.047   2.905  -1.273  1.00  0.00     0.051 A 
HETATM   14  H11 UNL     1       1.481   3.924  -2.239  1.00  0.00     0.161 HD
HETATM   15  C11 UNL     1       4.288   3.174  -1.627  1.00  0.00     0.011 A 
HETATM   16  C13 UNL     1       3.599   1.737  -0.556  1.00  0.00     0.083 A 
HETATM   17  C12 UNL     1       5.009   2.054  -0.963  1.00  0.00     0.092 A 
HETATM   18  N5  UNL     1       2.857   0.894   0.117  1.00  0.00    -0.065 NA
ENDBRANCH   7   9
ENDBRANCH   6   7
BRANCH   1  19
HETATM   19  O1  UNL     1       0.048  -2.566   2.228  1.00  0.00    -0.354 OA
HETATM   20  C1  UNL     1      -0.325  -3.712   2.961  1.00  0.00     0.210 C 
ENDBRANCH   1  19
BRANCH   4  21
HETATM   21  N1  UNL     1      -3.122  -0.648  -1.876  1.00  0.00    -0.203 NA
BRANCH  21  22
HETATM   22  S1  UNL     1      -4.738  -0.558  -1.734  1.00  0.00     0.037 SA
HETATM   23  H6  UNL     1      -5.494  -0.889  -2.912  1.00  0.00     0.147 HD
BRANCH  22  24
HETATM   24  O2  UNL     1      -5.442  -1.085  -0.227  1.00  0.00    -0.231 OA
HETATM   25 BR1  UNL     1      -6.976  -0.090   0.122  1.00  0.00     0.116 Br
ENDBRANCH  22  24
ENDBRANCH  21  22
ENDBRANCH   4  21
TORSDOF 6
