REMARK  6 active torsions:
REMARK  status: ('A' for Active; 'I' for Inactive)
REMARK       I    between atoms: C1_2  and  N1_3 
REMARK    1  A    between atoms: C1_2  and  C8_12 
REMARK    2  A    between atoms: N1_3  and  C2_4 
REMARK    3  A    between atoms: C2_4  and  C3_5 
REMARK    4  A    between atoms: C4_6  and  C5_7 
REMARK    5  A    between atoms: C4_6  and  C6_9 
REMARK    6  A    between atoms: C6_9  and  C7_10 
ROOT
HETATM    1  C8  UNL     1      -1.392   0.018   1.144  1.00  0.00     0.028 C 
HETATM    2  C9  UNL     1      -2.235   1.026   1.324  1.00  0.00    -0.005 C 
HETATM    3  C10 UNL     1      -3.733   1.097   1.495  1.00  0.00     0.068 C 
HETATM    4  C11 UNL     1      -4.417   0.515   0.311  1.00  0.00    -0.031 A 
HETATM    5  C12 UNL     1      -5.114   1.581  -0.223  1.00  0.00     0.124 A 
HETATM    6  N2  UNL     1      -5.847   1.373  -1.325  1.00  0.00    -0.273 NA
HETATM    7  C13 UNL     1      -5.906   0.165  -1.895  1.00  0.00     0.116 A 
HETATM    8  C14 UNL     1      -5.209  -0.893  -1.356  1.00  0.00     0.027 A 
HETATM    9  C15 UNL     1      -4.417  -0.764  -0.206  1.00  0.00    -0.045 A 
HETATM   10  C16 UNL     1      -3.883  -2.114  -0.010  1.00  0.00     0.066 C 
HETATM   11  C17 UNL     1      -2.530  -2.172   0.582  1.00  0.00    -0.021 C 
HETATM   12  C18 UNL     1      -1.537  -1.427   1.039  1.00  0.00     0.013 C 
ENDROOT
BRANCH   1  13
HETATM   13  C1  UNL     1      -0.029   0.523   1.036  1.00  0.00     0.251 C 
HETATM   14  O1  UNL     1       0.128   1.781   1.128  1.00  0.00    -0.268 OA
HETATM   15  N1  UNL     1       1.187  -0.182   0.838  1.00  0.00    -0.353 N 
HETATM   16  H1  UNL     1       1.093  -1.208   0.757  1.00  0.00     0.163 HD
BRANCH  15  17
HETATM   17  C2  UNL     1       2.268   0.815   0.806  1.00  0.00     0.150 C 
BRANCH  17  18
HETATM   18  C3  UNL     1       3.550   0.146   0.604  1.00  0.00    -0.004 C 
HETATM   19  C4  UNL     1       4.542   0.160  -0.295  1.00  0.00    -0.066 C 
BRANCH  19  20
HETATM   20  C5  UNL     1       4.468   1.051  -1.472  1.00  0.00     0.148 C 
HETATM   21 CL1  UNL     1       4.519   0.133  -3.004  1.00  0.00    -0.126 Cl
ENDBRANCH  19  20
BRANCH  19  22
HETATM   22  C6  UNL     1       5.704  -0.733  -0.088  1.00  0.00     0.066 C 
BRANCH  22  23
HETATM   23  C7  UNL     1       6.984   0.077   0.029  1.00  0.00     0.226 C 
HETATM   24  F1  UNL     1       7.217   0.811  -1.111  1.00  0.00    -0.255 F 
ENDBRANCH  22  23
ENDBRANCH  19  22
ENDBRANCH  17  18
ENDBRANCH  15  17
ENDBRANCH   1  13
TORSDOF 6
