REMARK  8 active torsions:
REMARK  status: ('A' for Active; 'I' for Inactive)
REMARK    1  A    between atoms: C3_3  and  C4_4 
REMARK    2  A    between atoms: C3_3  and  N3_18 
REMARK    3  A    between atoms: C5_5  and  C6_6 
REMARK    4  A    between atoms: C6_6  and  O1_7 
REMARK    5  A    between atoms: O1_7  and  C7_8 
REMARK    6  A    between atoms: C10_12  and  C11_13 
REMARK       I    between atoms: C11_13  and  N2_15 
REMARK       I    between atoms: N3_18  and  C14_19 
REMARK       I    between atoms: C14_19  and  N4_21 
REMARK    7  A    between atoms: N4_21  and  C15_22 
REMARK    8  A    between atoms: C19_27  and  C20_28 
ROOT
HETATM    1  C1  UNL     1      -0.988   4.988   1.034  1.00  0.00     0.038 C 
HETATM    2  C2  UNL     1      -1.297   3.929   0.023  1.00  0.00    -0.002 C 
HETATM    3  C3  UNL     1      -0.984   2.665   0.363  1.00  0.00     0.032 C 
ENDROOT
BRANCH   3   4
HETATM    4  C4  UNL     1      -0.382   2.403   1.653  1.00  0.00     0.027 C 
HETATM    5  C5  UNL     1      -0.006   1.235   2.154  1.00  0.00     0.002 C 
BRANCH   5   6
HETATM    6  C6  UNL     1       0.094  -0.212   1.940  1.00  0.00     0.203 C 
BRANCH   6   7
HETATM    7  O1  UNL     1       1.420  -0.682   2.003  1.00  0.00    -0.347 OA
BRANCH   7   8
HETATM    8  C7  UNL     1       2.403  -0.264   1.155  1.00  0.00     0.072 A 
HETATM    9  C8  UNL     1       2.439   0.622   0.100  1.00  0.00     0.056 A 
HETATM   10  C9  UNL     1       3.593   0.870  -0.608  1.00  0.00     0.120 A 
HETATM   11  N1  UNL     1       4.735   0.241  -0.282  1.00  0.00    -0.255 NA
HETATM   12  C10 UNL     1       4.789  -0.652   0.749  1.00  0.00     0.126 A 
HETATM   13  C13 UNL     1       3.614  -0.901   1.467  1.00  0.00     0.074 A 
BRANCH  12  14
HETATM   14  C11 UNL     1       6.048  -1.312   1.069  1.00  0.00     0.269 C 
HETATM   15  O2  UNL     1       6.130  -2.148   2.022  1.00  0.00    -0.266 OA
HETATM   16  N2  UNL     1       7.201  -1.024   0.313  1.00  0.00    -0.360 N 
HETATM   17  C12 UNL     1       8.407  -1.718   0.692  1.00  0.00     0.149 C 
HETATM   18  H11 UNL     1       7.111  -0.322  -0.480  1.00  0.00     0.162 HD
ENDBRANCH  12  14
ENDBRANCH   7   8
ENDBRANCH   6   7
ENDBRANCH   5   6
ENDBRANCH   3   4
BRANCH   3  19
HETATM   19  N3  UNL     1      -1.340   1.786  -0.699  1.00  0.00    -0.309 N 
HETATM   20  C14 UNL     1      -2.244   0.716  -0.759  1.00  0.00     0.325 C 
HETATM   21  O3  UNL     1      -2.898   0.417   0.275  1.00  0.00    -0.247 OA
HETATM   22  N4  UNL     1      -2.458  -0.050  -1.935  1.00  0.00    -0.309 N 
HETATM   23  H17 UNL     1      -1.921   0.193  -2.789  1.00  0.00     0.170 HD
HETATM   24  H16 UNL     1      -0.836   1.961  -1.613  1.00  0.00     0.170 HD
BRANCH  22  25
HETATM   25  C15 UNL     1      -3.436  -1.088  -1.728  1.00  0.00     0.037 A 
HETATM   26  C16 UNL     1      -2.968  -2.322  -1.293  1.00  0.00     0.031 A 
HETATM   27  C17 UNL     1      -3.862  -3.371  -1.072  1.00  0.00     0.027 A 
HETATM   28  C18 UNL     1      -5.209  -3.214  -1.276  1.00  0.00     0.049 A 
HETATM   29 CL1  UNL     1      -6.353  -4.522  -1.004  1.00  0.00    -0.083 Cl
HETATM   30  C19 UNL     1      -5.669  -1.970  -1.713  1.00  0.00     0.071 A 
HETATM   31  C21 UNL     1      -4.788  -0.922  -1.935  1.00  0.00     0.047 A 
BRANCH  30  32
HETATM   32  C20 UNL     1      -7.123  -1.817  -1.927  1.00  0.00     0.419 C 
HETATM   33  F1  UNL     1      -7.756  -2.069  -0.704  1.00  0.00    -0.166 F 
HETATM   34  F2  UNL     1      -7.639  -2.756  -2.816  1.00  0.00    -0.166 F 
HETATM   35  F3  UNL     1      -7.363  -0.532  -2.354  1.00  0.00    -0.166 F 
ENDBRANCH  30  32
ENDBRANCH  22  25
ENDBRANCH   3  19
TORSDOF 8
