REMARK  5 active torsions:
REMARK  status: ('A' for Active; 'I' for Inactive)
REMARK       I    between atoms: N1_2  and  C2_3 
REMARK    1  A    between atoms: C2_3  and  C3_5 
REMARK    2  A    between atoms: C5_7  and  O2_8 
REMARK    3  A    between atoms: O2_8  and  C6_9 
REMARK    4  A    between atoms: C7_10  and  C8_11 
REMARK    5  A    between atoms: C8_11  and  N2_12 
ROOT
HETATM    1  C3  UNL     1       4.285  -0.243  -0.572  1.00  0.00     0.126 A 
HETATM    2  C4  UNL     1       3.290  -0.913   0.102  1.00  0.00     0.074 A 
HETATM    3  C5  UNL     1       1.950  -0.528   0.064  1.00  0.00     0.078 A 
HETATM    4  C14 UNL     1       1.671   0.589  -0.706  1.00  0.00     0.056 A 
HETATM    5  C15 UNL     1       2.686   1.244  -1.373  1.00  0.00     0.120 A 
HETATM    6  N3  UNL     1       3.969   0.834  -1.306  1.00  0.00    -0.255 NA
ENDROOT
BRANCH   3   7
HETATM    7  O2  UNL     1       1.056  -1.298   0.793  1.00  0.00    -0.323 OA
BRANCH   7   8
HETATM    8  C6  UNL     1      -0.308  -1.027   0.843  1.00  0.00     0.140 C 
HETATM    9  C7  UNL     1      -0.976  -0.220   1.649  1.00  0.00     0.027 C 
BRANCH   9  10
HETATM   10  C8  UNL     1      -2.312   0.282   1.972  1.00  0.00     0.301 C 
BRANCH  10  11
HETATM   11  N2  UNL     1      -3.373  -0.253   1.147  1.00  0.00     0.091 N 
HETATM   12  C9  UNL     1      -4.670   0.287   1.522  1.00  0.00     0.274 C 
HETATM   13  C10 UNL     1      -5.672  -0.641   0.829  1.00  0.00     0.050 C 
HETATM   14  C11 UNL     1      -5.640  -0.253  -0.623  1.00  0.00     0.085 C 
HETATM   15 CL1  UNL     1      -6.209  -1.654  -1.561  1.00  0.00    -0.125 Cl
HETATM   16  C12 UNL     1      -4.320   0.254  -1.094  1.00  0.00     0.050 C 
HETATM   17  C13 UNL     1      -3.149  -0.057  -0.241  1.00  0.00     0.274 C 
ENDBRANCH  10  11
ENDBRANCH   9  10
ENDBRANCH   7   8
ENDBRANCH   3   7
BRANCH   1  18
HETATM   18  C2  UNL     1       5.662  -0.713  -0.478  1.00  0.00     0.269 C 
HETATM   19  N1  UNL     1       6.709  -0.041  -1.163  1.00  0.00    -0.360 N 
HETATM   20  C1  UNL     1       8.091  -0.474  -1.097  1.00  0.00     0.149 C 
HETATM   21  H4  UNL     1       6.548   0.797  -1.749  1.00  0.00     0.162 HD
HETATM   22  O1  UNL     1       5.951  -1.740   0.224  1.00  0.00    -0.266 OA
ENDBRANCH   1  18
TORSDOF 5
