REMARK  10 active torsions:
REMARK  status: ('A' for Active; 'I' for Inactive)
REMARK    1  A    between atoms: C2_2  and  N1_3 
REMARK    2  A    between atoms: N1_3  and  C3_4 
REMARK    3  A    between atoms: C3_4  and  C4_5 
REMARK    4  A    between atoms: C4_5  and  C5_6 
REMARK    5  A    between atoms: C5_6  and  C6_7 
REMARK       I    between atoms: C6_7  and  N2_9 
REMARK    6  A    between atoms: N2_9  and  C7_10 
REMARK    7  A    between atoms: C9_13  and  S1_14 
REMARK    8  A    between atoms: S1_14  and  C10_15 
REMARK    9  A    between atoms: C10_15  and  C11_16 
REMARK   10  A    between atoms: C13_19  and  C14_20 
ROOT
HETATM    1  C7  UNL     1       0.768  -2.502   0.367  1.00  0.00     0.174 A 
HETATM    2  N3  UNL     1      -0.299  -3.101   0.677  1.00  0.00    -0.235 NA
HETATM    3  C8  UNL     1      -1.347  -2.992  -0.138  1.00  0.00     0.145 A 
HETATM    4  C9  UNL     1      -1.332  -2.229  -1.352  1.00  0.00     0.062 A 
HETATM    5  S2  UNL     1       0.437  -1.603  -1.276  1.00  0.00    -0.044 SA
ENDROOT
BRANCH   1   6
HETATM    6  N2  UNL     1       2.057  -2.324   0.873  1.00  0.00    -0.306 N 
HETATM    7  C6  UNL     1       3.114  -1.580   0.319  1.00  0.00     0.223 C 
HETATM    8  O1  UNL     1       2.932  -0.978  -0.771  1.00  0.00    -0.273 OA
HETATM    9  H13 UNL     1       2.246  -2.807   1.772  1.00  0.00     0.171 HD
BRANCH   7  10
HETATM   10  C5  UNL     1       4.467  -1.418   0.892  1.00  0.00     0.105 C 
BRANCH  10  11
HETATM   11  C4  UNL     1       5.233  -0.536  -0.103  1.00  0.00     0.039 C 
BRANCH  11  12
HETATM   12  C3  UNL     1       6.632  -0.331   0.430  1.00  0.00     0.270 C 
BRANCH  12  13
HETATM   13  N1  UNL     1       7.430   0.493  -0.446  1.00  0.00     0.083 N 
HETATM   14  H6  UNL     1       8.399   0.496  -0.011  1.00  0.00     0.315 HD
BRANCH  13  15
HETATM   15  C2  UNL     1       7.009   1.860  -0.518  1.00  0.00     0.265 C 
HETATM   16  C1  UNL     1       7.213   2.651   0.737  1.00  0.00     0.037 C 
ENDBRANCH  13  15
ENDBRANCH  12  13
ENDBRANCH  11  12
ENDBRANCH  10  11
ENDBRANCH   7  10
ENDBRANCH   1   6
BRANCH   4  17
HETATM   17  S1  UNL     1      -2.662  -2.065  -2.424  1.00  0.00    -0.115 SA
BRANCH  17  18
HETATM   18  C10 UNL     1      -3.741  -0.638  -2.049  1.00  0.00     0.140 C 
BRANCH  18  19
HETATM   19  C11 UNL     1      -4.389  -0.896  -0.754  1.00  0.00     0.052 A 
HETATM   20  N4  UNL     1      -4.395  -1.835   0.141  1.00  0.00    -0.263 NA
HETATM   21  C12 UNL     1      -5.300  -1.147   0.963  1.00  0.00     0.127 A 
HETATM   22  C13 UNL     1      -5.330  -0.151   0.073  1.00  0.00    -0.008 A 
BRANCH  22  23
HETATM   23  C14 UNL     1      -6.011   1.166  -0.059  1.00  0.00    -0.021 C 
HETATM   24  C15 UNL     1      -4.953   2.241  -0.129  1.00  0.00     0.019 C 
HETATM   25  C16 UNL     1      -6.928   1.329   1.133  1.00  0.00     0.019 C 
HETATM   26  C17 UNL     1      -6.891   1.187  -1.292  1.00  0.00     0.019 C 
ENDBRANCH  22  23
ENDBRANCH  18  19
ENDBRANCH  17  18
ENDBRANCH   4  17
TORSDOF 10
