REMARK  8 active torsions:
REMARK  status: ('A' for Active; 'I' for Inactive)
REMARK    1  A    between atoms: C3_3  and  C4_4 
REMARK    2  A    between atoms: C3_3  and  N3_17 
REMARK    3  A    between atoms: C5_5  and  C6_6 
REMARK    4  A    between atoms: C6_6  and  O1_7 
REMARK    5  A    between atoms: O1_7  and  C7_8 
REMARK    6  A    between atoms: C8_9  and  C9_10 
REMARK       I    between atoms: C9_10  and  N1_12 
REMARK       I    between atoms: N3_17  and  C13_18 
REMARK       I    between atoms: C13_18  and  N4_20 
REMARK    7  A    between atoms: N4_20  and  C14_21 
REMARK    8  A    between atoms: C18_26  and  C19_27 
ROOT
HETATM    1  C1  UNL     1      -0.161  -3.281   0.743  1.00  0.00     0.038 C 
HETATM    2  C2  UNL     1      -1.189  -2.230   0.556  1.00  0.00    -0.002 C 
HETATM    3  C3  UNL     1      -0.793  -1.000   0.281  1.00  0.00     0.032 C 
ENDROOT
BRANCH   3   4
HETATM    4  C4  UNL     1       0.660  -0.885   0.206  1.00  0.00     0.027 C 
HETATM    5  C5  UNL     1       1.385   0.219  -0.054  1.00  0.00     0.002 C 
BRANCH   5   6
HETATM    6  C6  UNL     1       2.872   0.366  -0.137  1.00  0.00     0.203 C 
BRANCH   6   7
HETATM    7  O1  UNL     1       3.435  -0.871   0.105  1.00  0.00    -0.349 OA
BRANCH   7   8
HETATM    8  C7  UNL     1       4.716  -1.277   0.169  1.00  0.00     0.085 A 
HETATM    9  C8  UNL     1       5.939  -0.807   0.017  1.00  0.00     0.153 A 
HETATM   10  N2  UNL     1       6.866  -1.843   0.249  1.00  0.00    -0.257 NA
HETATM   11  C11 UNL     1       6.277  -2.938   0.537  1.00  0.00     0.097 A 
HETATM   12  C12 UNL     1       4.784  -2.739   0.527  1.00  0.00     0.114 A 
BRANCH   9  13
HETATM   13  C9  UNL     1       6.287   0.557  -0.329  1.00  0.00     0.272 C 
HETATM   14  O2  UNL     1       5.573   1.556  -0.554  1.00  0.00    -0.266 OA
HETATM   15  N1  UNL     1       7.630   0.928  -0.460  1.00  0.00    -0.360 N 
HETATM   16  C10 UNL     1       7.959   2.296  -0.807  1.00  0.00     0.149 C 
HETATM   17  H9  UNL     1       8.456   0.279  -0.324  1.00  0.00     0.162 HD
ENDBRANCH   9  13
ENDBRANCH   7   8
ENDBRANCH   6   7
ENDBRANCH   5   6
ENDBRANCH   3   4
BRANCH   3  18
HETATM   18  N3  UNL     1      -1.563   0.162   0.061  1.00  0.00    -0.309 N 
HETATM   19  C13 UNL     1      -2.975   0.239   0.095  1.00  0.00     0.325 C 
HETATM   20  O3  UNL     1      -3.631  -0.782   0.335  1.00  0.00    -0.247 OA
HETATM   21  N4  UNL     1      -3.684   1.418  -0.131  1.00  0.00    -0.309 N 
HETATM   22  H17 UNL     1      -3.075   2.266  -0.332  1.00  0.00     0.170 HD
HETATM   23  H16 UNL     1      -1.086   1.062  -0.147  1.00  0.00     0.170 HD
BRANCH  21  24
HETATM   24  C14 UNL     1      -5.074   1.675  -0.136  1.00  0.00     0.037 A 
HETATM   25  C15 UNL     1      -5.562   2.937  -0.388  1.00  0.00     0.031 A 
HETATM   26  C16 UNL     1      -6.885   3.254  -0.408  1.00  0.00     0.027 A 
HETATM   27  C17 UNL     1      -7.849   2.297  -0.171  1.00  0.00     0.049 A 
HETATM   28 CL1  UNL     1      -9.533   2.763  -0.210  1.00  0.00    -0.083 Cl
HETATM   29  C18 UNL     1      -7.427   1.023   0.086  1.00  0.00     0.071 A 
HETATM   30  C20 UNL     1      -6.075   0.759   0.094  1.00  0.00     0.047 A 
BRANCH  29  31
HETATM   31  C19 UNL     1      -8.437  -0.033   0.346  1.00  0.00     0.419 C 
HETATM   32  F1  UNL     1      -9.234   0.241   1.445  1.00  0.00    -0.166 F 
HETATM   33  F2  UNL     1      -7.813  -1.254   0.549  1.00  0.00    -0.166 F 
HETATM   34  F3  UNL     1      -9.279  -0.180  -0.761  1.00  0.00    -0.166 F 
ENDBRANCH  29  31
ENDBRANCH  21  24
ENDBRANCH   3  18
TORSDOF 8
