REMARK  0 active torsions:
REMARK  status: ('A' for Active; 'I' for Inactive)
ROOT
HETATM    1 CL1  UNL     1      -2.744   3.009  -1.373  1.00  0.00    -0.089 Cl
HETATM    2  C1  UNL     1      -1.304   2.297  -0.604  1.00  0.00     0.014 C 
HETATM    3  C2  UNL     1      -0.199   3.053  -0.336  1.00  0.00     0.014 C 
HETATM    4  C3  UNL     1       1.199   3.121   0.214  1.00  0.00     0.176 C 
HETATM    5  N1  UNL     1       1.723   1.860   0.641  1.00  0.00    -0.302 NA
HETATM    6  C4  UNL     1       2.647   1.255  -0.059  1.00  0.00     0.083 C 
HETATM    7  C5  UNL     1       3.574   0.113  -0.285  1.00  0.00     0.048 C 
HETATM    8  C6  UNL     1       3.258  -1.051   0.679  1.00  0.00     0.024 C 
HETATM    9  C7  UNL     1       1.801  -1.389   0.341  1.00  0.00     0.115 C 
HETATM   10  N2  UNL     1       1.600  -1.852  -0.978  1.00  0.00    -0.406 N 
HETATM   11  C8  UNL     1       0.274  -1.865  -1.502  1.00  0.00     0.238 C 
HETATM   12  N3  UNL     1      -0.657  -1.604  -0.447  1.00  0.00    -0.374 N 
HETATM   13  C9  UNL     1      -1.951  -1.242   0.081  1.00  0.00     0.037 A 
HETATM   14  C10 UNL     1      -2.902  -2.196   0.352  1.00  0.00     0.030 A 
HETATM   15  C11 UNL     1      -4.134  -1.931   0.874  1.00  0.00     0.004 A 
HETATM   16  C12 UNL     1      -4.315  -0.595   1.103  1.00  0.00     0.020 A 
HETATM   17  C13 UNL     1      -3.405   0.402   0.857  1.00  0.00     0.019 A 
HETATM   18 BR1  UNL     1      -3.729   2.215   1.307  1.00  0.00    -0.050 Br
HETATM   19  C14 UNL     1      -2.175   0.148   0.332  1.00  0.00    -0.009 A 
HETATM   20  C15 UNL     1      -1.018   0.970  -0.093  1.00  0.00     0.093 C 
HETATM   21  H11 UNL     1       2.339  -2.289  -1.492  1.00  0.00     0.154 HD
HETATM   22  H14 UNL     1      -0.342  -1.729   0.561  1.00  0.00     0.161 HD
ENDROOT
TORSDOF 0
