REMARK  8 active torsions:
REMARK  status: ('A' for Active; 'I' for Inactive)
REMARK    1  A    between atoms: C3_3  and  C4_4 
REMARK    2  A    between atoms: C3_3  and  N3_16 
REMARK    3  A    between atoms: C4_4  and  C5_5 
REMARK    4  A    between atoms: C5_5  and  O1_6 
REMARK    5  A    between atoms: O1_6  and  C6_7 
REMARK    6  A    between atoms: C9_11  and  C10_12 
REMARK       I    between atoms: C10_12  and  N2_14 
REMARK       I    between atoms: N3_16  and  C12_17 
REMARK       I    between atoms: C12_17  and  N4_19 
REMARK    7  A    between atoms: N4_19  and  C13_20 
REMARK    8  A    between atoms: C17_25  and  C18_26 
ROOT
HETATM    1  N3  UNL     1      -0.893  -0.644  -0.481  1.00  0.00    -0.313 N 
HETATM    2  C12 UNL     1      -1.936   0.296  -0.272  1.00  0.00     0.325 C 
HETATM    3  O3  UNL     1      -2.666   0.229   0.723  1.00  0.00    -0.247 OA
HETATM    4  N4  UNL     1      -2.245   1.370  -1.143  1.00  0.00    -0.309 N 
HETATM    5  H16 UNL     1      -0.385  -0.441  -1.358  1.00  0.00     0.170 HD
HETATM    6  H17 UNL     1      -1.657   1.489  -2.022  1.00  0.00     0.170 HD
ENDROOT
BRANCH   1   7
HETATM    7  C3  UNL     1      -0.561  -1.728   0.373  1.00  0.00     0.011 C 
HETATM    8  C2  UNL     1      -1.172  -2.032   1.504  1.00  0.00    -0.006 C 
HETATM    9  C1  UNL     1      -0.682  -3.210   2.267  1.00  0.00     0.038 C 
BRANCH   7  10
HETATM   10  C4  UNL     1       0.577  -2.560  -0.091  1.00  0.00     0.083 C 
BRANCH  10  11
HETATM   11  C5  UNL     1       1.846  -1.748  -0.214  1.00  0.00     0.181 C 
BRANCH  11  12
HETATM   12  O1  UNL     1       2.941  -2.468  -0.641  1.00  0.00    -0.352 OA
BRANCH  12  13
HETATM   13  C6  UNL     1       4.236  -2.049  -0.856  1.00  0.00     0.081 A 
HETATM   14  C7  UNL     1       4.973  -3.155  -0.876  1.00  0.00     0.054 A 
HETATM   15  C8  UNL     1       6.317  -2.615  -1.108  1.00  0.00     0.114 A 
HETATM   16  N1  UNL     1       6.376  -1.339  -1.214  1.00  0.00    -0.280 NA
HETATM   17  C9  UNL     1       5.039  -0.821  -1.064  1.00  0.00     0.255 A 
BRANCH  17  18
HETATM   18  C10 UNL     1       4.951   0.144   0.058  1.00  0.00     0.248 C 
HETATM   19  O2  UNL     1       6.151  -0.055   0.345  1.00  0.00    -0.271 OA
HETATM   20  N2  UNL     1       3.966   0.959   0.608  1.00  0.00    -0.363 N 
HETATM   21  C11 UNL     1       4.261   1.799   1.751  1.00  0.00     0.149 C 
HETATM   22  H12 UNL     1       3.099   0.832   0.069  1.00  0.00     0.162 HD
ENDBRANCH  17  18
ENDBRANCH  12  13
ENDBRANCH  11  12
ENDBRANCH  10  11
ENDBRANCH   7  10
ENDBRANCH   1   7
BRANCH   4  23
HETATM   23  C13 UNL     1      -3.359   2.148  -0.656  1.00  0.00     0.037 A 
HETATM   24  C14 UNL     1      -3.077   3.218   0.179  1.00  0.00     0.031 A 
HETATM   25  C15 UNL     1      -4.146   3.956   0.640  1.00  0.00     0.027 A 
HETATM   26  C16 UNL     1      -5.446   3.653   0.293  1.00  0.00     0.049 A 
HETATM   27 CL1  UNL     1      -6.756   4.654   0.931  1.00  0.00    -0.083 Cl
HETATM   28  C17 UNL     1      -5.734   2.589  -0.538  1.00  0.00     0.071 A 
HETATM   29  C19 UNL     1      -4.667   1.825  -1.019  1.00  0.00     0.047 A 
BRANCH  28  30
HETATM   30  C18 UNL     1      -7.144   2.281  -0.899  1.00  0.00     0.419 C 
HETATM   31  F1  UNL     1      -7.764   3.332  -1.553  1.00  0.00    -0.166 F 
HETATM   32  F2  UNL     1      -7.159   1.108  -1.589  1.00  0.00    -0.166 F 
HETATM   33  F3  UNL     1      -7.792   2.041   0.317  1.00  0.00    -0.166 F 
ENDBRANCH  28  30
ENDBRANCH   4  23
TORSDOF 8
