REMARK  2 active torsions:
REMARK  status: ('A' for Active; 'I' for Inactive)
REMARK    1  A    between atoms: B1_1  and  C1_2 
REMARK    2  A    between atoms: C1_2  and  C4_5 
ROOT
HETATM    1  C4  UNL     1      -1.787   0.041   0.037  1.00  0.00     0.145 C 
HETATM    2  C5  UNL     1      -1.716   1.509  -0.136  1.00  0.00     0.024 C 
HETATM    3  C6  UNL     1      -0.805   2.446   0.036  1.00  0.00     0.114 C 
HETATM    4  N1  UNL     1       0.450   3.000   0.371  1.00  0.00    -0.277 NA
HETATM    5  C7  UNL     1       1.425   3.130  -0.499  1.00  0.00     0.099 C 
HETATM    6  C8  UNL     1       2.552   3.755   0.284  1.00  0.00     0.127 C 
HETATM    7  S1  UNL     1       2.958   2.737   1.727  1.00  0.00    -0.116 SA
HETATM    8  C9  UNL     1       3.597   1.215   1.396  1.00  0.00     0.062 A 
HETATM    9  C10 UNL     1       4.480   0.217   1.610  1.00  0.00     0.145 A 
HETATM   10  N2  UNL     1       4.339  -0.845   0.830  1.00  0.00    -0.235 NA
HETATM   11  C11 UNL     1       3.590  -1.033   0.017  1.00  0.00     0.169 A 
HETATM   12  S2  UNL     1       2.517   0.536  -0.027  1.00  0.00    -0.044 SA
HETATM   13  N3  UNL     1       2.909  -1.698  -1.024  1.00  0.00    -0.340 N 
HETATM   14  C12 UNL     1       1.564  -2.202  -1.165  1.00  0.00     0.319 C 
HETATM   15  C13 UNL     1       1.432  -2.854  -2.523  1.00  0.00     0.066 C 
HETATM   16  N4  UNL     1       0.633  -1.087  -1.053  1.00  0.00     0.128 N 
HETATM   17  C14 UNL     1      -0.717  -1.614  -1.202  1.00  0.00     0.441 C 
HETATM   18  O1  UNL     1      -1.712  -0.678  -1.128  1.00  0.00    -0.353 OA
HETATM   19  H16 UNL     1       3.636  -1.785  -1.795  1.00  0.00     0.163 HD
HETATM   20  H21 UNL     1       0.838  -0.337  -1.732  1.00  0.00     0.321 HD
ENDROOT
BRANCH   1  21
HETATM   21  C1  UNL     1      -3.039  -0.305   0.840  1.00  0.00    -0.055 C 
HETATM   22  C2  UNL     1      -3.024   0.419   2.165  1.00  0.00     0.005 C 
HETATM   23  C3  UNL     1      -3.175  -1.778   1.056  1.00  0.00     0.005 C 
BRANCH  21  24
HETATM   24  B1  UNL     1      -4.322   0.205   0.062  1.00  0.00     0.147 B 
HETATM   25  H1  UNL     1      -5.302   0.384   0.694  1.00  0.00    -0.031 HD
HETATM   26  H2  UNL     1      -4.227   0.629  -1.029  1.00  0.00    -0.031 HD
ENDBRANCH  21  24
ENDBRANCH   1  21
TORSDOF 2
