REMARK  8 active torsions:
REMARK  status: ('A' for Active; 'I' for Inactive)
REMARK    1  A    between atoms: C2_2  and  C5_5 
REMARK    2  A    between atoms: C7_8  and  C8_9 
REMARK    3  A    between atoms: C8_9  and  S1_10 
REMARK    4  A    between atoms: S1_10  and  C9_11 
REMARK    5  A    between atoms: C11_14  and  C12_15 
REMARK    6  A    between atoms: C12_15  and  C13_16 
REMARK    7  A    between atoms: C12_15  and  C14_18 
REMARK    8  A    between atoms: C13_16  and  N3_17 
ROOT
HETATM    1  C9  UNL     1       0.520  -2.340   0.066  1.00  0.00     0.092 A 
HETATM    2  C10 UNL     1       0.289  -1.208   0.748  1.00  0.00     0.146 A 
HETATM    3  N2  UNL     1      -0.933  -0.525   0.633  1.00  0.00    -0.253 NA
HETATM    4  C11 UNL     1      -1.762  -1.105  -0.179  1.00  0.00     0.112 A 
HETATM    5  S2  UNL     1      -1.007  -2.592  -0.858  1.00  0.00     0.108 S 
HETATM    6  O1  UNL     1      -1.675  -3.803  -0.207  1.00  0.00    -0.245 OA
ENDROOT
BRANCH   4   7
HETATM    7  C12 UNL     1      -3.123  -0.755  -0.597  1.00  0.00     0.079 C 
BRANCH   7   8
HETATM    8  C13 UNL     1      -4.051  -1.865  -0.209  1.00  0.00     0.278 C 
BRANCH   8   9
HETATM    9  N3  UNL     1      -5.423  -1.577  -0.600  1.00  0.00     0.079 N 
HETATM   10  H17 UNL     1      -6.015  -2.259  -0.108  1.00  0.00     0.312 HD
HETATM   11  H18 UNL     1      -5.458  -1.643  -1.639  1.00  0.00     0.312 HD
ENDBRANCH   8   9
ENDBRANCH   7   8
BRANCH   7  12
HETATM   12  C14 UNL     1      -3.522   0.595  -0.085  1.00  0.00     0.001 C 
HETATM   13  C15 UNL     1      -3.512   0.731   1.400  1.00  0.00     0.035 C 
HETATM   14  C16 UNL     1      -4.406   1.897   1.788  1.00  0.00     0.270 C 
HETATM   15  N4  UNL     1      -4.375   2.962   0.805  1.00  0.00     0.083 N 
HETATM   16  C17 UNL     1      -4.908   2.541  -0.476  1.00  0.00     0.270 C 
HETATM   17  H24 UNL     1      -3.406   3.308   0.745  1.00  0.00     0.315 HD
HETATM   18  C18 UNL     1      -4.875   1.011  -0.591  1.00  0.00     0.035 C 
ENDBRANCH   7  12
ENDBRANCH   4   7
BRANCH   1  19
HETATM   19  S1  UNL     1       1.663  -3.631  -0.285  1.00  0.00    -0.111 SA
BRANCH  19  20
HETATM   20  C8  UNL     1       3.218  -3.462   0.609  1.00  0.00     0.166 C 
BRANCH  20  21
HETATM   21  C7  UNL     1       3.941  -2.255   0.130  1.00  0.00     0.154 A 
HETATM   22  N1  UNL     1       4.822  -2.300  -0.904  1.00  0.00    -0.237 NA
HETATM   23  C6  UNL     1       5.308  -1.063  -1.099  1.00  0.00     0.152 A 
HETATM   24  C5  UNL     1       4.696  -0.259  -0.151  1.00  0.00     0.080 A 
HETATM   25  O2  UNL     1       3.892  -1.014   0.556  1.00  0.00    -0.297 OA
BRANCH  24  26
HETATM   26  C2  UNL     1       5.011   1.192  -0.084  1.00  0.00    -0.000 C 
HETATM   27  C1  UNL     1       6.167   1.437   0.856  1.00  0.00     0.021 C 
HETATM   28  C3  UNL     1       3.760   1.913   0.352  1.00  0.00     0.021 C 
HETATM   29  C4  UNL     1       5.409   1.732  -1.442  1.00  0.00     0.021 C 
ENDBRANCH  24  26
ENDBRANCH  20  21
ENDBRANCH  19  20
ENDBRANCH   1  19
TORSDOF 8
