REMARK  8 active torsions:
REMARK  status: ('A' for Active; 'I' for Inactive)
REMARK    1  A    between atoms: C2_2  and  N1_3 
REMARK    2  A    between atoms: N1_3  and  C3_4 
REMARK    3  A    between atoms: C3_4  and  C4_5 
REMARK    4  A    between atoms: C4_5  and  C5_6 
REMARK    5  A    between atoms: C5_6  and  C6_8 
REMARK    6  A    between atoms: C8_11  and  S1_12 
REMARK    7  A    between atoms: S1_12  and  C9_13 
REMARK    8  A    between atoms: C11_16  and  C12_17 
ROOT
HETATM    1  C6  UNL     1       2.258   0.049   0.263  1.00  0.00     0.144 A 
HETATM    2  N2  UNL     1       1.859  -1.199   0.501  1.00  0.00    -0.248 NA
HETATM    3  C7  UNL     1       0.769  -1.297   1.243  1.00  0.00     0.144 A 
HETATM    4  C8  UNL     1       0.056  -0.219   1.758  1.00  0.00     0.069 A 
HETATM    5  S2  UNL     1       1.091   1.109   1.089  1.00  0.00    -0.058 SA
ENDROOT
BRANCH   4   6
HETATM    6  S1  UNL     1      -1.362  -0.633   2.695  1.00  0.00    -0.036 SA
BRANCH   6   7
HETATM    7  C9  UNL     1      -2.835  -0.618   1.701  1.00  0.00     0.214 A 
HETATM    8  N3  UNL     1      -3.105  -1.784   1.055  1.00  0.00    -0.228 NA
HETATM    9  C10 UNL     1      -4.247  -1.646   0.337  1.00  0.00     0.153 A 
HETATM   10  C11 UNL     1      -4.657  -0.363   0.567  1.00  0.00     0.081 A 
HETATM   11  O2  UNL     1      -3.811   0.215   1.370  1.00  0.00    -0.288 OA
BRANCH  10  12
HETATM   12  C12 UNL     1      -5.859   0.307   0.012  1.00  0.00    -0.000 C 
HETATM   13  C13 UNL     1      -5.433   1.201  -1.140  1.00  0.00     0.021 C 
HETATM   14  C14 UNL     1      -6.775  -0.741  -0.619  1.00  0.00     0.021 C 
HETATM   15  C15 UNL     1      -6.666   1.055   1.048  1.00  0.00     0.021 C 
ENDBRANCH  10  12
ENDBRANCH   6   7
ENDBRANCH   4   6
BRANCH   1  16
HETATM   16  C5  UNL     1       3.428   0.571  -0.520  1.00  0.00     0.186 C 
HETATM   17  O1  UNL     1       3.541   1.818  -0.575  1.00  0.00    -0.290 OA
BRANCH  16  18
HETATM   18  C4  UNL     1       4.265  -0.532  -1.102  1.00  0.00     0.116 C 
BRANCH  18  19
HETATM   19  C3  UNL     1       5.190  -1.036  -0.004  1.00  0.00     0.277 C 
BRANCH  19  20
HETATM   20  N1  UNL     1       6.058  -0.010   0.498  1.00  0.00     0.083 N 
HETATM   21  H6  UNL     1       5.425   0.788   0.770  1.00  0.00     0.315 HD
BRANCH  20  22
HETATM   22  C2  UNL     1       7.073   0.426  -0.409  1.00  0.00     0.265 C 
HETATM   23  C1  UNL     1       7.886   1.513   0.255  1.00  0.00     0.037 C 
ENDBRANCH  20  22
ENDBRANCH  19  20
ENDBRANCH  18  19
ENDBRANCH  16  18
ENDBRANCH   1  16
TORSDOF 8
