REMARK  9 active torsions:
REMARK  status: ('A' for Active; 'I' for Inactive)
REMARK    1  A    between atoms: C2_2  and  C5_5 
REMARK    2  A    between atoms: C5_5  and  O1_6 
REMARK    3  A    between atoms: O1_6  and  C6_7 
REMARK    4  A    between atoms: C6_7  and  C7_8 
REMARK    5  A    between atoms: C6_7  and  N2_16 
REMARK    6  A    between atoms: C7_8  and  C8_9 
REMARK    7  A    between atoms: C8_9  and  S1_10 
REMARK    8  A    between atoms: S1_10  and  C9_11 
REMARK       I    between atoms: N2_16  and  C12_17 
REMARK    9  A    between atoms: C12_17  and  C13_19 
ROOT
HETATM    1  C6  UNL     1      -0.803   0.058   0.125  1.00  0.00     0.223 C 
ENDROOT
BRANCH   1   2
HETATM    2  O1  UNL     1      -1.271  -1.160   0.406  1.00  0.00    -0.366 OA
BRANCH   2   3
HETATM    3  C5  UNL     1      -2.172  -1.832  -0.310  1.00  0.00     0.178 C 
BRANCH   3   4
HETATM    4  C2  UNL     1      -1.849  -2.239  -1.712  1.00  0.00    -0.030 C 
HETATM    5  C1  UNL     1      -0.606  -3.141  -1.756  1.00  0.00     0.016 C 
HETATM    6  C3  UNL     1      -1.668  -1.161  -2.712  1.00  0.00     0.016 C 
HETATM    7  C4  UNL     1      -2.966  -3.179  -2.233  1.00  0.00     0.016 C 
ENDBRANCH   3   4
ENDBRANCH   2   3
ENDBRANCH   1   2
BRANCH   1   8
HETATM    8  C7  UNL     1      -1.119   1.122   1.165  1.00  0.00     0.064 C 
BRANCH   8   9
HETATM    9  C8  UNL     1      -0.534   2.436   0.704  1.00  0.00     0.084 C 
BRANCH   9  10
HETATM   10  S1  UNL     1      -0.848   3.769   1.893  1.00  0.00    -0.121 SA
BRANCH  10  11
HETATM   11  C9  UNL     1      -2.599   4.124   2.000  1.00  0.00     0.060 A 
HETATM   12  C10 UNL     1      -3.280   5.027   2.736  1.00  0.00     0.142 A 
HETATM   13  N1  UNL     1      -4.583   5.044   2.593  1.00  0.00    -0.264 NA
HETATM   14  C11 UNL     1      -5.228   4.386   1.917  1.00  0.00     0.167 A 
HETATM   15  S2  UNL     1      -3.922   3.280   1.075  1.00  0.00    -0.074 SA
ENDBRANCH  10  11
ENDBRANCH   9  10
ENDBRANCH   8   9
ENDBRANCH   1   8
BRANCH   1  16
HETATM   16  N2  UNL     1       0.601   0.110  -0.226  1.00  0.00    -0.334 N 
HETATM   17  C12 UNL     1       1.763   0.314  -0.957  1.00  0.00     0.223 C 
HETATM   18  O2  UNL     1       1.577   0.748  -2.128  1.00  0.00    -0.273 OA
HETATM   19  H19 UNL     1       0.891  -0.252   0.745  1.00  0.00     0.165 HD
BRANCH  17  20
HETATM   20  C13 UNL     1       3.131   0.051  -0.430  1.00  0.00     0.081 C 
HETATM   21  C14 UNL     1       3.473   0.882   0.772  1.00  0.00     0.044 C 
HETATM   22  C15 UNL     1       4.099   0.011   1.843  1.00  0.00     0.270 C 
HETATM   23  N3  UNL     1       5.129  -0.844   1.306  1.00  0.00     0.083 N 
HETATM   24  C16 UNL     1       4.602  -1.810   0.362  1.00  0.00     0.270 C 
HETATM   25  H25 UNL     1       5.908  -0.304   0.901  1.00  0.00     0.315 HD
HETATM   26  C17 UNL     1       3.211  -1.426  -0.105  1.00  0.00     0.044 C 
ENDBRANCH  17  20
ENDBRANCH   1  16
TORSDOF 9
