REMARK  9 active torsions:
REMARK  status: ('A' for Active; 'I' for Inactive)
REMARK    1  A    between atoms: C2_2  and  N1_3 
REMARK    2  A    between atoms: N1_3  and  C3_4 
REMARK    3  A    between atoms: C3_4  and  C4_5 
REMARK    4  A    between atoms: C4_5  and  C5_6 
REMARK    5  A    between atoms: C5_6  and  P1_8 
REMARK    6  A    between atoms: P1_8  and  C6_9 
REMARK    7  A    between atoms: C8_12  and  S1_13 
REMARK    8  A    between atoms: S1_13  and  C9_14 
REMARK    9  A    between atoms: C10_16  and  C11_17 
ROOT
HETATM    1  C6  UNL     1       1.315   0.404   1.118  1.00  0.00     0.106 A 
HETATM    2  N2  UNL     1       0.294   0.815   1.309  1.00  0.00    -0.251 NA
HETATM    3  C7  UNL     1      -0.923   0.344   1.200  1.00  0.00     0.144 A 
HETATM    4  C8  UNL     1      -0.944  -0.916   0.759  1.00  0.00     0.069 A 
HETATM    5  S2  UNL     1       0.781  -1.340   0.531  1.00  0.00    -0.061 SA
ENDROOT
BRANCH   1   6
HETATM    6  P1  UNL     1       2.885   1.337   1.373  1.00  0.00     0.006 P 
HETATM    7  H11 UNL     1       3.868   0.580   2.095  1.00  0.00     0.072 HD
BRANCH   6   8
HETATM    8  C5  UNL     1       3.547   1.734  -0.292  1.00  0.00     0.157 C 
HETATM    9  O1  UNL     1       3.184   2.661  -1.002  1.00  0.00    -0.292 OA
BRANCH   8  10
HETATM   10  C4  UNL     1       4.639   0.868  -0.880  1.00  0.00     0.114 C 
BRANCH  10  11
HETATM   11  C3  UNL     1       5.970   1.553  -0.672  1.00  0.00     0.277 C 
BRANCH  11  12
HETATM   12  N1  UNL     1       7.081   0.825  -1.196  1.00  0.00     0.083 N 
HETATM   13  H6  UNL     1       7.915   1.425  -1.190  1.00  0.00     0.315 HD
BRANCH  12  14
HETATM   14  C2  UNL     1       7.306  -0.375  -0.452  1.00  0.00     0.265 C 
HETATM   15  C1  UNL     1       8.508  -1.157  -0.996  1.00  0.00     0.037 C 
ENDBRANCH  12  14
ENDBRANCH  11  12
ENDBRANCH  10  11
ENDBRANCH   8  10
ENDBRANCH   6   8
ENDBRANCH   1   6
BRANCH   4  16
HETATM   16  S1  UNL     1      -2.105  -2.280   0.335  1.00  0.00    -0.036 SA
BRANCH  16  17
HETATM   17  C9  UNL     1      -3.778  -1.720   0.609  1.00  0.00     0.209 A 
HETATM   18  N3  UNL     1      -4.944  -2.188   0.500  1.00  0.00    -0.227 NA
HETATM   19  C10 UNL     1      -5.524  -0.988   0.947  1.00  0.00     0.263 A 
HETATM   20  O2  UNL     1      -4.237  -0.519   1.050  1.00  0.00    -0.300 OA
BRANCH  19  21
HETATM   21  C11 UNL     1      -6.436  -0.264  -0.023  1.00  0.00    -0.005 C 
HETATM   22  C12 UNL     1      -5.736   0.127  -1.284  1.00  0.00     0.019 C 
HETATM   23  C13 UNL     1      -6.982   0.945   0.709  1.00  0.00     0.019 C 
HETATM   24  C14 UNL     1      -7.616  -1.198  -0.252  1.00  0.00     0.019 C 
ENDBRANCH  19  21
ENDBRANCH  16  17
ENDBRANCH   4  16
TORSDOF 9
