REMARK  5 active torsions:
REMARK  status: ('A' for Active; 'I' for Inactive)
REMARK    1  A    between atoms: C2_2  and  C3_3 
REMARK    2  A    between atoms: C3_3  and  C4_5 
REMARK    3  A    between atoms: C8_10  and  C9_11 
REMARK    4  A    between atoms: C12_14  and  C13_15 
REMARK    5  A    between atoms: C13_15  and  O2_17 
ROOT
HETATM    1  C4  UNL     1       3.541  -1.391  -0.287  1.00  0.00     0.018 C 
HETATM    2  C5  UNL     1       2.592  -0.504   0.032  1.00  0.00     0.008 C 
HETATM    3  C6  UNL     1       1.284  -0.951   0.514  1.00  0.00     0.116 C 
HETATM    4  C7  UNL     1       0.236   0.070   0.356  1.00  0.00     0.051 A 
HETATM    5  N1  UNL     1      -1.061  -0.322   0.393  1.00  0.00    -0.232 NA
HETATM    6  C8  UNL     1      -2.066   0.567   0.254  1.00  0.00     0.159 A 
HETATM    7  N2  UNL     1      -1.761   1.866   0.077  1.00  0.00    -0.240 NA
HETATM    8  C16 UNL     1      -0.505   2.348   0.027  1.00  0.00     0.130 A 
HETATM    9  C17 UNL     1       0.497   1.412   0.172  1.00  0.00     0.002 A 
HETATM   10  C18 UNL     1       1.899   1.908   0.122  1.00  0.00     0.161 C 
HETATM   11  N3  UNL     1       2.850   0.868  -0.097  1.00  0.00    -0.389 N 
HETATM   12  H18 UNL     1       3.773   1.271  -0.369  1.00  0.00     0.159 HD
ENDROOT
BRANCH   6  13
HETATM   13  C9  UNL     1      -3.481   0.201   0.286  1.00  0.00     0.012 A 
HETATM   14  C10 UNL     1      -3.901  -1.099   0.462  1.00  0.00     0.016 A 
HETATM   15  C11 UNL     1      -5.254  -1.429   0.489  1.00  0.00     0.019 A 
HETATM   16  C12 UNL     1      -6.220  -0.459   0.339  1.00  0.00     0.037 A 
HETATM   17  C14 UNL     1      -5.812   0.842   0.163  1.00  0.00     0.019 A 
HETATM   18  C15 UNL     1      -4.486   1.140   0.140  1.00  0.00     0.016 A 
BRANCH  16  19
HETATM   19  C13 UNL     1      -7.633  -0.784   0.365  1.00  0.00     0.176 C 
HETATM   20  O1  UNL     1      -8.052  -1.946   0.522  1.00  0.00    -0.646 OA
BRANCH  19  21
HETATM   21  O2  UNL     1      -8.581   0.206   0.213  1.00  0.00    -0.773 OA
HETATM   22  H12 UNL     1      -9.502   0.143   0.652  1.00  0.00     0.167 HD
ENDBRANCH  19  21
ENDBRANCH  16  19
ENDBRANCH   6  13
BRANCH   1  23
HETATM   23  C3  UNL     1       4.879  -0.943  -0.780  1.00  0.00     0.106 C 
HETATM   24 CL1  UNL     1       5.647  -2.323  -1.626  1.00  0.00    -0.121 Cl
BRANCH  23  25
HETATM   25  C2  UNL     1       5.732  -0.666   0.440  1.00  0.00     0.019 C 
HETATM   26  C1  UNL     1       7.146  -0.314   0.104  1.00  0.00     0.007 C 
ENDBRANCH  23  25
ENDBRANCH   1  23
TORSDOF 5
