REMARK  8 active torsions:
REMARK  status: ('A' for Active; 'I' for Inactive)
REMARK    1  A    between atoms: N1_1  and  C1_2 
REMARK    2  A    between atoms: C1_2  and  C2_3 
REMARK    3  A    between atoms: C4_6  and  N3_7 
REMARK    4  A    between atoms: N3_7  and  C5_8 
REMARK    5  A    between atoms: C8_11  and  C9_12 
REMARK    6  A    between atoms: C9_12  and  O2_14 
REMARK    7  A    between atoms: C12_18  and  C13_19 
REMARK    8  A    between atoms: C14_20  and  C15_21 
ROOT
HETATM    1  C2  UNL     1      -0.563  -0.761  -0.586  1.00  0.00     0.018 A 
HETATM    2  C3  UNL     1       0.728  -0.686  -1.047  1.00  0.00     0.147 A 
HETATM    3  N2  UNL     1       1.680  -0.059  -0.354  1.00  0.00    -0.074 NA
HETATM    4  C4  UNL     1       1.447   0.546   0.845  1.00  0.00     0.727 A 
HETATM    5  N4  UNL     1       0.196   0.488   1.319  1.00  0.00    -0.062 NA
HETATM    6  C12 UNL     1      -0.788  -0.135   0.648  1.00  0.00     0.095 A 
ENDROOT
BRANCH   4   7
HETATM    7  N3  UNL     1       2.545   1.169   1.494  1.00  0.00    -0.188 N 
HETATM    8  H6  UNL     1       2.327   1.794   2.326  1.00  0.00     0.184 HD
BRANCH   7   9
HETATM    9  C5  UNL     1       3.862   0.932   1.020  1.00  0.00     0.049 A 
HETATM   10  C6  UNL     1       4.915   1.836   1.003  1.00  0.00     0.031 A 
HETATM   11  C7  UNL     1       6.169   1.481   0.553  1.00  0.00     0.020 A 
HETATM   12  C8  UNL     1       6.451   0.211   0.096  1.00  0.00     0.037 A 
HETATM   13  C10 UNL     1       5.406  -0.720   0.103  1.00  0.00     0.020 A 
HETATM   14  C11 UNL     1       4.150  -0.359   0.555  1.00  0.00     0.031 A 
BRANCH  12  15
HETATM   15  C9  UNL     1       7.746  -0.248  -0.393  1.00  0.00     0.176 C 
HETATM   16  O1  UNL     1       7.943  -1.423  -0.799  1.00  0.00    -0.646 OA
BRANCH  15  17
HETATM   17  O2  UNL     1       8.871   0.573  -0.451  1.00  0.00    -0.773 OA
HETATM   18  H9  UNL     1       9.799   0.227  -0.697  1.00  0.00     0.167 HD
ENDBRANCH  15  17
ENDBRANCH  12  15
ENDBRANCH   7   9
ENDBRANCH   4   7
BRANCH   6  19
HETATM   19  C13 UNL     1      -2.162  -0.199   1.136  1.00  0.00     0.020 A 
HETATM   20  C14 UNL     1      -3.514  -0.140   1.086  1.00  0.00     0.005 A 
HETATM   21  C21 UNL     1      -2.905  -0.456   2.390  1.00  0.00     0.241 A 
HETATM   22  F2  UNL     1      -2.952   0.572   3.329  1.00  0.00    -0.239 F 
BRANCH  20  23
HETATM   23  C15 UNL     1      -4.745   0.078   0.328  1.00  0.00     0.013 A 
HETATM   24  C16 UNL     1      -5.841  -0.751   0.466  1.00  0.00     0.015 A 
HETATM   25  C17 UNL     1      -7.012  -0.593  -0.209  1.00  0.00     0.001 A 
HETATM   26  C18 UNL     1      -7.155   0.454  -1.098  1.00  0.00     0.003 A 
HETATM   27  C19 UNL     1      -6.076   1.297  -1.255  1.00  0.00     0.043 A 
HETATM   28  C20 UNL     1      -4.901   1.113  -0.559  1.00  0.00     0.127 A 
HETATM   29  F1  UNL     1      -3.869   1.967  -0.738  1.00  0.00    -0.205 F 
ENDBRANCH  20  23
ENDBRANCH   6  19
BRANCH   1  30
HETATM   30  C1  UNL     1      -1.619  -1.465  -1.328  1.00  0.00     0.309 C 
BRANCH  30  31
HETATM   31  N1  UNL     1      -2.563  -0.640  -1.996  1.00  0.00     0.082 N 
HETATM   32  H1  UNL     1      -3.395  -1.173  -2.333  1.00  0.00     0.313 HD
HETATM   33  H2  UNL     1      -2.098  -0.096  -2.735  1.00  0.00     0.313 HD
ENDBRANCH  30  31
ENDBRANCH   1  30
TORSDOF 8
