REMARK  4 active torsions:
REMARK  status: ('A' for Active; 'I' for Inactive)
REMARK    1  A    between atoms: C6_7  and  C7_8 
REMARK    2  A    between atoms: C7_8  and  S1_10 
REMARK    3  A    between atoms: S1_10  and  C8_11 
REMARK    4  A    between atoms: C10_13  and  O2_14 
ROOT
HETATM    1  O2  UNL     1      -4.089  -2.610  -0.822  1.00  0.00    -0.268 OA
HETATM    2  C11 UNL     1      -3.390  -3.384  -1.706  1.00  0.00     0.022 C 
HETATM    3  P1  UNL     1      -2.604  -4.279  -2.693  1.00  0.00     0.079 P 
ENDROOT
BRANCH   1   4
HETATM    4  C10 UNL     1      -3.482  -1.410  -0.426  1.00  0.00     0.088 A 
HETATM    5  C9  UNL     1      -2.227  -1.040  -0.920  1.00  0.00     0.059 A 
HETATM    6  C8  UNL     1      -1.715   0.158  -0.471  1.00  0.00     0.038 A 
HETATM    7  C14 UNL     1      -2.388   0.964   0.418  1.00  0.00     0.053 A 
HETATM    8  C13 UNL     1      -3.629   0.541   0.871  1.00  0.00    -0.010 A 
HETATM    9  N2  UNL     1      -2.490   2.145   1.211  1.00  0.00    -0.384 N 
HETATM   10  C12 UNL     1      -4.208  -0.641   0.470  1.00  0.00     0.049 A 
HETATM   11  C15 UNL     1      -3.788   1.760   1.720  1.00  0.00     0.161 A 
HETATM   12  H9  UNL     1      -1.825   2.951   1.328  1.00  0.00     0.160 HD
BRANCH   6  13
HETATM   13  S1  UNL     1      -0.127   0.632  -1.092  1.00  0.00    -0.045 SA
BRANCH  13  14
HETATM   14  C7  UNL     1       1.191   0.023  -0.057  1.00  0.00     0.226 C 
HETATM   15  O1  UNL     1       0.888  -0.640   0.945  1.00  0.00    -0.279 OA
BRANCH  14  16
HETATM   16  C6  UNL     1       2.577   0.311  -0.405  1.00  0.00     0.045 A 
HETATM   17  C2  UNL     1       3.614  -0.147   0.376  1.00  0.00     0.045 A 
HETATM   18  C1  UNL     1       3.328  -0.952   1.598  1.00  0.00     0.071 C 
HETATM   19  N1  UNL     1       4.892   0.132   0.035  1.00  0.00    -0.265 NA
HETATM   20  C3  UNL     1       5.169   0.855  -1.062  1.00  0.00     0.117 A 
HETATM   21  C4  UNL     1       4.176   1.340  -1.880  1.00  0.00     0.020 A 
HETATM   22  C5  UNL     1       2.872   1.053  -1.530  1.00  0.00     0.019 A 
ENDBRANCH  14  16
ENDBRANCH  13  14
ENDBRANCH   6  13
ENDBRANCH   1   4
TORSDOF 4
