REMARK  2 active torsions:
REMARK  status: ('A' for Active; 'I' for Inactive)
REMARK    1  A    between atoms: C2_2  and  C3_3 
REMARK    2  A    between atoms: C8_8  and  N1_9 
ROOT
HETATM    1  C3  UNL     1       1.747   0.117   0.837  1.00  0.00     0.022 A 
HETATM    2  C4  UNL     1       2.293   0.417  -0.477  1.00  0.00     0.036 A 
HETATM    3  C5  UNL     1       2.713  -0.969  -1.191  1.00  0.00    -0.011 C 
HETATM    4  C6  UNL     1       1.767  -2.288  -1.023  1.00  0.00    -0.001 C 
HETATM    5  C7  UNL     1       0.394  -2.131  -0.610  1.00  0.00     0.029 C 
HETATM    6  C8  UNL     1      -0.023  -0.548  -0.643  1.00  0.00     0.065 C 
HETATM    7  C15 UNL     1       1.119   0.427  -0.549  1.00  0.00     0.094 A 
HETATM    8  N3  UNL     1       1.075   0.807  -2.051  1.00  0.00    -0.405 N 
HETATM    9  C16 UNL     1       2.532   1.310  -1.674  1.00  0.00     0.132 C 
HETATM   10  H14 UNL     1       0.384   0.735  -2.740  1.00  0.00     0.154 HD
ENDROOT
BRANCH   6  11
HETATM   11  N1  UNL     1      -1.404  -0.357  -0.835  1.00  0.00    -0.251 NA
HETATM   12  C9  UNL     1      -2.260   0.024   0.039  1.00  0.00     0.081 A 
HETATM   13  C10 UNL     1      -3.638   0.138  -0.439  1.00  0.00     0.056 A 
HETATM   14  C14 UNL     1      -1.817   0.313   1.436  1.00  0.00     0.160 A 
HETATM   15  C11 UNL     1      -3.973  -0.175  -1.864  1.00  0.00     0.072 C 
HETATM   16  N2  UNL     1      -4.620   0.508   0.316  1.00  0.00    -0.264 NA
HETATM   17  C12 UNL     1      -4.277   0.804   1.674  1.00  0.00     0.115 A 
HETATM   18  C13 UNL     1      -3.049   0.724   2.185  1.00  0.00     0.019 A 
HETATM   19 CL1  UNL     1      -1.241  -1.195   2.177  1.00  0.00    -0.114 Cl
ENDBRANCH   6  11
BRANCH   1  20
HETATM   20  C2  UNL     1       2.719   0.286   1.747  1.00  0.00    -0.001 C 
HETATM   21  C1  UNL     1       4.126   0.653   1.978  1.00  0.00     0.011 C 
ENDBRANCH   1  20
TORSDOF 2
