REMARK  4 active torsions:
REMARK  status: ('A' for Active; 'I' for Inactive)
REMARK    1  A    between atoms: C1_2  and  O2_3 
REMARK    2  A    between atoms: C1_2  and  C2_4 
REMARK    3  A    between atoms: C5_7  and  C6_8 
REMARK    4  A    between atoms: C16_21  and  C17_22 
ROOT
HETATM    1  C6  UNL     1       2.590  -1.207   0.175  1.00  0.00     0.156 A 
HETATM    2  N1  UNL     1       2.230  -2.482   0.409  1.00  0.00    -0.240 NA
HETATM    3  C7  UNL     1       0.953  -2.921   0.394  1.00  0.00     0.130 A 
HETATM    4  C8  UNL     1      -0.067  -2.031   0.126  1.00  0.00     0.009 A 
HETATM    5  C9  UNL     1       0.347  -0.729  -0.109  1.00  0.00     0.079 A 
HETATM    6  N2  UNL     1       1.624  -0.311  -0.090  1.00  0.00    -0.228 NA
HETATM    7  C10 UNL     1      -0.508   0.412  -0.415  1.00  0.00     0.006 A 
HETATM    8  C11 UNL     1       0.170   1.553  -0.843  1.00  0.00     0.016 A 
HETATM    9  C12 UNL     1      -0.589   2.672  -1.149  1.00  0.00     0.025 A 
HETATM   10  C13 UNL     1      -1.956   2.697  -1.050  1.00  0.00     0.035 A 
HETATM   11 CL1  UNL     1      -2.860   4.149  -1.454  1.00  0.00    -0.084 Cl
HETATM   12  C14 UNL     1      -2.632   1.578  -0.630  1.00  0.00     0.038 A 
HETATM   13  C15 UNL     1      -1.883   0.463  -0.323  1.00  0.00     0.007 A 
HETATM   14  C16 UNL     1      -2.782  -0.607   0.098  1.00  0.00     0.079 C 
HETATM   15  N3  UNL     1      -2.509  -1.853   0.270  1.00  0.00    -0.283 NA
HETATM   16  C23 UNL     1      -1.373  -2.692   0.155  1.00  0.00     0.192 C 
ENDROOT
BRANCH   1  17
HETATM   17  C5  UNL     1       3.972  -0.803   0.205  1.00  0.00    -0.006 A 
HETATM   18  C4  UNL     1       5.020  -1.580   0.453  1.00  0.00     0.012 A 
HETATM   19  C3  UNL     1       6.268  -0.835   0.402  1.00  0.00     0.015 A 
HETATM   20  C2  UNL     1       5.974   0.443   0.113  1.00  0.00     0.020 A 
HETATM   21  C24 UNL     1       4.499   0.564  -0.034  1.00  0.00     0.088 A 
BRANCH  20  22
HETATM   22  C1  UNL     1       6.838   1.609  -0.057  1.00  0.00     0.172 C 
HETATM   23  O1  UNL     1       6.449   2.781  -0.331  1.00  0.00    -0.646 OA
BRANCH  22  24
HETATM   24  O2  UNL     1       8.232   1.464   0.088  1.00  0.00    -0.773 OA
HETATM   25  H1  UNL     1       8.888   2.096  -0.376  1.00  0.00     0.167 HD
ENDBRANCH  22  24
ENDBRANCH  20  22
ENDBRANCH   1  17
BRANCH  14  26
HETATM   26  C17 UNL     1      -4.178  -0.218   0.361  1.00  0.00     0.070 A 
HETATM   27  C18 UNL     1      -5.003  -0.462  -0.729  1.00  0.00     0.132 A 
HETATM   28  F1  UNL     1      -4.630  -0.995  -1.928  1.00  0.00    -0.205 F 
HETATM   29  C19 UNL     1      -6.350  -0.169  -0.691  1.00  0.00     0.043 A 
HETATM   30  C20 UNL     1      -6.887   0.386   0.474  1.00  0.00     0.006 A 
HETATM   31  C21 UNL     1      -6.057   0.620   1.540  1.00  0.00     0.043 A 
HETATM   32  C22 UNL     1      -4.712   0.330   1.509  1.00  0.00     0.132 A 
HETATM   33  F2  UNL     1      -3.812   0.520   2.500  1.00  0.00    -0.205 F 
ENDBRANCH  14  26
TORSDOF 4
