REMARK  1 active torsions:
REMARK  status: ('A' for Active; 'I' for Inactive)
REMARK    1  A    between atoms: C9_15  and  C10_16 
ROOT
HETATM    1  C1  UNL     1      -0.572   3.264  -0.756  1.00  0.00     0.018 C 
HETATM    2  C2  UNL     1      -1.067   1.976  -0.331  1.00  0.00     0.088 C 
HETATM    3  C3  UNL     1      -1.978   1.210  -1.219  1.00  0.00     0.366 A 
HETATM    4  O1  UNL     1      -2.931   0.704  -0.608  1.00  0.00    -0.143 OA
HETATM    5  N1  UNL     1      -2.869   0.458  -2.097  1.00  0.00     0.142 N 
HETATM    6  C4  UNL     1      -4.113  -0.303  -1.468  1.00  0.00     0.306 A 
HETATM    7  N2  UNL     1      -5.052  -0.814  -1.035  1.00  0.00    -0.226 NA
HETATM    8  C5  UNL     1      -5.031  -1.950  -0.237  1.00  0.00     0.146 A 
HETATM    9  C6  UNL     1      -3.727  -2.413  -0.013  1.00  0.00     0.069 A 
HETATM   10  S1  UNL     1      -2.594  -1.335  -0.893  1.00  0.00    -0.034 SA
HETATM   11  S2  UNL     1      -2.153  -2.967   0.254  1.00  0.00    -0.051 SA
HETATM   12  C7  UNL     1      -1.225  -1.855   1.471  1.00  0.00     0.143 C 
HETATM   13  N3  UNL     1      -0.063  -1.544   1.274  1.00  0.00    -0.411 NA
HETATM   14  C8  UNL     1       1.132  -1.460   0.693  1.00  0.00     0.216 C 
HETATM   15  C9  UNL     1       1.712  -0.409  -0.008  1.00  0.00     0.083 C 
HETATM   16  O2  UNL     1       1.167   0.937  -0.325  1.00  0.00    -0.345 OA
HETATM   17  C14 UNL     1      -0.128   0.966   0.347  1.00  0.00     0.154 C 
HETATM   18  C15 UNL     1      -0.063   1.037   1.817  1.00  0.00     0.147 C 
HETATM   19  N4  UNL     1      -1.230   0.480   2.474  1.00  0.00    -0.412 N 
HETATM   20  C16 UNL     1      -1.209  -0.937   2.579  1.00  0.00     0.195 C 
HETATM   21  H5  UNL     1      -2.986   0.243  -3.080  1.00  0.00     0.332 HD
HETATM   22  H20 UNL     1      -2.091   0.978   2.415  1.00  0.00     0.153 HD
ENDROOT
BRANCH  15  23
HETATM   23  C10 UNL     1       3.035  -0.383  -0.627  1.00  0.00     0.000 C 
HETATM   24  C11 UNL     1       3.701   0.947  -0.365  1.00  0.00     0.021 C 
HETATM   25  C12 UNL     1       3.901  -1.489  -0.035  1.00  0.00     0.021 C 
HETATM   26  C13 UNL     1       2.966  -0.597  -2.118  1.00  0.00     0.021 C 
ENDBRANCH  15  23
TORSDOF 1
