REMARK  5 active torsions:
REMARK  status: ('A' for Active; 'I' for Inactive)
REMARK    1  A    between atoms: C2_2  and  C4_4 
REMARK    2  A    between atoms: C4_4  and  O1_5 
REMARK    3  A    between atoms: O1_5  and  C5_6 
REMARK       I    between atoms: C5_6  and  N1_8 
REMARK    4  A    between atoms: C12_15  and  N2_16 
REMARK    5  A    between atoms: C17_22  and  N3_23 
ROOT
HETATM    1  C5  UNL     1       2.953  -0.575   1.154  1.00  0.00     0.363 C 
HETATM    2  O2  UNL     1       3.621  -1.598   1.437  1.00  0.00    -0.238 OA
HETATM    3  N1  UNL     1       1.596  -0.968   0.993  1.00  0.00    -0.317 N 
HETATM    4  C6  UNL     1       1.356  -2.386   1.190  1.00  0.00     0.155 C 
HETATM    5  C7  UNL     1       0.015  -2.741   0.705  1.00  0.00    -0.008 C 
HETATM    6  C8  UNL     1      -0.873  -2.058  -0.005  1.00  0.00     0.010 C 
HETATM    7  C9  UNL     1      -0.443  -0.707  -0.373  1.00  0.00     0.118 A 
HETATM    8  C10 UNL     1      -1.581   0.256  -0.475  1.00  0.00     0.025 A 
HETATM    9  C11 UNL     1      -2.451   0.576   0.444  1.00  0.00     0.018 A 
HETATM   10  C12 UNL     1      -3.531   1.561   0.175  1.00  0.00     0.155 A 
HETATM   11  C18 UNL     1      -3.434   2.071  -1.240  1.00  0.00     0.121 A 
HETATM   12  N4  UNL     1      -2.593   1.783  -2.178  1.00  0.00    -0.241 NA
HETATM   13  C19 UNL     1      -1.593   0.828  -1.827  1.00  0.00     0.177 A 
HETATM   14  N5  UNL     1      -0.614   0.316  -2.495  1.00  0.00    -0.155 NA
HETATM   15  N6  UNL     1       0.110  -0.596  -1.710  1.00  0.00    -0.287 N 
HETATM   16  C20 UNL     1       1.253  -1.281  -2.280  1.00  0.00     0.175 C 
HETATM   17  C21 UNL     1       0.486  -0.118   0.666  1.00  0.00     0.124 C 
HETATM   18  C22 UNL     1       0.988   1.235   0.294  1.00  0.00     0.036 C 
ENDROOT
BRANCH  10  19
HETATM   19  N2  UNL     1      -4.864   0.962   0.267  1.00  0.00    -0.328 N 
HETATM   20  C13 UNL     1      -5.871   1.858   0.329  1.00  0.00     0.094 A 
HETATM   21  C14 UNL     1      -7.177   1.490   0.418  1.00  0.00     0.019 A 
HETATM   22  C15 UNL     1      -7.526   0.146   0.448  1.00  0.00     0.029 A 
HETATM   23  C16 UNL     1      -6.482  -0.741   0.383  1.00  0.00     0.079 A 
HETATM   24 CL1  UNL     1      -6.837  -2.451   0.415  1.00  0.00    -0.080 Cl
HETATM   25  C17 UNL     1      -5.158  -0.352   0.293  1.00  0.00     0.145 A 
BRANCH  25  26
HETATM   26  N3  UNL     1      -4.158  -1.145   0.230  1.00  0.00    -0.282 NA
HETATM   27  H19 UNL     1      -4.345  -2.183   0.248  1.00  0.00     0.188 HD
ENDBRANCH  25  26
ENDBRANCH  10  19
BRANCH   1  28
HETATM   28  O1  UNL     1       3.500   0.673   1.036  1.00  0.00    -0.304 OA
BRANCH  28  29
HETATM   29  C4  UNL     1       4.872   0.962   1.216  1.00  0.00     0.184 C 
BRANCH  29  30
HETATM   30  C2  UNL     1       5.648   0.165   0.190  1.00  0.00     0.002 C 
HETATM   31  C1  UNL     1       7.143   0.446   0.344  1.00  0.00     0.011 C 
HETATM   32  C3  UNL     1       5.223   0.606  -1.191  1.00  0.00     0.011 C 
ENDBRANCH  29  30
ENDBRANCH  28  29
ENDBRANCH   1  28
TORSDOF 5
