REMARK  2 active torsions:
REMARK  status: ('A' for Active; 'I' for Inactive)
REMARK    1  A    between atoms: C7_11  and  N3_12 
REMARK    2  A    between atoms: N3_12  and  C8_13 
ROOT
HETATM    1 CL1  UNL     1      -5.153   2.142  -1.869  1.00  0.00    -0.088 Cl
HETATM    2  C1  UNL     1      -4.753   0.790  -0.832  1.00  0.00     0.024 A 
HETATM    3  C2  UNL     1      -5.622   0.220  -0.016  1.00  0.00     0.023 A 
HETATM    4  C3  UNL     1      -4.940  -0.863   0.682  1.00  0.00     0.035 A 
HETATM    5  C4  UNL     1      -3.663  -0.921   0.266  1.00  0.00     0.066 A 
HETATM    6  O1  UNL     1      -2.804  -1.902   0.812  1.00  0.00    -0.294 OA
HETATM    7  C5  UNL     1      -1.404  -1.778   0.682  1.00  0.00     0.201 A 
HETATM    8  N1  UNL     1      -0.773  -2.971   0.899  1.00  0.00    -0.215 NA
HETATM    9  C6  UNL     1       0.570  -3.001   0.806  1.00  0.00     0.238 A 
HETATM   10  N2  UNL     1       1.273  -1.901   0.511  1.00  0.00    -0.222 NA
HETATM   11  C7  UNL     1       0.746  -0.707   0.285  1.00  0.00     0.160 A 
HETATM   12  C14 UNL     1      -0.625  -0.652   0.376  1.00  0.00     0.128 A 
HETATM   13  N4  UNL     1      -1.170   0.626   0.155  1.00  0.00    -0.382 N 
HETATM   14  C15 UNL     1      -2.370   1.115  -0.439  1.00  0.00     0.137 C 
HETATM   15  C16 UNL     1      -3.426   0.132  -0.743  1.00  0.00     0.105 A 
HETATM   16  H9  UNL     1      -0.529   1.394   0.524  1.00  0.00     0.160 HD
ENDROOT
BRANCH  11  17
HETATM   17  N3  UNL     1       1.495   0.452  -0.035  1.00  0.00    -0.339 N 
HETATM   18  H4  UNL     1       1.140   1.389  -0.310  1.00  0.00     0.167 HD
BRANCH  17  19
HETATM   19  C8  UNL     1       2.918   0.497  -0.038  1.00  0.00     0.035 A 
HETATM   20  C9  UNL     1       3.747  -0.399   0.606  1.00  0.00     0.029 A 
HETATM   21  C10 UNL     1       5.113  -0.372   0.590  1.00  0.00     0.004 A 
HETATM   22  C11 UNL     1       5.762   0.600  -0.103  1.00  0.00     0.019 A 
HETATM   23  C12 UNL     1       5.022   1.541  -0.778  1.00  0.00     0.013 A 
HETATM   24 BR1  UNL     1       5.884   2.926  -1.765  1.00  0.00    -0.051 Br
HETATM   25  C13 UNL     1       3.653   1.456  -0.721  1.00  0.00     0.048 A 
ENDBRANCH  17  19
ENDBRANCH  11  17
TORSDOF 2
