REMARK  1 active torsions:
REMARK  status: ('A' for Active; 'I' for Inactive)
REMARK    1  A    between atoms: C3_3  and  C4_4 
ROOT
HETATM    1  C4  UNL     1       2.171   1.751  -0.138  1.00  0.00     0.059 C 
HETATM    2  C5  UNL     1       1.410   0.766   0.054  1.00  0.00     0.140 C 
HETATM    3  O1  UNL     1       0.716   0.737  -1.232  1.00  0.00    -0.306 OA
HETATM    4  C6  UNL     1      -0.663   0.175  -1.585  1.00  0.00     0.549 A 
HETATM    5  N1  UNL     1      -0.137  -0.644  -2.562  1.00  0.00     0.425 N 
HETATM    6  C7  UNL     1      -0.992  -1.516  -3.276  1.00  0.00     0.616 A 
HETATM    7  N2  UNL     1      -0.488  -0.600  -2.434  1.00  0.00     0.425 N 
HETATM    8  N3  UNL     1      -1.315  -0.038  -1.688  1.00  0.00     0.000 N 
HETATM    9  C8  UNL     1      -1.150   0.000  -0.045  1.00  0.00     0.021 A 
HETATM   10  C9  UNL     1      -0.265  -0.770   0.798  1.00  0.00     0.012 C 
HETATM   11  C10 UNL     1      -0.767  -2.062   1.185  1.00  0.00     0.045 C 
HETATM   12  C11 UNL     1      -2.327  -2.080   0.903  1.00  0.00     0.119 C 
HETATM   13  C12 UNL     1      -2.745  -3.474   1.269  1.00  0.00     0.039 C 
HETATM   14  O2  UNL     1      -2.788  -1.610  -0.248  1.00  0.00    -0.378 OA
HETATM   15  C13 UNL     1      -3.587  -1.178  -1.251  1.00  0.00     0.163 C 
HETATM   16  C14 UNL     1      -3.245   0.117  -1.291  1.00  0.00     0.028 C 
HETATM   17  C15 UNL     1      -2.121   0.538  -0.932  1.00  0.00     0.090 A 
HETATM   18  C16 UNL     1       1.070  -0.289   1.183  1.00  0.00     0.218 C 
HETATM   19  F1  UNL     1       1.062   0.351   2.342  1.00  0.00    -0.245 F 
ENDROOT
BRANCH   1  20
HETATM   20  C3  UNL     1       3.189   2.722   0.178  1.00  0.00    -0.022 C 
HETATM   21  C2  UNL     1       3.261   3.495  -0.927  1.00  0.00    -0.034 C 
HETATM   22  C1  UNL     1       4.266   4.603  -0.858  1.00  0.00     0.036 C 
ENDBRANCH   1  20
TORSDOF 1
