REMARK  8 active torsions:
REMARK  status: ('A' for Active; 'I' for Inactive)
REMARK    1  A    between atoms: C2_2  and  N1_3 
REMARK    2  A    between atoms: N1_3  and  C4_5 
REMARK    3  A    between atoms: C4_5  and  C5_6 
REMARK    4  A    between atoms: C5_6  and  C6_7 
REMARK    5  A    between atoms: C12_14  and  N3_15 
REMARK    6  A    between atoms: N3_15  and  C13_16 
REMARK    7  A    between atoms: C16_21  and  N5_22 
REMARK    8  A    between atoms: C20_26  and  C21_27 
ROOT
HETATM    1  N3  UNL     1       1.261   0.498  -1.032  1.00  0.00    -0.190 N 
HETATM    2  H21 UNL     1       0.898   0.597  -1.992  1.00  0.00     0.184 HD
ENDROOT
BRANCH   1   3
HETATM    3  C12 UNL     1       0.767  -0.364  -0.002  1.00  0.00     0.049 A 
HETATM    4  C11 UNL     1       1.400  -1.481   0.339  1.00  0.00     0.029 A 
HETATM    5  C10 UNL     1       0.916  -2.387   1.395  1.00  0.00     0.019 A 
HETATM    6  C9  UNL     1      -0.177  -2.119   2.049  1.00  0.00     0.086 A 
HETATM    7  N2  UNL     1      -0.861  -0.924   1.693  1.00  0.00    -0.380 N 
HETATM    8  C8  UNL     1      -2.075  -0.622   2.435  1.00  0.00     0.123 C 
HETATM    9  C23 UNL     1      -0.486   0.025   0.674  1.00  0.00     0.134 A 
HETATM   10  C7  UNL     1      -2.877   0.414   1.635  1.00  0.00     0.024 C 
HETATM   11  C6  UNL     1      -2.910  -0.119   0.225  1.00  0.00    -0.009 C 
HETATM   12  C24 UNL     1      -1.564   0.173  -0.384  1.00  0.00     0.036 C 
BRANCH  11  13
HETATM   13  C5  UNL     1      -4.043   0.400  -0.611  1.00  0.00     0.024 C 
BRANCH  13  14
HETATM   14  C4  UNL     1      -5.398   0.063  -0.049  1.00  0.00     0.117 C 
BRANCH  14  15
HETATM   15  N1  UNL     1      -6.433   0.578  -0.888  1.00  0.00    -0.417 N 
HETATM   16  C3  UNL     1      -7.645   0.952  -0.228  1.00  0.00     0.143 C 
BRANCH  15  17
HETATM   17  C2  UNL     1      -6.584  -0.022  -2.167  1.00  0.00     0.112 C 
HETATM   18  C1  UNL     1      -7.214  -1.389  -2.152  1.00  0.00     0.026 C 
ENDBRANCH  15  17
ENDBRANCH  14  15
ENDBRANCH  13  14
ENDBRANCH  11  13
ENDBRANCH   1   3
BRANCH   1  19
HETATM   19  C13 UNL     1       2.344   1.121  -0.313  1.00  0.00     0.728 A 
HETATM   20  N4  UNL     1       2.149   2.226   0.408  1.00  0.00    -0.073 NA
HETATM   21  C14 UNL     1       3.080   2.873   1.107  1.00  0.00     0.164 A 
HETATM   22  C15 UNL     1       4.361   2.327   1.063  1.00  0.00     0.098 A 
HETATM   23 CL1  UNL     1       5.696   3.061   1.930  1.00  0.00    -0.079 Cl
HETATM   24  C16 UNL     1       4.616   1.170   0.321  1.00  0.00     0.172 A 
HETATM   25  N6  UNL     1       3.592   0.601  -0.347  1.00  0.00    -0.043 NA
BRANCH  24  26
HETATM   26  N5  UNL     1       5.954   0.649   0.312  1.00  0.00    -0.336 N 
HETATM   27  C17 UNL     1       6.721   0.234   1.429  1.00  0.00     0.093 A 
HETATM   28  C18 UNL     1       7.939  -0.213   1.230  1.00  0.00     0.018 A 
HETATM   29  C19 UNL     1       8.555  -0.310  -0.087  1.00  0.00     0.013 A 
HETATM   30  C20 UNL     1       7.807   0.085  -1.102  1.00  0.00    -0.002 A 
HETATM   31  C22 UNL     1       6.420   0.610  -1.064  1.00  0.00     0.171 A 
BRANCH  30  32
HETATM   32  C21 UNL     1       8.443  -0.018  -2.428  1.00  0.00     0.267 C 
HETATM   33  O1  UNL     1       9.611  -0.447  -2.604  1.00  0.00    -0.302 OA
ENDBRANCH  30  32
ENDBRANCH  24  26
ENDBRANCH   1  19
TORSDOF 8
