REMARK  4 active torsions:
REMARK  status: ('A' for Active; 'I' for Inactive)
REMARK    1  A    between atoms: C6_7  and  C7_8 
REMARK       I    between atoms: C7_8  and  N2_10 
REMARK    2  A    between atoms: N2_10  and  C8_11 
REMARK    3  A    between atoms: C12_16  and  O2_18 
REMARK    4  A    between atoms: O2_18  and  C14_19 
ROOT
HETATM    1  C8  UNL     1      -1.283  -0.482   0.215  1.00  0.00     0.363 C 
HETATM    2  N3  UNL     1      -1.154  -1.793  -0.516  1.00  0.00     0.122 N 
HETATM    3  C9  UNL     1      -2.079  -1.670  -1.700  1.00  0.00     0.311 C 
HETATM    4  C10 UNL     1      -3.004  -1.275  -0.549  1.00  0.00    -0.025 C 
HETATM    5  C11 UNL     1      -3.711  -0.267  -0.447  1.00  0.00     0.021 C 
HETATM    6  C12 UNL     1      -2.421   0.356   0.054  1.00  0.00     0.125 C 
HETATM    7  C13 UNL     1      -2.317   1.560  -0.894  1.00  0.00     0.055 C 
HETATM    8  C15 UNL     1      -2.387  -2.568  -0.037  1.00  0.00     0.311 C 
ENDROOT
BRANCH   1   9
HETATM    9  N2  UNL     1       0.028   0.090  -0.077  1.00  0.00    -0.324 N 
HETATM   10  C7  UNL     1       1.258  -0.449   0.382  1.00  0.00     0.255 C 
HETATM   11  O1  UNL     1       0.956  -1.485   1.060  1.00  0.00    -0.268 OA
HETATM   12  H7  UNL     1      -0.074   0.958  -0.674  1.00  0.00     0.165 HD
BRANCH  10  13
HETATM   13  C6  UNL     1       2.523   0.172   0.051  1.00  0.00     0.056 A 
HETATM   14  C2  UNL     1       3.701  -0.469   0.345  1.00  0.00     0.046 A 
HETATM   15  C1  UNL     1       3.777  -1.787   1.011  1.00  0.00     0.071 C 
HETATM   16  N1  UNL     1       4.854   0.181  -0.007  1.00  0.00    -0.265 NA
HETATM   17  C3  UNL     1       4.806   1.379  -0.608  1.00  0.00     0.117 A 
HETATM   18  C4  UNL     1       3.651   2.028  -0.906  1.00  0.00     0.020 A 
HETATM   19  C5  UNL     1       2.437   1.404  -0.563  1.00  0.00     0.020 A 
ENDBRANCH  10  13
ENDBRANCH   1   9
BRANCH   6  20
HETATM   20  O2  UNL     1      -2.923   0.888   1.289  1.00  0.00    -0.358 OA
BRANCH  20  21
HETATM   21  C14 UNL     1      -2.132   1.713   1.975  1.00  0.00     0.283 C 
HETATM   22 CL1  UNL     1      -0.629   1.136   2.641  1.00  0.00    -0.102 Cl
ENDBRANCH  20  21
ENDBRANCH   6  20
TORSDOF 4
