REMARK  1 active torsions:
REMARK  status: ('A' for Active; 'I' for Inactive)
REMARK    1  A    between atoms: C2_2  and  C3_3 
ROOT
HETATM    1  C3  UNL     1      -1.608   1.137  -1.686  1.00  0.00     0.002 C 
HETATM    2  C4  UNL     1      -0.560   0.439  -1.175  1.00  0.00     0.011 C 
HETATM    3  C5  UNL     1       0.490  -0.472  -0.663  1.00  0.00     0.090 C 
HETATM    4  C6  UNL     1       0.355  -0.630   0.841  1.00  0.00     0.057 C 
HETATM    5  C7  UNL     1       0.255  -0.694   2.150  1.00  0.00     0.161 C 
HETATM    6  O1  UNL     1       0.563   0.611   2.543  1.00  0.00    -0.361 OA
HETATM    7  C8  UNL     1       1.824   1.145   2.111  1.00  0.00     0.180 C 
HETATM    8  C9  UNL     1       3.018   0.372   2.514  1.00  0.00     0.032 C 
HETATM    9  C10 UNL     1       4.238   1.112   1.940  1.00  0.00     0.014 C 
HETATM   10  C11 UNL     1       3.045  -1.009   1.933  1.00  0.00     0.202 C 
HETATM   11  O2  UNL     1       2.057  -1.784   2.473  1.00  0.00    -0.286 OA
HETATM   12  N1  UNL     1       1.622  -2.709   1.574  1.00  0.00    -0.111 NA
HETATM   13  N2  UNL     1       0.859  -2.014   0.593  1.00  0.00    -0.284 N 
HETATM   14  C12 UNL     1       0.304  -1.927  -0.699  1.00  0.00     0.144 C 
HETATM   15  O3  UNL     1      -1.021  -2.444  -0.816  1.00  0.00     0.000 OA
HETATM   16  C13 UNL     1      -1.905  -1.589  -1.586  1.00  0.00     0.056 A 
HETATM   17  C14 UNL     1      -1.134  -1.955  -2.671  1.00  0.00    -0.028 A 
HETATM   18  C15 UNL     1      -2.068  -1.045  -2.985  1.00  0.00     0.058 A 
HETATM   19  C16 UNL     1      -2.670  -0.863  -1.763  1.00  0.00     0.083 A 
HETATM   20  C17 UNL     1      -3.289  -0.653  -0.589  1.00  0.00     0.027 A 
HETATM   21  C18 UNL     1      -2.322  -1.582  -0.302  1.00  0.00     0.162 A 
HETATM   22  F1  UNL     1      -2.567  -1.737   0.985  1.00  0.00    -0.234 F 
HETATM   23  N3  UNL     1      -2.834   0.503  -2.243  1.00  0.00    -0.378 N 
HETATM   24  H17 UNL     1       0.994  -3.346   2.136  1.00  0.00     0.180 HD
HETATM   25  H22 UNL     1      -3.520   1.034  -2.799  1.00  0.00     0.160 HD
ENDROOT
BRANCH   1  26
HETATM   26  C2  UNL     1      -1.771   2.638  -1.770  1.00  0.00     0.052 C 
HETATM   27  C1  UNL     1      -3.002   3.054  -0.993  1.00  0.00     0.011 C 
ENDBRANCH   1  26
TORSDOF 1
