REMARK  5 active torsions:
REMARK  status: ('A' for Active; 'I' for Inactive)
REMARK    1  A    between atoms: C5_7  and  O1_8 
REMARK    2  A    between atoms: O1_8  and  C6_9 
REMARK    3  A    between atoms: C6_9  and  C7_10 
REMARK    4  A    between atoms: C7_10  and  O2_11 
REMARK    5  A    between atoms: C11_16  and  C12_17 
ROOT
HETATM    1  C1  UNL     1       0.781   5.407   1.383  1.00  0.00     0.085 C 
HETATM    2  P1  UNL     1       0.219   4.179   0.183  1.00  0.00     0.063 P 
HETATM    3  N1  UNL     1       1.441   3.645  -0.686  1.00  0.00    -0.260 NA
HETATM    4  C2  UNL     1       2.180   2.492  -0.303  1.00  0.00     0.113 C 
HETATM    5  C3  UNL     1       2.630   1.356   0.190  1.00  0.00    -0.001 C 
HETATM    6  C4  UNL     1       2.120   0.288   1.041  1.00  0.00     0.092 C 
HETATM    7  C5  UNL     1       2.146  -1.070   0.443  1.00  0.00     0.046 C 
HETATM    8  C8  UNL     1       1.417  -2.123   0.110  1.00  0.00     0.007 C 
HETATM    9  C9  UNL     1       0.098  -2.768   0.059  1.00  0.00     0.049 C 
HETATM   10  C10 UNL     1      -1.051  -1.943   0.547  1.00  0.00     0.125 C 
HETATM   11  N2  UNL     1      -1.266  -0.764  -0.266  1.00  0.00    -0.374 N 
HETATM   12  C11 UNL     1      -2.375   0.056   0.156  1.00  0.00     0.138 C 
HETATM   13  N3  UNL     1      -2.580   1.289   0.558  1.00  0.00    -0.224 NA
HETATM   14  C18 UNL     1      -1.519   2.211   0.664  1.00  0.00     0.235 C 
HETATM   15  N4  UNL     1      -0.502   2.863   1.097  1.00  0.00    -0.241 NA
HETATM   16  H4  UNL     1      -0.726   4.790  -0.656  1.00  0.00     0.100 HD
HETATM   17  H19 UNL     1      -1.121  -0.073  -1.024  1.00  0.00     0.161 HD
ENDROOT
BRANCH  12  18
HETATM   18  C12 UNL     1      -3.605  -0.708   0.108  1.00  0.00     0.048 A 
HETATM   19  C13 UNL     1      -3.869  -1.713  -0.829  1.00  0.00     0.018 A 
HETATM   20  C14 UNL     1      -5.026  -2.447  -0.891  1.00  0.00     0.001 A 
HETATM   21  C15 UNL     1      -6.020  -2.198   0.030  1.00  0.00     0.003 A 
HETATM   22  C16 UNL     1      -5.799  -1.218   0.967  1.00  0.00     0.043 A 
HETATM   23  C17 UNL     1      -4.636  -0.518   0.986  1.00  0.00     0.130 A 
HETATM   24  F1  UNL     1      -4.506   0.428   1.947  1.00  0.00    -0.205 F 
ENDBRANCH  12  18
BRANCH   7  25
HETATM   25  O1  UNL     1       3.534  -1.126   0.176  1.00  0.00    -0.353 OA
BRANCH  25  26
HETATM   26  C6  UNL     1       4.040  -1.349  -1.108  1.00  0.00     0.201 C 
BRANCH  26  27
HETATM   27  C7  UNL     1       5.547  -1.370  -1.188  1.00  0.00     0.190 C 
BRANCH  27  28
HETATM   28  O2  UNL     1       5.923  -1.599  -2.511  1.00  0.00    -0.399 OA
HETATM   29  H13 UNL     1       5.204  -1.971  -3.065  1.00  0.00     0.209 HD
ENDBRANCH  27  28
ENDBRANCH  26  27
ENDBRANCH  25  26
ENDBRANCH   7  25
TORSDOF 5
