REMARK  9 active torsions:
REMARK  status: ('A' for Active; 'I' for Inactive)
REMARK    1  A    between atoms: C2_2  and  N1_3 
REMARK    2  A    between atoms: C3_4  and  C4_5 
REMARK    3  A    between atoms: C5_9  and  N4_10 
REMARK    4  A    between atoms: C7_13  and  C8_14 
REMARK    5  A    between atoms: C9_15  and  C10_16 
REMARK    6  A    between atoms: C10_16  and  O2_19 
REMARK    7  A    between atoms: C14_22  and  O3_23 
REMARK    8  A    between atoms: O3_23  and  C15_24 
REMARK    9  A    between atoms: C15_24  and  C16_25 
ROOT
HETATM    1  N1  UNL     1      -0.438   1.344  -0.296  1.00  0.00    -0.326 N 
HETATM    2  C3  UNL     1      -1.684   1.808  -0.403  1.00  0.00     0.166 A 
HETATM    3  N5  UNL     1      -2.459   0.752  -0.119  1.00  0.00    -0.223 NA
HETATM    4  C6  UNL     1      -1.734  -0.312   0.153  1.00  0.00     0.126 A 
HETATM    5  C7  UNL     1      -2.205  -1.561   0.488  1.00  0.00     0.141 A 
HETATM    6  N6  UNL     1      -1.295  -2.546   0.741  1.00  0.00    -0.247 NA
HETATM    7  C13 UNL     1       0.040  -2.267   0.655  1.00  0.00     0.157 A 
HETATM    8  C14 UNL     1       0.453  -0.996   0.314  1.00  0.00     0.115 A 
HETATM    9  C21 UNL     1      -0.412   0.043   0.046  1.00  0.00     0.103 A 
ENDROOT
BRANCH   8  10
HETATM   10  O3  UNL     1       1.795  -0.661   0.215  1.00  0.00    -0.347 OA
BRANCH  10  11
HETATM   11  C15 UNL     1       2.747  -1.645   0.467  1.00  0.00     0.182 C 
BRANCH  11  12
HETATM   12  C16 UNL     1       4.171  -1.194   0.336  1.00  0.00     0.038 C 
HETATM   13  C17 UNL     1       4.501  -0.689  -1.041  1.00  0.00     0.010 C 
HETATM   14  C18 UNL     1       6.024  -0.618  -1.105  1.00  0.00     0.030 C 
HETATM   15  C19 UNL     1       6.621   0.120   0.057  1.00  0.00     0.269 C 
HETATM   16  N7  UNL     1       6.060  -0.200   1.333  1.00  0.00     0.083 N 
HETATM   17  C20 UNL     1       4.599  -0.178   1.342  1.00  0.00     0.276 C 
HETATM   18  H25 UNL     1       6.403  -1.171   1.588  1.00  0.00     0.315 HD
ENDBRANCH  11  12
ENDBRANCH  10  11
ENDBRANCH   8  10
BRANCH   1  19
HETATM   19  C2  UNL     1       0.782   2.042  -0.546  1.00  0.00     0.126 C 
HETATM   20  C1  UNL     1       1.279   2.779   0.673  1.00  0.00     0.027 C 
ENDBRANCH   1  19
BRANCH   5  21
HETATM   21  C8  UNL     1      -3.610  -1.848   0.577  1.00  0.00    -0.041 C 
HETATM   22  C9  UNL     1      -4.792  -2.109   0.654  1.00  0.00    -0.062 C 
BRANCH  22  23
HETATM   23  C10 UNL     1      -6.219  -2.441   0.729  1.00  0.00     0.114 C 
HETATM   24  C11 UNL     1      -6.918  -1.458  -0.208  1.00  0.00     0.060 C 
HETATM   25  C12 UNL     1      -6.519  -3.830   0.238  1.00  0.00     0.060 C 
BRANCH  23  26
HETATM   26  O2  UNL     1      -6.658  -2.311   2.034  1.00  0.00    -0.378 OA
HETATM   27  H14 UNL     1      -6.143  -1.715   2.600  1.00  0.00     0.211 HD
ENDBRANCH  23  26
ENDBRANCH  22  23
ENDBRANCH   5  21
BRANCH   2  28
HETATM   28  C4  UNL     1      -2.287   3.084  -0.726  1.00  0.00     0.179 A 
HETATM   29  N2  UNL     1      -3.613   3.277  -0.817  1.00  0.00    -0.097 NA
HETATM   30  O1  UNL     1      -3.928   4.475  -1.140  1.00  0.00    -0.104 OA
HETATM   31  N3  UNL     1      -2.836   5.190  -1.293  1.00  0.00    -0.085 NA
HETATM   32  C5  UNL     1      -1.832   4.333  -1.038  1.00  0.00     0.186 A 
BRANCH  32  33
HETATM   33  N4  UNL     1      -0.535   4.819  -1.099  1.00  0.00    -0.380 N 
HETATM   34  H6  UNL     1      -0.177   5.136  -0.176  1.00  0.00     0.158 HD
HETATM   35  H7  UNL     1       0.360   5.072  -1.566  1.00  0.00     0.158 HD
ENDBRANCH  32  33
ENDBRANCH   2  28
TORSDOF 9
