REMARK  0 active torsions:
REMARK  status: ('A' for Active; 'I' for Inactive)
ROOT
HETATM    1  C1  UNL     1      -3.424   0.448  -1.451  1.00  0.00     0.044 C 
HETATM    2  C2  UNL     1      -2.033   0.301  -0.701  1.00  0.00     0.140 C 
HETATM    3  C3  UNL     1      -1.762   1.601  -0.095  1.00  0.00     0.004 C 
HETATM    4  C4  UNL     1      -1.023   2.687   0.241  1.00  0.00     0.000 C 
HETATM    5  C5  UNL     1       0.321   3.241   0.096  1.00  0.00     0.024 C 
HETATM    6  C6  UNL     1       1.485   2.915  -0.447  1.00  0.00     0.144 C 
HETATM    7  O1  UNL     1       2.438   2.159  -1.142  1.00  0.00    -0.302 OA
HETATM    8  C7  UNL     1       3.378   1.408  -0.393  1.00  0.00     0.199 A 
HETATM    9  N1  UNL     1       4.712   1.584  -0.168  1.00  0.00    -0.214 NA
HETATM   10  C8  UNL     1       5.356   0.695   0.603  1.00  0.00     0.258 A 
HETATM   11  N2  UNL     1       4.783  -0.377   1.185  1.00  0.00    -0.161 NA
HETATM   12  N3  UNL     1       3.483  -0.587   0.991  1.00  0.00    -0.237 N 
HETATM   13  C9  UNL     1       2.647  -1.551   1.422  1.00  0.00     0.155 A 
HETATM   14  C10 UNL     1       1.399  -1.239   0.879  1.00  0.00     0.088 A 
HETATM   15  C11 UNL     1       1.547  -0.095   0.144  1.00  0.00     0.074 A 
HETATM   16  C12 UNL     1       2.860   0.298   0.227  1.00  0.00     0.114 A 
HETATM   17  O2  UNL     1       0.260  -1.808   0.956  1.00  0.00    -0.347 OA
HETATM   18  C13 UNL     1      -0.890  -2.382   1.035  1.00  0.00     0.207 C 
HETATM   19  C14 UNL     1      -1.963  -1.930   0.018  1.00  0.00     0.142 C 
HETATM   20  C15 UNL     1      -3.140  -2.855   0.202  1.00  0.00     0.042 C 
HETATM   21  O3  UNL     1      -2.319  -0.647   0.254  1.00  0.00    -0.375 OA
ENDROOT
TORSDOF 0
