REMARK  7 active torsions:
REMARK  status: ('A' for Active; 'I' for Inactive)
REMARK    1  A    between atoms: C3_3  and  O1_4 
REMARK    2  A    between atoms: O1_4  and  C4_5 
REMARK    3  A    between atoms: C4_5  and  C5_6 
REMARK    4  A    between atoms: C5_6  and  O2_8 
REMARK    5  A    between atoms: C9_14  and  O3_15 
REMARK    6  A    between atoms: O3_15  and  C10_16 
REMARK    7  A    between atoms: C11_17  and  C12_18 
ROOT
HETATM    1  C1  UNL     1      -2.052  -2.001  -0.529  1.00  0.00     0.054 C 
HETATM    2  C2  UNL     1      -2.328  -0.919   0.486  1.00  0.00     0.006 A 
HETATM    3  C3  UNL     1      -3.422  -0.497   1.263  1.00  0.00     0.094 A 
HETATM    4  C7  UNL     1      -2.950   0.578   1.982  1.00  0.00     0.156 A 
HETATM    5  N1  UNL     1      -1.664   0.812   1.681  1.00  0.00    -0.236 N 
HETATM    6  N2  UNL     1      -0.904   1.783   2.202  1.00  0.00    -0.161 NA
HETATM    7  C8  UNL     1       0.390   1.918   1.814  1.00  0.00     0.258 A 
HETATM    8  N3  UNL     1       0.854   1.045   0.902  1.00  0.00    -0.214 NA
HETATM    9  C9  UNL     1       0.077   0.076   0.390  1.00  0.00     0.200 A 
HETATM   10  C18 UNL     1      -1.242  -0.081   0.768  1.00  0.00     0.120 A 
ENDROOT
BRANCH   9  11
HETATM   11  O3  UNL     1       0.572  -0.817  -0.551  1.00  0.00    -0.302 OA
BRANCH  11  12
HETATM   12  C10 UNL     1       1.898  -0.644  -0.920  1.00  0.00     0.145 C 
HETATM   13  C11 UNL     1       2.955  -0.646  -0.129  1.00  0.00     0.038 C 
BRANCH  13  14
HETATM   14  C12 UNL     1       4.325  -0.459  -0.571  1.00  0.00    -0.009 C 
HETATM   15  C13 UNL     1       5.417  -0.452   0.170  1.00  0.00     0.097 C 
HETATM   16  N4  UNL     1       6.513  -0.235  -0.708  1.00  0.00    -0.389 N 
HETATM   17  C14 UNL     1       7.835   0.144  -0.248  1.00  0.00     0.149 C 
HETATM   18  C15 UNL     1       6.119  -0.446  -2.094  1.00  0.00     0.163 C 
HETATM   19  C16 UNL     1       4.650  -0.247  -1.975  1.00  0.00    -0.002 C 
HETATM   20  C17 UNL     1       3.961   0.060  -3.057  1.00  0.00     0.198 C 
HETATM   21  F1  UNL     1       4.429   0.223  -4.313  1.00  0.00    -0.219 F 
ENDBRANCH  13  14
ENDBRANCH  11  12
ENDBRANCH   9  11
BRANCH   3  22
HETATM   22  O1  UNL     1      -4.494  -1.284   1.018  1.00  0.00    -0.347 OA
BRANCH  22  23
HETATM   23  C4  UNL     1      -5.777  -1.303   1.491  1.00  0.00     0.207 C 
BRANCH  23  24
HETATM   24  C5  UNL     1      -6.634  -0.108   1.245  1.00  0.00     0.138 C 
HETATM   25  C6  UNL     1      -6.820   0.006  -0.271  1.00  0.00     0.041 C 
BRANCH  24  26
HETATM   26  O2  UNL     1      -6.198   1.075   1.769  1.00  0.00    -0.394 OA
HETATM   27  H10 UNL     1      -6.476   1.792   1.128  1.00  0.00     0.210 HD
ENDBRANCH  24  26
ENDBRANCH  23  24
ENDBRANCH  22  23
ENDBRANCH   3  22
TORSDOF 7
