REMARK  7 active torsions:
REMARK  status: ('A' for Active; 'I' for Inactive)
REMARK    1  A    between atoms: C2_2  and  N1_3 
REMARK    2  A    between atoms: C3_4  and  C4_5 
REMARK    3  A    between atoms: C8_9  and  O1_10 
REMARK    4  A    between atoms: O1_10  and  C9_11 
REMARK    5  A    between atoms: C13_18  and  O2_19 
REMARK    6  A    between atoms: O2_19  and  C14_20 
REMARK    7  A    between atoms: C14_20  and  C15_21 
ROOT
HETATM    1  C9  UNL     1      -0.604  -1.759  -0.611  1.00  0.00     0.175 A 
HETATM    2  N2  UNL     1      -0.407  -2.918  -0.133  1.00  0.00    -0.218 NA
HETATM    3  C10 UNL     1      -1.213  -4.058  -0.515  1.00  0.00     0.257 A 
HETATM    4  N3  UNL     1      -2.187  -3.893  -1.378  1.00  0.00    -0.165 NA
HETATM    5  N4  UNL     1      -2.457  -2.634  -1.923  1.00  0.00    -0.265 N 
HETATM    6  C11 UNL     1      -3.440  -2.059  -2.812  1.00  0.00     0.112 C 
HETATM    7  C12 UNL     1      -3.637  -0.792  -2.386  1.00  0.00     0.026 C 
HETATM    8  C13 UNL     1      -2.747  -0.545  -1.177  1.00  0.00     0.178 C 
HETATM    9  C18 UNL     1      -1.628  -1.466  -1.582  1.00  0.00     0.219 A 
ENDROOT
BRANCH   1  10
HETATM   10  O1  UNL     1       0.285  -0.877  -0.079  1.00  0.00    -0.290 OA
BRANCH  10  11
HETATM   11  C8  UNL     1       1.626  -1.007   0.129  1.00  0.00     0.117 A 
HETATM   12  C7  UNL     1       2.392  -2.113  -0.174  1.00  0.00     0.040 A 
HETATM   13  C6  UNL     1       3.748  -2.247   0.035  1.00  0.00     0.004 A 
HETATM   14  C5  UNL     1       4.404  -1.174   0.601  1.00  0.00     0.015 A 
HETATM   15  C4  UNL     1       3.669  -0.028   0.926  1.00  0.00     0.007 A 
HETATM   16  C19 UNL     1       2.311   0.051   0.694  1.00  0.00     0.160 A 
HETATM   17  F1  UNL     1       1.607   1.186   1.021  1.00  0.00    -0.202 F 
BRANCH  15  18
HETATM   18  C3  UNL     1       4.280   1.155   1.522  1.00  0.00     0.038 C 
HETATM   19  C2  UNL     1       5.458   1.705   1.286  1.00  0.00    -0.001 C 
HETATM   20  C1  UNL     1       6.268   2.841   1.730  1.00  0.00     0.067 C 
BRANCH  19  21
HETATM   21  N1  UNL     1       6.194   0.992   0.287  1.00  0.00    -0.403 N 
HETATM   22  H4  UNL     1       6.215   0.742  -0.747  1.00  0.00     0.156 HD
HETATM   23  H5  UNL     1       6.790   0.442  -0.392  1.00  0.00     0.156 HD
ENDBRANCH  19  21
ENDBRANCH  15  18
ENDBRANCH  10  11
ENDBRANCH   1  10
BRANCH   8  24
HETATM   24  O2  UNL     1      -2.394   0.764  -1.035  1.00  0.00    -0.379 OA
BRANCH  24  25
HETATM   25  C14 UNL     1      -2.752   1.352   0.171  1.00  0.00     0.172 C 
BRANCH  25  26
HETATM   26  C15 UNL     1      -4.251   1.358   0.388  1.00  0.00     0.001 C 
HETATM   27  C16 UNL     1      -4.957   2.129  -0.711  1.00  0.00     0.011 C 
HETATM   28  C17 UNL     1      -4.621   1.946   1.726  1.00  0.00     0.011 C 
ENDBRANCH  25  26
ENDBRANCH  24  25
ENDBRANCH   8  24
TORSDOF 7
