REMARK  9 active torsions:
REMARK  status: ('A' for Active; 'I' for Inactive)
REMARK    1  A    between atoms: C2_2  and  N1_3 
REMARK    2  A    between atoms: C3_4  and  C4_5 
REMARK    3  A    between atoms: C5_8  and  N4_9 
REMARK    4  A    between atoms: C7_12  and  C8_13 
REMARK    5  A    between atoms: C9_14  and  C10_15 
REMARK    6  A    between atoms: C10_15  and  O1_18 
REMARK    7  A    between atoms: C14_21  and  O2_22 
REMARK    8  A    between atoms: O2_22  and  C15_23 
REMARK    9  A    between atoms: C15_23  and  C16_24 
ROOT
HETATM    1  N1  UNL     1       0.531   1.791  -0.812  1.00  0.00    -0.326 N 
HETATM    2  C3  UNL     1       1.827   1.982  -1.111  1.00  0.00     0.166 A 
HETATM    3  N5  UNL     1       2.507   0.920  -0.586  1.00  0.00    -0.223 NA
HETATM    4  C6  UNL     1       1.609   0.113   0.017  1.00  0.00     0.126 A 
HETATM    5  C7  UNL     1       1.796  -1.058   0.677  1.00  0.00     0.141 A 
HETATM    6  N6  UNL     1       0.720  -1.705   1.213  1.00  0.00    -0.247 NA
HETATM    7  C13 UNL     1      -0.514  -1.179   1.083  1.00  0.00     0.157 A 
HETATM    8  C14 UNL     1      -0.799  -0.002   0.433  1.00  0.00     0.115 A 
HETATM    9  C21 UNL     1       0.320   0.648  -0.111  1.00  0.00     0.103 A 
ENDROOT
BRANCH   8  10
HETATM   10  O2  UNL     1      -1.914   0.655   0.210  1.00  0.00    -0.347 OA
BRANCH  10  11
HETATM   11  C15 UNL     1      -3.246   0.658   0.393  1.00  0.00     0.182 C 
BRANCH  11  12
HETATM   12  C16 UNL     1      -4.091  -0.423  -0.188  1.00  0.00     0.038 C 
HETATM   13  C17 UNL     1      -5.545  -0.086   0.209  1.00  0.00     0.010 C 
HETATM   14  C18 UNL     1      -6.427  -0.893  -0.714  1.00  0.00     0.030 C 
HETATM   15  C19 UNL     1      -5.751  -2.183  -1.066  1.00  0.00     0.269 C 
HETATM   16  N7  UNL     1      -4.974  -2.689   0.050  1.00  0.00     0.083 N 
HETATM   17  C20 UNL     1      -3.859  -1.801   0.347  1.00  0.00     0.276 C 
HETATM   18  H25 UNL     1      -5.550  -2.938   0.857  1.00  0.00     0.315 HD
ENDBRANCH  11  12
ENDBRANCH  10  11
ENDBRANCH   8  10
BRANCH   1  19
HETATM   19  C2  UNL     1      -0.478   2.737  -1.220  1.00  0.00     0.126 C 
HETATM   20  C1  UNL     1      -0.720   3.808  -0.192  1.00  0.00     0.027 C 
ENDBRANCH   1  19
BRANCH   5  21
HETATM   21  C8  UNL     1       3.065  -1.692   0.866  1.00  0.00    -0.041 C 
HETATM   22  C9  UNL     1       4.143  -2.211   1.015  1.00  0.00    -0.062 C 
BRANCH  22  23
HETATM   23  C10 UNL     1       5.468  -2.829   1.179  1.00  0.00     0.114 C 
HETATM   24  C11 UNL     1       6.470  -1.870   0.556  1.00  0.00     0.060 C 
HETATM   25  C12 UNL     1       5.586  -4.125   0.400  1.00  0.00     0.060 C 
BRANCH  23  26
HETATM   26  O1  UNL     1       5.718  -3.037   2.516  1.00  0.00    -0.378 OA
HETATM   27  H14 UNL     1       6.371  -3.763   2.669  1.00  0.00     0.211 HD
ENDBRANCH  23  26
ENDBRANCH  22  23
ENDBRANCH   5  21
BRANCH   2  28
HETATM   28  C4  UNL     1       2.420   3.091  -1.847  1.00  0.00     0.172 A 
HETATM   29  N2  UNL     1       2.734   3.557  -3.027  1.00  0.00    -0.140 NA
HETATM   30  N3  UNL     1       3.269   4.734  -2.538  1.00  0.00    -0.129 NA
HETATM   31  C5  UNL     1       2.992   4.347  -1.341  1.00  0.00     0.178 A 
BRANCH  31  32
HETATM   32  N4  UNL     1       3.193   4.956  -0.066  1.00  0.00    -0.381 N 
HETATM   33  H6  UNL     1       2.610   5.773   0.238  1.00  0.00     0.157 HD
HETATM   34  H7  UNL     1       3.865   4.741   0.709  1.00  0.00     0.157 HD
ENDBRANCH  31  32
ENDBRANCH   2  28
TORSDOF 9
