REMARK  10 active torsions:
REMARK  status: ('A' for Active; 'I' for Inactive)
REMARK    1  A    between atoms: C2_2  and  C3_3 
REMARK    2  A    between atoms: C2_2  and  N3_19 
REMARK    3  A    between atoms: C3_3  and  C4_4 
REMARK    4  A    between atoms: C4_4  and  C5_5 
REMARK    5  A    between atoms: C6_6  and  C7_7 
REMARK    6  A    between atoms: C7_7  and  C8_8 
REMARK    7  A    between atoms: C8_8  and  C10_10 
REMARK    8  A    between atoms: C11_12  and  C12_13 
REMARK    9  A    between atoms: N3_19  and  O1_20 
REMARK   10  A    between atoms: O1_20  and  O2_21 
ROOT
HETATM    1  C5  UNL     1       0.111  -1.647  -1.287  1.00  0.00     0.060 A 
HETATM    2  C6  UNL     1       0.952  -1.717  -0.198  1.00  0.00     0.081 A 
HETATM    3  N1  UNL     1       1.359  -3.020  -0.178  1.00  0.00    -0.242 NA
HETATM    4  C13 UNL     1       0.785  -3.650  -1.190  1.00  0.00     0.210 A 
HETATM    5  N2  UNL     1       0.007  -2.842  -1.899  1.00  0.00    -0.344 N 
HETATM    6  C14 UNL     1      -0.745  -3.272  -3.066  1.00  0.00     0.157 C 
ENDROOT
BRANCH   1   7
HETATM    7  C4  UNL     1      -0.495  -0.568  -1.725  1.00  0.00     0.007 C 
BRANCH   7   8
HETATM    8  C3  UNL     1      -0.850   0.835  -1.726  1.00  0.00     0.051 C 
BRANCH   8   9
HETATM    9  C2  UNL     1      -2.311   1.125  -1.393  1.00  0.00     0.085 C 
HETATM   10  C1  UNL     1      -2.686   0.621  -0.033  1.00  0.00     0.029 C 
BRANCH   9  11
HETATM   11  N3  UNL     1      -2.508   2.559  -1.387  1.00  0.00    -0.169 NA
HETATM   12  H20 UNL     1      -1.863   2.955  -0.674  1.00  0.00     0.157 HD
BRANCH  11  13
HETATM   13  O1  UNL     1      -2.204   3.147  -2.567  1.00  0.00    -0.144 OA
BRANCH  13  14
HETATM   14  O2  UNL     1      -1.823   4.385  -2.294  1.00  0.00    -0.232 OA
HETATM   15  H21 UNL     1      -2.263   4.784  -1.522  1.00  0.00     0.255 HD
ENDBRANCH  13  14
ENDBRANCH  11  13
ENDBRANCH   9  11
ENDBRANCH   8   9
ENDBRANCH   7   8
ENDBRANCH   1   7
BRANCH   2  16
HETATM   16  C7  UNL     1       1.349  -0.900   0.721  1.00  0.00     0.017 C 
BRANCH  16  17
HETATM   17  C8  UNL     1       1.216   0.465   1.201  1.00  0.00     0.046 C 
HETATM   18  C9  UNL     1       2.138   1.467   0.579  1.00  0.00     0.020 C 
BRANCH  17  19
HETATM   19  C10 UNL     1       1.420   0.608   2.698  1.00  0.00    -0.005 C 
HETATM   20 BR1  UNL     1       0.291  -0.630   3.604  1.00  0.00    -0.055 Br
HETATM   21  C11 UNL     1       2.198   1.394   3.432  1.00  0.00     0.019 C 
BRANCH  21  22
HETATM   22  C12 UNL     1       2.290   1.419   4.927  1.00  0.00     0.250 C 
HETATM   23  F1  UNL     1       1.429   0.480   5.488  1.00  0.00    -0.251 F 
ENDBRANCH  21  22
ENDBRANCH  17  19
ENDBRANCH  16  17
ENDBRANCH   2  16
TORSDOF 10
