REMARK  5 active torsions:
REMARK  status: ('A' for Active; 'I' for Inactive)
REMARK    1  A    between atoms: C5_8  and  C6_9 
REMARK    2  A    between atoms: C6_9  and  C14_20 
REMARK    3  A    between atoms: C7_10  and  N3_11 
REMARK    4  A    between atoms: N3_11  and  C8_12 
REMARK    5  A    between atoms: C14_20  and  C15_21 
ROOT
HETATM    1  C6  UNL     1       0.024   1.247   0.125  1.00  0.00    -0.038 C 
HETATM    2  C7  UNL     1       1.290   0.926   0.415  1.00  0.00     0.095 C 
ENDROOT
BRANCH   1   3
HETATM    3  C5  UNL     1      -0.972   0.218   0.316  1.00  0.00     0.038 C 
HETATM    4  C4  UNL     1      -2.206  -0.176   0.233  1.00  0.00     0.068 A 
HETATM    5  N1  UNL     1      -3.367   0.539  -0.243  1.00  0.00    -0.346 N 
HETATM    6  C3  UNL     1      -2.724  -1.528   0.651  1.00  0.00     0.343 A 
HETATM    7  C1  UNL     1      -3.474   1.868  -0.778  1.00  0.00     0.157 C 
HETATM    8  C2  UNL     1      -4.484  -0.310  -0.113  1.00  0.00     0.207 A 
HETATM    9  N2  UNL     1      -4.117  -1.422   0.373  1.00  0.00    -0.242 NA
HETATM   10  F1  UNL     1      -2.137  -2.542  -0.083  1.00  0.00    -0.218 F 
ENDBRANCH   1   3
BRANCH   1  11
HETATM   11  C14 UNL     1      -0.056   2.658  -0.339  1.00  0.00     0.076 C 
BRANCH  11  12
HETATM   12  C15 UNL     1      -0.875   3.514   0.565  1.00  0.00     0.395 C 
HETATM   13  O1  UNL     1      -1.433   3.151   1.607  1.00  0.00    -0.429 OA
ENDBRANCH  11  12
ENDBRANCH   1  11
BRANCH   2  14
HETATM   14  N3  UNL     1       1.819  -0.310   0.895  1.00  0.00    -0.364 N 
HETATM   15  H8  UNL     1       1.455  -0.353   1.876  1.00  0.00     0.165 HD
BRANCH  14  16
HETATM   16  C8  UNL     1       2.628  -1.313   0.324  1.00  0.00     0.053 A 
HETATM   17  C9  UNL     1       2.971  -2.414   1.081  1.00  0.00     0.032 A 
HETATM   18  C10 UNL     1       3.758  -3.346   0.462  1.00  0.00     0.021 A 
HETATM   19  C11 UNL     1       4.224  -3.252  -0.852  1.00  0.00     0.012 A 
HETATM   20 BR1  UNL     1       5.313  -4.591  -1.635  1.00  0.00    -0.051 Br
HETATM   21  C12 UNL     1       3.842  -2.128  -1.544  1.00  0.00     0.045 A 
HETATM   22  C13 UNL     1       3.045  -1.141  -0.982  1.00  0.00     0.062 A 
HETATM   23 CL1  UNL     1       2.582   0.274  -1.899  1.00  0.00    -0.082 Cl
ENDBRANCH  14  16
ENDBRANCH   2  14
TORSDOF 5
