REMARK  4 active torsions:
REMARK  status: ('A' for Active; 'I' for Inactive)
REMARK    1  A    between atoms: C2_2  and  N1_3 
REMARK    2  A    between atoms: C5_6  and  C6_7 
REMARK    3  A    between atoms: C7_8  and  C8_9 
REMARK    4  A    between atoms: C8_9  and  O1_12 
ROOT
HETATM    1  N1  UNL     1      -1.419  -1.050   0.305  1.00  0.00    -0.349 N 
HETATM    2  C3  UNL     1      -0.430   0.014   0.386  1.00  0.00     0.070 A 
HETATM    3  C4  UNL     1       0.842  -0.351   0.121  1.00  0.00     0.073 A 
HETATM    4  C5  UNL     1       1.794   0.622   0.196  1.00  0.00     0.112 A 
HETATM    5  N2  UNL     1       1.577   1.930   0.514  1.00  0.00    -0.249 NA
HETATM    6  C11 UNL     1       0.278   2.253   0.773  1.00  0.00     0.157 A 
HETATM    7  C12 UNL     1      -0.753   1.348   0.725  1.00  0.00     0.113 A 
HETATM    8  O2  UNL     1      -1.949   1.717   0.978  1.00  0.00    -0.347 OA
HETATM    9  C13 UNL     1      -3.199   2.110   1.249  1.00  0.00     0.182 C 
HETATM   10  C14 UNL     1      -4.322   1.388   0.551  1.00  0.00     0.038 C 
HETATM   11  C15 UNL     1      -3.835   1.367  -0.905  1.00  0.00     0.012 C 
HETATM   12  C16 UNL     1      -2.774   0.313  -0.844  1.00  0.00     0.058 C 
HETATM   13  C17 UNL     1      -2.739  -0.561   0.334  1.00  0.00     0.321 C 
HETATM   14  N3  UNL     1      -3.990  -1.103   0.422  1.00  0.00     0.106 N 
HETATM   15  C18 UNL     1      -4.783   0.063   0.932  1.00  0.00     0.278 C 
HETATM   16  H23 UNL     1      -4.419  -1.323  -0.485  1.00  0.00     0.318 HD
ENDROOT
BRANCH   4  17
HETATM   17  C6  UNL     1       3.164   0.290  -0.074  1.00  0.00    -0.044 C 
HETATM   18  C7  UNL     1       4.327   0.028  -0.299  1.00  0.00    -0.062 C 
BRANCH  18  19
HETATM   19  C8  UNL     1       5.737  -0.264  -0.562  1.00  0.00     0.114 C 
HETATM   20  C9  UNL     1       6.444  -0.689   0.731  1.00  0.00     0.060 C 
HETATM   21  C10 UNL     1       6.493   0.958  -1.064  1.00  0.00     0.060 C 
BRANCH  19  22
HETATM   22  O1  UNL     1       5.791  -1.241  -1.535  1.00  0.00    -0.378 OA
HETATM   23  H13 UNL     1       6.253  -2.025  -1.148  1.00  0.00     0.211 HD
ENDBRANCH  19  22
ENDBRANCH  18  19
ENDBRANCH   4  17
BRANCH   1  24
HETATM   24  C2  UNL     1      -1.285  -2.444   0.211  1.00  0.00     0.121 C 
HETATM   25  C1  UNL     1      -1.766  -2.883  -1.157  1.00  0.00     0.026 C 
ENDBRANCH   1  24
TORSDOF 4
