REMARK  4 active torsions:
REMARK  status: ('A' for Active; 'I' for Inactive)
REMARK    1  A    between atoms: C3_3  and  C4_4 
REMARK    2  A    between atoms: C5_5  and  N1_6 
REMARK    3  A    between atoms: N1_6  and  C6_7 
REMARK    4  A    between atoms: C6_7  and  N2_8 
ROOT
HETATM    1  C1  UNL     1       8.746   0.999  -1.087  1.00  0.00     0.112 C 
HETATM    2  C2  UNL     1       7.418   0.420  -0.817  1.00  0.00    -0.106 C 
HETATM    3  C3  UNL     1       6.328  -0.061  -0.603  1.00  0.00    -0.078 C 
ENDROOT
BRANCH   3   4
HETATM    4  C4  UNL     1       5.041  -0.604  -0.362  1.00  0.00     0.081 C 
HETATM    5  C5  UNL     1       4.140   0.072   0.329  1.00  0.00     0.093 C 
BRANCH   5   6
HETATM    6  N1  UNL     1       2.802  -0.273   0.689  1.00  0.00    -0.382 N 
HETATM    7  H6  UNL     1       2.725  -0.654   1.655  1.00  0.00     0.160 HD
BRANCH   6   8
HETATM    8  C6  UNL     1       1.848  -0.022  -0.362  1.00  0.00     0.253 C 
BRANCH   8   9
HETATM    9  N2  UNL     1       0.509  -0.410   0.120  1.00  0.00    -0.310 N 
HETATM   10  C7  UNL     1      -0.823  -0.311  -0.523  1.00  0.00     0.082 A 
HETATM   11  C8  UNL     1      -2.030  -0.378  -0.993  1.00  0.00     0.035 C 
HETATM   12  C15 UNL     1      -0.655  -0.844   0.762  1.00  0.00     0.158 A 
HETATM   13  C9  UNL     1      -2.998   0.324  -1.894  1.00  0.00     0.223 C 
HETATM   14  O1  UNL     1      -4.115   0.654  -1.229  1.00  0.00    -0.302 OA
HETATM   15  N3  UNL     1      -4.411   1.734  -0.586  1.00  0.00    -0.202 NA
HETATM   16  C10 UNL     1      -5.783   1.499   0.028  1.00  0.00     0.144 C 
HETATM   17  H12 UNL     1      -3.732   1.937   0.171  1.00  0.00     0.154 HD
HETATM   18  C11 UNL     1      -5.615   0.312   0.927  1.00  0.00    -0.010 C 
HETATM   19  C12 UNL     1      -4.723  -0.494   1.449  1.00  0.00    -0.001 C 
HETATM   20  C13 UNL     1      -3.674  -1.338   1.987  1.00  0.00     0.019 C 
HETATM   21  C14 UNL     1      -2.400  -1.658   2.125  1.00  0.00     0.119 C 
HETATM   22  N4  UNL     1      -1.082  -1.375   1.829  1.00  0.00    -0.241 NA
ENDBRANCH   8   9
ENDBRANCH   6   8
ENDBRANCH   5   6
ENDBRANCH   3   4
TORSDOF 4
