REMARK  6 active torsions:
REMARK  status: ('A' for Active; 'I' for Inactive)
REMARK    1  A    between atoms: O1_2  and  C2_3 
REMARK    2  A    between atoms: C11_12  and  O2_13 
REMARK    3  A    between atoms: O2_13  and  C12_14 
REMARK    4  A    between atoms: C12_14  and  C13_15 
REMARK    5  A    between atoms: C13_15  and  C14_16 
REMARK    6  A    between atoms: C14_16  and  N1_17 
ROOT
HETATM    1  C2  UNL     1      -2.353  -1.246   0.130  1.00  0.00     0.101 C 
HETATM    2  C3  UNL     1      -3.712  -1.233   0.149  1.00  0.00     0.047 C 
HETATM    3  C4  UNL     1      -4.020   0.212   0.200  1.00  0.00    -0.046 A 
HETATM    4  C5  UNL     1      -5.044   0.963   0.714  1.00  0.00    -0.013 A 
HETATM    5  C6  UNL     1      -4.268   2.168   0.222  1.00  0.00     0.021 A 
HETATM    6  C7  UNL     1      -5.157   3.045  -0.636  1.00  0.00     0.015 C 
HETATM    7  C8  UNL     1      -3.293   1.336  -0.394  1.00  0.00     0.010 A 
HETATM    8  C9  UNL     1      -3.580   1.276  -1.992  1.00  0.00     0.025 C 
HETATM    9  C10 UNL     1      -1.871   1.163  -0.234  1.00  0.00     0.027 C 
HETATM   10  C11 UNL     1      -1.436  -0.107  -0.011  1.00  0.00     0.099 C 
ENDROOT
BRANCH  10  11
HETATM   11  O2  UNL     1      -0.074  -0.117   0.051  1.00  0.00    -0.348 OA
BRANCH  11  12
HETATM   12  C12 UNL     1       0.745  -0.289   1.164  1.00  0.00     0.177 C 
BRANCH  12  13
HETATM   13  C13 UNL     1       2.188  -0.124   0.714  1.00  0.00     0.046 C 
BRANCH  13  14
HETATM   14  C14 UNL     1       2.483  -1.165  -0.325  1.00  0.00     0.119 C 
BRANCH  14  15
HETATM   15  N1  UNL     1       3.824  -1.109  -0.838  1.00  0.00    -0.408 N 
HETATM   16  C15 UNL     1       4.098   0.052  -1.624  1.00  0.00     0.143 C 
HETATM   17  C16 UNL     1       5.051   1.036  -1.041  1.00  0.00     0.187 C 
HETATM   18  O3  UNL     1       6.210   0.376  -0.587  1.00  0.00    -0.388 OA
HETATM   19  C17 UNL     1       5.810  -0.440   0.449  1.00  0.00     0.187 C 
HETATM   20  C18 UNL     1       4.856  -1.523   0.035  1.00  0.00     0.143 C 
ENDBRANCH  14  15
ENDBRANCH  13  14
ENDBRANCH  12  13
ENDBRANCH  11  12
ENDBRANCH  10  11
BRANCH   1  21
HETATM   21  O1  UNL     1      -1.587  -2.406   0.153  1.00  0.00    -0.353 OA
HETATM   22  C1  UNL     1      -1.597  -3.342   1.204  1.00  0.00     0.210 C 
ENDBRANCH   1  21
TORSDOF 6
