REMARK  3 active torsions:
REMARK  status: ('A' for Active; 'I' for Inactive)
REMARK    1  A    between atoms: C2_3  and  C3_4 
REMARK    2  A    between atoms: C3_4  and  C4_5 
REMARK    3  A    between atoms: C3_4  and  N2_10 
ROOT
HETATM    1  N1  UNL     1      -4.680   3.233  -0.284  1.00  0.00    -0.197 NA
HETATM    2  C1  UNL     1      -3.613   2.803  -0.444  1.00  0.00     0.061 C 
HETATM    3  C2  UNL     1      -2.270   2.287  -0.651  1.00  0.00     0.151 C 
ENDROOT
BRANCH   3   4
HETATM    4  C3  UNL     1      -1.787   1.397   0.435  1.00  0.00     0.126 C 
BRANCH   4   5
HETATM    5  C4  UNL     1      -2.529   0.156   0.709  1.00  0.00     0.011 C 
HETATM    6  C5  UNL     1      -3.959   0.258   1.104  1.00  0.00     0.007 C 
HETATM    7  C6  UNL     1      -4.283  -1.247   1.265  1.00  0.00     0.000 C 
HETATM    8  C7  UNL     1      -3.740  -1.739  -0.081  1.00  0.00     0.000 C 
HETATM    9  C8  UNL     1      -2.602  -0.812  -0.455  1.00  0.00     0.007 C 
ENDBRANCH   4   5
BRANCH   4  10
HETATM   10  N2  UNL     1      -0.387   1.006   0.189  1.00  0.00    -0.272 N 
HETATM   11  C9  UNL     1       0.470   1.531  -0.698  1.00  0.00     0.123 A 
HETATM   12  C10 UNL     1       1.704   0.865  -0.607  1.00  0.00     0.007 A 
HETATM   13  C11 UNL     1       1.509  -0.075   0.386  1.00  0.00     0.152 A 
HETATM   14  C16 UNL     1       2.845   1.230  -1.474  1.00  0.00     0.048 C 
HETATM   15  N3  UNL     1       0.248   0.053   0.824  1.00  0.00    -0.154 NA
HETATM   16  N4  UNL     1       2.553  -0.945   0.760  1.00  0.00    -0.357 N 
HETATM   17  C12 UNL     1       3.017  -2.215   0.325  1.00  0.00     0.244 C 
HETATM   18  H14 UNL     1       3.021  -0.426   1.566  1.00  0.00     0.162 HD
HETATM   19  N5  UNL     1       4.324  -2.427   0.957  1.00  0.00    -0.383 N 
HETATM   20  C13 UNL     1       4.688  -1.094   0.623  1.00  0.00     0.080 C 
HETATM   21  H17 UNL     1       4.864  -3.149   1.445  1.00  0.00     0.160 HD
HETATM   22  C14 UNL     1       4.580  -0.097  -0.239  1.00  0.00    -0.010 C 
HETATM   23  C15 UNL     1       3.917   0.188  -1.505  1.00  0.00     0.033 C 
ENDBRANCH   4  10
ENDBRANCH   3   4
TORSDOF 3
