REMARK  5 active torsions:
REMARK  status: ('A' for Active; 'I' for Inactive)
REMARK    1  A    between atoms: N2_5  and  C4_6 
REMARK    2  A    between atoms: C11_14  and  C12_15 
REMARK    3  A    between atoms: C18_22  and  N4_23 
REMARK    4  A    between atoms: N4_23  and  O1_24 
REMARK    5  A    between atoms: O1_24  and  O2_25 
ROOT
HETATM    1  C4  UNL     1       1.935   0.422   0.508  1.00  0.00     0.032 A 
HETATM    2  C5  UNL     1       2.180   1.732   0.855  1.00  0.00     0.032 A 
HETATM    3  C6  UNL     1       1.177   2.705   0.949  1.00  0.00     0.036 A 
HETATM    4  C7  UNL     1      -0.126   2.354   0.685  1.00  0.00     0.083 A 
HETATM    5  C8  UNL     1      -0.369   1.052   0.341  1.00  0.00     0.063 A 
HETATM    6  C9  UNL     1       0.621   0.101   0.249  1.00  0.00     0.061 A 
HETATM    7  N3  UNL     1      -1.635   0.492   0.052  1.00  0.00    -0.356 N 
HETATM    8  C10 UNL     1      -2.942   1.042   0.218  1.00  0.00     0.035 C 
HETATM    9  C11 UNL     1      -3.918   0.159   0.231  1.00  0.00     0.041 C 
HETATM   10  C18 UNL     1      -3.362   2.430   0.389  1.00  0.00     0.176 C 
HETATM   11  C19 UNL     1      -2.310   3.380   0.686  1.00  0.00     0.118 C 
HETATM   12  N5  UNL     1      -1.015   3.445   0.823  1.00  0.00    -0.261 NA
HETATM   13  H11 UNL     1      -1.661  -0.466  -0.349  1.00  0.00     0.166 HD
ENDROOT
BRANCH   9  14
HETATM   14  C12 UNL     1      -4.047  -1.270   0.121  1.00  0.00     0.004 A 
HETATM   15  C13 UNL     1      -3.207  -2.070   0.889  1.00  0.00     0.014 A 
HETATM   16  C14 UNL     1      -3.219  -3.453   0.870  1.00  0.00     0.001 A 
HETATM   17  C15 UNL     1      -4.148  -4.060   0.011  1.00  0.00     0.003 A 
HETATM   18  C16 UNL     1      -4.979  -3.291  -0.749  1.00  0.00     0.043 A 
HETATM   19  C17 UNL     1      -4.955  -1.894  -0.719  1.00  0.00     0.126 A 
HETATM   20  F1  UNL     1      -5.779  -1.112  -1.479  1.00  0.00    -0.205 F 
ENDBRANCH   9  14
BRANCH  10  21
HETATM   21  N4  UNL     1      -4.087   2.898  -0.792  1.00  0.00    -0.158 NA
HETATM   22  H18 UNL     1      -4.187   3.932  -0.654  1.00  0.00     0.158 HD
BRANCH  21  23
HETATM   23  O1  UNL     1      -3.250   2.799  -1.876  1.00  0.00    -0.143 OA
BRANCH  23  24
HETATM   24  O2  UNL     1      -3.959   2.948  -2.983  1.00  0.00    -0.232 OA
HETATM   25  H19 UNL     1      -4.918   3.090  -2.783  1.00  0.00     0.255 HD
ENDBRANCH  23  24
ENDBRANCH  21  23
ENDBRANCH  10  21
BRANCH   1  26
HETATM   26  N2  UNL     1       3.027  -0.488   0.455  1.00  0.00    -0.378 N 
HETATM   27  C3  UNL     1       3.993  -0.530   1.520  1.00  0.00     0.142 C 
HETATM   28  C2  UNL     1       5.353  -0.962   1.079  1.00  0.00     0.136 C 
HETATM   29  N1  UNL     1       5.532  -1.044  -0.326  1.00  0.00    -0.414 N 
HETATM   30  C1  UNL     1       6.033   0.138  -0.946  1.00  0.00     0.143 C 
HETATM   31  C21 UNL     1       4.522  -1.756  -1.019  1.00  0.00     0.136 C 
HETATM   32  C20 UNL     1       3.101  -1.330  -0.733  1.00  0.00     0.142 C 
ENDBRANCH   1  26
TORSDOF 5
