REMARK  1 active torsions:
REMARK  status: ('A' for Active; 'I' for Inactive)
REMARK    1  A    between atoms: N4_13  and  C10_14 
ROOT
HETATM    1  C1  UNL     1       5.494   0.184  -0.186  1.00  0.00     0.018 C 
HETATM    2  C2  UNL     1       4.057   0.573  -0.437  1.00  0.00     0.029 C 
HETATM    3  C3  UNL     1       3.591   0.054  -1.752  1.00  0.00    -0.020 C 
HETATM    4  C4  UNL     1       2.276   0.180  -1.970  1.00  0.00     0.001 C 
HETATM    5  C5  UNL     1       1.528   0.828  -0.833  1.00  0.00     0.161 A 
HETATM    6  N1  UNL     1       0.158   1.030  -1.115  1.00  0.00    -0.383 N 
HETATM    7  C6  UNL     1      -1.053   0.660  -0.470  1.00  0.00     0.120 A 
HETATM    8  C7  UNL     1      -1.204  -0.008   0.651  1.00  0.00     0.121 A 
HETATM    9  C8  UNL     1      -0.213  -0.548   1.535  1.00  0.00     0.201 A 
HETATM   10  N2  UNL     1      -0.583  -1.165   2.603  1.00  0.00    -0.214 NA
HETATM   11  C9  UNL     1      -1.982  -1.288   2.865  1.00  0.00     0.258 A 
HETATM   12  N3  UNL     1      -2.904  -0.817   2.094  1.00  0.00    -0.164 NA
HETATM   13  N4  UNL     1      -2.600  -0.120   0.893  1.00  0.00    -0.254 N 
HETATM   14  O1  UNL     1       1.162  -0.507   1.414  1.00  0.00    -0.292 OA
HETATM   15  C14 UNL     1       1.878   0.101   0.383  1.00  0.00     0.079 A 
HETATM   16  C15 UNL     1       3.182  -0.037   0.600  1.00  0.00     0.017 C 
HETATM   17  H8  UNL     1       0.088   1.577  -2.006  1.00  0.00     0.160 HD
ENDROOT
BRANCH  13  18
HETATM   18  C10 UNL     1      -3.703   0.358   0.066  1.00  0.00     0.139 A 
HETATM   19  C11 UNL     1      -3.894  -0.263  -1.228  1.00  0.00     0.015 A 
HETATM   20  C12 UNL     1      -5.017  -0.817  -0.900  1.00  0.00    -0.011 A 
HETATM   21 BR1  UNL     1      -6.443  -1.935  -1.546  1.00  0.00    -0.056 Br
HETATM   22  C13 UNL     1      -4.991  -0.275   0.451  1.00  0.00     0.077 A 
ENDBRANCH  13  18
TORSDOF 1
