REMARK  2 active torsions:
REMARK  status: ('A' for Active; 'I' for Inactive)
REMARK    1  A    between atoms: C2_3  and  C3_4 
REMARK    2  A    between atoms: C12_13  and  N2_14 
ROOT
HETATM    1  N1  UNL     1      -4.897   0.764  -1.543  1.00  0.00    -0.197 NA
HETATM    2  C1  UNL     1      -3.798   1.093  -1.278  1.00  0.00     0.061 C 
HETATM    3  C2  UNL     1      -2.433   1.527  -0.956  1.00  0.00     0.151 C 
ENDROOT
BRANCH   3   4
HETATM    4  C3  UNL     1      -1.998   0.896   0.305  1.00  0.00     0.127 C 
HETATM    5  C4  UNL     1      -1.929  -0.588   0.363  1.00  0.00     0.019 C 
HETATM    6  C5  UNL     1      -3.003  -1.332  -0.341  1.00  0.00     0.007 C 
HETATM    7  C8  UNL     1      -0.701  -1.267  -0.212  1.00  0.00     0.014 C 
HETATM    8  C6  UNL     1      -2.570  -2.783  -0.059  1.00  0.00     0.001 C 
HETATM    9  C7  UNL     1      -1.049  -2.721  -0.011  1.00  0.00     0.009 C 
HETATM   10  C9  UNL     1       0.551  -0.957   0.537  1.00  0.00    -0.021 C 
HETATM   11  C10 UNL     1       1.540  -0.290  -0.010  1.00  0.00     0.014 C 
HETATM   12  C11 UNL     1       2.763   0.407  -0.327  1.00  0.00     0.039 A 
HETATM   13  C12 UNL     1       3.965   0.054  -0.858  1.00  0.00     0.135 A 
HETATM   14  C14 UNL     1       2.425   1.753   0.128  1.00  0.00     0.085 A 
HETATM   15  N3  UNL     1       4.899   1.025  -0.964  1.00  0.00    -0.224 NA
HETATM   16  C13 UNL     1       4.588   2.285  -0.540  1.00  0.00     0.236 A 
HETATM   17  N4  UNL     1       3.385   2.678  -0.001  1.00  0.00    -0.240 NA
HETATM   18  C15 UNL     1       1.078   1.917   0.721  1.00  0.00     0.030 A 
HETATM   19  C16 UNL     1       0.917   2.172   2.040  1.00  0.00     0.154 A 
HETATM   20  C17 UNL     1       0.119   1.516  -0.152  1.00  0.00     0.128 A 
HETATM   21  N5  UNL     1      -0.416   1.872   2.069  1.00  0.00    -0.184 NA
HETATM   22  N6  UNL     1      -0.785   1.512   0.827  1.00  0.00    -0.274 N 
BRANCH  13  23
HETATM   23  N2  UNL     1       3.799  -1.315  -1.141  1.00  0.00    -0.383 N 
HETATM   24  H14 UNL     1       3.566  -1.564  -2.131  1.00  0.00     0.157 HD
HETATM   25  H15 UNL     1       3.901  -2.062  -0.400  1.00  0.00     0.157 HD
ENDBRANCH  13  23
ENDBRANCH   3   4
TORSDOF 2
