REMARK  1 active torsions:
REMARK  status: ('A' for Active; 'I' for Inactive)
REMARK    1  A    between atoms: C2_3  and  C3_4 
ROOT
HETATM    1  N1  UNL     1       3.924   0.390   2.285  1.00  0.00    -0.197 NA
HETATM    2  C1  UNL     1       3.894  -0.102   1.239  1.00  0.00     0.061 C 
HETATM    3  C2  UNL     1       3.838  -0.741  -0.077  1.00  0.00     0.151 C 
ENDROOT
BRANCH   3   4
HETATM    4  C3  UNL     1       2.472  -0.859  -0.608  1.00  0.00     0.122 C 
HETATM    5  C4  UNL     1       1.573  -1.703   0.327  1.00  0.00     0.029 C 
HETATM    6  C5  UNL     1       0.194  -1.683  -0.212  1.00  0.00     0.008 C 
HETATM    7  C6  UNL     1      -0.762  -2.380   0.772  1.00  0.00     0.059 C 
HETATM    8  C7  UNL     1      -2.143  -1.960   0.346  1.00  0.00     0.038 A 
HETATM    9  C8  UNL     1      -2.065  -0.565   0.577  1.00  0.00     0.058 A 
HETATM   10  N3  UNL     1      -3.341  -2.275  -0.151  1.00  0.00    -0.246 NA
HETATM   11  C9  UNL     1      -3.004   0.439   0.365  1.00  0.00     0.059 A 
HETATM   12  N2  UNL     1      -4.140  -0.030  -0.133  1.00  0.00    -0.242 NA
HETATM   13  C11 UNL     1      -2.756   1.871   0.649  1.00  0.00     0.028 C 
HETATM   14  C10 UNL     1      -4.286  -1.352  -0.376  1.00  0.00     0.233 A 
HETATM   15  C12 UNL     1      -1.686   2.654   0.418  1.00  0.00    -0.020 C 
HETATM   16  C13 UNL     1      -0.377   3.149   0.008  1.00  0.00     0.068 C 
HETATM   17  C14 UNL     1       0.470   2.138  -0.655  1.00  0.00    -0.018 A 
HETATM   18  C15 UNL     1       0.820   1.970  -1.995  1.00  0.00     0.147 A 
HETATM   19  C16 UNL     1       1.122   1.066  -0.094  1.00  0.00     0.121 A 
HETATM   20  N4  UNL     1       1.596   0.905  -2.190  1.00  0.00    -0.184 NA
HETATM   21  N5  UNL     1       1.789   0.329  -1.000  1.00  0.00    -0.275 N 
ENDBRANCH   3   4
TORSDOF 1
