REMARK  3 active torsions:
REMARK  status: ('A' for Active; 'I' for Inactive)
REMARK    1  A    between atoms: C2_3  and  C3_4 
REMARK    2  A    between atoms: C3_4  and  N2_5 
REMARK    3  A    between atoms: C15_20  and  N4_21 
ROOT
HETATM    1  N1  UNL     1      -4.463  -0.339   1.764  1.00  0.00    -0.197 NA
HETATM    2  C1  UNL     1      -3.646  -1.143   1.507  1.00  0.00     0.060 C 
HETATM    3  C2  UNL     1      -2.609  -2.132   1.191  1.00  0.00     0.144 C 
ENDROOT
BRANCH   3   4
HETATM    4  C3  UNL     1      -1.953  -1.843  -0.139  1.00  0.00     0.143 C 
BRANCH   4   5
HETATM    5  N2  UNL     1      -1.317  -0.558  -0.181  1.00  0.00    -0.344 N 
HETATM    6  C4  UNL     1      -0.075  -0.331   0.185  1.00  0.00     0.055 A 
HETATM    7  C5  UNL     1       0.497   0.954   0.070  1.00  0.00     0.047 A 
HETATM    8  C18 UNL     1       0.691  -1.445   0.678  1.00  0.00    -0.013 C 
HETATM    9  C6  UNL     1      -0.611   1.606  -0.456  1.00  0.00     0.005 A 
HETATM   10  C12 UNL     1       1.840   1.548   0.321  1.00  0.00     0.256 A 
HETATM   11  C7  UNL     1      -0.854   2.910  -0.841  1.00  0.00     0.014 A 
HETATM   12  C11 UNL     1      -1.664   0.701  -0.596  1.00  0.00     0.046 A 
HETATM   13  C8  UNL     1      -2.054   3.357  -1.347  1.00  0.00     0.001 A 
HETATM   14  C9  UNL     1      -3.063   2.403  -1.462  1.00  0.00     0.002 A 
HETATM   15  C10 UNL     1      -2.918   1.059  -1.100  1.00  0.00     0.030 A 
HETATM   16  N3  UNL     1       1.957   2.559   1.291  1.00  0.00    -0.312 N 
HETATM   17  C13 UNL     1       2.219   2.804  -0.165  1.00  0.00     0.282 A 
HETATM   18  O2  UNL     1       2.909   0.521   0.336  1.00  0.00    -0.308 OA
HETATM   19  H9  UNL     1       1.989   3.158   2.140  1.00  0.00     0.166 HD
HETATM   20  O1  UNL     1       2.502   3.306  -1.305  1.00  0.00    -0.267 OA
HETATM   21  C14 UNL     1       2.706  -0.847   0.385  1.00  0.00     0.081 C 
HETATM   22  C15 UNL     1       2.990  -1.930  -0.385  1.00  0.00     0.056 C 
HETATM   23  C19 UNL     1       1.906  -1.313   1.662  1.00  0.00     0.109 C 
HETATM   24  C16 UNL     1       1.881  -3.008  -0.353  1.00  0.00     0.044 C 
HETATM   25  C17 UNL     1       0.650  -2.676   0.246  1.00  0.00    -0.014 C 
BRANCH  22  26
HETATM   26  N4  UNL     1       4.236  -1.530  -0.943  1.00  0.00    -0.397 N 
HETATM   27  H10 UNL     1       5.140  -1.904  -0.590  1.00  0.00     0.156 HD
HETATM   28  H11 UNL     1       4.208  -0.844  -1.728  1.00  0.00     0.156 HD
ENDBRANCH  22  26
ENDBRANCH   4   5
ENDBRANCH   3   4
TORSDOF 3
