REMARK  4 active torsions:
REMARK  status: ('A' for Active; 'I' for Inactive)
REMARK    1  A    between atoms: O1_2  and  C2_3 
REMARK    2  A    between atoms: C3_4  and  C4_5 
REMARK    3  A    between atoms: C8_9  and  N1_10 
REMARK    4  A    between atoms: N1_10  and  C9_11 
ROOT
HETATM    1  C9  UNL     1      -0.844  -0.484   0.639  1.00  0.00     0.041 C 
HETATM    2  C10 UNL     1      -0.567  -0.790   1.889  1.00  0.00     0.029 C 
HETATM    3  C11 UNL     1      -1.553  -1.064   2.993  1.00  0.00     0.198 C 
HETATM    4  O2  UNL     1      -2.812  -0.605   2.743  1.00  0.00    -0.377 OA
HETATM    5  C12 UNL     1      -3.238  -1.096   1.477  1.00  0.00     0.161 C 
HETATM    6  C13 UNL     1      -4.499  -0.786   1.075  1.00  0.00     0.066 C 
HETATM    7  C14 UNL     1      -5.747  -0.377   0.595  1.00  0.00     0.000 C 
HETATM    8  C15 UNL     1      -6.244   0.282  -0.519  1.00  0.00     0.131 C 
HETATM    9  O3  UNL     1      -5.417   0.735  -1.547  1.00  0.00    -0.358 OA
HETATM   10  C16 UNL     1      -4.107   0.972  -1.960  1.00  0.00     0.218 C 
HETATM   11  P1  UNL     1      -2.613   0.437  -0.985  1.00  0.00    -0.022 P 
HETATM   12  C17 UNL     1      -2.253  -0.437   0.457  1.00  0.00     0.009 C 
ENDROOT
BRANCH   1  13
HETATM   13  N1  UNL     1      -0.079  -0.204  -0.491  1.00  0.00    -0.356 N 
HETATM   14  H7  UNL     1      -0.397  -0.406  -1.460  1.00  0.00     0.166 HD
BRANCH  13  15
HETATM   15  C8  UNL     1       1.212   0.384  -0.379  1.00  0.00     0.034 A 
HETATM   16  C7  UNL     1       1.192   1.756  -0.218  1.00  0.00     0.029 A 
HETATM   17  C6  UNL     1       2.389   2.435  -0.104  1.00  0.00     0.004 A 
HETATM   18  C5  UNL     1       3.558   1.703  -0.158  1.00  0.00     0.021 A 
HETATM   19  C4  UNL     1       3.551   0.324  -0.321  1.00  0.00     0.022 A 
HETATM   20  C18 UNL     1       2.364  -0.367  -0.435  1.00  0.00     0.050 A 
BRANCH  19  21
HETATM   21  C3  UNL     1       4.826  -0.322  -0.371  1.00  0.00    -0.037 C 
HETATM   22  C2  UNL     1       5.906  -0.855  -0.404  1.00  0.00     0.059 C 
BRANCH  22  23
HETATM   23  O1  UNL     1       7.157  -1.446  -0.440  1.00  0.00    -0.308 OA
HETATM   24  C1  UNL     1       8.307  -0.689  -0.035  1.00  0.00     0.223 C 
ENDBRANCH  22  23
ENDBRANCH  19  21
ENDBRANCH  13  15
ENDBRANCH   1  13
TORSDOF 4
