REMARK  7 active torsions:
REMARK  status: ('A' for Active; 'I' for Inactive)
REMARK    1  A    between atoms: C9_9  and  O1_10 
REMARK    2  A    between atoms: O1_10  and  C10_11 
REMARK    3  A    between atoms: C10_11  and  C11_12 
REMARK    4  A    between atoms: C11_12  and  O2_13 
REMARK    5  A    between atoms: C13_15  and  C14_16 
REMARK    6  A    between atoms: C14_16  and  C15_17 
REMARK    7  A    between atoms: C15_17  and  O3_18 
ROOT
HETATM    1  C1  UNL     1      -5.728  -0.658  -1.233  1.00  0.00     0.017 C 
HETATM    2  C2  UNL     1      -4.778  -0.746  -0.460  1.00  0.00    -0.080 C 
HETATM    3  C3  UNL     1      -3.653  -0.842   0.450  1.00  0.00     0.014 C 
HETATM    4  C4  UNL     1      -3.165  -2.055   0.769  1.00  0.00    -0.062 C 
HETATM    5  C5  UNL     1      -3.832  -3.237   0.159  1.00  0.00     0.045 C 
HETATM    6  C6  UNL     1      -1.986  -2.132   1.661  1.00  0.00     0.094 C 
HETATM    7  C7  UNL     1      -0.719  -2.040   0.820  1.00  0.00     0.042 C 
HETATM    8  C8  UNL     1       0.589  -1.647   0.864  1.00  0.00     0.065 C 
HETATM    9  C9  UNL     1       0.999  -0.251   0.432  1.00  0.00     0.081 C 
HETATM   10  C13 UNL     1       0.319   0.649  -0.360  1.00  0.00     0.023 C 
HETATM   11  C17 UNL     1      -1.202   0.696  -0.471  1.00  0.00     0.134 C 
HETATM   12  N1  UNL     1      -1.739  -0.125  -1.392  1.00  0.00    -0.224 NA
HETATM   13  C18 UNL     1      -1.618  -1.601  -1.441  1.00  0.00     0.235 C 
HETATM   14  N2  UNL     1      -1.059  -2.479  -0.565  1.00  0.00    -0.246 NA
HETATM   15  N3  UNL     1      -2.494   1.236  -0.019  1.00  0.00    -0.369 N 
HETATM   16  C19 UNL     1      -3.193   0.443   0.976  1.00  0.00     0.169 C 
HETATM   17  H23 UNL     1      -2.718   2.137  -0.499  1.00  0.00     0.161 HD
ENDROOT
BRANCH  10  18
HETATM   18  C14 UNL     1       1.070   1.607  -1.147  1.00  0.00     0.071 C 
BRANCH  18  19
HETATM   19  C15 UNL     1       0.817   1.435  -2.630  1.00  0.00     0.171 C 
BRANCH  19  20
HETATM   20  O3  UNL     1       1.527   2.309  -3.429  1.00  0.00    -0.396 OA
HETATM   21  C16 UNL     1       1.274   3.631  -3.205  1.00  0.00     0.201 C 
ENDBRANCH  19  20
ENDBRANCH  18  19
ENDBRANCH  10  18
BRANCH   9  22
HETATM   22  O1  UNL     1       2.201   0.261   0.846  1.00  0.00    -0.348 OA
BRANCH  22  23
HETATM   23  C10 UNL     1       2.760  -0.154   2.064  1.00  0.00     0.201 C 
BRANCH  23  24
HETATM   24  C11 UNL     1       4.150   0.412   2.276  1.00  0.00     0.193 C 
BRANCH  24  25
HETATM   25  O2  UNL     1       5.019   0.008   1.266  1.00  0.00    -0.394 OA
HETATM   26  C12 UNL     1       6.269   0.559   1.525  1.00  0.00     0.201 C 
ENDBRANCH  24  25
ENDBRANCH  23  24
ENDBRANCH  22  23
ENDBRANCH   9  22
TORSDOF 7
