REMARK  9 active torsions:
REMARK  status: ('A' for Active; 'I' for Inactive)
REMARK    1  A    between atoms: C4_4  and  C7_7 
REMARK    2  A    between atoms: C7_7  and  C8_8 
REMARK    3  A    between atoms: C8_8  and  C9_9 
REMARK    4  A    between atoms: C9_9  and  N1_10 
REMARK    5  A    between atoms: N1_10  and  C10_11 
REMARK    6  A    between atoms: C19_24  and  O3_25 
REMARK    7  A    between atoms: O3_25  and  C20_26 
REMARK    8  A    between atoms: C20_26  and  C21_27 
REMARK    9  A    between atoms: C21_27  and  O4_28 
ROOT
HETATM    1  C1  UNL     1      -7.674  -1.559  -2.435  1.00  0.00     0.017 C 
HETATM    2  C2  UNL     1      -7.239  -2.313  -1.602  1.00  0.00    -0.088 C 
HETATM    3  C3  UNL     1      -6.711  -3.217  -0.602  1.00  0.00     0.084 C 
HETATM    4  C4  UNL     1      -5.703  -2.904   0.194  1.00  0.00     0.024 C 
HETATM    5  C5  UNL     1      -5.236  -3.885   1.174  1.00  0.00    -0.077 C 
HETATM    6  C6  UNL     1      -4.841  -4.704   1.970  1.00  0.00     0.018 C 
ENDROOT
BRANCH   4   7
HETATM    7  C7  UNL     1      -4.965  -1.667   0.245  1.00  0.00     0.019 C 
BRANCH   7   8
HETATM    8  C8  UNL     1      -4.200  -0.627   0.426  1.00  0.00    -0.006 C 
BRANCH   8   9
HETATM    9  C9  UNL     1      -3.899   0.774  -0.029  1.00  0.00     0.148 C 
BRANCH   9  10
HETATM   10  N1  UNL     1      -2.544   0.922  -0.495  1.00  0.00    -0.371 N 
HETATM   11  H8  UNL     1      -2.646   1.064  -1.526  1.00  0.00     0.161 HD
BRANCH  10  12
HETATM   12  C10 UNL     1      -1.443   0.851   0.410  1.00  0.00     0.137 A 
HETATM   13  N2  UNL     1      -1.819   0.647   1.677  1.00  0.00    -0.224 NA
HETATM   14  C11 UNL     1      -0.985   0.558   2.686  1.00  0.00     0.235 A 
HETATM   15  N3  UNL     1       0.296   0.683   2.363  1.00  0.00    -0.241 NA
HETATM   16  C12 UNL     1       0.794   0.886   1.137  1.00  0.00     0.074 A 
HETATM   17  C13 UNL     1      -0.112   0.981   0.108  1.00  0.00     0.037 A 
HETATM   18  C22 UNL     1       2.094   0.943   1.195  1.00  0.00     0.071 C 
HETATM   19  C14 UNL     1       0.059   1.297  -1.183  1.00  0.00     0.017 C 
HETATM   20  C15 UNL     1       0.788   1.623  -2.390  1.00  0.00     0.196 C 
HETATM   21  O1  UNL     1       1.088   0.605  -3.253  1.00  0.00    -0.385 OA
HETATM   22  C16 UNL     1       1.876  -0.381  -2.751  1.00  0.00     0.194 C 
HETATM   23  C17 UNL     1       3.239   0.078  -2.314  1.00  0.00     0.200 C 
HETATM   24  O2  UNL     1       3.121   1.082  -1.293  1.00  0.00    -0.358 OA
HETATM   25  C18 UNL     1       4.055   1.137  -0.325  1.00  0.00     0.171 C 
HETATM   26  C19 UNL     1       3.477   1.054   0.861  1.00  0.00     0.092 C 
BRANCH  26  27
HETATM   27  O3  UNL     1       4.602   1.124   1.460  1.00  0.00    -0.347 OA
BRANCH  27  28
HETATM   28  C20 UNL     1       5.525   1.487   2.340  1.00  0.00     0.201 C 
BRANCH  28  29
HETATM   29  C21 UNL     1       6.864   0.776   2.131  1.00  0.00     0.190 C 
BRANCH  29  30
HETATM   30  O4  UNL     1       7.817   1.175   3.065  1.00  0.00    -0.399 OA
HETATM   31  H22 UNL     1       8.723   1.162   2.668  1.00  0.00     0.209 HD
ENDBRANCH  29  30
ENDBRANCH  28  29
ENDBRANCH  27  28
ENDBRANCH  26  27
ENDBRANCH  10  12
ENDBRANCH   9  10
ENDBRANCH   8   9
ENDBRANCH   7   8
ENDBRANCH   4   7
TORSDOF 9
