REMARK  6 active torsions:
REMARK  status: ('A' for Active; 'I' for Inactive)
REMARK    1  A    between atoms: C12_13  and  C13_14 
REMARK    2  A    between atoms: C12_13  and  C14_16 
REMARK    3  A    between atoms: C13_14  and  O2_15 
REMARK    4  A    between atoms: C14_16  and  C15_17 
REMARK    5  A    between atoms: C15_17  and  O3_18 
REMARK    6  A    between atoms: O3_18  and  C16_19 
ROOT
HETATM    1  C1  UNL     1       8.476  -2.036   0.164  1.00  0.00     0.018 C 
HETATM    2  C2  UNL     1       7.392  -1.463   0.324  1.00  0.00    -0.076 C 
HETATM    3  C3  UNL     1       6.120  -0.765   0.522  1.00  0.00     0.034 C 
HETATM    4  C4  UNL     1       6.035  -0.165   1.675  1.00  0.00     0.022 C 
HETATM    5  C5  UNL     1       4.974   0.608   2.225  1.00  0.00    -0.002 C 
HETATM    6  C6  UNL     1       4.021   1.335   2.786  1.00  0.00    -0.025 C 
HETATM    7  C7  UNL     1       2.655   1.831   2.420  1.00  0.00     0.053 C 
HETATM    8  C8  UNL     1       2.320   1.440   1.024  1.00  0.00     0.171 C 
HETATM    9  O1  UNL     1       0.996   1.832   0.640  1.00  0.00    -0.391 OA
HETATM   10  C9  UNL     1       0.842   1.453  -0.662  1.00  0.00     0.172 C 
HETATM   11  C10 UNL     1      -0.443   1.573  -1.354  1.00  0.00     0.061 C 
HETATM   12  C11 UNL     1      -1.575   0.780  -0.812  1.00  0.00    -0.066 C 
HETATM   13  C12 UNL     1      -2.843   1.117  -0.549  1.00  0.00    -0.052 C 
HETATM   14  C18 UNL     1      -0.852  -0.464  -0.630  1.00  0.00     0.105 C 
HETATM   15  C19 UNL     1      -0.641  -1.691  -0.307  1.00  0.00     0.098 C 
HETATM   16  N1  UNL     1       0.470  -2.538  -0.356  1.00  0.00    -0.282 NA
HETATM   17  C20 UNL     1       1.670  -2.337  -0.709  1.00  0.00     0.227 C 
HETATM   18  N2  UNL     1       2.836  -1.769  -1.153  1.00  0.00    -0.238 NA
HETATM   19  C21 UNL     1       3.247  -0.953  -1.998  1.00  0.00     0.198 C 
HETATM   20  N3  UNL     1       4.502  -1.177  -1.540  1.00  0.00    -0.381 NA
HETATM   21  C22 UNL     1       5.309  -1.036  -0.647  1.00  0.00     0.305 C 
ENDROOT
BRANCH  13  22
HETATM   22  C13 UNL     1      -3.293   2.499  -0.800  1.00  0.00     0.198 C 
BRANCH  22  23
HETATM   23  O2  UNL     1      -4.332   2.613  -1.722  1.00  0.00    -0.397 OA
HETATM   24  H15 UNL     1      -4.088   2.426  -2.652  1.00  0.00     0.209 HD
ENDBRANCH  22  23
ENDBRANCH  13  22
BRANCH  13  25
HETATM   25  C14 UNL     1      -3.856   0.186   0.005  1.00  0.00     0.063 C 
BRANCH  25  26
HETATM   26  C15 UNL     1      -4.773  -0.365  -1.078  1.00  0.00     0.172 C 
BRANCH  26  27
HETATM   27  O3  UNL     1      -5.730  -1.236  -0.660  1.00  0.00    -0.391 OA
BRANCH  27  28
HETATM   28  C16 UNL     1      -6.663  -0.823   0.231  1.00  0.00     0.163 C 
HETATM   29  C17 UNL     1      -7.581  -1.990   0.553  1.00  0.00     0.033 C 
ENDBRANCH  27  28
ENDBRANCH  26  27
ENDBRANCH  25  26
ENDBRANCH  13  25
TORSDOF 6
