REMARK  0 active torsions:
REMARK  status: ('A' for Active; 'I' for Inactive)
ROOT
HETATM    1  C1  UNL     1       4.591  -1.766   2.973  1.00  0.00     0.037 C 
HETATM    2  C2  UNL     1       4.709  -1.351   1.522  1.00  0.00     0.112 A 
HETATM    3  N1  UNL     1       4.836  -2.475   0.636  1.00  0.00    -0.349 N 
HETATM    4  C3  UNL     1       3.741  -2.459  -0.276  1.00  0.00     0.248 A 
HETATM    5  O1  UNL     1       3.933  -3.481  -1.025  1.00  0.00    -0.268 OA
HETATM    6  C4  UNL     1       2.881  -1.298   0.031  1.00  0.00     0.020 A 
HETATM    7  C5  UNL     1       3.446  -0.697   1.042  1.00  0.00    -0.021 A 
HETATM    8  C6  UNL     1       3.020   0.512   1.767  1.00  0.00     0.151 A 
HETATM    9  N2  UNL     1       2.005   0.289   2.737  1.00  0.00    -0.186 NA
HETATM   10  O2  UNL     1       0.940   1.038   2.382  1.00  0.00    -0.262 OA
HETATM   11  C7  UNL     1       1.133   1.886   1.324  1.00  0.00     0.106 A 
HETATM   12  C8  UNL     1       0.351   2.867   0.692  1.00  0.00    -0.020 A 
HETATM   13  C9  UNL     1       0.876   3.551  -0.379  1.00  0.00     0.010 A 
HETATM   14  C10 UNL     1       2.173   3.258  -0.818  1.00  0.00     0.001 A 
HETATM   15  C11 UNL     1       2.919   2.278  -0.170  1.00  0.00     0.012 A 
HETATM   16  C12 UNL     1       2.411   1.566   0.924  1.00  0.00     0.002 A 
HETATM   17  C13 UNL     1      -0.985   2.990   1.306  1.00  0.00     0.068 C 
HETATM   18  C14 UNL     1      -2.007   3.383   0.282  1.00  0.00     0.174 C 
HETATM   19  O3  UNL     1      -1.861   2.490  -0.811  1.00  0.00    -0.362 OA
HETATM   20  C15 UNL     1      -2.990   2.710  -1.659  1.00  0.00     0.439 C 
HETATM   21  N3  UNL     1      -4.157   2.273  -0.828  1.00  0.00     0.107 N 
HETATM   22  C16 UNL     1      -5.334   2.761  -1.597  1.00  0.00     0.312 C 
HETATM   23  C17 UNL     1      -4.210   0.803  -1.059  1.00  0.00     0.276 C 
HETATM   24  C18 UNL     1      -2.986   0.098  -0.552  1.00  0.00     0.050 C 
HETATM   25  C19 UNL     1      -3.105  -1.433  -0.694  1.00  0.00     0.125 C 
HETATM   26  N4  UNL     1      -1.801  -1.963  -0.329  1.00  0.00    -0.376 N 
HETATM   27  C20 UNL     1      -0.649  -1.561   0.465  1.00  0.00     0.158 C 
HETATM   28  C21 UNL     1       0.512  -1.920  -0.435  1.00  0.00    -0.045 C 
HETATM   29  C22 UNL     1       0.199  -3.171  -0.827  1.00  0.00    -0.005 A 
HETATM   30  C23 UNL     1       0.587  -4.516  -1.289  1.00  0.00     0.014 A 
HETATM   31  C24 UNL     1      -0.493  -5.287  -1.489  1.00  0.00     0.003 A 
HETATM   32  C25 UNL     1      -1.684  -4.475  -1.161  1.00  0.00     0.030 A 
HETATM   33  C26 UNL     1      -1.285  -3.245  -0.776  1.00  0.00     0.041 A 
HETATM   34  C27 UNL     1       1.694  -1.116  -0.826  1.00  0.00     0.081 C 
HETATM   35  H5  UNL     1       5.703  -2.979   0.927  1.00  0.00     0.163 HD
HETATM   36  H7  UNL     1       1.798  -0.735   2.799  1.00  0.00     0.155 HD
ENDROOT
TORSDOF 0
