REMARK  1 active torsions:
REMARK  status: ('A' for Active; 'I' for Inactive)
REMARK    1  A    between atoms: N1_2  and  C3_4 
ROOT
HETATM    1  C3  UNL     1      -0.222   1.988  -0.256  1.00  0.00     0.359 C 
HETATM    2  C4  UNL     1      -0.843   0.781  -0.938  1.00  0.00     0.075 C 
HETATM    3  C5  UNL     1      -2.298   0.572  -0.621  1.00  0.00     0.041 C 
HETATM    4  C6  UNL     1      -2.976   0.129  -1.898  1.00  0.00     0.128 C 
HETATM    5  N2  UNL     1      -2.373  -1.031  -2.499  1.00  0.00    -0.400 N 
HETATM    6  C7  UNL     1      -2.293  -2.401  -2.035  1.00  0.00     0.072 C 
HETATM    7  C8  UNL     1      -2.097  -2.795  -0.753  1.00  0.00     0.041 A 
HETATM    8  C9  UNL     1      -1.478  -4.106  -0.538  1.00  0.00     0.080 A 
HETATM    9  C10 UNL     1      -0.027  -3.825  -0.191  1.00  0.00     0.036 A 
HETATM   10  O1  UNL     1      -0.605  -2.809  -0.731  1.00  0.00     0.000 OA
HETATM   11  N3  UNL     1       1.374  -3.641   0.176  1.00  0.00    -0.325 N 
HETATM   12  C11 UNL     1       1.972  -2.441  -0.168  1.00  0.00     0.256 C 
HETATM   13  O2  UNL     1       1.674  -1.696  -1.132  1.00  0.00    -0.267 OA
HETATM   14  C12 UNL     1       2.930  -1.425   0.060  1.00  0.00     0.040 C 
HETATM   15  C13 UNL     1       4.053  -1.253  -0.616  1.00  0.00     0.017 C 
HETATM   16  C14 UNL     1       5.101  -0.238  -0.303  1.00  0.00    -0.001 C 
HETATM   17  C15 UNL     1       4.867   0.854   0.462  1.00  0.00    -0.001 C 
HETATM   18  C16 UNL     1       3.903   1.196   1.533  1.00  0.00     0.113 C 
HETATM   19  C17 UNL     1       3.532  -0.146   2.272  1.00  0.00     0.070 C 
HETATM   20  C18 UNL     1       2.540  -0.469   1.144  1.00  0.00    -0.025 C 
HETATM   21  C19 UNL     1       1.620   0.385   1.571  1.00  0.00     0.096 C 
HETATM   22  N4  UNL     1       2.519   1.394   0.972  1.00  0.00    -0.360 N 
HETATM   23  C20 UNL     1       2.101   2.382   0.014  1.00  0.00     0.296 C 
HETATM   24  O3  UNL     1       1.035   2.158  -0.758  1.00  0.00    -0.337 OA
HETATM   25  C21 UNL     1      -2.489  -1.904   0.377  1.00  0.00    -0.036 A 
HETATM   26  C22 UNL     1      -2.827  -2.535   1.549  1.00  0.00     0.009 A 
HETATM   27  C23 UNL     1      -3.209  -1.897   2.706  1.00  0.00     0.001 A 
HETATM   28  C24 UNL     1      -3.267  -0.535   2.721  1.00  0.00     0.001 A 
HETATM   29  C25 UNL     1      -2.939   0.118   1.574  1.00  0.00     0.008 A 
HETATM   30  C26 UNL     1      -2.547  -0.500   0.383  1.00  0.00    -0.045 A 
HETATM   31  H13 UNL     1      -1.885  -0.964  -3.450  1.00  0.00     0.158 HD
HETATM   32  H17 UNL     1       0.962  -4.518   0.447  1.00  0.00     0.169 HD
ENDROOT
BRANCH   1  33
HETATM   33  N1  UNL     1      -1.093   3.105  -0.672  1.00  0.00     0.108 N 
HETATM   34  C1  UNL     1      -1.089   3.340  -2.076  1.00  0.00     0.312 C 
HETATM   35  C2  UNL     1      -0.909   4.280   0.123  1.00  0.00     0.312 C 
ENDBRANCH   1  33
TORSDOF 1
