REMARK  2 active torsions:
REMARK  status: ('A' for Active; 'I' for Inactive)
REMARK    1  A    between atoms: N1_2  and  C3_4 
REMARK    2  A    between atoms: C3_4  and  C4_5 
ROOT
HETATM    1  C4  UNL     1       2.216  -0.322  -0.262  1.00  0.00     0.140 C 
HETATM    2  C5  UNL     1       1.784   1.013   0.191  1.00  0.00     0.053 C 
HETATM    3  C6  UNL     1       1.130   1.964  -0.680  1.00  0.00     0.122 C 
HETATM    4  N2  UNL     1      -0.175   1.716  -1.145  1.00  0.00    -0.389 N 
HETATM    5  C7  UNL     1      -1.456   1.582  -0.575  1.00  0.00     0.039 A 
HETATM    6  C8  UNL     1      -2.251   2.392   0.081  1.00  0.00     0.001 A 
HETATM    7  C9  UNL     1      -2.281   3.784   0.460  1.00  0.00     0.014 A 
HETATM    8  C10 UNL     1      -3.451   3.887   1.117  1.00  0.00     0.002 A 
HETATM    9  C11 UNL     1      -4.243   2.647   1.222  1.00  0.00     0.013 A 
HETATM   10  C12 UNL     1      -3.489   1.806   0.596  1.00  0.00    -0.016 A 
HETATM   11  C13 UNL     1      -3.421   0.427   0.173  1.00  0.00    -0.027 A 
HETATM   12  C14 UNL     1      -2.245   0.378  -0.494  1.00  0.00     0.039 A 
HETATM   13  C15 UNL     1      -4.014  -1.009   0.152  1.00  0.00     0.152 C 
HETATM   14  C16 UNL     1      -4.927  -1.056  -0.961  1.00  0.00     0.237 C 
HETATM   15  O1  UNL     1      -5.728  -0.057  -1.184  1.00  0.00    -0.272 OA
HETATM   16  N3  UNL     1      -4.833  -2.258  -1.713  1.00  0.00    -0.293 N 
HETATM   17  C17 UNL     1      -3.518  -2.655  -1.246  1.00  0.00     0.256 C 
HETATM   18  O2  UNL     1      -3.189  -3.779  -1.804  1.00  0.00    -0.267 OA
HETATM   19  C18 UNL     1      -2.782  -1.796  -0.263  1.00  0.00     0.043 C 
HETATM   20  C19 UNL     1      -1.585  -2.313  -0.344  1.00  0.00     0.097 C 
HETATM   21  N4  UNL     1      -0.576  -3.099  -0.885  1.00  0.00    -0.396 N 
HETATM   22  C20 UNL     1       0.355  -3.401   0.143  1.00  0.00     0.145 C 
HETATM   23  C21 UNL     1       0.992  -2.226   0.836  1.00  0.00     0.187 C 
HETATM   24  O3  UNL     1       1.588  -1.297   0.302  1.00  0.00    -0.383 OA
HETATM   25  H14 UNL     1      -0.635   1.621  -2.065  1.00  0.00     0.159 HD
HETATM   26  H20 UNL     1      -5.561  -2.645  -2.341  1.00  0.00     0.172 HD
HETATM   27  H22 UNL     1      -1.104  -3.006  -1.760  1.00  0.00     0.158 HD
ENDROOT
BRANCH   1  28
HETATM   28  C3  UNL     1       3.704  -0.467   0.508  1.00  0.00     0.147 C 
BRANCH  28  29
HETATM   29  N1  UNL     1       4.629   0.360  -0.052  1.00  0.00    -0.418 N 
HETATM   30  C1  UNL     1       4.691   1.748  -0.035  1.00  0.00     0.142 C 
HETATM   31  C2  UNL     1       5.981  -0.220   0.194  1.00  0.00     0.142 C 
ENDBRANCH  28  29
ENDBRANCH   1  28
TORSDOF 2
