REMARK  3 active torsions:
REMARK  status: ('A' for Active; 'I' for Inactive)
REMARK    1  A    between atoms: N1_4  and  C4_5 
REMARK    2  A    between atoms: C4_5  and  C5_6 
REMARK    3  A    between atoms: C18_23  and  O3_24 
ROOT
HETATM    1  C5  UNL     1       0.220   0.687   0.250  1.00  0.00     0.071 C 
HETATM    2  C6  UNL     1      -0.784   1.166  -0.521  1.00  0.00    -0.018 C 
HETATM    3  C7  UNL     1      -1.200   0.597  -1.830  1.00  0.00     0.054 C 
HETATM    4  C8  UNL     1      -1.742  -0.785  -1.764  1.00  0.00     0.065 C 
HETATM    5  C9  UNL     1      -2.974  -0.845  -2.614  1.00  0.00    -0.004 C 
HETATM    6  C10 UNL     1      -3.426  -2.059  -2.764  1.00  0.00    -0.029 C 
HETATM    7  C11 UNL     1      -3.352  -2.911  -1.755  1.00  0.00     0.014 C 
HETATM    8  C12 UNL     1      -2.901  -2.376  -0.458  1.00  0.00     0.029 C 
HETATM    9  C13 UNL     1      -2.090  -1.305  -0.434  1.00  0.00     0.045 C 
HETATM   10  N2  UNL     1      -1.899  -1.123   0.997  1.00  0.00    -0.236 N 
HETATM   11  C14 UNL     1      -0.569  -1.417   1.519  1.00  0.00     0.331 C 
HETATM   12  O1  UNL     1       0.337  -0.511   0.937  1.00  0.00    -0.332 OA
HETATM   13  O2  UNL     1      -2.807  -0.679   1.951  1.00  0.00    -0.246 OA
HETATM   14  C15 UNL     1      -3.935  -0.153   1.269  1.00  0.00     0.472 C 
HETATM   15  N3  UNL     1      -3.400   0.851   0.334  1.00  0.00     0.112 N 
HETATM   16  C16 UNL     1      -4.506   1.555  -0.238  1.00  0.00     0.312 C 
HETATM   17  C17 UNL     1      -2.545   1.734   1.066  1.00  0.00     0.311 C 
HETATM   18  C18 UNL     1      -1.514   2.342   0.086  1.00  0.00     0.178 C 
ENDROOT
BRANCH   1  19
HETATM   19  C4  UNL     1       1.450   1.421   0.502  1.00  0.00     0.193 C 
BRANCH  19  20
HETATM   20  N1  UNL     1       2.671   0.808   0.090  1.00  0.00    -0.349 N 
HETATM   21  C3  UNL     1       3.275   0.945  -1.122  1.00  0.00     0.099 A 
HETATM   22  C2  UNL     1       4.434   0.227  -1.200  1.00  0.00    -0.034 A 
HETATM   23  C1  UNL     1       5.328   0.158  -2.372  1.00  0.00     0.050 C 
HETATM   24  C24 UNL     1       4.536  -0.376   0.033  1.00  0.00    -0.002 A 
HETATM   25  C19 UNL     1       3.455  -0.025   0.837  1.00  0.00     0.045 A 
HETATM   26  C23 UNL     1       5.540  -1.231   0.503  1.00  0.00     0.014 A 
HETATM   27  C20 UNL     1       3.357  -0.514   2.107  1.00  0.00     0.030 A 
HETATM   28  C21 UNL     1       4.340  -1.360   2.588  1.00  0.00     0.002 A 
HETATM   29  C22 UNL     1       5.435  -1.728   1.803  1.00  0.00     0.001 A 
ENDBRANCH  19  20
ENDBRANCH   1  19
BRANCH  18  30
HETATM   30  O3  UNL     1      -0.709   3.172   0.818  1.00  0.00    -0.389 OA
HETATM   31  H23 UNL     1      -0.673   3.014   1.779  1.00  0.00     0.210 HD
ENDBRANCH  18  30
TORSDOF 3
