REMARK  10 active torsions:
REMARK  status: ('A' for Active; 'I' for Inactive)
REMARK    1  A    between atoms: C2_2  and  N1_3 
REMARK    2  A    between atoms: N1_3  and  C3_4 
REMARK    3  A    between atoms: C3_4  and  C4_5 
REMARK    4  A    between atoms: C4_5  and  O1_6 
REMARK    5  A    between atoms: O1_6  and  C5_7 
REMARK    6  A    between atoms: C5_7  and  C6_8 
REMARK    7  A    between atoms: C6_8  and  C7_9 
REMARK    8  A    between atoms: C7_9  and  N2_10 
REMARK    9  A    between atoms: N2_10  and  C8_11 
REMARK   10  A    between atoms: C11_14  and  O2_15 
ROOT
HETATM    1  C8  UNL     1      -1.200  -0.470   0.444  1.00  0.00     0.086 C 
HETATM    2  C9  UNL     1      -2.379   0.076   0.840  1.00  0.00    -0.051 C 
HETATM    3  C10 UNL     1      -3.287   0.023  -0.373  1.00  0.00     0.068 C 
HETATM    4  C11 UNL     1      -4.601  -0.663  -0.003  1.00  0.00     0.123 C 
HETATM    5  C12 UNL     1      -5.149  -0.305   1.289  1.00  0.00     0.043 C 
HETATM    6  C13 UNL     1      -4.472  -0.742   2.619  1.00  0.00    -0.017 A 
HETATM    7  C14 UNL     1      -5.043  -1.490   3.822  1.00  0.00     0.012 A 
HETATM    8  C15 UNL     1      -4.060  -0.929   3.357  1.00  0.00    -0.011 A 
HETATM    9  C16 UNL     1      -3.020  -0.308   2.847  1.00  0.00    -0.004 A 
HETATM   10  C17 UNL     1      -1.957   0.360   2.315  1.00  0.00     0.013 A 
HETATM   11  C18 UNL     1      -2.957  -0.312   3.093  1.00  0.00     0.025 A 
ENDROOT
BRANCH   1  12
HETATM   12  N2  UNL     1      -1.072  -0.922  -0.861  1.00  0.00    -0.398 N 
HETATM   13  H15 UNL     1      -1.224  -1.833  -1.301  1.00  0.00     0.158 HD
BRANCH  12  14
HETATM   14  C7  UNL     1      -0.632   0.172  -1.711  1.00  0.00     0.121 C 
BRANCH  14  15
HETATM   15  C6  UNL     1       0.809   0.533  -1.364  1.00  0.00     0.046 C 
BRANCH  15  16
HETATM   16  C5  UNL     1       1.727  -0.651  -1.594  1.00  0.00     0.169 C 
BRANCH  16  17
HETATM   17  O1  UNL     1       3.043  -0.414  -1.293  1.00  0.00    -0.389 OA
BRANCH  17  18
HETATM   18  C4  UNL     1       3.660   0.595  -1.987  1.00  0.00     0.187 C 
BRANCH  18  19
HETATM   19  C3  UNL     1       5.121   0.727  -1.543  1.00  0.00     0.145 C 
BRANCH  19  20
HETATM   20  N1  UNL     1       5.181   1.024  -0.137  1.00  0.00    -0.398 N 
HETATM   21  H4  UNL     1       4.341   1.133   0.467  1.00  0.00     0.158 HD
BRANCH  20  22
HETATM   22  C2  UNL     1       6.401   1.197   0.565  1.00  0.00     0.072 C 
HETATM   23  C1  UNL     1       7.610   1.464   0.114  1.00  0.00     0.029 C 
ENDBRANCH  20  22
ENDBRANCH  19  20
ENDBRANCH  18  19
ENDBRANCH  17  18
ENDBRANCH  16  17
ENDBRANCH  15  16
ENDBRANCH  14  15
ENDBRANCH  12  14
ENDBRANCH   1  12
BRANCH   4  24
HETATM   24  O2  UNL     1      -4.439  -2.034  -0.146  1.00  0.00    -0.395 OA
HETATM   25  H20 UNL     1      -5.234  -2.445   0.316  1.00  0.00     0.210 HD
ENDBRANCH   4  24
TORSDOF 10
