REMARK  5 active torsions:
REMARK  status: ('A' for Active; 'I' for Inactive)
REMARK    1  A    between atoms: C2_2  and  C3_3 
REMARK    2  A    between atoms: C8_10  and  N3_11 
REMARK    3  A    between atoms: N3_11  and  C9_12 
REMARK    4  A    between atoms: C9_12  and  C10_13 
REMARK    5  A    between atoms: C10_13  and  N4_14 
ROOT
HETATM    1  C3  UNL     1      -2.829   0.776  -0.504  1.00  0.00    -0.061 A 
HETATM    2  C4  UNL     1      -2.504  -0.306   0.186  1.00  0.00     0.102 A 
HETATM    3  N1  UNL     1      -1.195  -0.785   0.467  1.00  0.00    -0.304 N 
HETATM    4  C5  UNL     1      -0.068  -0.076  -0.015  1.00  0.00     0.130 A 
HETATM    5  C6  UNL     1      -0.425   1.019  -0.714  1.00  0.00     0.028 A 
HETATM    6  C7  UNL     1      -1.711   1.618  -1.074  1.00  0.00     0.066 A 
HETATM    7  N2  UNL     1       1.289  -0.191   0.038  1.00  0.00    -0.210 NA
HETATM    8  C8  UNL     1       2.165  -1.035  -0.180  1.00  0.00     0.347 A 
HETATM    9  C11 UNL     1       2.274  -2.423  -0.618  1.00  0.00     0.335 A 
HETATM   10  N5  UNL     1       1.024  -2.152  -0.602  1.00  0.00     0.073 N 
HETATM   11  C12 UNL     1       0.070  -3.134  -0.969  1.00  0.00     0.291 A 
HETATM   12  S1  UNL     1      -0.237  -3.086   0.654  1.00  0.00     0.082 SA
HETATM   13  C13 UNL     1      -1.300  -1.984   1.232  1.00  0.00     0.073 C 
HETATM   14  C14 UNL     1      -2.260  -2.116   2.363  1.00  0.00     0.078 C 
ENDROOT
BRANCH   8  15
HETATM   15  N3  UNL     1       3.472  -0.471   0.092  1.00  0.00    -0.367 N 
HETATM   16  H10 UNL     1       4.326  -1.070   0.279  1.00  0.00     0.157 HD
BRANCH  15  17
HETATM   17  C9  UNL     1       3.717   0.980   0.128  1.00  0.00     0.148 C 
BRANCH  17  18
HETATM   18  C10 UNL     1       5.168   1.274   0.432  1.00  0.00     0.286 C 
BRANCH  18  19
HETATM   19  N4  UNL     1       5.429   2.699   0.473  1.00  0.00     0.079 N 
HETATM   20  H15 UNL     1       5.268   3.098  -0.476  1.00  0.00     0.312 HD
HETATM   21  H16 UNL     1       6.459   2.810   0.639  1.00  0.00     0.312 HD
ENDBRANCH  18  19
ENDBRANCH  17  18
ENDBRANCH  15  17
ENDBRANCH   8  15
BRANCH   1  22
HETATM   22  C2  UNL     1      -4.095   1.439  -0.904  1.00  0.00     0.031 C 
HETATM   23  C1  UNL     1      -5.306   0.691  -0.395  1.00  0.00     0.010 C 
ENDBRANCH   1  22
TORSDOF 5
