REMARK  1 active torsions:
REMARK  status: ('A' for Active; 'I' for Inactive)
REMARK    1  A    between atoms: C3_3  and  C4_4 
ROOT
HETATM    1  C4  UNL     1       2.527   0.403   0.539  1.00  0.00     0.007 C 
HETATM    2  C5  UNL     1       1.528   0.032  -0.243  1.00  0.00    -0.052 C 
HETATM    3  C6  UNL     1       1.779  -0.730  -1.507  1.00  0.00     0.004 C 
HETATM    4  C7  UNL     1       0.717  -1.562  -1.651  1.00  0.00    -0.016 C 
HETATM    5  C8  UNL     1      -0.148  -1.375  -0.592  1.00  0.00     0.050 C 
HETATM    6  C9  UNL     1      -1.667  -1.376  -0.672  1.00  0.00    -0.030 C 
HETATM    7  C10 UNL     1      -2.264  -0.674  -1.678  1.00  0.00     0.094 C 
HETATM    8  N1  UNL     1      -2.332   0.704  -1.133  1.00  0.00    -0.361 N 
HETATM    9  C11 UNL     1      -2.714   2.084  -1.507  1.00  0.00     0.129 C 
HETATM   10  C12 UNL     1      -1.856   2.612  -0.382  1.00  0.00     0.076 C 
HETATM   11  C13 UNL     1      -2.006   1.282   0.210  1.00  0.00     0.137 C 
HETATM   12  N2  UNL     1      -3.202   1.032   0.988  1.00  0.00    -0.252 NA
HETATM   13  C14 UNL     1      -3.947  -0.057   1.096  1.00  0.00     0.200 C 
HETATM   14  N3  UNL     1      -3.641  -1.475   0.871  1.00  0.00    -0.373 N 
HETATM   15  C15 UNL     1      -2.381  -2.094   0.495  1.00  0.00     0.136 C 
HETATM   16  C16 UNL     1      -1.594  -1.660   1.752  1.00  0.00    -0.001 C 
HETATM   17  C17 UNL     1      -1.058  -0.408   1.838  1.00  0.00    -0.019 C 
HETATM   18  C18 UNL     1      -0.753   0.627   0.784  1.00  0.00     0.068 C 
HETATM   19  C19 UNL     1       0.111   0.145  -0.270  1.00  0.00     0.042 C 
HETATM   20  H16 UNL     1      -4.433  -2.137   0.994  1.00  0.00     0.161 HD
ENDROOT
BRANCH   1  21
HETATM   21  C3  UNL     1       3.926   0.124   0.273  1.00  0.00    -0.004 C 
HETATM   22  C2  UNL     1       4.907   0.502   1.066  1.00  0.00    -0.031 C 
HETATM   23  C1  UNL     1       6.325   0.173   0.718  1.00  0.00     0.036 C 
ENDBRANCH   1  21
TORSDOF 1
