REMARK  3 active torsions:
REMARK  status: ('A' for Active; 'I' for Inactive)
REMARK    1  A    between atoms: C6_7  and  N1_8 
REMARK       I    between atoms: N1_8  and  C7_9 
REMARK       I    between atoms: C7_9  and  N2_11 
REMARK    2  A    between atoms: N2_11  and  C8_12 
REMARK    3  A    between atoms: C17_22  and  N4_23 
ROOT
HETATM    1  C8  UNL     1      -1.180  -0.781   0.074  1.00  0.00     0.113 C 
HETATM    2  C9  UNL     1      -2.243  -1.748  -0.140  1.00  0.00    -0.005 C 
HETATM    3  C10 UNL     1      -3.443  -1.172   0.093  1.00  0.00    -0.028 C 
HETATM    4  C11 UNL     1      -3.746   0.229   0.507  1.00  0.00     0.040 C 
HETATM    5  C12 UNL     1      -2.643   0.934   1.177  1.00  0.00     0.002 A 
HETATM    6  C13 UNL     1      -2.355   2.214   0.298  1.00  0.00     0.007 A 
HETATM    7  C14 UNL     1      -2.594   3.156   1.303  1.00  0.00     0.003 A 
HETATM    8  N3  UNL     1      -3.102   3.075   3.023  1.00  0.00     0.000 N 
HETATM    9  C15 UNL     1      -2.831   3.095   2.102  1.00  0.00     0.029 A 
HETATM   10  C16 UNL     1      -3.019   1.661   2.474  1.00  0.00     0.096 A 
HETATM   11  C17 UNL     1      -3.390   0.977   3.604  1.00  0.00     0.074 A 
HETATM   12  N5  UNL     1      -3.434   2.244   3.996  1.00  0.00    -0.183 NA
HETATM   13  C18 UNL     1      -1.399   0.168   1.213  1.00  0.00     0.020 C 
HETATM   14  C19 UNL     1      -1.145  -0.601   2.471  1.00  0.00     0.013 C 
ENDROOT
BRANCH   1  15
HETATM   15  N2  UNL     1       0.084  -1.467   0.124  1.00  0.00    -0.335 N 
HETATM   16  C7  UNL     1       1.150  -1.053  -0.739  1.00  0.00     0.321 C 
HETATM   17  N1  UNL     1       2.434  -1.629  -0.803  1.00  0.00    -0.306 N 
HETATM   18  O1  UNL     1       0.921  -0.092  -1.509  1.00  0.00    -0.247 OA
HETATM   19  H6  UNL     1       2.500  -2.424  -0.115  1.00  0.00     0.171 HD
HETATM   20  H7  UNL     1       0.285  -2.284   0.773  1.00  0.00     0.165 HD
BRANCH  17  21
HETATM   21  C6  UNL     1       3.534  -1.292  -1.597  1.00  0.00     0.075 A 
HETATM   22  C5  UNL     1       4.684  -2.068  -1.491  1.00  0.00     0.143 A 
HETATM   23  C4  UNL     1       5.815  -1.823  -2.217  1.00  0.00     0.045 A 
HETATM   24  F1  UNL     1       4.716  -3.122  -0.634  1.00  0.00    -0.204 F 
HETATM   25  C3  UNL     1       5.856  -0.768  -3.108  1.00  0.00     0.010 A 
HETATM   26  C2  UNL     1       4.754   0.024  -3.252  1.00  0.00    -0.060 A 
HETATM   27  C1  UNL     1       4.755   1.172  -4.200  1.00  0.00     0.048 C 
HETATM   28  C20 UNL     1       3.645  -0.269  -2.495  1.00  0.00     0.039 A 
ENDBRANCH  17  21
ENDBRANCH   1  15
BRANCH  11  29
HETATM   29  N4  UNL     1      -3.623  -0.300   4.097  1.00  0.00    -0.294 NA
HETATM   30  H16 UNL     1      -4.050  -0.780   3.311  1.00  0.00     0.125 HD
HETATM   31  H17 UNL     1      -4.076  -0.984   3.421  1.00  0.00     0.125 HD
ENDBRANCH  11  29
TORSDOF 3
