REMARK  7 active torsions:
REMARK  status: ('A' for Active; 'I' for Inactive)
REMARK    1  A    between atoms: O1_1  and  C1_2 
REMARK    2  A    between atoms: C2_3  and  C3_4 
REMARK    3  A    between atoms: C4_5  and  C5_6 
REMARK    4  A    between atoms: C5_6  and  C6_7 
REMARK    5  A    between atoms: C6_7  and  C7_8 
REMARK    6  A    between atoms: C7_8  and  N1_9 
REMARK    7  A    between atoms: N1_9  and  C8_10 
ROOT
HETATM    1  C6  UNL     1      -0.293  -0.313  -0.339  1.00  0.00     0.104 C 
HETATM    2  N2  UNL     1       0.198  -1.306  -1.289  1.00  0.00    -0.275 NA
HETATM    3  C12 UNL     1      -0.856  -1.968  -1.245  1.00  0.00     0.076 C 
HETATM    4  C13 UNL     1      -1.984  -2.937  -1.379  1.00  0.00     0.044 A 
HETATM    5  C14 UNL     1      -2.266  -3.924  -2.333  1.00  0.00     0.019 A 
HETATM    6  C15 UNL     1      -3.368  -4.749  -2.245  1.00  0.00     0.020 A 
HETATM    7  C16 UNL     1      -4.159  -4.497  -1.120  1.00  0.00     0.119 A 
HETATM    8  N3  UNL     1      -3.909  -3.567  -0.208  1.00  0.00    -0.236 NA
HETATM    9  C17 UNL     1      -2.844  -2.747  -0.264  1.00  0.00     0.177 A 
HETATM   10  O3  UNL     1      -2.259  -1.672   0.485  1.00  0.00    -0.319 OA
HETATM   11  C18 UNL     1      -1.591  -0.931  -0.525  1.00  0.00     0.215 C 
ENDROOT
BRANCH   1  12
HETATM   12  C5  UNL     1      -0.236   1.096  -0.897  1.00  0.00     0.065 C 
BRANCH  12  13
HETATM   13  C4  UNL     1      -0.821   2.041   0.053  1.00  0.00    -0.015 C 
HETATM   14  C3  UNL     1      -1.833   2.831  -0.148  1.00  0.00     0.062 C 
BRANCH  14  15
HETATM   15  C2  UNL     1      -2.593   2.931  -1.372  1.00  0.00    -0.049 C 
HETATM   16  C1  UNL     1      -3.223   2.995  -2.376  1.00  0.00     0.056 C 
BRANCH  16  17
HETATM   17  O1  UNL     1      -3.939   3.070  -3.540  1.00  0.00    -0.314 OA
HETATM   18  H1  UNL     1      -3.600   2.581  -4.345  1.00  0.00     0.230 HD
ENDBRANCH  16  17
ENDBRANCH  14  15
ENDBRANCH  12  13
ENDBRANCH   1  12
BRANCH   1  19
HETATM   19  C7  UNL     1       0.398  -0.575   0.972  1.00  0.00     0.150 C 
BRANCH  19  20
HETATM   20  N1  UNL     1       1.754  -0.322   0.968  1.00  0.00    -0.421 N 
HETATM   21  H8  UNL     1       2.396  -1.147   0.901  1.00  0.00     0.152 HD
BRANCH  20  22
HETATM   22  C8  UNL     1       2.355   0.931   0.986  1.00  0.00     0.052 C 
HETATM   23  B1  UNL     1       2.234   1.586   2.464  1.00  0.00     0.188 B 
HETATM   24  C9  UNL     1       3.468   2.396   3.024  1.00  0.00    -0.025 C 
HETATM   25  H10 UNL     1       1.249   1.354   3.044  1.00  0.00    -0.024 HD
HETATM   26  C10 UNL     1       4.760   1.625   2.749  1.00  0.00     0.157 C 
HETATM   27  O2  UNL     1       4.455   0.438   2.074  1.00  0.00    -0.391 OA
HETATM   28  C11 UNL     1       3.889   0.722   0.842  1.00  0.00     0.181 C 
ENDBRANCH  20  22
ENDBRANCH  19  20
ENDBRANCH   1  19
TORSDOF 7
