REMARK  1 active torsions:
REMARK  status: ('A' for Active; 'I' for Inactive)
REMARK       I    between atoms: N1_7  and  C6_8 
REMARK       I    between atoms: C6_8  and  N2_10 
REMARK    1  A    between atoms: N2_10  and  C7_11 
ROOT
HETATM    1  C7  UNL     1      -0.095   0.342   0.147  1.00  0.00     0.036 C 
HETATM    2  C8  UNL     1       0.078   1.390  -0.546  1.00  0.00     0.043 C 
HETATM    3  C9  UNL     1      -0.780   2.373  -1.198  1.00  0.00     0.217 C 
HETATM    4  N3  UNL     1      -2.070   2.572  -1.066  1.00  0.00    -0.291 NA
HETATM    5  C10 UNL     1      -2.674   1.676  -0.109  1.00  0.00     0.089 C 
HETATM    6  C11 UNL     1      -3.339   2.579   0.571  1.00  0.00     0.117 C 
HETATM    7  N4  UNL     1      -4.294   3.106  -0.140  1.00  0.00    -0.176 NA
HETATM    8  N5  UNL     1      -4.546   2.425  -1.339  1.00  0.00    -0.310 N 
HETATM    9  C12 UNL     1      -4.694   1.059  -1.734  1.00  0.00     0.168 C 
HETATM   10  C13 UNL     1      -5.652   0.279  -0.903  1.00  0.00    -0.009 C 
HETATM   11  C14 UNL     1      -5.813  -0.772  -0.085  1.00  0.00    -0.023 C 
HETATM   12  C15 UNL     1      -4.523  -1.489   0.114  1.00  0.00     0.020 C 
HETATM   13  C16 UNL     1      -4.029  -2.584   0.748  1.00  0.00     0.002 C 
HETATM   14  C17 UNL     1      -2.560  -2.733   0.534  1.00  0.00     0.033 C 
HETATM   15  C18 UNL     1      -1.976  -1.504  -0.057  1.00  0.00    -0.024 C 
HETATM   16  C19 UNL     1      -0.904  -0.837   0.418  1.00  0.00     0.025 C 
HETATM   17  H10 UNL     1      -4.583   3.320  -1.846  1.00  0.00     0.182 HD
ENDROOT
BRANCH   1  18
HETATM   18  N2  UNL     1       1.259  -0.058   0.474  1.00  0.00    -0.308 N 
HETATM   19  C6  UNL     1       2.577   0.315   0.122  1.00  0.00     0.329 C 
HETATM   20  N1  UNL     1       3.844  -0.135   0.502  1.00  0.00    -0.272 N 
HETATM   21  O1  UNL     1       2.563   1.270  -0.730  1.00  0.00    -0.246 OA
HETATM   22  C5  UNL     1       4.171  -1.150   1.437  1.00  0.00     0.194 C 
HETATM   23  C20 UNL     1       4.975   0.489  -0.155  1.00  0.00     0.170 C 
HETATM   24  C4  UNL     1       5.335  -1.691   1.702  1.00  0.00     0.062 C 
HETATM   25  F1  UNL     1       3.194  -1.712   2.152  1.00  0.00    -0.186 F 
HETATM   26  C3  UNL     1       6.483  -1.163   0.994  1.00  0.00     0.008 C 
HETATM   27  C2  UNL     1       6.225  -0.191   0.166  1.00  0.00    -0.065 C 
HETATM   28  C1  UNL     1       7.355   0.415  -0.612  1.00  0.00     0.045 C 
HETATM   29  H6  UNL     1       1.497  -0.828   1.168  1.00  0.00     0.170 HD
ENDBRANCH   1  18
TORSDOF 1
