REMARK  4 active torsions:
REMARK  status: ('A' for Active; 'I' for Inactive)
REMARK    1  A    between atoms: O1_1  and  C1_2 
REMARK    2  A    between atoms: C5_6  and  C6_7 
REMARK    3  A    between atoms: C6_7  and  C7_8 
REMARK    4  A    between atoms: C8_10  and  N2_11 
ROOT
HETATM    1  C7  UNL     1       0.846   0.559  -1.060  1.00  0.00     0.133 A 
HETATM    2  N1  UNL     1       0.064  -0.527  -0.992  1.00  0.00    -0.213 NA
HETATM    3  C8  UNL     1      -1.231  -0.442  -0.571  1.00  0.00     0.164 A 
HETATM    4  C13 UNL     1      -1.765   0.791  -0.200  1.00  0.00     0.153 A 
HETATM    5  O3  UNL     1      -2.953   1.174   0.237  1.00  0.00    -0.285 OA
HETATM    6  C14 UNL     1      -2.942   2.487   0.450  1.00  0.00     0.182 A 
HETATM    7  N3  UNL     1      -3.917   3.330   0.895  1.00  0.00    -0.236 NA
HETATM    8  C15 UNL     1      -3.638   4.659   1.026  1.00  0.00     0.119 A 
HETATM    9  C16 UNL     1      -2.397   5.187   0.722  1.00  0.00     0.020 A 
HETATM   10  C17 UNL     1      -1.413   4.331   0.271  1.00  0.00     0.020 A 
HETATM   11  C18 UNL     1      -1.685   2.977   0.134  1.00  0.00     0.049 A 
HETATM   12  C19 UNL     1      -0.932   1.898  -0.280  1.00  0.00     0.111 A 
HETATM   13  N4  UNL     1       0.347   1.774  -0.703  1.00  0.00    -0.229 NA
ENDROOT
BRANCH   1  14
HETATM   14  C6  UNL     1       2.257   0.493  -1.515  1.00  0.00     0.114 C 
BRANCH  14  15
HETATM   15  C5  UNL     1       3.186   0.253  -0.368  1.00  0.00    -0.070 C 
HETATM   16  C4  UNL     1       4.151   1.105  -0.042  1.00  0.00    -0.019 C 
HETATM   17  C3  UNL     1       5.015   0.739   1.138  1.00  0.00     0.057 C 
HETATM   18  C2  UNL     1       5.342  -0.716   0.944  1.00  0.00     0.009 C 
HETATM   19  C1  UNL     1       4.384  -1.558   0.601  1.00  0.00     0.043 C 
HETATM   20  C20 UNL     1       3.000  -0.994   0.424  1.00  0.00     0.098 C 
BRANCH  19  21
HETATM   21  O1  UNL     1       4.572  -2.928   0.395  1.00  0.00    -0.365 OA
HETATM   22  H1  UNL     1       4.896  -3.322  -0.471  1.00  0.00     0.217 HD
ENDBRANCH  19  21
ENDBRANCH  14  15
ENDBRANCH   1  14
BRANCH   3  23
HETATM   23  N2  UNL     1      -2.050  -1.603  -0.504  1.00  0.00    -0.359 N 
HETATM   24  C9  UNL     1      -2.514  -1.824   0.859  1.00  0.00     0.151 C 
HETATM   25  C10 UNL     1      -3.289  -3.096   0.961  1.00  0.00     0.187 C 
HETATM   26  O2  UNL     1      -3.898  -3.458  -0.232  1.00  0.00    -0.388 OA
HETATM   27  C11 UNL     1      -2.960  -3.721  -1.228  1.00  0.00     0.187 C 
HETATM   28  C12 UNL     1      -2.353  -2.427  -1.678  1.00  0.00     0.151 C 
ENDBRANCH   3  23
TORSDOF 4
