REMARK  3 active torsions:
REMARK  status: ('A' for Active; 'I' for Inactive)
REMARK    1  A    between atoms: C5_6  and  S1_7 
REMARK    2  A    between atoms: S1_7  and  C6_10 
REMARK    3  A    between atoms: C6_10  and  C7_11 
ROOT
HETATM    1  S1  UNL     1      -0.486   2.084  -0.875  1.00  0.00     0.179 S 
HETATM    2  O2  UNL     1      -1.030   2.097  -2.272  1.00  0.00    -0.222 OA
HETATM    3  O3  UNL     1       0.206   3.409  -0.669  1.00  0.00    -0.222 OA
ENDROOT
BRANCH   1   4
HETATM    4  C5  UNL     1       0.699   0.783  -0.691  1.00  0.00     0.060 A 
HETATM    5  C4  UNL     1       1.794   1.035   0.111  1.00  0.00     0.033 A 
HETATM    6  C3  UNL     1       2.802   0.103   0.345  1.00  0.00    -0.021 A 
HETATM    7  C2  UNL     1       4.044   0.220   1.183  1.00  0.00     0.144 A 
HETATM    8  C15 UNL     1       2.685  -1.136  -0.265  1.00  0.00     0.041 A 
HETATM    9  C1  UNL     1       4.660  -1.113   0.992  1.00  0.00     0.226 A 
HETATM   10  O1  UNL     1       5.758  -1.475   1.526  1.00  0.00    -0.273 OA
HETATM   11  N1  UNL     1       3.824  -1.893   0.128  1.00  0.00    -0.326 N 
HETATM   12  H11 UNL     1       4.047  -2.874  -0.154  1.00  0.00     0.169 HD
HETATM   13  C14 UNL     1       1.589  -1.388  -1.067  1.00  0.00     0.031 A 
HETATM   14  C13 UNL     1       0.594  -0.454  -1.293  1.00  0.00     0.026 A 
ENDBRANCH   1   4
BRANCH   1  15
HETATM   15  C6  UNL     1      -1.757   1.956   0.344  1.00  0.00     0.187 C 
BRANCH  15  16
HETATM   16  C7  UNL     1      -2.509   0.699   0.283  1.00  0.00    -0.001 A 
HETATM   17  C8  UNL     1      -3.449   0.624  -0.735  1.00  0.00     0.043 A 
HETATM   18 CL1  UNL     1      -3.834   1.852  -1.925  1.00  0.00    -0.084 Cl
HETATM   19  C9  UNL     1      -4.221  -0.523  -0.897  1.00  0.00     0.024 A 
HETATM   20  C10 UNL     1      -4.056  -1.607  -0.039  1.00  0.00     0.003 A 
HETATM   21  C11 UNL     1      -3.122  -1.541   0.978  1.00  0.00     0.024 A 
HETATM   22  C12 UNL     1      -2.380  -0.398   1.109  1.00  0.00     0.043 A 
HETATM   23 CL2  UNL     1      -1.182  -0.268   2.383  1.00  0.00    -0.084 Cl
ENDBRANCH  15  16
ENDBRANCH   1  15
TORSDOF 3
