REMARK  1 active torsions:
REMARK  status: ('A' for Active; 'I' for Inactive)
REMARK    1  A    between atoms: N1_1  and  C1_2 
ROOT
HETATM    1  C1  UNL     1       2.961   0.321   0.226  1.00  0.00     0.128 C 
HETATM    2  N2  UNL     1       2.640   1.594  -0.105  1.00  0.00    -0.165 NA
HETATM    3  N3  UNL     1       1.256   2.000  -0.039  1.00  0.00    -0.300 N 
HETATM    4  C2  UNL     1       0.311   1.216  -0.778  1.00  0.00     0.175 C 
HETATM    5  C3  UNL     1      -1.059   1.134  -0.157  1.00  0.00    -0.033 C 
HETATM    6  C4  UNL     1      -2.389   1.389  -0.550  1.00  0.00     0.011 C 
HETATM    7  C5  UNL     1      -3.252   0.079   0.082  1.00  0.00     0.133 C 
HETATM    8  C6  UNL     1      -2.759   0.546   1.381  1.00  0.00     0.003 C 
HETATM    9  C7  UNL     1      -1.421   0.585   1.186  1.00  0.00     0.007 C 
HETATM   10  N4  UNL     1      -2.328  -0.884  -0.484  1.00  0.00    -0.325 N 
HETATM   11  C8  UNL     1      -1.363  -1.889  -1.075  1.00  0.00     0.425 C 
HETATM   12  O1  UNL     1      -1.754  -2.784  -1.567  1.00  0.00    -0.239 OA
HETATM   13  N5  UNL     1       0.179  -1.512  -0.940  1.00  0.00     0.093 N 
HETATM   14  C9  UNL     1       0.482  -0.545  -2.000  1.00  0.00     0.288 A 
HETATM   15  C10 UNL     1       1.020  -0.195  -0.843  1.00  0.00     0.220 A 
HETATM   16  C11 UNL     1       1.747  -0.187   0.518  1.00  0.00     0.126 C 
HETATM   17  C12 UNL     1       1.144  -1.381   1.176  1.00  0.00     0.058 C 
HETATM   18  C13 UNL     1       0.262  -2.060   0.330  1.00  0.00     0.296 C 
HETATM   19  F1  UNL     1      -0.371  -3.134   0.787  1.00  0.00    -0.178 F 
HETATM   20  H3  UNL     1       0.834   2.811   0.491  1.00  0.00     0.183 HD
HETATM   21  H9  UNL     1      -1.705  -0.744   0.253  1.00  0.00     0.165 HD
ENDROOT
BRANCH   1  22
HETATM   22  N1  UNL     1       4.296  -0.104   0.174  1.00  0.00    -0.385 N 
HETATM   23  H1  UNL     1       4.623  -0.449  -0.776  1.00  0.00     0.157 HD
HETATM   24  H2  UNL     1       4.463   0.109   1.198  1.00  0.00     0.157 HD
ENDBRANCH   1  22
TORSDOF 1
