REMARK  3 active torsions:
REMARK  status: ('A' for Active; 'I' for Inactive)
REMARK    1  A    between atoms: C2_2  and  C3_3 
REMARK    2  A    between atoms: C5_7  and  O1_8 
REMARK    3  A    between atoms: C9_12  and  O2_13 
ROOT
HETATM    1  C3  UNL     1       0.041  -1.698  -0.450  1.00  0.00     0.036 C 
HETATM    2  N1  UNL     1       1.146  -1.443  -1.108  1.00  0.00    -0.183 NA
HETATM    3  N2  UNL     1       1.617  -0.140  -1.292  1.00  0.00    -0.280 N 
HETATM    4  C4  UNL     1       0.978   1.186  -1.332  1.00  0.00     0.060 C 
HETATM    5  C5  UNL     1       1.280   1.064  -0.030  1.00  0.00     0.070 C 
HETATM    6  C7  UNL     1       1.002   2.030   1.089  1.00  0.00     0.069 C 
HETATM    7  C8  UNL     1      -0.070   1.405   1.993  1.00  0.00     0.043 C 
HETATM    8  C9  UNL     1      -1.369   1.250   1.238  1.00  0.00     0.150 C 
HETATM    9  C11 UNL     1      -1.279   0.347   0.058  1.00  0.00    -0.043 C 
HETATM   10  C12 UNL     1      -1.012  -0.053  -1.163  1.00  0.00     0.047 C 
HETATM   11  C13 UNL     1      -0.689  -0.422  -2.521  1.00  0.00     0.113 C 
HETATM   12  F1  UNL     1      -1.239  -1.629  -2.889  1.00  0.00    -0.206 F 
HETATM   13  C14 UNL     1       0.005   0.308  -3.373  1.00  0.00     0.021 C 
HETATM   14  C15 UNL     1       0.471   1.581  -2.715  1.00  0.00     0.091 C 
HETATM   15  C16 UNL     1      -1.081  -1.077   0.416  1.00  0.00     0.093 C 
HETATM   16  H6  UNL     1       2.402  -0.858  -1.333  1.00  0.00     0.189 HD
ENDROOT
BRANCH   1  17
HETATM   17  C2  UNL     1      -0.132  -3.203  -0.459  1.00  0.00     0.052 C 
HETATM   18  C1  UNL     1      -0.056  -3.792   0.916  1.00  0.00     0.011 C 
ENDBRANCH   1  17
BRANCH   8  19
HETATM   19  O2  UNL     1      -1.861   2.496   0.838  1.00  0.00    -0.386 OA
HETATM   20  C10 UNL     1      -3.117   2.746   1.403  1.00  0.00     0.202 C 
ENDBRANCH   8  19
BRANCH   5  21
HETATM   21  O1  UNL     1       1.921  -0.073   0.411  1.00  0.00    -0.358 OA
HETATM   22  C6  UNL     1       3.259  -0.017   0.820  1.00  0.00     0.209 C 
ENDBRANCH   5  21
TORSDOF 3
