REMARK  1 active torsions:
REMARK  status: ('A' for Active; 'I' for Inactive)
REMARK    1  A    between atoms: C18_22  and  O2_23 
ROOT
HETATM    1  C1  UNL     1       4.884  -1.314  -0.574  1.00  0.00     0.019 C 
HETATM    2  C2  UNL     1       3.754  -0.758   0.225  1.00  0.00     0.061 C 
HETATM    3  C3  UNL     1       2.575  -1.704   0.147  1.00  0.00     0.178 C 
HETATM    4  O1  UNL     1       1.474  -1.189   0.823  1.00  0.00    -0.390 OA
HETATM    5  C4  UNL     1       0.433  -2.108   0.705  1.00  0.00     0.173 C 
HETATM    6  C5  UNL     1      -0.833  -1.568   1.362  1.00  0.00     0.086 C 
HETATM    7  C6  UNL     1      -1.245  -0.305   0.690  1.00  0.00     0.053 A 
HETATM    8  N1  UNL     1      -0.237   0.569   0.620  1.00  0.00    -0.237 NA
HETATM    9  C7  UNL     1      -0.457   1.748   0.022  1.00  0.00     0.127 A 
HETATM   10  N2  UNL     1      -1.686   1.977  -0.474  1.00  0.00    -0.232 NA
HETATM   11  C8  UNL     1      -2.700   1.098  -0.404  1.00  0.00     0.086 A 
HETATM   12  C9  UNL     1      -2.519  -0.126   0.203  1.00  0.00     0.048 A 
HETATM   13  C10 UNL     1      -3.887  -0.557  -0.041  1.00  0.00     0.083 A 
HETATM   14  N3  UNL     1      -4.819  -1.518   0.092  1.00  0.00    -0.259 NA
HETATM   15  C11 UNL     1      -6.059  -1.278  -0.411  1.00  0.00     0.117 A 
HETATM   16  C12 UNL     1      -6.294  -0.061  -1.032  1.00  0.00     0.020 A 
HETATM   17  C13 UNL     1      -5.342   0.941  -1.177  1.00  0.00     0.017 A 
HETATM   18  C14 UNL     1      -4.086   0.682  -0.660  1.00  0.00     0.024 A 
HETATM   19  C15 UNL     1       0.510   2.856  -0.157  1.00  0.00     0.084 C 
HETATM   20  C16 UNL     1       1.629   2.522  -1.114  1.00  0.00     0.037 C 
HETATM   21  C17 UNL     1       2.417   1.376  -0.634  1.00  0.00     0.006 C 
HETATM   22  C18 UNL     1       3.372   0.599  -0.203  1.00  0.00     0.045 C 
ENDROOT
BRANCH  22  23
HETATM   23  O2  UNL     1       4.119   1.753  -0.297  1.00  0.00    -0.365 OA
HETATM   24  H19 UNL     1       5.022   1.769   0.166  1.00  0.00     0.217 HD
ENDBRANCH  22  23
TORSDOF 1
