REMARK  5 active torsions:
REMARK  status: ('A' for Active; 'I' for Inactive)
REMARK    1  A    between atoms: O1_2  and  C2_3 
REMARK    2  A    between atoms: C3_4  and  N1_5 
REMARK    3  A    between atoms: C8_12  and  C9_13 
REMARK    4  A    between atoms: C9_13  and  C10_14 
REMARK    5  A    between atoms: B1_18  and  O3_19 
ROOT
HETATM    1  C2  UNL     1      -0.181  -0.997   2.507  1.00  0.00     0.126 C 
HETATM    2  C3  UNL     1      -0.115  -0.981   1.225  1.00  0.00     0.214 C 
HETATM    3  N2  UNL     1      -0.106  -0.866  -0.017  1.00  0.00    -0.357 NA
HETATM    4  C8  UNL     1       0.030  -0.861  -1.224  1.00  0.00     0.232 C 
HETATM    5  N3  UNL     1       1.046  -1.709  -1.063  1.00  0.00    -0.395 NA
HETATM    6  C15 UNL     1       1.870  -2.514  -0.852  1.00  0.00     0.162 C 
HETATM    7  C16 UNL     1       0.864  -3.152  -0.004  1.00  0.00     0.086 C 
HETATM    8  C17 UNL     1       0.994  -3.063   1.442  1.00  0.00    -0.018 C 
HETATM    9  C18 UNL     1       0.577  -2.252   2.388  1.00  0.00     0.038 C 
ENDROOT
BRANCH   4  10
HETATM   10  C9  UNL     1      -0.608  -0.208  -2.393  1.00  0.00     0.141 C 
BRANCH  10  11
HETATM   11  C10 UNL     1       0.430   0.557  -3.175  1.00  0.00    -0.077 A 
HETATM   12  C11 UNL     1       0.769   0.380  -4.450  1.00  0.00     0.001 A 
HETATM   13  C12 UNL     1       1.799   1.210  -5.039  1.00  0.00    -0.013 A 
HETATM   14  C13 UNL     1       2.456   2.171  -4.370  1.00  0.00    -0.045 A 
HETATM   15  B1  UNL     1       2.116   2.435  -2.857  1.00  0.00     0.357 B 
HETATM   16  C14 UNL     1       0.954   1.553  -2.227  1.00  0.00     0.024 A 
BRANCH  15  17
HETATM   17  O3  UNL     1       3.217   2.816  -1.972  1.00  0.00    -0.458 OA
HETATM   18  H17 UNL     1       3.976   2.211  -2.100  1.00  0.00     0.182 HD
ENDBRANCH  15  17
ENDBRANCH  10  11
ENDBRANCH   4  10
BRANCH   2  19
HETATM   19  N1  UNL     1      -0.833   0.283   1.194  1.00  0.00    -0.350 N 
HETATM   20  C4  UNL     1      -2.271   0.485   0.933  1.00  0.00     0.151 C 
HETATM   21  C5  UNL     1      -2.989   0.890   2.187  1.00  0.00     0.187 C 
HETATM   22  O2  UNL     1      -2.274   1.884   2.842  1.00  0.00    -0.388 OA
HETATM   23  C6  UNL     1      -1.364   2.513   2.016  1.00  0.00     0.187 C 
HETATM   24  C7  UNL     1      -0.316   1.620   1.412  1.00  0.00     0.151 C 
ENDBRANCH   2  19
BRANCH   1  25
HETATM   25  O1  UNL     1      -0.565  -0.446   3.694  1.00  0.00    -0.351 OA
HETATM   26  C1  UNL     1      -1.261  -1.327   4.597  1.00  0.00     0.210 C 
ENDBRANCH   1  25
TORSDOF 5
