REMARK  3 active torsions:
REMARK  status: ('A' for Active; 'I' for Inactive)
REMARK    1  A    between atoms: O1_1  and  C1_2 
REMARK    2  A    between atoms: C4_6  and  C5_7 
REMARK    3  A    between atoms: C6_9  and  N2_10 
ROOT
HETATM    1  C5  UNL     1       1.806   0.634  -0.035  1.00  0.00     0.162 A 
HETATM    2  N1  UNL     1       1.195  -0.580  -0.091  1.00  0.00    -0.208 NA
HETATM    3  C6  UNL     1      -0.126  -0.725   0.028  1.00  0.00     0.165 A 
HETATM    4  C11 UNL     1      -0.941   0.392   0.219  1.00  0.00     0.153 A 
HETATM    5  O3  UNL     1      -2.237   0.584   0.369  1.00  0.00    -0.285 OA
HETATM    6  C12 UNL     1      -2.495   1.863   0.519  1.00  0.00     0.182 A 
HETATM    7  N3  UNL     1      -3.648   2.563   0.704  1.00  0.00    -0.236 NA
HETATM    8  C13 UNL     1      -3.568   3.897   0.826  1.00  0.00     0.119 A 
HETATM    9  C14 UNL     1      -2.403   4.637   0.780  1.00  0.00     0.020 A 
HETATM   10  C15 UNL     1      -1.224   3.936   0.593  1.00  0.00     0.020 A 
HETATM   11  C16 UNL     1      -1.303   2.569   0.468  1.00  0.00     0.049 A 
HETATM   12  C17 UNL     1      -0.302   1.634   0.275  1.00  0.00     0.111 A 
HETATM   13  N4  UNL     1       1.043   1.711   0.147  1.00  0.00    -0.225 NA
ENDROOT
BRANCH   1  14
HETATM   14  C4  UNL     1       3.262   0.731  -0.173  1.00  0.00     0.016 C 
HETATM   15  C3  UNL     1       3.899   2.020  -0.112  1.00  0.00     0.035 C 
HETATM   16  C2  UNL     1       5.165   2.255   0.006  1.00  0.00     0.025 C 
HETATM   17  S1  UNL     1       6.156   1.052  -0.434  1.00  0.00    -0.065 SA
HETATM   18  C1  UNL     1       5.415  -0.409  -0.502  1.00  0.00     0.108 C 
HETATM   19  C18 UNL     1       3.954  -0.383  -0.351  1.00  0.00     0.059 C 
BRANCH  18  20
HETATM   20  O1  UNL     1       6.014  -1.666  -0.684  1.00  0.00    -0.354 OA
HETATM   21  H1  UNL     1       6.736  -1.739  -1.411  1.00  0.00     0.218 HD
ENDBRANCH  18  20
ENDBRANCH   1  14
BRANCH   3  22
HETATM   22  N2  UNL     1      -0.830  -1.951  -0.020  1.00  0.00    -0.359 N 
HETATM   23  C7  UNL     1      -1.644  -2.470   1.044  1.00  0.00     0.151 C 
HETATM   24  C8  UNL     1      -3.045  -2.738   0.576  1.00  0.00     0.187 C 
HETATM   25  O2  UNL     1      -3.124  -3.006  -0.779  1.00  0.00    -0.388 OA
HETATM   26  C9  UNL     1      -1.996  -3.630  -1.300  1.00  0.00     0.187 C 
HETATM   27  C10 UNL     1      -0.749  -2.771  -1.213  1.00  0.00     0.151 C 
ENDBRANCH   3  22
TORSDOF 3
