REMARK  2 active torsions:
REMARK  status: ('A' for Active; 'I' for Inactive)
REMARK    1  A    between atoms: O1_1  and  C1_2 
REMARK    2  A    between atoms: C6_8  and  N2_9 
ROOT
HETATM    1  C1  UNL     1      -3.448  -1.742  -0.090  1.00  0.00     0.094 C 
HETATM    2  C2  UNL     1      -3.335  -3.051   0.291  1.00  0.00     0.039 C 
HETATM    3  C3  UNL     1      -2.133  -3.904   0.219  1.00  0.00     0.005 C 
HETATM    4  C4  UNL     1      -0.903  -3.564  -0.278  1.00  0.00     0.032 C 
HETATM    5  C5  UNL     1      -0.751  -2.340  -1.160  1.00  0.00     0.061 C 
HETATM    6  N1  UNL     1       0.478  -1.903  -0.820  1.00  0.00    -0.229 NA
HETATM    7  C6  UNL     1       0.810  -0.543  -0.308  1.00  0.00     0.163 C 
HETATM    8  C11 UNL     1       0.106   0.604  -0.091  1.00  0.00     0.153 A 
HETATM    9  O3  UNL     1       0.714   1.667   0.297  1.00  0.00    -0.285 OA
HETATM   10  C12 UNL     1      -0.162   2.647   0.445  1.00  0.00     0.182 A 
HETATM   11  N3  UNL     1      -0.019   3.941   0.829  1.00  0.00    -0.236 NA
HETATM   12  C13 UNL     1      -1.105   4.762   0.901  1.00  0.00     0.119 A 
HETATM   13  C14 UNL     1      -2.385   4.345   0.597  1.00  0.00     0.020 A 
HETATM   14  C15 UNL     1      -2.576   3.037   0.200  1.00  0.00     0.020 A 
HETATM   15  C16 UNL     1      -1.464   2.228   0.136  1.00  0.00     0.049 A 
HETATM   16  C17 UNL     1      -1.282   0.916  -0.207  1.00  0.00     0.110 A 
HETATM   17  N4  UNL     1      -2.411   0.254  -0.564  1.00  0.00    -0.242 NA
HETATM   18  C18 UNL     1      -2.474  -1.138  -1.077  1.00  0.00     0.092 C 
HETATM   19  C19 UNL     1      -1.790  -1.753  -2.123  1.00  0.00     0.066 C 
ENDROOT
BRANCH   7  20
HETATM   20  N2  UNL     1       2.148  -0.429   0.030  1.00  0.00    -0.359 N 
HETATM   21  C7  UNL     1       2.770  -0.360   1.324  1.00  0.00     0.151 C 
HETATM   22  C8  UNL     1       4.243  -0.622   1.238  1.00  0.00     0.187 C 
HETATM   23  O2  UNL     1       4.915   0.219   0.360  1.00  0.00    -0.388 OA
HETATM   24  C9  UNL     1       4.121   0.682  -0.666  1.00  0.00     0.187 C 
HETATM   25  C10 UNL     1       3.087  -0.369  -1.089  1.00  0.00     0.151 C 
ENDBRANCH   7  20
BRANCH   1  26
HETATM   26  O1  UNL     1      -4.385  -0.824   0.326  1.00  0.00    -0.358 OA
HETATM   27  H1  UNL     1      -5.071  -0.440  -0.311  1.00  0.00     0.217 HD
ENDBRANCH   1  26
TORSDOF 2
