REMARK  3 active torsions:
REMARK  status: ('A' for Active; 'I' for Inactive)
REMARK    1  A    between atoms: P1_1  and  O1_2 
REMARK    2  A    between atoms: O1_2  and  C1_3 
REMARK    3  A    between atoms: C7_10  and  N2_11 
ROOT
HETATM    1  C1  UNL     1       4.676  -0.259  -0.374  1.00  0.00     0.073 A 
HETATM    2  C2  UNL     1       4.854  -1.633  -0.423  1.00  0.00     0.037 A 
HETATM    3  C3  UNL     1       3.820  -2.548  -0.391  1.00  0.00     0.004 A 
HETATM    4  C4  UNL     1       2.548  -1.999  -0.304  1.00  0.00     0.015 A 
HETATM    5  C5  UNL     1       2.292  -0.643  -0.251  1.00  0.00     0.014 A 
HETATM    6  C6  UNL     1       0.934  -0.151  -0.161  1.00  0.00     0.162 A 
HETATM    7  N1  UNL     1      -0.129  -0.956  -0.125  1.00  0.00    -0.208 NA
HETATM    8  C7  UNL     1      -1.359  -0.433  -0.041  1.00  0.00     0.165 A 
HETATM    9  C12 UNL     1      -1.623   0.926   0.013  1.00  0.00     0.153 A 
HETATM   10  O3  UNL     1      -2.657   1.719   0.093  1.00  0.00    -0.285 OA
HETATM   11  C13 UNL     1      -2.289   2.979   0.108  1.00  0.00     0.182 A 
HETATM   12  N3  UNL     1      -2.941   4.153   0.178  1.00  0.00    -0.236 NA
HETATM   13  C14 UNL     1      -2.292   5.349   0.176  1.00  0.00     0.119 A 
HETATM   14  C15 UNL     1      -0.914   5.408   0.100  1.00  0.00     0.020 A 
HETATM   15  C16 UNL     1      -0.187   4.231   0.026  1.00  0.00     0.020 A 
HETATM   16  C17 UNL     1      -0.913   3.050   0.033  1.00  0.00     0.049 A 
HETATM   17  C18 UNL     1      -0.495   1.734  -0.028  1.00  0.00     0.111 A 
HETATM   18  N4  UNL     1       0.728   1.189  -0.112  1.00  0.00    -0.225 NA
HETATM   19  C19 UNL     1       3.380   0.203  -0.288  1.00  0.00     0.052 A 
ENDROOT
BRANCH   8  20
HETATM   20  N2  UNL     1      -2.488  -1.308  -0.003  1.00  0.00    -0.359 N 
HETATM   21  C8  UNL     1      -3.561  -1.314  -0.977  1.00  0.00     0.151 C 
HETATM   22  C9  UNL     1      -4.637  -2.237  -0.414  1.00  0.00     0.187 C 
HETATM   23  O2  UNL     1      -4.121  -3.499  -0.214  1.00  0.00    -0.388 OA
HETATM   24  C10 UNL     1      -3.062  -3.569   0.657  1.00  0.00     0.187 C 
HETATM   25  C11 UNL     1      -2.519  -2.231   1.096  1.00  0.00     0.151 C 
ENDBRANCH   8  20
BRANCH   1  26
HETATM   26  O1  UNL     1       5.756   0.601  -0.410  1.00  0.00    -0.330 OA
BRANCH  26  27
HETATM   27  P1  UNL     1       7.098   0.363   0.684  1.00  0.00     0.009 P 
HETATM   28  H1  UNL     1       8.301   0.747  -0.038  1.00  0.00     0.085 HD
HETATM   29  H2  UNL     1       7.211  -1.054   1.002  1.00  0.00     0.085 HD
ENDBRANCH  26  27
ENDBRANCH   1  26
TORSDOF 3
