REMARK  5 active torsions:
REMARK  status: ('A' for Active; 'I' for Inactive)
REMARK    1  A    between atoms: P1_2  and  C18_25 
REMARK    2  A    between atoms: C2_3  and  C15_22 
REMARK    3  A    between atoms: C6_10  and  N4_11 
REMARK    4  A    between atoms: C8_14  and  C9_15 
REMARK    5  A    between atoms: C13_19  and  O1_20 
ROOT
HETATM    1  C1  UNL     1       1.713  -1.377   2.647  1.00  0.00    -0.043 C 
HETATM    2  P1  UNL     1       1.986  -0.336   1.594  1.00  0.00    -0.035 P 
HETATM    3  C2  UNL     1       2.092   0.116   1.123  1.00  0.00     0.049 A 
HETATM    4  C3  UNL     1       0.595  -0.896   0.681  1.00  0.00     0.142 A 
HETATM    5  N1  UNL     1       0.640  -2.266   0.749  1.00  0.00    -0.245 NA
HETATM    6  C4  UNL     1      -0.353  -3.061   0.511  1.00  0.00     0.179 A 
HETATM    7  N2  UNL     1      -0.016  -4.344   0.655  1.00  0.00    -0.220 NA
HETATM    8  C5  UNL     1      -1.026  -5.236   0.419  1.00  0.00     0.237 A 
HETATM    9  N3  UNL     1      -2.255  -4.760   0.065  1.00  0.00    -0.228 NA
HETATM   10  C6  UNL     1      -2.499  -3.449  -0.056  1.00  0.00     0.135 A 
HETATM   11  C7  UNL     1      -1.540  -2.524   0.166  1.00  0.00     0.144 A 
HETATM   12  N5  UNL     1      -1.745  -1.212   0.058  1.00  0.00    -0.242 NA
HETATM   13  C8  UNL     1      -0.712  -0.439   0.309  1.00  0.00     0.082 A 
ENDROOT
BRANCH   3  14
HETATM   14  C15 UNL     1       2.023   0.719  -0.346  1.00  0.00     0.015 C 
HETATM   15  C16 UNL     1       2.676   2.166  -0.446  1.00  0.00     0.006 A 
HETATM   16  C17 UNL     1       2.969   2.184   0.873  1.00  0.00     0.005 A 
HETATM   17  C18 UNL     1       2.511   1.463  -0.154  1.00  0.00     0.033 A 
HETATM   18  O2  UNL     1       3.069   0.269  -0.899  1.00  0.00     0.000 OA
HETATM   19  H14 UNL     1       3.859   0.693  -1.353  1.00  0.00     0.000 HD
ENDBRANCH   3  14
BRANCH  13  20
HETATM   20  C9  UNL     1      -0.809   1.008   0.213  1.00  0.00    -0.006 A 
HETATM   21  C10 UNL     1      -0.531   2.092   1.008  1.00  0.00     0.014 A 
HETATM   22  C11 UNL     1      -0.716   3.384   0.604  1.00  0.00     0.004 A 
HETATM   23  C12 UNL     1      -1.201   3.701  -0.645  1.00  0.00     0.036 A 
HETATM   24  C13 UNL     1      -1.494   2.659  -1.473  1.00  0.00     0.066 A 
HETATM   25  C14 UNL     1      -1.303   1.338  -1.056  1.00  0.00     0.050 A 
BRANCH  24  26
HETATM   26  O1  UNL     1      -1.982   3.021  -2.724  1.00  0.00    -0.361 OA
HETATM   27  H8  UNL     1      -2.969   2.863  -2.887  1.00  0.00     0.217 HD
ENDBRANCH  24  26
ENDBRANCH  13  20
BRANCH  10  28
HETATM   28  N4  UNL     1      -3.766  -2.900  -0.422  1.00  0.00    -0.285 NA
HETATM   29  H3  UNL     1      -4.245  -2.511  -1.245  1.00  0.00     0.125 HD
HETATM   30  H4  UNL     1      -3.752  -2.633  -1.450  1.00  0.00     0.125 HD
ENDBRANCH  10  28
TORSDOF 5
