REMARK  3 active torsions:
REMARK  status: ('A' for Active; 'I' for Inactive)
REMARK    1  A    between atoms: O1_1  and  C1_2 
REMARK    2  A    between atoms: C5_6  and  C6_7 
REMARK    3  A    between atoms: C7_9  and  N2_10 
ROOT
HETATM    1  C6  UNL     1       0.980  -0.107  -0.007  1.00  0.00     0.162 A 
HETATM    2  N1  UNL     1      -0.292  -0.300   0.090  1.00  0.00    -0.209 NA
HETATM    3  C7  UNL     1      -1.458   0.546   0.169  1.00  0.00     0.150 A 
HETATM    4  C12 UNL     1      -1.611   1.870   0.128  1.00  0.00     0.194 A 
HETATM    5  O3  UNL     1      -0.806   2.994   0.002  1.00  0.00    -0.299 OA
HETATM    6  C13 UNL     1       0.565   3.220  -0.076  1.00  0.00     0.194 A 
HETATM    7  N3  UNL     1       0.731   4.509  -0.120  1.00  0.00    -0.235 NA
HETATM    8  C14 UNL     1       2.067   5.017  -0.204  1.00  0.00     0.116 A 
HETATM    9  C15 UNL     1       3.142   4.238  -0.239  1.00  0.00    -0.001 A 
HETATM   10  C16 UNL     1       3.124   2.770  -0.198  1.00  0.00     0.092 A 
HETATM   11  C17 UNL     1       1.707   2.309  -0.111  1.00  0.00     0.093 A 
HETATM   12  N4  UNL     1       1.857   1.010  -0.084  1.00  0.00    -0.228 NA
ENDROOT
BRANCH   1  13
HETATM   13  C5  UNL     1       1.714  -1.369  -0.049  1.00  0.00     0.014 A 
HETATM   14  C4  UNL     1       1.053  -2.579   0.012  1.00  0.00     0.015 A 
HETATM   15  C3  UNL     1       1.656  -3.819  -0.020  1.00  0.00     0.004 A 
HETATM   16  C2  UNL     1       3.048  -3.788  -0.125  1.00  0.00     0.036 A 
HETATM   17  C1  UNL     1       3.746  -2.605  -0.189  1.00  0.00     0.066 A 
HETATM   18  C18 UNL     1       3.090  -1.385  -0.152  1.00  0.00     0.051 A 
BRANCH  17  19
HETATM   19  O1  UNL     1       5.120  -2.563  -0.292  1.00  0.00    -0.361 OA
HETATM   20  H1  UNL     1       5.634  -2.782  -1.134  1.00  0.00     0.217 HD
ENDBRANCH  17  19
ENDBRANCH   1  13
BRANCH   3  21
HETATM   21  N2  UNL     1      -2.705  -0.098   0.318  1.00  0.00    -0.360 N 
HETATM   22  C8  UNL     1      -3.554  -0.154  -0.862  1.00  0.00     0.151 C 
HETATM   23  C9  UNL     1      -4.112  -1.548  -0.953  1.00  0.00     0.187 C 
HETATM   24  O2  UNL     1      -4.696  -1.984   0.206  1.00  0.00    -0.388 OA
HETATM   25  C10 UNL     1      -4.607  -1.136   1.283  1.00  0.00     0.187 C 
HETATM   26  C11 UNL     1      -3.177  -0.695   1.554  1.00  0.00     0.151 C 
ENDBRANCH   3  21
TORSDOF 3
