REMARK  6 active torsions:
REMARK  status: ('A' for Active; 'I' for Inactive)
REMARK    1  A    between atoms: O1_2  and  C2_3 
REMARK    2  A    between atoms: C2_3  and  C3_4 
REMARK    3  A    between atoms: C8_9  and  O2_10 
REMARK    4  A    between atoms: C11_13  and  N1_14 
REMARK    5  A    between atoms: C11_13  and  N3_16 
REMARK    6  A    between atoms: N3_16  and  C12_17 
ROOT
HETATM    1  C3  UNL     1       4.054  -0.683   0.058  1.00  0.00    -0.001 A 
HETATM    2  C4  UNL     1       2.836  -1.055  -0.492  1.00  0.00     0.020 A 
HETATM    3  C5  UNL     1       1.607  -0.848   0.097  1.00  0.00    -0.047 A 
HETATM    4  C6  UNL     1       1.575  -0.220   1.334  1.00  0.00    -0.045 A 
HETATM    5  C7  UNL     1       2.765   0.162   1.907  1.00  0.00     0.045 A 
HETATM    6  C8  UNL     1       3.995  -0.060   1.289  1.00  0.00     0.074 A 
HETATM    7  C9  UNL     1       0.203  -0.045   1.879  1.00  0.00     0.077 C 
HETATM    8  C10 UNL     1      -0.593  -0.229   0.624  1.00  0.00    -0.024 C 
HETATM    9  C11 UNL     1      -1.778   0.397   0.517  1.00  0.00     0.152 C 
HETATM   10  C18 UNL     1       0.198  -1.144  -0.276  1.00  0.00     0.077 C 
ENDROOT
BRANCH   9  11
HETATM   11  N1  UNL     1      -1.984   1.138   1.733  1.00  0.00    -0.139 NA
HETATM   12  N2  UNL     1      -1.835   2.382   1.754  1.00  0.00    -0.202 NA
HETATM   13  H11 UNL     1      -1.945   3.035   2.530  1.00  0.00     0.212 HD
ENDBRANCH   9  11
BRANCH   9  14
HETATM   14  N3  UNL     1      -2.562   0.252  -0.653  1.00  0.00    -0.339 N 
HETATM   15  H12 UNL     1      -1.984   0.179  -1.540  1.00  0.00     0.167 HD
BRANCH  14  16
HETATM   16  C12 UNL     1      -3.994   0.199  -0.724  1.00  0.00     0.036 A 
HETATM   17  C13 UNL     1      -4.583   0.052  -1.977  1.00  0.00     0.029 A 
HETATM   18  C14 UNL     1      -5.961   0.008  -1.988  1.00  0.00     0.005 A 
HETATM   19  C15 UNL     1      -6.694   0.105  -0.825  1.00  0.00     0.042 A 
HETATM   20  C16 UNL     1      -6.092   0.250   0.405  1.00  0.00     0.118 A 
HETATM   21  F1  UNL     1      -6.876   0.339   1.507  1.00  0.00    -0.206 F 
HETATM   22  C17 UNL     1      -4.714   0.295   0.431  1.00  0.00     0.071 A 
ENDBRANCH  14  16
ENDBRANCH   9  14
BRANCH   6  23
HETATM   23  O2  UNL     1       5.206   0.326   1.865  1.00  0.00    -0.360 OA
HETATM   24  H8  UNL     1       5.316   0.230   2.879  1.00  0.00     0.217 HD
ENDBRANCH   6  23
BRANCH   1  25
HETATM   25  C2  UNL     1       5.297  -0.973  -0.703  1.00  0.00     0.208 C 
BRANCH  25  26
HETATM   26  O1  UNL     1       5.835   0.140  -1.334  1.00  0.00    -0.391 OA
HETATM   27  C1  UNL     1       4.838   0.600  -2.218  1.00  0.00     0.201 C 
ENDBRANCH  25  26
ENDBRANCH   1  25
TORSDOF 6
