REMARK  6 active torsions:
REMARK  status: ('A' for Active; 'I' for Inactive)
REMARK    1  A    between atoms: N1_2  and  C2_3 
REMARK    2  A    between atoms: N1_2  and  C5_7 
REMARK    3  A    between atoms: C2_3  and  C3_4 
REMARK    4  A    between atoms: C6_9  and  C7_10 
REMARK    5  A    between atoms: C7_10  and  C8_11 
REMARK    6  A    between atoms: C12_15  and  O2_16 
ROOT
HETATM    1  C5  UNL     1      -0.908  -0.290  -0.565  1.00  0.00     0.164 A 
HETATM    2  N2  UNL     1       0.202  -0.280   0.194  1.00  0.00    -0.209 NA
HETATM    3  C6  UNL     1       0.645   0.790   0.880  1.00  0.00     0.152 A 
HETATM    4  N3  UNL     1      -0.064   1.953   0.815  1.00  0.00    -0.226 NA
HETATM    5  C14 UNL     1      -1.191   1.996   0.063  1.00  0.00     0.111 A 
HETATM    6  C15 UNL     1      -1.638   0.880  -0.642  1.00  0.00     0.153 A 
HETATM    7  O3  UNL     1      -2.727   1.153  -1.286  1.00  0.00    -0.285 OA
HETATM    8  C16 UNL     1      -3.101   2.396  -1.095  1.00  0.00     0.182 A 
HETATM    9  N4  UNL     1      -4.149   3.145  -1.540  1.00  0.00    -0.236 NA
HETATM   10  C17 UNL     1      -4.268   4.449  -1.154  1.00  0.00     0.119 A 
HETATM   11  C18 UNL     1      -3.333   5.021  -0.311  1.00  0.00     0.020 A 
HETATM   12  C19 UNL     1      -2.263   4.270   0.148  1.00  0.00     0.020 A 
HETATM   13  C20 UNL     1      -2.148   2.943  -0.249  1.00  0.00     0.049 A 
ENDROOT
BRANCH   3  14
HETATM   14  C7  UNL     1       1.871   0.708   1.685  1.00  0.00     0.060 C 
BRANCH  14  15
HETATM   15  C8  UNL     1       2.962   0.030   1.367  1.00  0.00    -0.048 A 
HETATM   16  C9  UNL     1       4.126   0.009   2.227  1.00  0.00     0.007 A 
HETATM   17  C10 UNL     1       5.214  -0.665   1.905  1.00  0.00     0.003 A 
HETATM   18  C11 UNL     1       5.308  -1.426   0.670  1.00  0.00     0.032 A 
HETATM   19  C12 UNL     1       4.264  -1.423  -0.128  1.00  0.00     0.047 A 
HETATM   20  C13 UNL     1       2.965  -0.717   0.090  1.00  0.00     0.102 A 
BRANCH  19  21
HETATM   21  O2  UNL     1       4.311  -2.143  -1.329  1.00  0.00    -0.365 OA
HETATM   22  H13 UNL     1       4.638  -1.696  -2.178  1.00  0.00     0.217 HD
ENDBRANCH  19  21
ENDBRANCH  14  15
ENDBRANCH   3  14
BRANCH   1  23
HETATM   23  N1  UNL     1      -1.242  -1.504  -1.228  1.00  0.00    -0.365 N 
HETATM   24  C1  UNL     1      -1.353  -1.652  -2.672  1.00  0.00     0.151 C 
BRANCH  23  25
HETATM   25  C2  UNL     1      -1.510  -2.735  -0.521  1.00  0.00     0.158 C 
BRANCH  25  26
HETATM   26  C3  UNL     1      -1.396  -2.569   0.972  1.00  0.00     0.163 A 
HETATM   27  C4  UNL     1      -2.571  -2.817   1.811  1.00  0.00     0.201 A 
HETATM   28  O1  UNL     1      -1.685  -3.878   1.620  1.00  0.00    -0.380 OA
ENDBRANCH  25  26
ENDBRANCH  23  25
ENDBRANCH   1  23
TORSDOF 6
