REMARK  9 active torsions:
REMARK  status: ('A' for Active; 'I' for Inactive)
REMARK    1  A    between atoms: C2_2  and  N2_14 
REMARK    2  A    between atoms: C3_3  and  N1_4 
REMARK       I    between atoms: N1_4  and  C4_5 
REMARK    3  A    between atoms: C4_5  and  C5_7 
REMARK    4  A    between atoms: N2_14  and  C11_15 
REMARK    5  A    between atoms: C11_15  and  C12_16 
REMARK    6  A    between atoms: C12_16  and  C13_17 
REMARK    7  A    between atoms: C13_17  and  N3_18 
REMARK    8  A    between atoms: N3_18  and  C14_19 
REMARK    9  A    between atoms: C14_19  and  C15_20 
ROOT
HETATM    1  C1  UNL     1      -0.576  -2.350  -0.122  1.00  0.00     0.069 C 
HETATM    2  C2  UNL     1       0.227  -1.440  -0.977  1.00  0.00     0.016 C 
HETATM    3  C3  UNL     1      -0.344  -0.289  -1.281  1.00  0.00     0.115 C 
ENDROOT
BRANCH   2   4
HETATM    4  N2  UNL     1       1.525  -1.621  -1.522  1.00  0.00    -0.392 N 
HETATM    5  H10 UNL     1       1.389  -2.271  -2.324  1.00  0.00     0.159 HD
BRANCH   4   6
HETATM    6  C11 UNL     1       2.528  -0.849  -0.774  1.00  0.00     0.121 C 
BRANCH   6   7
HETATM    7  C12 UNL     1       2.662  -1.458   0.608  1.00  0.00     0.039 C 
BRANCH   7   8
HETATM    8  C13 UNL     1       3.667  -0.742   1.464  1.00  0.00     0.120 C 
BRANCH   8   9
HETATM    9  N3  UNL     1       4.991  -0.759   0.881  1.00  0.00    -0.396 N 
HETATM   10  H17 UNL     1       5.135  -1.234  -0.034  1.00  0.00     0.159 HD
BRANCH   9  11
HETATM   11  C14 UNL     1       5.973  -0.081   1.691  1.00  0.00     0.142 C 
BRANCH  11  12
HETATM   12  C15 UNL     1       6.943   0.695   1.299  1.00  0.00     0.237 C 
HETATM   13  O2  UNL     1       7.614   1.441   0.575  1.00  0.00    -0.283 OA
ENDBRANCH  11  12
ENDBRANCH   9  11
ENDBRANCH   8   9
ENDBRANCH   7   8
ENDBRANCH   6   7
ENDBRANCH   4   6
ENDBRANCH   2   4
BRANCH   3  14
HETATM   14  N1  UNL     1      -1.591   0.322  -0.979  1.00  0.00    -0.331 N 
HETATM   15  C4  UNL     1      -2.257   1.544  -1.270  1.00  0.00     0.257 C 
HETATM   16  O1  UNL     1      -1.481   2.250  -2.004  1.00  0.00    -0.267 OA
HETATM   17  H5  UNL     1      -2.072  -0.395  -0.383  1.00  0.00     0.168 HD
BRANCH  15  18
HETATM   18  C5  UNL     1      -3.591   1.714  -0.705  1.00  0.00     0.054 A 
HETATM   19  C6  UNL     1      -4.536   0.813  -1.142  1.00  0.00     0.019 A 
HETATM   20  C7  UNL     1      -5.821   0.899  -0.661  1.00  0.00     0.001 A 
HETATM   21  C8  UNL     1      -6.170   1.871   0.247  1.00  0.00     0.002 A 
HETATM   22  C9  UNL     1      -5.225   2.796   0.703  1.00  0.00     0.025 A 
HETATM   23  C10 UNL     1      -3.943   2.689   0.205  1.00  0.00     0.049 A 
HETATM   24 CL1  UNL     1      -2.657   3.789   0.695  1.00  0.00    -0.083 Cl
ENDBRANCH  15  18
ENDBRANCH   3  14
TORSDOF 9
