REMARK  2 active torsions:
REMARK  status: ('A' for Active; 'I' for Inactive)
REMARK    1  A    between atoms: O1_1  and  C1_2 
REMARK    2  A    between atoms: C7_8  and  N1_9 
ROOT
HETATM    1  C1  UNL     1      -2.584   3.332   0.163  1.00  0.00     0.062 C 
HETATM    2  C2  UNL     1      -3.300   2.197  -0.140  1.00  0.00     0.113 C 
HETATM    3  C3  UNL     1      -3.219   0.732  -0.182  1.00  0.00     0.027 C 
HETATM    4  C4  UNL     1      -2.743  -0.550  -0.063  1.00  0.00    -0.008 C 
HETATM    5  C5  UNL     1      -1.610  -1.472   0.333  1.00  0.00     0.085 C 
HETATM    6  C6  UNL     1      -0.276  -0.961   0.268  1.00  0.00     0.110 C 
HETATM    7  C7  UNL     1       0.589   0.080   0.377  1.00  0.00     0.156 C 
HETATM    8  N2  UNL     1       0.185   1.381   0.509  1.00  0.00    -0.241 NA
HETATM    9  C12 UNL     1       0.663   2.462   0.872  1.00  0.00     0.119 C 
HETATM   10  C13 UNL     1      -0.151   3.646   0.839  1.00  0.00     0.018 C 
HETATM   11  C14 UNL     1      -1.355   4.113   0.590  1.00  0.00     0.007 C 
HETATM   12  O3  UNL     1       0.495  -2.092  -0.105  1.00  0.00    -0.291 OA
HETATM   13  C15 UNL     1      -0.356  -3.116  -0.531  1.00  0.00     0.176 A 
HETATM   14  N3  UNL     1      -0.192  -4.379  -1.028  1.00  0.00    -0.236 NA
HETATM   15  C16 UNL     1      -1.272  -5.135  -1.388  1.00  0.00     0.119 A 
HETATM   16  C17 UNL     1      -2.593  -4.698  -1.283  1.00  0.00     0.020 A 
HETATM   17  C18 UNL     1      -2.775  -3.406  -0.770  1.00  0.00     0.014 A 
HETATM   18  C19 UNL     1      -1.664  -2.701  -0.425  1.00  0.00     0.006 A 
ENDROOT
BRANCH   7  19
HETATM   19  N1  UNL     1       2.014   0.260   0.241  1.00  0.00    -0.360 N 
HETATM   20  C8  UNL     1       2.637   0.721  -0.996  1.00  0.00     0.151 C 
HETATM   21  C9  UNL     1       4.024   0.168  -1.164  1.00  0.00     0.187 C 
HETATM   22  O2  UNL     1       4.587  -0.318   0.002  1.00  0.00    -0.388 OA
HETATM   23  C10 UNL     1       4.188   0.350   1.139  1.00  0.00     0.187 C 
HETATM   24  C11 UNL     1       2.745  -0.064   1.458  1.00  0.00     0.151 C 
ENDBRANCH   7  19
BRANCH   1  25
HETATM   25  O1  UNL     1      -3.755   4.090  -0.176  1.00  0.00    -0.391 OA
HETATM   26  H1  UNL     1      -4.157   4.670   0.553  1.00  0.00     0.210 HD
ENDBRANCH   1  25
TORSDOF 2
