REMARK  5 active torsions:
REMARK  status: ('A' for Active; 'I' for Inactive)
REMARK    1  A    between atoms: N1_1  and  C1_2 
REMARK    2  A    between atoms: C2_3  and  C3_4 
REMARK    3  A    between atoms: C6_9  and  N4_10 
REMARK    4  A    between atoms: C8_14  and  C9_15 
REMARK    5  A    between atoms: C13_19  and  O1_20 
ROOT
HETATM    1  C3  UNL     1       0.562   0.553  -0.311  1.00  0.00     0.100 A 
HETATM    2  N2  UNL     1       1.900   0.660  -0.415  1.00  0.00    -0.240 NA
HETATM    3  C4  UNL     1       2.768  -0.362  -0.299  1.00  0.00     0.124 A 
HETATM    4  C5  UNL     1       4.132  -0.196  -0.416  1.00  0.00     0.172 A 
HETATM    5  N3  UNL     1       4.894  -1.292  -0.281  1.00  0.00    -0.073 NA
HETATM    6  C6  UNL     1       4.337  -2.503  -0.042  1.00  0.00     0.722 A 
HETATM    7  N5  UNL     1       3.011  -2.671   0.072  1.00  0.00    -0.041 NA
HETATM    8  C7  UNL     1       2.214  -1.594  -0.057  1.00  0.00     0.199 A 
HETATM    9  N6  UNL     1       0.889  -1.741   0.054  1.00  0.00    -0.224 NA
HETATM   10  C8  UNL     1       0.060  -0.690  -0.070  1.00  0.00     0.099 A 
ENDROOT
BRANCH   1  11
HETATM   11  C2  UNL     1      -0.107   1.831  -0.433  1.00  0.00     0.023 C 
HETATM   12  C1  UNL     1       0.474   2.721   0.426  1.00  0.00     0.052 C 
HETATM   13  P1  UNL     1      -0.013   4.507   0.698  1.00  0.00     0.009 P 
HETATM   14  C18 UNL     1      -1.491   5.073   0.198  1.00  0.00    -0.008 C 
HETATM   15  C17 UNL     1      -2.355   4.272  -0.354  1.00  0.00     0.014 C 
HETATM   16  C16 UNL     1      -2.065   3.202  -1.257  1.00  0.00     0.002 C 
HETATM   17  C15 UNL     1      -1.198   2.237  -1.316  1.00  0.00     0.016 C 
BRANCH  12  18
HETATM   18  N1  UNL     1       1.567   2.178   1.203  1.00  0.00    -0.397 N 
HETATM   19  H1  UNL     1       1.889   1.532   1.935  1.00  0.00     0.156 HD
HETATM   20  H2  UNL     1       2.339   2.755   0.754  1.00  0.00     0.156 HD
ENDBRANCH  12  18
ENDBRANCH   1  11
BRANCH  10  21
HETATM   21  C9  UNL     1      -1.338  -1.000   0.127  1.00  0.00    -0.002 A 
HETATM   22  C10 UNL     1      -1.564  -1.666   1.347  1.00  0.00     0.014 A 
HETATM   23  C11 UNL     1      -2.808  -2.103   1.780  1.00  0.00     0.004 A 
HETATM   24  C12 UNL     1      -3.921  -1.892   0.998  1.00  0.00     0.036 A 
HETATM   25  C13 UNL     1      -3.739  -1.250  -0.192  1.00  0.00     0.066 A 
HETATM   26  C14 UNL     1      -2.493  -0.834  -0.585  1.00  0.00     0.050 A 
BRANCH  25  27
HETATM   27  O1  UNL     1      -4.775  -0.987  -1.050  1.00  0.00    -0.361 OA
HETATM   28  H9  UNL     1      -5.620  -1.508  -0.955  1.00  0.00     0.217 HD
ENDBRANCH  25  27
ENDBRANCH  10  21
BRANCH   6  29
HETATM   29  N4  UNL     1       5.163  -3.658   0.097  1.00  0.00    -0.231 N 
HETATM   30  H4  UNL     1       5.684  -4.353  -0.485  1.00  0.00     0.174 HD
HETATM   31  H5  UNL     1       5.375  -4.001   1.081  1.00  0.00     0.174 HD
ENDBRANCH   6  29
TORSDOF 5
