REMARK  8 active torsions:
REMARK  status: ('A' for Active; 'I' for Inactive)
REMARK    1  A    between atoms: C1_2  and  O1_3 
REMARK    2  A    between atoms: C1_2  and  C12_17 
REMARK    3  A    between atoms: O1_3  and  C2_4 
REMARK    4  A    between atoms: C6_8  and  C7_9 
REMARK    5  A    between atoms: C7_9  and  N2_10 
REMARK    6  A    between atoms: C7_9  and  C8_11 
REMARK    7  A    between atoms: C9_13  and  N4_14 
REMARK    8  A    between atoms: C16_21  and  O2_22 
ROOT
HETATM    1  C2  UNL     1      -0.298   0.027   0.779  1.00  0.00     0.078 A 
HETATM    2  C3  UNL     1       0.018  -1.311   0.580  1.00  0.00     0.037 A 
HETATM    3  C4  UNL     1       1.305  -1.744   0.379  1.00  0.00     0.003 A 
HETATM    4  C5  UNL     1       2.349  -0.852   0.368  1.00  0.00     0.010 A 
HETATM    5  C6  UNL     1       2.054   0.468   0.562  1.00  0.00    -0.017 A 
HETATM    6  C11 UNL     1       0.770   0.931   0.766  1.00  0.00     0.047 A 
ENDROOT
BRANCH   1   7
HETATM    7  O1  UNL     1      -1.546   0.561   0.987  1.00  0.00    -0.292 OA
BRANCH   7   8
HETATM    8  C1  UNL     1      -2.730  -0.119   1.041  1.00  0.00     0.173 C 
HETATM    9  N1  UNL     1      -2.553  -0.872   2.088  1.00  0.00    -0.277 NA
HETATM   10  H1  UNL     1      -1.643  -0.762   2.554  1.00  0.00     0.189 HD
BRANCH   8  11
HETATM   11  C12 UNL     1      -3.934  -0.098   0.219  1.00  0.00     0.019 A 
HETATM   12  C13 UNL     1      -4.058   0.729  -0.883  1.00  0.00     0.016 A 
HETATM   13  C14 UNL     1      -5.224   0.699  -1.618  1.00  0.00     0.004 A 
HETATM   14  C15 UNL     1      -6.247  -0.147  -1.252  1.00  0.00     0.036 A 
HETATM   15  C16 UNL     1      -6.093  -0.955  -0.154  1.00  0.00     0.066 A 
HETATM   16  C17 UNL     1      -4.923  -0.945   0.609  1.00  0.00     0.052 A 
BRANCH  15  17
HETATM   17  O2  UNL     1      -7.150  -1.780   0.163  1.00  0.00    -0.361 OA
HETATM   18  H15 UNL     1      -7.204  -2.263   1.037  1.00  0.00     0.217 HD
ENDBRANCH  15  17
ENDBRANCH   8  11
ENDBRANCH   7   8
ENDBRANCH   1   7
BRANCH   5  19
HETATM   19  C7  UNL     1       3.149   1.454   0.556  1.00  0.00     0.302 C 
BRANCH  19  20
HETATM   20  N2  UNL     1       2.727   2.586  -0.248  1.00  0.00     0.093 N 
HETATM   21  H6  UNL     1       2.072   2.222  -0.976  1.00  0.00     0.314 HD
HETATM   22  H7  UNL     1       3.565   2.913  -0.778  1.00  0.00     0.314 HD
ENDBRANCH  19  20
BRANCH  19  23
HETATM   23  C8  UNL     1       4.439   0.900   0.126  1.00  0.00     0.077 A 
HETATM   24  N3  UNL     1       5.635   0.756   0.628  1.00  0.00    -0.234 NA
HETATM   25  C9  UNL     1       6.064   0.139  -0.567  1.00  0.00     0.123 A 
HETATM   26  C10 UNL     1       4.860   0.270  -1.106  1.00  0.00     0.079 A 
BRANCH  25  27
HETATM   27  N4  UNL     1       7.315  -0.406  -1.001  1.00  0.00    -0.384 N 
HETATM   28  H8  UNL     1       8.204   0.033  -0.634  1.00  0.00     0.157 HD
HETATM   29  H9  UNL     1       7.379  -1.215  -1.663  1.00  0.00     0.157 HD
ENDBRANCH  25  27
ENDBRANCH  19  23
ENDBRANCH   5  19
TORSDOF 8
