REMARK  2 active torsions:
REMARK  status: ('A' for Active; 'I' for Inactive)
REMARK    1  A    between atoms: N1_1  and  C1_2 
REMARK    2  A    between atoms: C15_19  and  O1_20 
ROOT
HETATM    1  C1  UNL     1       1.389  -0.734   2.833  1.00  0.00     0.449 C 
HETATM    2  C2  UNL     1       0.734   0.483   2.487  1.00  0.00     0.131 C 
HETATM    3  C3  UNL     1      -0.597   0.883   2.189  1.00  0.00     0.016 C 
HETATM    4  C4  UNL     1      -0.995   1.440   0.964  1.00  0.00     0.065 C 
HETATM    5  C5  UNL     1      -0.376   1.804  -0.389  1.00  0.00     0.033 C 
HETATM    6  C6  UNL     1       0.294   2.046  -1.513  1.00  0.00    -0.018 C 
HETATM    7  C7  UNL     1       1.682   1.628  -1.923  1.00  0.00     0.088 C 
HETATM    8  C8  UNL     1       2.061   0.464  -0.984  1.00  0.00     0.064 C 
HETATM    9  N2  UNL     1       2.697   0.698   0.068  1.00  0.00    -0.232 NA
HETATM   10  C9  UNL     1       2.505  -0.172   1.144  1.00  0.00     0.180 C 
HETATM   11  N3  UNL     1       2.822  -0.455   2.388  1.00  0.00    -0.201 NA
HETATM   12  C10 UNL     1       1.521  -1.226   0.765  1.00  0.00     0.418 C 
HETATM   13  N4  UNL     1       1.838  -1.677  -0.497  1.00  0.00    -0.249 NA
HETATM   14  C11 UNL     1       1.479  -0.876  -1.501  1.00  0.00     0.060 C 
HETATM   15  C12 UNL     1       0.799  -1.661  -2.636  1.00  0.00     0.088 C 
HETATM   16  C13 UNL     1      -0.632  -1.532  -2.760  1.00  0.00    -0.018 C 
HETATM   17  C14 UNL     1      -1.945  -1.372  -2.825  1.00  0.00     0.032 C 
HETATM   18  C15 UNL     1      -2.680  -0.498  -1.967  1.00  0.00     0.063 C 
HETATM   19  C16 UNL     1      -3.258   0.375  -1.076  1.00  0.00     0.036 C 
HETATM   20  C17 UNL     1      -3.392   1.390   0.064  1.00  0.00     0.206 C 
HETATM   21  O2  UNL     1      -2.284   1.808   0.681  1.00  0.00    -0.348 OA
HETATM   22  N5  UNL     1       1.376  -1.937   1.970  1.00  0.00     0.178 N 
HETATM   23  H19 UNL     1       2.177  -2.502   2.224  1.00  0.00     0.325 HD
ENDROOT
BRANCH   1  24
HETATM   24  N1  UNL     1       1.405  -1.097   4.231  1.00  0.00     0.141 N 
HETATM   25  H1  UNL     1       0.520  -0.822   4.702  1.00  0.00     0.318 HD
HETATM   26  H2  UNL     1       2.250  -0.733   4.670  1.00  0.00     0.318 HD
ENDBRANCH   1  24
BRANCH  18  27
HETATM   27  O1  UNL     1      -1.659  -0.151  -1.167  1.00  0.00    -0.361 OA
HETATM   28  H15 UNL     1      -1.231  -0.871  -0.526  1.00  0.00     0.217 HD
ENDBRANCH  18  27
TORSDOF 2
