REMARK  3 active torsions:
REMARK  status: ('A' for Active; 'I' for Inactive)
REMARK    1  A    between atoms: C2_2  and  N1_3 
REMARK    2  A    between atoms: C10_13  and  N4_15 
REMARK    3  A    between atoms: N4_15  and  C12_16 
ROOT
HETATM    1  N1  UNL     1      -5.216  -0.347   0.215  1.00  0.00     0.088 N 
HETATM    2  C3  UNL     1      -4.333   0.495   0.993  1.00  0.00     0.276 C 
HETATM    3  C4  UNL     1      -2.869   0.072   0.750  1.00  0.00     0.074 C 
HETATM    4  C5  UNL     1      -2.477   0.420  -0.669  1.00  0.00     0.105 C 
HETATM    5  C6  UNL     1      -1.948   1.837  -0.722  1.00  0.00     0.030 C 
HETATM    6  C7  UNL     1      -1.172   2.531   0.083  1.00  0.00     0.088 C 
HETATM    7  N2  UNL     1      -0.415   2.590   1.259  1.00  0.00    -0.361 N 
HETATM    8  C8  UNL     1       0.987   2.695   1.479  1.00  0.00     0.200 C 
HETATM    9  N3  UNL     1       2.097   1.997   1.615  1.00  0.00    -0.281 NA
HETATM   10  C9  UNL     1       1.894   0.570   1.515  1.00  0.00     0.202 C 
HETATM   11  C10 UNL     1       2.878  -0.085   0.528  1.00  0.00     0.221 C 
HETATM   12  C11 UNL     1       2.691   0.612  -0.790  1.00  0.00     0.063 C 
HETATM   13  S1  UNL     1       2.555  -1.826   0.351  1.00  0.00    -0.126 SA
HETATM   14  C18 UNL     1       0.964  -2.295  -0.272  1.00  0.00     0.077 C 
HETATM   15  C19 UNL     1       0.668  -1.947  -1.701  1.00  0.00     0.027 C 
HETATM   16  C20 UNL     1      -0.778  -2.384  -2.032  1.00  0.00     0.118 C 
HETATM   17  N5  UNL     1      -1.700  -1.699  -1.140  1.00  0.00    -0.205 NA
HETATM   18  O1  UNL     1      -1.510  -0.398  -1.162  1.00  0.00    -0.290 OA
HETATM   19  C21 UNL     1      -3.708   0.312  -1.551  1.00  0.00     0.074 C 
HETATM   20  C22 UNL     1      -4.608  -0.757  -1.032  1.00  0.00     0.276 C 
HETATM   21  H12 UNL     1      -0.863   2.562   2.200  1.00  0.00     0.166 HD
HETATM   22  H32 UNL     1      -1.741  -2.206  -0.266  1.00  0.00     0.153 HD
ENDROOT
BRANCH  11  23
HETATM   23  N4  UNL     1       4.173   0.185   1.106  1.00  0.00     0.123 N 
HETATM   24  H19 UNL     1       4.134   0.008   2.112  1.00  0.00     0.320 HD
BRANCH  23  25
HETATM   25  C12 UNL     1       5.301  -0.332   0.428  1.00  0.00     0.211 A 
HETATM   26  C13 UNL     1       5.315  -1.837   0.302  1.00  0.00     0.060 C 
HETATM   27  C14 UNL     1       5.681   0.336  -0.817  1.00  0.00     0.020 A 
HETATM   28  C15 UNL     1       6.861   0.951  -0.706  1.00  0.00     0.000 A 
HETATM   29  C16 UNL     1       7.371   0.740   0.643  1.00  0.00     0.022 A 
HETATM   30  C17 UNL     1       6.485   0.006   1.301  1.00  0.00     0.053 A 
HETATM   31 CL1  UNL     1       6.549  -0.564   2.957  1.00  0.00    -0.086 Cl
ENDBRANCH  23  25
ENDBRANCH  11  23
BRANCH   1  32
HETATM   32  C2  UNL     1      -6.462   0.299  -0.069  1.00  0.00     0.268 C 
HETATM   33  C1  UNL     1      -7.281   0.467   1.208  1.00  0.00     0.037 C 
ENDBRANCH   1  32
TORSDOF 3
