REMARK  7 active torsions:
REMARK  status: ('A' for Active; 'I' for Inactive)
REMARK    1  A    between atoms: N1_1  and  O1_2 
REMARK    2  A    between atoms: O1_2  and  C1_3 
REMARK    3  A    between atoms: N2_6  and  C4_7 
REMARK    4  A    between atoms: C5_8  and  N3_9 
REMARK    5  A    between atoms: C7_13  and  N6_14 
REMARK    6  A    between atoms: C8_15  and  C9_16 
REMARK    7  A    between atoms: C13_20  and  O2_21 
ROOT
HETATM    1  C4  UNL     1       0.229  -2.442   0.446  1.00  0.00     0.150 A 
HETATM    2  C5  UNL     1       0.109  -3.812   0.560  1.00  0.00     0.155 A 
HETATM    3  N4  UNL     1       0.370  -4.639  -0.468  1.00  0.00    -0.222 NA
HETATM    4  C6  UNL     1       0.766  -4.146  -1.669  1.00  0.00     0.237 A 
HETATM    5  N5  UNL     1       0.890  -2.806  -1.802  1.00  0.00    -0.220 NA
HETATM    6  C7  UNL     1       0.632  -1.955  -0.781  1.00  0.00     0.183 A 
ENDROOT
BRANCH   1   7
HETATM    7  N2  UNL     1      -0.006  -1.458   1.418  1.00  0.00    -0.245 NA
HETATM    8  C3  UNL     1      -1.141  -0.852   1.432  1.00  0.00     0.041 A 
HETATM    9  C2  UNL     1      -1.322   0.162   2.470  1.00  0.00     0.066 A 
HETATM   10  C15 UNL     1      -2.205  -1.177   0.438  1.00  0.00     0.086 A 
HETATM   11  C1  UNL     1      -2.468   0.841   2.561  1.00  0.00     0.093 A 
HETATM   12  C17 UNL     1      -3.556   0.582   1.627  1.00  0.00     0.035 A 
HETATM   13  C16 UNL     1      -3.399  -0.338   0.682  1.00  0.00    -0.018 A 
BRANCH  11  14
HETATM   14  O1  UNL     1      -2.608   1.794   3.554  1.00  0.00    -0.267 OA
BRANCH  14  15
HETATM   15  N1  UNL     1      -3.408   2.878   3.261  1.00  0.00    -0.209 NA
HETATM   16  H1  UNL     1      -3.180   3.631   3.943  1.00  0.00     0.150 HD
HETATM   17  H2  UNL     1      -4.401   2.629   3.375  1.00  0.00     0.150 HD
ENDBRANCH  14  15
ENDBRANCH  11  14
ENDBRANCH   1   7
BRANCH   2  18
HETATM   18  N3  UNL     1      -0.313  -4.270   1.851  1.00  0.00    -0.382 N 
HETATM   19  H4  UNL     1       0.110  -4.940   2.540  1.00  0.00     0.157 HD
HETATM   20  H5  UNL     1      -1.186  -3.948   2.293  1.00  0.00     0.157 HD
ENDBRANCH   2  18
BRANCH   6  21
HETATM   21  N6  UNL     1       0.838  -0.606  -1.180  1.00  0.00    -0.238 NA
HETATM   22  C8  UNL     1       2.046  -0.262  -1.479  1.00  0.00     0.130 C 
BRANCH  22  23
HETATM   23  C9  UNL     1       2.278   1.132  -1.895  1.00  0.00    -0.016 A 
HETATM   24  C10 UNL     1       1.192   1.975  -1.937  1.00  0.00     0.013 A 
HETATM   25  C11 UNL     1       1.399   3.283  -2.325  1.00  0.00     0.004 A 
HETATM   26  C12 UNL     1       2.634   3.742  -2.659  1.00  0.00     0.036 A 
HETATM   27  C13 UNL     1       3.704   2.873  -2.608  1.00  0.00     0.066 A 
HETATM   28  C14 UNL     1       3.569   1.535  -2.224  1.00  0.00     0.049 A 
BRANCH  27  29
HETATM   29  O2  UNL     1       5.029   3.224  -2.929  1.00  0.00    -0.361 OA
HETATM   30  H11 UNL     1       5.238   4.217  -2.942  1.00  0.00     0.217 HD
ENDBRANCH  27  29
ENDBRANCH  22  23
ENDBRANCH   6  21
TORSDOF 7
