REMARK  6 active torsions:
REMARK  status: ('A' for Active; 'I' for Inactive)
REMARK    1  A    between atoms: N1_1  and  C1_2 
REMARK    2  A    between atoms: C2_4  and  N3_5 
REMARK    3  A    between atoms: C4_8  and  S1_9 
REMARK    4  A    between atoms: C8_13  and  O1_14 
REMARK    5  A    between atoms: C10_16  and  C11_17 
REMARK    6  A    between atoms: C15_21  and  O2_22 
ROOT
HETATM    1  C1  UNL     1      -4.422  -2.468   0.833  1.00  0.00     0.724 A 
HETATM    2  N2  UNL     1      -3.606  -3.510   0.707  1.00  0.00    -0.043 NA
HETATM    3  C2  UNL     1      -2.302  -3.402   0.425  1.00  0.00     0.173 A 
HETATM    4  C3  UNL     1      -1.770  -2.141   0.253  1.00  0.00     0.152 A 
HETATM    5  N4  UNL     1      -0.497  -1.897  -0.029  1.00  0.00    -0.232 NA
HETATM    6  C4  UNL     1      -0.032  -0.650  -0.186  1.00  0.00     0.122 A 
HETATM    7  C10 UNL     1      -0.817   0.449  -0.069  1.00  0.00     0.105 A 
HETATM    8  N5  UNL     1      -2.130   0.216   0.221  1.00  0.00    -0.223 NA
HETATM    9  C17 UNL     1      -2.588  -1.038   0.377  1.00  0.00     0.202 A 
HETATM   10  N6  UNL     1      -3.897  -1.244   0.665  1.00  0.00    -0.041 NA
ENDROOT
BRANCH   6  11
HETATM   11  S1  UNL     1       1.722  -0.539  -0.548  1.00  0.00    -0.115 SA
HETATM   12  C5  UNL     1       2.299  -0.679  -2.068  1.00  0.00     0.045 A 
HETATM   13  C6  UNL     1       3.767  -0.562  -2.165  1.00  0.00     0.009 A 
HETATM   14  C7  UNL     1       4.552  -0.366  -1.146  1.00  0.00     0.037 A 
HETATM   15  C8  UNL     1       4.245  -0.219   0.251  1.00  0.00     0.071 A 
HETATM   16  C9  UNL     1       2.986  -0.273   0.705  1.00  0.00     0.081 A 
BRANCH  15  17
HETATM   17  O1  UNL     1       5.218  -0.012   1.223  1.00  0.00    -0.360 OA
HETATM   18  H8  UNL     1       5.984  -0.650   1.380  1.00  0.00     0.217 HD
ENDBRANCH  15  17
ENDBRANCH   6  11
BRANCH   7  19
HETATM   19  C11 UNL     1      -0.333   1.813  -0.223  1.00  0.00    -0.002 A 
HETATM   20  C12 UNL     1       0.458   2.420  -1.163  1.00  0.00     0.014 A 
HETATM   21  C13 UNL     1       0.773   3.756  -1.056  1.00  0.00     0.004 A 
HETATM   22  C14 UNL     1       0.321   4.546  -0.019  1.00  0.00     0.036 A 
HETATM   23  C15 UNL     1      -0.470   3.955   0.928  1.00  0.00     0.066 A 
HETATM   24  C16 UNL     1      -0.796   2.611   0.834  1.00  0.00     0.050 A 
BRANCH  23  25
HETATM   25  O2  UNL     1      -0.903   4.784   1.953  1.00  0.00    -0.361 OA
HETATM   26  H13 UNL     1      -1.488   5.584   1.807  1.00  0.00     0.217 HD
ENDBRANCH  23  25
ENDBRANCH   7  19
BRANCH   3  27
HETATM   27  N3  UNL     1      -1.376  -4.473   0.277  1.00  0.00    -0.381 N 
HETATM   28  H3  UNL     1      -0.725  -4.983   0.918  1.00  0.00     0.157 HD
HETATM   29  H4  UNL     1      -1.491  -4.682  -0.758  1.00  0.00     0.157 HD
ENDBRANCH   3  27
BRANCH   1  30
HETATM   30  N1  UNL     1      -5.814  -2.664   1.138  1.00  0.00    -0.231 N 
HETATM   31  H1  UNL     1      -6.316  -2.803   0.231  1.00  0.00     0.174 HD
HETATM   32  H2  UNL     1      -6.011  -2.628   2.158  1.00  0.00     0.174 HD
ENDBRANCH   1  30
TORSDOF 6
