REMARK  3 active torsions:
REMARK  status: ('A' for Active; 'I' for Inactive)
REMARK    1  A    between atoms: C3_3  and  C4_4 
REMARK    2  A    between atoms: C4_4  and  C5_6 
REMARK    3  A    between atoms: C5_6  and  C6_7 
ROOT
HETATM    1  C6  UNL     1       1.876   1.344   0.193  1.00  0.00     0.046 C 
HETATM    2  N1  UNL     1       2.272   2.545   0.382  1.00  0.00    -0.246 NA
HETATM    3  C7  UNL     1       1.462   3.541   0.948  1.00  0.00     0.228 C 
HETATM    4  N2  UNL     1       0.290   3.242   1.267  1.00  0.00    -0.267 NA
HETATM    5  C8  UNL     1      -0.390   1.984   1.128  1.00  0.00     0.082 C 
HETATM    6  C9  UNL     1      -0.766   1.594   2.519  1.00  0.00     0.046 C 
HETATM    7  C10 UNL     1      -1.497   2.214   0.146  1.00  0.00     0.069 C 
HETATM    8  C11 UNL     1      -2.839   1.684   0.669  1.00  0.00     0.126 C 
HETATM    9  C12 UNL     1      -3.397   2.460   1.815  1.00  0.00     0.040 C 
HETATM   10  O1  UNL     1      -3.802   1.490  -0.323  1.00  0.00    -0.318 OA
HETATM   11  C13 UNL     1      -4.136   0.264  -0.831  1.00  0.00     0.493 A 
HETATM   12  O2  UNL     1      -3.420  -0.579  -0.343  1.00  0.00    -0.114 OA
HETATM   13  N3  UNL     1      -4.434  -1.105  -1.330  1.00  0.00     0.140 N 
HETATM   14  C14 UNL     1      -3.737  -2.345  -1.039  1.00  0.00     0.257 C 
HETATM   15  C15 UNL     1      -2.678  -2.664  -0.348  1.00  0.00     0.018 C 
HETATM   16  C16 UNL     1      -1.598  -2.151   0.475  1.00  0.00     0.073 C 
HETATM   17  C17 UNL     1      -0.488  -1.595   0.821  1.00  0.00    -0.047 C 
HETATM   18  C18 UNL     1      -0.161  -2.777   1.674  1.00  0.00     0.015 C 
HETATM   19  C19 UNL     1      -1.095  -3.766   1.669  1.00  0.00     0.051 C 
HETATM   20  S1  UNL     1      -1.992  -4.257   0.142  1.00  0.00    -0.104 SA
HETATM   21  C20 UNL     1       0.325  -0.410   0.620  1.00  0.00     0.019 C 
HETATM   22  C21 UNL     1       0.535   0.881   0.639  1.00  0.00    -0.003 C 
HETATM   23  H19 UNL     1      -5.251  -1.140  -1.964  1.00  0.00     0.331 HD
ENDROOT
BRANCH   1  24
HETATM   24  C5  UNL     1       2.949   0.536  -0.444  1.00  0.00     0.084 C 
BRANCH  24  25
HETATM   25  C4  UNL     1       2.660   0.375  -1.919  1.00  0.00     0.110 C 
HETATM   26 CL1  UNL     1       1.014  -0.087  -2.300  1.00  0.00    -0.120 Cl
BRANCH  25  27
HETATM   27  C3  UNL     1       3.692  -0.445  -2.622  1.00  0.00    -0.011 C 
HETATM   28  C2  UNL     1       4.592  -1.350  -2.245  1.00  0.00    -0.033 C 
HETATM   29  C1  UNL     1       5.650  -2.227  -2.777  1.00  0.00     0.036 C 
ENDBRANCH  25  27
ENDBRANCH  24  25
ENDBRANCH   1  24
TORSDOF 3
