REMARK  4 active torsions:
REMARK  status: ('A' for Active; 'I' for Inactive)
REMARK    1  A    between atoms: C3_3  and  C4_4 
REMARK    2  A    between atoms: C3_3  and  C7_9 
REMARK    3  A    between atoms: C5_6  and  C6_7 
REMARK    4  A    between atoms: C11_13  and  C12_14 
ROOT
HETATM    1  C7  UNL     1       1.399  -0.566   0.031  1.00  0.00     0.090 A 
HETATM    2  C8  UNL     1       0.211  -1.254  -0.003  1.00  0.00     0.037 A 
HETATM    3  C9  UNL     1      -1.031  -0.684   0.184  1.00  0.00     0.035 A 
HETATM    4  C10 UNL     1      -1.130   0.659   0.422  1.00  0.00     0.076 A 
HETATM    5  C11 UNL     1      -2.315   1.294   0.615  1.00  0.00     0.076 A 
HETATM    6  C18 UNL     1      -2.297   2.667   0.850  1.00  0.00     0.281 A 
HETATM    7  O1  UNL     1      -3.411   3.224   1.025  1.00  0.00    -0.265 OA
HETATM    8  N1  UNL     1      -1.097   3.295   0.873  1.00  0.00    -0.203 NA
HETATM    9  C19 UNL     1       0.057   2.637   0.677  1.00  0.00     0.239 A 
HETATM   10  N2  UNL     1       0.057   1.292   0.446  1.00  0.00    -0.226 N 
HETATM   11  N3  UNL     1       1.239   0.741   0.267  1.00  0.00    -0.166 NA
ENDROOT
BRANCH   1  12
HETATM   12  C3  UNL     1       2.731  -1.112  -0.158  1.00  0.00     0.029 C 
HETATM   13  C2  UNL     1       2.906  -2.397  -0.391  1.00  0.00    -0.014 C 
HETATM   14  C1  UNL     1       3.962  -3.371  -0.633  1.00  0.00     0.037 C 
BRANCH  12  15
HETATM   15  C4  UNL     1       3.877  -0.199  -0.083  1.00  0.00     0.127 C 
HETATM   16  F1  UNL     1       5.133  -0.728  -0.263  1.00  0.00    -0.205 F 
HETATM   17  C5  UNL     1       3.982   1.116   0.136  1.00  0.00     0.047 C 
BRANCH  17  18
HETATM   18  C6  UNL     1       5.235   1.899   0.181  1.00  0.00     0.252 C 
HETATM   19  F2  UNL     1       5.373   2.489   1.405  1.00  0.00    -0.251 F 
ENDBRANCH  17  18
ENDBRANCH  12  15
ENDBRANCH   1  12
BRANCH   5  20
HETATM   20  C12 UNL     1      -3.559   0.532   0.573  1.00  0.00     0.025 A 
HETATM   21  C13 UNL     1      -4.075   0.490  -0.717  1.00  0.00     0.047 A 
HETATM   22 CL1  UNL     1      -3.355   1.242  -2.130  1.00  0.00    -0.083 Cl
HETATM   23  C14 UNL     1      -5.266  -0.189  -0.992  1.00  0.00     0.025 A 
HETATM   24  C15 UNL     1      -5.906  -0.815   0.066  1.00  0.00     0.003 A 
HETATM   25  C16 UNL     1      -5.396  -0.776   1.351  1.00  0.00     0.025 A 
HETATM   26  C17 UNL     1      -4.225  -0.104   1.602  1.00  0.00     0.047 A 
HETATM   27 CL2  UNL     1      -3.431   0.054   3.153  1.00  0.00    -0.083 Cl
ENDBRANCH   5  20
TORSDOF 4
