REMARK  3 active torsions:
REMARK  status: ('A' for Active; 'I' for Inactive)
REMARK    1  A    between atoms: C3_7  and  S1_8 
REMARK    2  A    between atoms: S1_8  and  C4_9 
REMARK    3  A    between atoms: C13_20  and  C14_21 
ROOT
HETATM    1  O1  UNL     1      -1.084   0.393  -2.569  1.00  0.00    -0.265 OA
HETATM    2  C1  UNL     1      -1.237   0.470  -1.362  1.00  0.00     0.280 C 
HETATM    3  N1  UNL     1      -2.442  -0.222  -1.886  1.00  0.00    -0.203 NA
HETATM    4  C2  UNL     1      -2.378  -1.574  -1.714  1.00  0.00     0.229 C 
HETATM    5  N2  UNL     1      -1.312  -2.393  -1.105  1.00  0.00    -0.271 N 
HETATM    6  N3  UNL     1      -0.324  -1.472  -1.126  1.00  0.00    -0.167 NA
HETATM    7  C3  UNL     1       0.629  -1.369  -0.453  1.00  0.00     0.119 C 
HETATM    8  C10 UNL     1       1.127  -0.198  -0.972  1.00  0.00     0.054 C 
HETATM    9  C11 UNL     1       1.083   1.051  -0.533  1.00  0.00    -0.010 C 
HETATM   10  C12 UNL     1       0.166   1.247   0.316  1.00  0.00     0.004 C 
HETATM   11  C13 UNL     1      -1.007   0.764   0.088  1.00  0.00     0.059 C 
HETATM   12  H2  UNL     1      -2.091  -3.055  -1.110  1.00  0.00     0.190 HD
ENDROOT
BRANCH   7  13
HETATM   13  S1  UNL     1       1.948  -1.557   0.770  1.00  0.00    -0.066 SA
BRANCH  13  14
HETATM   14  C4  UNL     1       3.185  -0.320   0.650  1.00  0.00     0.045 A 
HETATM   15  C5  UNL     1       3.352   0.902   1.272  1.00  0.00     0.025 A 
HETATM   16  C6  UNL     1       4.426   1.721   1.008  1.00  0.00     0.044 A 
HETATM   17  C7  UNL     1       5.384   1.352   0.106  1.00  0.00     0.119 A 
HETATM   18  F1  UNL     1       6.376   2.268  -0.040  1.00  0.00    -0.206 F 
HETATM   19  C8  UNL     1       5.266   0.132  -0.548  1.00  0.00     0.086 A 
HETATM   20  C9  UNL     1       4.167  -0.680  -0.263  1.00  0.00     0.136 A 
HETATM   21  F2  UNL     1       4.232  -1.834  -1.007  1.00  0.00    -0.205 F 
ENDBRANCH  13  14
ENDBRANCH   7  13
BRANCH  11  22
HETATM   22  C14 UNL     1      -2.255   0.374   0.729  1.00  0.00     0.024 A 
HETATM   23  C15 UNL     1      -2.464  -0.627   1.567  1.00  0.00     0.047 A 
HETATM   24 CL1  UNL     1      -1.297  -1.730   2.217  1.00  0.00    -0.083 Cl
HETATM   25  C16 UNL     1      -3.740  -0.814   2.019  1.00  0.00     0.025 A 
HETATM   26  C17 UNL     1      -4.803  -0.029   1.658  1.00  0.00     0.003 A 
HETATM   27  C18 UNL     1      -4.661   1.031   0.792  1.00  0.00     0.025 A 
HETATM   28  C19 UNL     1      -3.338   1.193   0.347  1.00  0.00     0.047 A 
HETATM   29 CL2  UNL     1      -3.091   2.544  -0.779  1.00  0.00    -0.083 Cl
ENDBRANCH  11  22
TORSDOF 3
