REMARK  9 active torsions:
REMARK  status: ('A' for Active; 'I' for Inactive)
REMARK    1  A    between atoms: C2_2  and  S1_3 
REMARK    2  A    between atoms: C2_2  and  N2_16 
REMARK    3  A    between atoms: S1_3  and  C3_4 
REMARK    4  A    between atoms: C3_4  and  C4_5 
REMARK       I    between atoms: C4_5  and  N1_7 
REMARK    5  A    between atoms: N1_7  and  C5_8 
REMARK    6  A    between atoms: C14_19  and  N3_20 
REMARK    7  A    between atoms: N4_23  and  C17_24 
REMARK    8  A    between atoms: C17_24  and  O2_25 
REMARK    9  A    between atoms: O2_25  and  N5_26 
ROOT
HETATM    1  N2  UNL     1       0.113  -0.645   0.482  1.00  0.00    -0.240 N 
HETATM    2  C12 UNL     1      -0.446   0.651   0.571  1.00  0.00     0.118 A 
HETATM    3  C13 UNL     1      -1.628   0.676   1.158  1.00  0.00     0.023 A 
HETATM    4  C14 UNL     1      -2.490  -0.397   1.744  1.00  0.00     0.153 A 
HETATM    5  C20 UNL     1      -1.753  -1.672   1.569  1.00  0.00     0.055 A 
HETATM    6  C21 UNL     1      -2.235  -3.012   2.027  1.00  0.00     0.070 C 
HETATM    7  N6  UNL     1      -0.577  -1.739   0.990  1.00  0.00    -0.174 NA
ENDROOT
BRANCH   1   8
HETATM    8  C2  UNL     1       1.378  -0.987  -0.110  1.00  0.00     0.085 C 
HETATM    9  C1  UNL     1       2.188  -1.270   0.876  1.00  0.00     0.053 C 
BRANCH   8  10
HETATM   10  S1  UNL     1       1.845  -1.054  -1.829  1.00  0.00    -0.102 SA
BRANCH  10  11
HETATM   11  C3  UNL     1       3.531  -1.698  -1.891  1.00  0.00     0.184 C 
BRANCH  11  12
HETATM   12  C4  UNL     1       4.441  -0.694  -1.285  1.00  0.00     0.231 C 
HETATM   13  O1  UNL     1       5.234  -1.080  -0.364  1.00  0.00    -0.272 OA
HETATM   14  N1  UNL     1       4.543   0.683  -1.614  1.00  0.00    -0.325 N 
HETATM   15  H5  UNL     1       3.903   1.017  -2.364  1.00  0.00     0.169 HD
BRANCH  14  16
HETATM   16  C5  UNL     1       5.568   1.212  -0.749  1.00  0.00     0.062 A 
HETATM   17  C6  UNL     1       6.809   1.067  -1.364  1.00  0.00    -0.034 A 
HETATM   18  C7  UNL     1       7.079   0.468  -2.695  1.00  0.00     0.050 C 
HETATM   19  C8  UNL     1       7.946   1.519  -0.690  1.00  0.00     0.009 A 
HETATM   20  C9  UNL     1       7.806   2.085   0.543  1.00  0.00     0.002 A 
HETATM   21  C10 UNL     1       6.567   2.222   1.142  1.00  0.00     0.026 A 
HETATM   22  C11 UNL     1       5.435   1.780   0.487  1.00  0.00     0.061 A 
HETATM   23 CL1  UNL     1       3.793   1.865   1.075  1.00  0.00    -0.082 Cl
ENDBRANCH  14  16
ENDBRANCH  11  12
ENDBRANCH  10  11
ENDBRANCH   8  10
ENDBRANCH   1   8
BRANCH   4  24
HETATM   24  N3  UNL     1      -3.742  -0.316   1.109  1.00  0.00    -0.396 N 
HETATM   25  C15 UNL     1      -4.812  -1.137   1.505  1.00  0.00     0.148 C 
HETATM   26  C16 UNL     1      -5.706  -1.300   0.293  1.00  0.00     0.294 C 
HETATM   27  N4  UNL     1      -6.233   0.015  -0.136  1.00  0.00     0.116 N 
HETATM   28  C18 UNL     1      -5.690   1.047   0.672  1.00  0.00     0.294 C 
HETATM   29  C19 UNL     1      -4.195   1.008   0.879  1.00  0.00     0.148 C 
BRANCH  27  30
HETATM   30  C17 UNL     1      -6.157   0.133  -1.549  1.00  0.00     0.472 C 
BRANCH  30  31
HETATM   31  O2  UNL     1      -6.840   1.170  -2.084  1.00  0.00    -0.257 OA
BRANCH  31  32
HETATM   32  N5  UNL     1      -6.536   2.398  -1.777  1.00  0.00    -0.309 N 
HETATM   33  H21 UNL     1      -7.325   2.990  -1.426  1.00  0.00     0.184 HD
HETATM   34  H22 UNL     1      -5.913   2.931  -2.425  1.00  0.00     0.184 HD
ENDBRANCH  31  32
ENDBRANCH  30  31
ENDBRANCH  27  30
ENDBRANCH   4  24
TORSDOF 9
