REMARK  2 active torsions:
REMARK  status: ('A' for Active; 'I' for Inactive)
REMARK    1  A    between atoms: O1_2  and  C2_3 
REMARK    2  A    between atoms: C7_8  and  O2_9 
ROOT
HETATM    1  C2  UNL     1       3.448   0.274   0.594  1.00  0.00     0.102 A 
HETATM    2  C3  UNL     1       2.289   0.384   1.368  1.00  0.00     0.047 A 
HETATM    3  C4  UNL     1       1.125  -0.255   0.994  1.00  0.00    -0.045 A 
HETATM    4  C5  UNL     1       1.113  -1.010  -0.159  1.00  0.00    -0.045 A 
HETATM    5  C6  UNL     1       2.259  -1.116  -0.921  1.00  0.00     0.047 A 
HETATM    6  C7  UNL     1       3.430  -0.492  -0.573  1.00  0.00     0.102 A 
HETATM    7  C9  UNL     1      -0.230  -1.610  -0.379  1.00  0.00     0.077 C 
HETATM    8  C10 UNL     1      -1.116  -0.710   0.410  1.00  0.00    -0.028 C 
HETATM    9  C11 UNL     1      -2.360  -0.306   0.173  1.00  0.00     0.100 C 
HETATM   10  N1  UNL     1      -3.048   0.561   1.049  1.00  0.00    -0.373 N 
HETATM   11  C12 UNL     1      -4.292   1.263   0.951  1.00  0.00     0.151 C 
HETATM   12  C13 UNL     1      -5.267   0.660   0.028  1.00  0.00     0.032 C 
HETATM   13  C14 UNL     1      -5.191   0.024  -1.140  1.00  0.00     0.109 C 
HETATM   14  F1  UNL     1      -6.359  -0.400  -1.705  1.00  0.00    -0.209 F 
HETATM   15  C15 UNL     1      -3.934  -0.260  -1.879  1.00  0.00     0.191 C 
HETATM   16  N2  UNL     1      -2.910  -0.836  -1.040  1.00  0.00    -0.370 N 
HETATM   17  C16 UNL     1      -0.258  -0.351   1.570  1.00  0.00     0.077 C 
HETATM   18  H11 UNL     1      -2.530   0.709   1.943  1.00  0.00     0.161 HD
HETATM   19  H17 UNL     1      -2.505  -1.766  -1.345  1.00  0.00     0.161 HD
ENDROOT
BRANCH   6  20
HETATM   20  O2  UNL     1       4.631  -0.535  -1.266  1.00  0.00    -0.353 OA
HETATM   21  C8  UNL     1       4.780  -1.267  -2.468  1.00  0.00     0.210 C 
ENDBRANCH   6  20
BRANCH   1  22
HETATM   22  O1  UNL     1       4.579   0.929   1.011  1.00  0.00    -0.353 OA
HETATM   23  C1  UNL     1       4.510   1.684   2.207  1.00  0.00     0.210 C 
ENDBRANCH   1  22
TORSDOF 2
