REMARK  8 active torsions:
REMARK  status: ('A' for Active; 'I' for Inactive)
REMARK    1  A    between atoms: C3_3  and  C4_4 
REMARK    2  A    between atoms: C5_5  and  C6_6 
REMARK    3  A    between atoms: C7_7  and  N1_8 
REMARK    4  A    between atoms: N1_8  and  C8_9 
REMARK    5  A    between atoms: C8_9  and  C9_10 
REMARK    6  A    between atoms: C9_10  and  C10_11 
REMARK    7  A    between atoms: C10_11  and  N2_13 
REMARK    8  A    between atoms: C15_20  and  N6_21 
ROOT
HETATM    1  C10 UNL     1      -2.345  -1.617   0.160  1.00  0.00     0.110 C 
HETATM    2  C11 UNL     1      -2.876  -2.864  -0.560  1.00  0.00     0.034 C 
ENDROOT
BRANCH   1   3
HETATM    3  C9  UNL     1      -1.024  -1.317  -0.431  1.00  0.00     0.046 C 
BRANCH   3   4
HETATM    4  C8  UNL     1      -0.294  -0.128   0.112  1.00  0.00     0.121 C 
BRANCH   4   5
HETATM    5  N1  UNL     1       0.996   0.036  -0.575  1.00  0.00    -0.399 N 
HETATM    6  H10 UNL     1       1.265  -0.641  -1.323  1.00  0.00     0.158 HD
BRANCH   5   7
HETATM    7  C7  UNL     1       1.882   1.098  -0.239  1.00  0.00     0.083 C 
HETATM    8  C6  UNL     1       3.204   0.891  -0.120  1.00  0.00     0.017 C 
BRANCH   8   9
HETATM    9  C5  UNL     1       3.739  -0.431  -0.334  1.00  0.00     0.001 C 
HETATM   10  C4  UNL     1       5.025  -0.708  -0.234  1.00  0.00    -0.000 C 
BRANCH  10  11
HETATM   11  C3  UNL     1       6.029   0.288   0.102  1.00  0.00    -0.004 C 
HETATM   12  C2  UNL     1       7.343   0.033   0.210  1.00  0.00    -0.031 C 
HETATM   13  C1  UNL     1       8.362   1.046   0.551  1.00  0.00     0.036 C 
ENDBRANCH  10  11
ENDBRANCH   8   9
ENDBRANCH   5   7
ENDBRANCH   4   5
ENDBRANCH   3   4
ENDBRANCH   1   3
BRANCH   1  14
HETATM   14  N2  UNL     1      -3.321  -0.579   0.074  1.00  0.00    -0.245 N 
HETATM   15  N3  UNL     1      -3.421   0.724  -0.430  1.00  0.00    -0.167 NA
HETATM   16  C12 UNL     1      -4.660   0.766  -0.011  1.00  0.00     0.156 A 
HETATM   17  C13 UNL     1      -4.661  -0.593   0.553  1.00  0.00     0.178 A 
HETATM   18  C15 UNL     1      -5.781   1.731  -0.015  1.00  0.00     0.398 A 
HETATM   19  N4  UNL     1      -5.739  -1.000   1.103  1.00  0.00    -0.221 NA
HETATM   20  C14 UNL     1      -6.828  -0.073   1.103  1.00  0.00     0.232 A 
HETATM   21  N5  UNL     1      -6.910   1.114   0.640  1.00  0.00    -0.241 NA
BRANCH  18  22
HETATM   22  N6  UNL     1      -5.417   2.993   0.599  1.00  0.00     0.109 N 
HETATM   23  H21 UNL     1      -5.654   3.774  -0.053  1.00  0.00     0.316 HD
HETATM   24  H22 UNL     1      -4.379   3.013   0.694  1.00  0.00     0.316 HD
ENDBRANCH  18  22
ENDBRANCH   1  14
TORSDOF 8
