REMARK  7 active torsions:
REMARK  status: ('A' for Active; 'I' for Inactive)
REMARK    1  A    between atoms: C2_2  and  C4_6 
REMARK    2  A    between atoms: C3_3  and  N1_4 
REMARK    3  A    between atoms: C4_6  and  N2_7 
REMARK    4  A    between atoms: N2_7  and  C5_8 
REMARK    5  A    between atoms: C9_12  and  S1_13 
REMARK    6  A    between atoms: S1_13  and  N3_16 
REMARK    7  A    between atoms: N3_16  and  C10_17 
ROOT
HETATM    1  C5  UNL     1       0.775  -1.581   0.394  1.00  0.00     0.029 A 
HETATM    2  C6  UNL     1       1.127  -2.875   0.346  1.00  0.00     0.026 A 
HETATM    3  C7  UNL     1      -0.072  -3.715   0.196  1.00  0.00    -0.000 A 
HETATM    4  C8  UNL     1      -1.104  -2.886   0.158  1.00  0.00     0.001 A 
HETATM    5  C9  UNL     1      -0.709  -1.463   0.276  1.00  0.00     0.196 A 
ENDROOT
BRANCH   1   6
HETATM    6  N2  UNL     1       1.852  -0.647   0.540  1.00  0.00    -0.388 N 
HETATM    7  H8  UNL     1       1.942  -0.202   1.490  1.00  0.00     0.159 HD
BRANCH   6   8
HETATM    8  C4  UNL     1       2.833  -0.242  -0.468  1.00  0.00     0.155 C 
BRANCH   8   9
HETATM    9  C2  UNL     1       3.794   0.751   0.074  1.00  0.00    -0.050 C 
HETATM   10  C1  UNL     1       4.618   0.341   1.236  1.00  0.00     0.046 C 
HETATM   11  C3  UNL     1       3.958   1.970  -0.412  1.00  0.00     0.105 C 
BRANCH  11  12
HETATM   12  N1  UNL     1       4.919   2.747   0.249  1.00  0.00    -0.313 N 
HETATM   13 CL1  UNL     1       5.274   4.402  -0.150  1.00  0.00    -0.104 Cl
HETATM   14  H5  UNL     1       5.644   3.256   0.784  1.00  0.00     0.297 HD
ENDBRANCH  11  12
ENDBRANCH   8   9
ENDBRANCH   6   8
ENDBRANCH   1   6
BRANCH   5  15
HETATM   15  S1  UNL     1      -1.046  -0.511  -1.132  1.00  0.00     0.223 S 
HETATM   16  O1  UNL     1      -0.451  -1.211  -2.323  1.00  0.00    -0.210 OA
HETATM   17  O2  UNL     1      -0.295   0.788  -0.988  1.00  0.00    -0.210 OA
BRANCH  15  18
HETATM   18  N3  UNL     1      -2.657  -0.179  -1.476  1.00  0.00    -0.211 NA
HETATM   19  H13 UNL     1      -2.726   0.284  -2.409  1.00  0.00     0.140 HD
BRANCH  18  20
HETATM   20  C10 UNL     1      -3.420   0.559  -0.542  1.00  0.00     0.014 C 
HETATM   21  C11 UNL     1      -4.821   0.676  -1.167  1.00  0.00     0.032 C 
HETATM   22  C12 UNL     1      -3.635  -0.182   0.760  1.00  0.00     0.032 C 
HETATM   23  C13 UNL     1      -2.962   1.978  -0.317  1.00  0.00     0.032 C 
ENDBRANCH  18  20
ENDBRANCH  15  18
ENDBRANCH   5  15
TORSDOF 7
