REMARK  6 active torsions:
REMARK  status: ('A' for Active; 'I' for Inactive)
REMARK    1  A    between atoms: C2_2  and  C3_3 
REMARK    2  A    between atoms: C3_3  and  N1_4 
REMARK    3  A    between atoms: C4_6  and  C5_7 
REMARK    4  A    between atoms: C9_11  and  O1_12 
REMARK    5  A    between atoms: C11_14  and  N3_15 
REMARK    6  A    between atoms: C14_18  and  N4_19 
ROOT
HETATM    1  N1  UNL     1       2.369   0.006  -0.390  1.00  0.00    -0.251 N 
HETATM    2  N2  UNL     1       1.185   0.543  -0.632  1.00  0.00    -0.170 NA
HETATM    3  C4  UNL     1       0.199  -0.360  -0.530  1.00  0.00     0.096 A 
HETATM    4  C13 UNL     1       0.875  -1.525  -0.199  1.00  0.00     0.087 A 
HETATM    5  C14 UNL     1       0.461  -2.820   0.050  1.00  0.00     0.139 A 
HETATM    6  N5  UNL     1       1.299  -3.826   0.363  1.00  0.00    -0.224 NA
HETATM    7  C15 UNL     1       2.639  -3.573   0.444  1.00  0.00     0.237 A 
HETATM    8  N6  UNL     1       3.063  -2.319   0.206  1.00  0.00    -0.222 NA
HETATM    9  C16 UNL     1       2.237  -1.321  -0.105  1.00  0.00     0.163 A 
ENDROOT
BRANCH   3  10
HETATM   10  C5  UNL     1      -1.242  -0.294  -0.691  1.00  0.00     0.048 C 
HETATM   11  C6  UNL     1      -1.966   0.743  -0.303  1.00  0.00    -0.006 C 
HETATM   12  C7  UNL     1      -1.372   1.917   0.324  1.00  0.00     0.016 C 
HETATM   13  C11 UNL     1      -3.408   0.749  -0.492  1.00  0.00     0.052 C 
HETATM   14  C8  UNL     1      -2.176   2.920   0.685  1.00  0.00     0.038 C 
HETATM   15  C9  UNL     1      -3.617   2.809   0.443  1.00  0.00     0.079 C 
HETATM   16  C10 UNL     1      -3.994   1.930  -0.462  1.00  0.00     0.040 C 
BRANCH  15  17
HETATM   17  O1  UNL     1      -4.559   3.590   1.129  1.00  0.00    -0.360 OA
HETATM   18  H11 UNL     1      -4.790   3.340   2.078  1.00  0.00     0.217 HD
ENDBRANCH  15  17
BRANCH  13  19
HETATM   19  N3  UNL     1      -4.087  -0.478  -0.690  1.00  0.00    -0.393 N 
HETATM   20  C12 UNL     1      -4.602  -1.412  -1.671  1.00  0.00     0.146 C 
HETATM   21  H12 UNL     1      -4.317  -0.891   0.259  1.00  0.00     0.159 HD
ENDBRANCH  13  19
ENDBRANCH   3  10
BRANCH   1  22
HETATM   22  C3  UNL     1       3.613   0.729  -0.425  1.00  0.00     0.153 C 
BRANCH  22  23
HETATM   23  C2  UNL     1       3.928   1.307   0.940  1.00  0.00     0.018 C 
HETATM   24  C1  UNL     1       5.225   2.064   0.922  1.00  0.00     0.007 C 
ENDBRANCH  22  23
ENDBRANCH   1  22
BRANCH   5  25
HETATM   25  N4  UNL     1      -0.910  -3.183  -0.007  1.00  0.00    -0.383 N 
HETATM   26  H16 UNL     1      -1.826  -3.316   0.454  1.00  0.00     0.157 HD
HETATM   27  H17 UNL     1      -1.393  -3.502  -0.899  1.00  0.00     0.157 HD
ENDBRANCH   5  25
TORSDOF 6
