REMARK  5 active torsions:
REMARK  status: ('A' for Active; 'I' for Inactive)
REMARK    1  A    between atoms: C6_8  and  N3_9 
REMARK    2  A    between atoms: N3_9  and  C7_10 
REMARK    3  A    between atoms: C10_13  and  O1_14 
REMARK    4  A    between atoms: O1_14  and  C11_15 
REMARK    5  A    between atoms: C11_15  and  C12_16 
ROOT
HETATM    1  C7  UNL     1       0.922   0.019  -0.134  1.00  0.00     0.035 A 
HETATM    2  C8  UNL     1      -0.016  -0.349  -1.079  1.00  0.00     0.032 A 
HETATM    3  C9  UNL     1      -1.250   0.245  -1.179  1.00  0.00     0.041 A 
HETATM    4  C10 UNL     1      -1.632   1.258  -0.332  1.00  0.00     0.091 A 
HETATM    5  C18 UNL     1      -0.687   1.644   0.635  1.00  0.00     0.069 A 
HETATM    6 CL1  UNL     1      -0.918   2.919   1.847  1.00  0.00    -0.081 Cl
HETATM    7  C19 UNL     1       0.568   1.028   0.724  1.00  0.00     0.056 A 
ENDROOT
BRANCH   1   8
HETATM    8  N3  UNL     1       2.147  -0.696  -0.177  1.00  0.00    -0.340 N 
HETATM    9  H8  UNL     1       2.332  -1.427  -0.928  1.00  0.00     0.167 HD
BRANCH   8  10
HETATM   10  C6  UNL     1       3.228  -0.532   0.722  1.00  0.00     0.137 A 
HETATM   11  C3  UNL     1       4.640  -0.647   0.378  1.00  0.00     0.004 A 
HETATM   12  C2  UNL     1       4.900  -0.936  -0.884  1.00  0.00    -0.018 C 
HETATM   13  C4  UNL     1       5.759  -0.472   1.307  1.00  0.00     0.192 A 
HETATM   14  C1  UNL     1       6.321  -1.069  -1.295  1.00  0.00     0.036 C 
HETATM   15  N1  UNL     1       5.230  -0.173   2.620  1.00  0.00    -0.278 NA
HETATM   16  C5  UNL     1       3.983  -0.079   2.894  1.00  0.00     0.229 A 
HETATM   17  N2  UNL     1       2.928  -0.254   1.957  1.00  0.00    -0.224 NA
ENDBRANCH   8  10
ENDBRANCH   1   8
BRANCH   4  18
HETATM   18  O1  UNL     1      -2.744   2.015  -0.189  1.00  0.00    -0.345 OA
BRANCH  18  19
HETATM   19  C11 UNL     1      -3.948   2.077  -0.830  1.00  0.00     0.214 C 
BRANCH  19  20
HETATM   20  C12 UNL     1      -4.762   0.838  -0.782  1.00  0.00    -0.031 A 
HETATM   21  C13 UNL     1      -5.542   0.735   0.377  1.00  0.00     0.009 A 
HETATM   22  C14 UNL     1      -6.388  -0.323   0.637  1.00  0.00     0.004 A 
HETATM   23  C15 UNL     1      -6.498  -1.355  -0.271  1.00  0.00     0.042 A 
HETATM   24  C16 UNL     1      -5.736  -1.257  -1.406  1.00  0.00     0.117 A 
HETATM   25  F1  UNL     1      -5.765  -2.220  -2.373  1.00  0.00    -0.206 F 
HETATM   26  C17 UNL     1      -4.889  -0.203  -1.672  1.00  0.00     0.051 A 
ENDBRANCH  19  20
ENDBRANCH  18  19
ENDBRANCH   4  18
TORSDOF 5
