REMARK  4 active torsions:
REMARK  status: ('A' for Active; 'I' for Inactive)
REMARK    1  A    between atoms: C2_2  and  N1_3 
REMARK    2  A    between atoms: N1_3  and  C3_4 
REMARK    3  A    between atoms: C14_19  and  N6_20 
REMARK       I    between atoms: N6_20  and  C15_21 
REMARK    4  A    between atoms: C15_21  and  C16_23 
ROOT
HETATM    1  C3  UNL     1      -2.544  -0.954   0.812  1.00  0.00     0.126 C 
HETATM    2  C4  UNL     1      -3.162   0.203   0.505  1.00  0.00     0.048 C 
HETATM    3  C5  UNL     1      -3.212   1.643   0.205  1.00  0.00     0.114 C 
HETATM    4  C6  UNL     1      -3.922   1.817  -1.133  1.00  0.00     0.031 C 
HETATM    5  C7  UNL     1      -3.768   3.234  -1.640  1.00  0.00     0.032 C 
HETATM    6  C8  UNL     1      -3.878   4.256  -0.561  1.00  0.00     0.272 C 
HETATM    7  N2  UNL     1      -2.665   4.576   0.114  1.00  0.00     0.102 N 
HETATM    8  C9  UNL     1      -1.575   3.673  -0.057  1.00  0.00     0.518 C 
HETATM    9  N3  UNL     1      -1.924   2.294   0.127  1.00  0.00    -0.326 N 
HETATM   10  C10 UNL     1      -0.586   1.865   0.190  1.00  0.00     0.151 C 
HETATM   11  N4  UNL     1       0.001   0.717  -0.136  1.00  0.00    -0.210 NA
HETATM   12  C11 UNL     1      -0.048  -0.567   0.567  1.00  0.00     0.134 C 
HETATM   13  N5  UNL     1      -1.167  -1.230   0.598  1.00  0.00    -0.216 NA
HETATM   14  C12 UNL     1       1.156  -1.157   1.260  1.00  0.00     0.110 C 
HETATM   15  C13 UNL     1       2.139  -1.655   0.299  1.00  0.00     0.010 C 
HETATM   16  C14 UNL     1       2.906  -0.660  -0.130  1.00  0.00     0.031 C 
HETATM   17  C19 UNL     1       3.021   0.754   0.121  1.00  0.00     0.026 C 
HETATM   18  C20 UNL     1       2.556   1.776   0.819  1.00  0.00    -0.015 C 
HETATM   19  C21 UNL     1       1.660   2.358   1.829  1.00  0.00     0.089 C 
HETATM   20  S1  UNL     1       0.318   3.303   0.922  1.00  0.00    -0.171 SA
HETATM   21  H13 UNL     1      -2.907   4.777   1.110  1.00  0.00     0.318 HD
ENDROOT
BRANCH   1  22
HETATM   22  N1  UNL     1      -3.302  -1.984   1.391  1.00  0.00    -0.343 N 
HETATM   23  H4  UNL     1      -3.946  -1.994   2.203  1.00  0.00     0.164 HD
BRANCH  22  24
HETATM   24  C2  UNL     1      -3.087  -3.213   0.665  1.00  0.00     0.154 A 
HETATM   25  C1  UNL     1      -3.860  -4.397   1.205  1.00  0.00     0.071 C 
HETATM   26  C22 UNL     1      -1.647  -3.534   0.459  1.00  0.00     0.165 A 
HETATM   27  N7  UNL     1      -1.844  -3.438  -0.830  1.00  0.00    -0.189 NA
HETATM   28  N8  UNL     1      -3.219  -3.125  -0.779  1.00  0.00    -0.281 N 
HETATM   29  H30 UNL     1      -3.396  -3.042  -1.824  1.00  0.00     0.185 HD
ENDBRANCH  22  24
ENDBRANCH   1  22
BRANCH  16  30
HETATM   30  N6  UNL     1       3.758  -1.318  -1.018  1.00  0.00    -0.327 N 
HETATM   31  C15 UNL     1       5.128  -1.218  -0.659  1.00  0.00     0.226 C 
HETATM   32  O1  UNL     1       5.434  -0.578   0.370  1.00  0.00    -0.273 OA
HETATM   33  H19 UNL     1       3.542  -1.859  -1.885  1.00  0.00     0.169 HD
BRANCH  31  34
HETATM   34  C16 UNL     1       6.196  -1.867  -1.497  1.00  0.00     0.078 A 
HETATM   35  C17 UNL     1       7.545  -1.269  -1.435  1.00  0.00     0.015 A 
HETATM   36  C18 UNL     1       7.287  -2.506  -0.653  1.00  0.00     0.015 A 
ENDBRANCH  31  34
ENDBRANCH  16  30
TORSDOF 4
