REMARK  5 active torsions:
REMARK  status: ('A' for Active; 'I' for Inactive)
REMARK    1  A    between atoms: N1_2  and  C1_3 
REMARK    2  A    between atoms: C7_9  and  C8_10 
REMARK    3  A    between atoms: N4_17  and  C13_18 
REMARK    4  A    between atoms: C13_18  and  C14_19 
REMARK    5  A    between atoms: C14_19  and  O2_20 
ROOT
HETATM    1  C1  UNL     1      -4.241  -0.736  -0.565  1.00  0.00     0.172 C 
HETATM    2  C2  UNL     1      -4.533   0.070   0.682  1.00  0.00     0.039 C 
HETATM    3  C3  UNL     1      -3.478   1.129   0.575  1.00  0.00     0.041 C 
HETATM    4  C4  UNL     1      -2.380   0.419  -0.191  1.00  0.00    -0.053 C 
HETATM    5  C5  UNL     1      -1.323   1.213  -0.515  1.00  0.00    -0.013 C 
HETATM    6  C6  UNL     1      -0.062   0.942  -1.245  1.00  0.00     0.089 C 
HETATM    7  C7  UNL     1       1.061   1.027  -0.239  1.00  0.00     0.068 C 
HETATM    8  N3  UNL     1       1.743   0.199   0.395  1.00  0.00    -0.181 NA
HETATM    9  N4  UNL     1       1.932  -1.107   0.599  1.00  0.00    -0.301 N 
HETATM   10  C15 UNL     1       1.687  -2.072   1.620  1.00  0.00     0.171 C 
HETATM   11  C16 UNL     1       0.819  -3.236   1.411  1.00  0.00     0.189 C 
HETATM   12  O3  UNL     1      -0.493  -3.055   1.126  1.00  0.00    -0.386 OA
HETATM   13  C17 UNL     1      -0.771  -2.377  -0.028  1.00  0.00     0.195 C 
HETATM   14  C18 UNL     1      -2.202  -2.211  -0.249  1.00  0.00     0.009 C 
HETATM   15  C19 UNL     1      -2.770  -0.988  -0.331  1.00  0.00    -0.027 C 
ENDROOT
BRANCH   7  16
HETATM   16  C8  UNL     1       1.468   2.343   0.247  1.00  0.00    -0.007 A 
HETATM   17  C9  UNL     1       2.373   2.562   1.264  1.00  0.00     0.032 A 
HETATM   18  C10 UNL     1       2.792   3.824   1.706  1.00  0.00     0.117 A 
HETATM   19  N2  UNL     1       2.279   4.907   1.101  1.00  0.00    -0.273 NA
HETATM   20  C11 UNL     1       1.381   4.795   0.088  1.00  0.00     0.117 A 
HETATM   21  C12 UNL     1       1.009   3.527  -0.302  1.00  0.00     0.032 A 
ENDBRANCH   7  16
BRANCH   9  22
HETATM   22  C13 UNL     1       2.664  -1.862  -0.431  1.00  0.00     0.170 C 
BRANCH  22  23
HETATM   23  C14 UNL     1       3.044  -0.977  -1.607  1.00  0.00     0.185 C 
BRANCH  23  24
HETATM   24  O2  UNL     1       3.750  -1.724  -2.572  1.00  0.00    -0.399 OA
HETATM   25  H17 UNL     1       4.597  -2.018  -2.169  1.00  0.00     0.209 HD
ENDBRANCH  23  24
ENDBRANCH  22  23
ENDBRANCH   9  22
BRANCH   1  26
HETATM   26  N1  UNL     1      -4.418   0.159  -1.678  1.00  0.00    -0.131 NA
HETATM   27  O1  UNL     1      -4.637  -0.266  -2.772  1.00  0.00    -0.066 OA
ENDBRANCH   1  26
TORSDOF 5
