REMARK  5 active torsions:
REMARK  status: ('A' for Active; 'I' for Inactive)
REMARK    1  A    between atoms: C2_2  and  C3_3 
REMARK    2  A    between atoms: C4_4  and  N1_5 
REMARK    3  A    between atoms: C7_9  and  N3_10 
REMARK    4  A    between atoms: N3_10  and  C8_11 
REMARK    5  A    between atoms: C8_11  and  C9_12 
ROOT
HETATM    1  N1  UNL     1       2.895   1.501   0.498  1.00  0.00    -0.226 N 
HETATM    2  N2  UNL     1       2.026   1.816   1.470  1.00  0.00    -0.178 NA
HETATM    3  C5  UNL     1       0.863   1.203   1.202  1.00  0.00     0.158 A 
HETATM    4  C6  UNL     1       1.001   0.485   0.033  1.00  0.00     0.076 A 
HETATM    5  C7  UNL     1       0.214  -0.337  -0.771  1.00  0.00     0.140 A 
HETATM    6  N4  UNL     1       0.733  -0.874  -1.884  1.00  0.00    -0.224 NA
HETATM    7  C16 UNL     1       2.001  -0.677  -2.304  1.00  0.00     0.237 A 
HETATM    8  N5  UNL     1       2.723   0.120  -1.501  1.00  0.00    -0.221 NA
HETATM    9  C17 UNL     1       2.309   0.699  -0.385  1.00  0.00     0.167 A 
ENDROOT
BRANCH   5  10
HETATM   10  N3  UNL     1      -1.140  -0.570  -0.356  1.00  0.00    -0.370 N 
HETATM   11  H9  UNL     1      -1.510  -0.155   0.501  1.00  0.00     0.161 HD
BRANCH  10  12
HETATM   12  C8  UNL     1      -1.944  -1.442  -1.242  1.00  0.00     0.156 C 
BRANCH  12  13
HETATM   13  C9  UNL     1      -3.300  -1.529  -0.597  1.00  0.00    -0.055 C 
HETATM   14  C10 UNL     1      -3.776  -1.026  -1.602  1.00  0.00     0.032 C 
HETATM   15  C11 UNL     1      -5.278  -0.957  -1.291  1.00  0.00     0.093 C 
HETATM   16  C12 UNL     1      -6.157  -1.283  -0.309  1.00  0.00     0.107 C 
HETATM   17  O1  UNL     1      -6.488  -1.819   0.951  1.00  0.00    -0.366 OA
HETATM   18  C13 UNL     1      -5.863  -1.380   2.166  1.00  0.00     0.343 C 
HETATM   19  O2  UNL     1      -4.940  -2.412   2.565  1.00  0.00    -0.338 OA
HETATM   20  C14 UNL     1      -3.748  -2.369   1.784  1.00  0.00     0.138 C 
HETATM   21  C15 UNL     1      -2.940  -2.133   0.730  1.00  0.00     0.029 C 
ENDBRANCH  12  13
ENDBRANCH  10  12
ENDBRANCH   5  10
BRANCH   1  22
HETATM   22  C4  UNL     1       4.212   2.024   0.538  1.00  0.00     0.116 C 
HETATM   23  C3  UNL     1       5.085   1.737  -0.398  1.00  0.00    -0.008 C 
BRANCH  23  24
HETATM   24  C2  UNL     1       6.498   2.146  -0.585  1.00  0.00     0.024 C 
HETATM   25  C1  UNL     1       6.898   3.048   0.587  1.00  0.00     0.009 C 
ENDBRANCH  23  24
ENDBRANCH   1  22
TORSDOF 5
