REMARK  7 active torsions:
REMARK  status: ('A' for Active; 'I' for Inactive)
REMARK    1  A    between atoms: N2_11  and  C9_12 
REMARK    2  A    between atoms: C10_13  and  C11_14 
REMARK    3  A    between atoms: C11_14  and  N3_15 
REMARK    4  A    between atoms: N3_15  and  C12_16 
REMARK    5  A    between atoms: C15_19  and  S1_20 
REMARK    6  A    between atoms: S1_20  and  N4_23 
REMARK    7  A    between atoms: N4_23  and  C16_24 
ROOT
HETATM    1  N3  UNL     1       0.926   0.160  -0.295  1.00  0.00    -0.385 N 
HETATM    2  H16 UNL     1       0.876   0.634   0.612  1.00  0.00     0.160 HD
ENDROOT
BRANCH   1   3
HETATM    3  C11 UNL     1       0.053  -0.819  -0.959  1.00  0.00     0.148 C 
BRANCH   3   4
HETATM    4  C10 UNL     1      -0.605  -0.206  -2.137  1.00  0.00     0.012 C 
HETATM    5  C9  UNL     1      -1.876  -0.051  -2.435  1.00  0.00     0.113 C 
BRANCH   5   6
HETATM    6  N2  UNL     1      -2.919  -0.492  -1.592  1.00  0.00    -0.249 N 
HETATM    7  N1  UNL     1      -3.353  -1.262  -0.464  1.00  0.00    -0.249 N 
HETATM    8  C6  UNL     1      -3.793  -2.032   0.666  1.00  0.00     0.112 C 
HETATM    9  C7  UNL     1      -4.362  -0.484  -1.241  1.00  0.00     0.372 A 
HETATM   10  C5  UNL     1      -4.733  -1.855   1.566  1.00  0.00    -0.002 C 
HETATM   11  C4  UNL     1      -5.429  -0.573   1.291  1.00  0.00     0.022 C 
HETATM   12  C3  UNL     1      -6.456   0.134   1.800  1.00  0.00     0.005 C 
HETATM   13  C2  UNL     1      -6.526   1.365   0.941  1.00  0.00     0.011 C 
HETATM   14  C1  UNL     1      -7.781   1.160   0.083  1.00  0.00     0.012 C 
HETATM   15  C8  UNL     1      -5.320   1.439   0.013  1.00  0.00     0.177 C 
HETATM   16  O1  UNL     1      -4.841   0.485  -0.607  1.00  0.00    -0.346 OA
ENDBRANCH   5   6
ENDBRANCH   3   4
ENDBRANCH   1   3
BRANCH   1  17
HETATM   17  C12 UNL     1       2.046   0.441  -1.169  1.00  0.00     0.051 A 
HETATM   18  C13 UNL     1       2.382   1.259  -2.177  1.00  0.00     0.032 A 
HETATM   19  C14 UNL     1       3.712   0.676  -2.283  1.00  0.00     0.030 A 
HETATM   20  C15 UNL     1       3.389  -0.150  -1.273  1.00  0.00     0.105 A 
BRANCH  20  21
HETATM   21  S1  UNL     1       4.172  -1.437  -0.385  1.00  0.00     0.261 S 
HETATM   22  O2  UNL     1       3.088  -2.419   0.038  1.00  0.00    -0.200 OA
HETATM   23  O3  UNL     1       5.048  -2.203  -1.340  1.00  0.00    -0.200 OA
BRANCH  21  24
HETATM   24  N4  UNL     1       4.992  -0.880   0.985  1.00  0.00    -0.307 N 
HETATM   25  H19 UNL     1       4.477  -0.831   1.868  1.00  0.00     0.173 HD
BRANCH  24  26
HETATM   26  C16 UNL     1       6.058   0.034   0.783  1.00  0.00     0.029 C 
HETATM   27  C17 UNL     1       5.705   1.345   0.163  1.00  0.00     0.038 C 
HETATM   28  C18 UNL     1       7.106  -0.619  -0.135  1.00  0.00     0.038 C 
HETATM   29  C19 UNL     1       6.715   0.298   2.143  1.00  0.00     0.038 C 
ENDBRANCH  24  26
ENDBRANCH  21  24
ENDBRANCH  20  21
ENDBRANCH   1  17
TORSDOF 7
