REMARK  9 active torsions:
REMARK  status: ('A' for Active; 'I' for Inactive)
REMARK    1  A    between atoms: C2_2  and  C3_3 
REMARK    2  A    between atoms: C6_6  and  S1_7 
REMARK    3  A    between atoms: S1_7  and  N1_10 
REMARK    4  A    between atoms: N1_10  and  C7_11 
REMARK    5  A    between atoms: C11_15  and  C12_16 
REMARK    6  A    between atoms: C12_16  and  O3_17 
REMARK    7  A    between atoms: O3_17  and  C13_18 
REMARK    8  A    between atoms: C13_18  and  C14_19 
REMARK    9  A    between atoms: C14_19  and  N2_20 
ROOT
HETATM    1  C3  UNL     1      -3.788   3.502   1.248  1.00  0.00     0.028 C 
HETATM    2  C4  UNL     1      -3.132   2.725   0.440  1.00  0.00     0.029 C 
HETATM    3  C5  UNL     1      -2.824   1.361   0.936  1.00  0.00     0.055 C 
HETATM    4  C6  UNL     1      -1.771   0.550   0.678  1.00  0.00     0.090 C 
HETATM    5  C11 UNL     1      -0.660   0.885  -0.206  1.00  0.00    -0.008 C 
HETATM    6  C19 UNL     1      -0.719   1.717  -1.264  1.00  0.00    -0.056 C 
HETATM    7  C20 UNL     1       0.599   1.860  -1.985  1.00  0.00     0.046 C 
HETATM    8  C21 UNL     1      -1.823   2.506  -1.823  1.00  0.00     0.154 C 
HETATM    9  N3  UNL     1      -2.707   3.102  -0.865  1.00  0.00    -0.386 N 
HETATM   10  H35 UNL     1      -3.153   4.015  -1.161  1.00  0.00     0.160 HD
ENDROOT
BRANCH   4  11
HETATM   11  S1  UNL     1      -1.832  -0.986   1.491  1.00  0.00     0.260 S 
HETATM   12  O1  UNL     1      -2.636  -0.722   2.775  1.00  0.00    -0.200 OA
HETATM   13  O2  UNL     1      -0.561  -1.538   1.986  1.00  0.00    -0.200 OA
BRANCH  11  14
HETATM   14  N1  UNL     1      -2.688  -2.195   0.691  1.00  0.00    -0.307 N 
HETATM   15  H6  UNL     1      -3.721  -2.142   0.780  1.00  0.00     0.173 HD
BRANCH  14  16
HETATM   16  C7  UNL     1      -2.317  -2.673  -0.562  1.00  0.00     0.029 C 
HETATM   17  C8  UNL     1      -2.229  -1.616  -1.636  1.00  0.00     0.038 C 
HETATM   18  C9  UNL     1      -3.463  -3.620  -1.006  1.00  0.00     0.038 C 
HETATM   19  C10 UNL     1      -1.095  -3.537  -0.644  1.00  0.00     0.038 C 
ENDBRANCH  14  16
ENDBRANCH  11  14
ENDBRANCH   4  11
BRANCH   5  20
HETATM   20  C12 UNL     1       0.601   0.217   0.154  1.00  0.00     0.208 C 
BRANCH  20  21
HETATM   21  O3  UNL     1       1.089   0.501   1.410  1.00  0.00    -0.385 OA
BRANCH  21  22
HETATM   22  C13 UNL     1       2.271  -0.137   1.661  1.00  0.00     0.198 C 
BRANCH  22  23
HETATM   23  C14 UNL     1       3.416   0.166   0.762  1.00  0.00     0.298 C 
BRANCH  23  24
HETATM   24  N2  UNL     1       4.626  -0.589   1.155  1.00  0.00     0.090 N 
HETATM   25  C15 UNL     1       4.426  -2.005   0.914  1.00  0.00     0.272 C 
HETATM   26  C16 UNL     1       5.625  -2.518   0.166  1.00  0.00     0.032 C 
HETATM   27  C17 UNL     1       6.600  -1.351   0.090  1.00  0.00     0.032 C 
HETATM   28  C18 UNL     1       5.644  -0.185   0.172  1.00  0.00     0.272 C 
ENDBRANCH  23  24
ENDBRANCH  22  23
ENDBRANCH  21  22
ENDBRANCH  20  21
ENDBRANCH   5  20
BRANCH   1  29
HETATM   29  C2  UNL     1      -4.166   4.865   0.913  1.00  0.00    -0.008 C 
HETATM   30  C1  UNL     1      -4.833   5.581   1.798  1.00  0.00     0.011 C 
ENDBRANCH   1  29
TORSDOF 9
