REMARK  11 active torsions:
REMARK  status: ('A' for Active; 'I' for Inactive)
REMARK    1  A    between atoms: C2_2  and  S1_3 
REMARK    2  A    between atoms: S1_3  and  C3_4 
REMARK    3  A    between atoms: C3_4  and  N1_5 
REMARK    4  A    between atoms: C3_4  and  C4_6 
REMARK    5  A    between atoms: C4_6  and  C5_8 
REMARK    6  A    between atoms: C6_9  and  C7_10 
REMARK    7  A    between atoms: C7_10  and  C8_11 
REMARK    8  A    between atoms: N2_13  and  C10_14 
REMARK    9  A    between atoms: C10_14  and  C11_15 
REMARK   10  A    between atoms: C11_15  and  O2_16 
REMARK   11  A    between atoms: C12_18  and  C13_19 
ROOT
HETATM    1  C8  UNL     1      -1.481   0.162   0.534  1.00  0.00    -0.006 A 
HETATM    2  C9  UNL     1      -2.186  -0.939   1.041  1.00  0.00     0.122 A 
HETATM    3  N2  UNL     1      -3.360  -1.120   0.384  1.00  0.00    -0.278 N 
HETATM    4  N3  UNL     1      -3.428  -0.179  -0.518  1.00  0.00    -0.172 NA
HETATM    5  C12 UNL     1      -2.315   0.610  -0.456  1.00  0.00     0.095 A 
ENDROOT
BRANCH   1   6
HETATM    6  C7  UNL     1      -0.167   0.575   1.066  1.00  0.00     0.070 C 
BRANCH   6   7
HETATM    7  C6  UNL     1       0.941   0.106   0.205  1.00  0.00    -0.018 C 
HETATM    8  C5  UNL     1       1.815  -0.720   0.780  1.00  0.00     0.049 C 
BRANCH   8   9
HETATM    9  C4  UNL     1       3.017  -1.443   0.436  1.00  0.00     0.181 C 
HETATM   10  O1  UNL     1       3.860  -2.224   0.942  1.00  0.00    -0.290 OA
BRANCH   9  11
HETATM   11  C3  UNL     1       3.976  -1.721  -0.656  1.00  0.00     0.211 C 
BRANCH  11  12
HETATM   12  S1  UNL     1       4.822  -0.233  -1.243  1.00  0.00    -0.137 SA
BRANCH  12  13
HETATM   13  C2  UNL     1       5.712   0.597   0.098  1.00  0.00     0.072 C 
HETATM   14  C1  UNL     1       4.738   1.155   1.116  1.00  0.00     0.016 C 
ENDBRANCH  12  13
ENDBRANCH  11  12
BRANCH  11  15
HETATM   15  N1  UNL     1       4.984  -2.658  -0.269  1.00  0.00    -0.412 N 
HETATM   16  H7  UNL     1       4.660  -3.615  -0.106  1.00  0.00     0.151 HD
HETATM   17  H8  UNL     1       5.750  -2.307   0.308  1.00  0.00     0.151 HD
ENDBRANCH  11  15
ENDBRANCH   9  11
ENDBRANCH   8   9
ENDBRANCH   6   7
ENDBRANCH   1   6
BRANCH   5  18
HETATM   18  C13 UNL     1      -2.094   1.757  -1.314  1.00  0.00    -0.002 A 
HETATM   19  C14 UNL     1      -3.215   2.600  -1.390  1.00  0.00     0.033 A 
HETATM   20  C15 UNL     1      -3.241   3.747  -2.151  1.00  0.00     0.117 A 
HETATM   21  N4  UNL     1      -2.163   4.108  -2.868  1.00  0.00    -0.273 NA
HETATM   22  C16 UNL     1      -1.055   3.315  -2.820  1.00  0.00     0.117 A 
HETATM   23  C17 UNL     1      -1.019   2.167  -2.063  1.00  0.00     0.033 A 
ENDBRANCH   5  18
BRANCH   3  24
HETATM   24  C10 UNL     1      -4.288  -2.208   0.716  1.00  0.00     0.176 C 
BRANCH  24  25
HETATM   25  C11 UNL     1      -5.267  -1.755   1.776  1.00  0.00     0.185 C 
BRANCH  25  26
HETATM   26  O2  UNL     1      -6.150  -2.803   2.089  1.00  0.00    -0.399 OA
HETATM   27  H18 UNL     1      -6.045  -3.501   1.371  1.00  0.00     0.209 HD
ENDBRANCH  25  26
ENDBRANCH  24  25
ENDBRANCH   3  24
TORSDOF 11
