REMARK  6 active torsions:
REMARK  status: ('A' for Active; 'I' for Inactive)
REMARK    1  A    between atoms: C3_4  and  C4_5 
REMARK    2  A    between atoms: C5_6  and  C6_7 
REMARK    3  A    between atoms: N3_9  and  C7_10 
REMARK    4  A    between atoms: C7_10  and  C8_11 
REMARK    5  A    between atoms: C8_11  and  O1_12 
REMARK    6  A    between atoms: C10_14  and  C11_15 
ROOT
HETATM    1  C1  UNL     1       2.860   5.812   0.864  1.00  0.00     0.039 C 
HETATM    2  C2  UNL     1       2.710   4.621   0.890  1.00  0.00     0.023 C 
HETATM    3  N1  UNL     1       2.517   3.241   0.911  1.00  0.00    -0.211 NA
HETATM    4  C3  UNL     1       3.401   2.480   1.434  1.00  0.00     0.128 C 
ENDROOT
BRANCH   4   5
HETATM    5  C4  UNL     1       2.848   1.143   1.267  1.00  0.00     0.022 C 
HETATM    6  C5  UNL     1       1.698   0.815   0.702  1.00  0.00     0.036 C 
BRANCH   6   7
HETATM    7  C6  UNL     1       1.299  -0.563   0.618  1.00  0.00     0.089 A 
HETATM    8  N2  UNL     1       2.191  -1.459   1.123  1.00  0.00    -0.172 NA
HETATM    9  N3  UNL     1       1.685  -2.690   0.939  1.00  0.00    -0.278 N 
HETATM   10  C9  UNL     1       0.503  -2.529   0.332  1.00  0.00     0.126 A 
HETATM   11  C10 UNL     1       0.226  -1.203   0.114  1.00  0.00     0.018 A 
BRANCH   9  12
HETATM   12  C7  UNL     1       2.303  -3.944   1.327  1.00  0.00     0.176 C 
BRANCH  12  13
HETATM   13  C8  UNL     1       3.164  -4.481   0.223  1.00  0.00     0.185 C 
BRANCH  13  14
HETATM   14  O1  UNL     1       3.792  -5.672   0.504  1.00  0.00    -0.399 OA
HETATM   15  H9  UNL     1       3.866  -6.232  -0.290  1.00  0.00     0.209 HD
ENDBRANCH  13  14
ENDBRANCH  12  13
ENDBRANCH   9  12
BRANCH  11  16
HETATM   16  C11 UNL     1      -0.957  -0.556  -0.459  1.00  0.00    -0.043 C 
HETATM   17  C12 UNL     1      -1.674  -1.567  -1.035  1.00  0.00     0.010 C 
HETATM   18  C13 UNL     1      -2.878  -1.292  -1.903  1.00  0.00     0.025 C 
HETATM   19  C14 UNL     1      -3.376  -0.044  -1.691  1.00  0.00     0.005 C 
HETATM   20  C15 UNL     1      -3.730   0.608  -0.338  1.00  0.00     0.067 C 
HETATM   21  N4  UNL     1      -3.571   1.058  -2.566  1.00  0.00    -0.392 N 
HETATM   22  C16 UNL     1      -2.499   1.510  -0.460  1.00  0.00    -0.019 C 
HETATM   23  C17 UNL     1      -2.675   2.619   0.556  1.00  0.00     0.017 C 
HETATM   24  C18 UNL     1      -2.864   2.144  -1.815  1.00  0.00     0.129 C 
HETATM   25  C19 UNL     1      -1.195   0.891  -0.329  1.00  0.00     0.050 C 
HETATM   26  H20 UNL     1      -4.122   0.738  -3.436  1.00  0.00     0.159 HD
ENDBRANCH  11  16
ENDBRANCH   6   7
ENDBRANCH   4   5
TORSDOF 6
