REMARK  2 active torsions:
REMARK  status: ('A' for Active; 'I' for Inactive)
REMARK    1  A    between atoms: N1_1  and  C1_2 
REMARK    2  A    between atoms: C15_17  and  O1_18 
ROOT
HETATM    1  C1  UNL     1       2.410  -1.582   0.629  1.00  0.00     0.251 C 
HETATM    2  C2  UNL     1       3.787  -0.997   0.870  1.00  0.00     0.045 C 
HETATM    3  C3  UNL     1       3.779   0.405   0.344  1.00  0.00     0.041 C 
HETATM    4  C4  UNL     1       2.334   0.737   0.288  1.00  0.00    -0.049 A 
HETATM    5  C5  UNL     1       1.809   1.999   0.099  1.00  0.00     0.020 A 
HETATM    6  C6  UNL     1       0.428   2.150   0.068  1.00  0.00    -0.021 A 
HETATM    7  C7  UNL     1      -0.322   0.975   0.233  1.00  0.00     0.007 A 
HETATM    8  C8  UNL     1       0.197  -0.317   0.430  1.00  0.00     0.024 A 
HETATM    9  C9  UNL     1       1.555  -0.387   0.449  1.00  0.00    -0.018 A 
HETATM   10  C10 UNL     1      -1.783   0.740   0.214  1.00  0.00     0.110 C 
HETATM   11  C11 UNL     1      -2.182  -0.425  -0.538  1.00  0.00     0.032 A 
HETATM   12  C12 UNL     1      -1.744  -1.441  -1.330  1.00  0.00     0.036 A 
HETATM   13  C13 UNL     1      -2.430  -2.506  -1.830  1.00  0.00     0.117 A 
HETATM   14  N2  UNL     1      -3.740  -2.629  -1.537  1.00  0.00    -0.270 NA
HETATM   15  C14 UNL     1      -4.326  -1.693  -0.758  1.00  0.00     0.153 A 
HETATM   16  C15 UNL     1      -3.561  -0.624  -0.276  1.00  0.00     0.095 A 
HETATM   17  N3  UNL     1      -2.696   1.490   0.818  1.00  0.00    -0.104 NA
HETATM   18  O2  UNL     1      -2.556   2.644   1.590  1.00  0.00    -0.106 OA
HETATM   19  N4  UNL     1      -1.757   3.746   1.248  1.00  0.00    -0.103 NA
HETATM   20  C16 UNL     1      -1.050   4.119   0.269  1.00  0.00     0.118 C 
HETATM   21  C17 UNL     1       0.081   3.581  -0.095  1.00  0.00     0.049 C 
ENDROOT
BRANCH  16  22
HETATM   22  O1  UNL     1      -4.425   0.183   0.497  1.00  0.00    -0.358 OA
HETATM   23  H13 UNL     1      -4.613  -0.085   1.465  1.00  0.00     0.217 HD
ENDBRANCH  16  22
BRANCH   1  24
HETATM   24  N1  UNL     1       2.449  -2.343  -0.604  1.00  0.00     0.087 N 
HETATM   25  H1  UNL     1       2.903  -1.704  -1.319  1.00  0.00     0.313 HD
HETATM   26  H2  UNL     1       1.461  -2.491  -0.902  1.00  0.00     0.313 HD
ENDBRANCH   1  24
TORSDOF 2
