REMARK  9 active torsions:
REMARK  status: ('A' for Active; 'I' for Inactive)
REMARK    1  A    between atoms: C2_2  and  N1_3 
REMARK    2  A    between atoms: N1_3  and  C3_4 
REMARK    3  A    between atoms: C3_4  and  C4_5 
REMARK    4  A    between atoms: C4_5  and  C5_6 
REMARK    5  A    between atoms: N3_8  and  C6_9 
REMARK    6  A    between atoms: C6_9  and  C7_10 
REMARK    7  A    between atoms: C7_10  and  O1_11 
REMARK    8  A    between atoms: C9_13  and  C10_14 
REMARK    9  A    between atoms: C18_22  and  N4_23 
ROOT
HETATM    1  C5  UNL     1      -1.560   0.739   1.033  1.00  0.00     0.069 A 
HETATM    2  N2  UNL     1      -2.061   1.984   1.070  1.00  0.00    -0.176 NA
HETATM    3  N3  UNL     1      -1.332   2.837   0.398  1.00  0.00    -0.278 N 
HETATM    4  C8  UNL     1      -0.297   2.151  -0.117  1.00  0.00     0.126 A 
HETATM    5  C9  UNL     1      -0.415   0.809   0.271  1.00  0.00     0.018 A 
ENDROOT
BRANCH   5   6
HETATM    6  C10 UNL     1       0.557  -0.194  -0.129  1.00  0.00    -0.022 A 
HETATM    7  C11 UNL     1       0.426  -1.436  -0.688  1.00  0.00     0.013 A 
HETATM    8  C12 UNL     1       1.515  -2.228  -0.972  1.00  0.00     0.011 A 
HETATM    9  C13 UNL     1       2.810  -1.830  -0.716  1.00  0.00    -0.025 A 
HETATM   10  C14 UNL     1       2.993  -0.585  -0.153  1.00  0.00    -0.049 A 
HETATM   11  C18 UNL     1       4.088  -2.525  -0.943  1.00  0.00     0.172 C 
HETATM   12  C15 UNL     1       1.886   0.187   0.122  1.00  0.00     0.020 A 
HETATM   13  C16 UNL     1       4.458  -0.418   0.011  1.00  0.00     0.042 C 
HETATM   14  C17 UNL     1       5.057  -1.363  -0.978  1.00  0.00     0.039 C 
BRANCH  11  15
HETATM   15  N4  UNL     1       4.481  -3.325   0.199  1.00  0.00    -0.131 NA
HETATM   16  O2  UNL     1       4.180  -2.960   1.306  1.00  0.00    -0.066 OA
ENDBRANCH  11  15
ENDBRANCH   5   6
BRANCH   1  17
HETATM   17  C4  UNL     1      -2.140  -0.462   1.678  1.00  0.00     0.091 C 
BRANCH  17  18
HETATM   18  C3  UNL     1      -2.881  -1.317   0.744  1.00  0.00     0.138 C 
BRANCH  18  19
HETATM   19  N1  UNL     1      -3.596  -1.900  -0.137  1.00  0.00    -0.295 NA
BRANCH  19  20
HETATM   20  C2  UNL     1      -3.586  -3.303  -0.232  1.00  0.00     0.100 C 
HETATM   21  C1  UNL     1      -4.146  -3.751   0.897  1.00  0.00     0.031 C 
ENDBRANCH  19  20
ENDBRANCH  18  19
ENDBRANCH  17  18
ENDBRANCH   1  17
BRANCH   3  22
HETATM   22  C6  UNL     1      -1.707   4.237   0.320  1.00  0.00     0.176 C 
BRANCH  22  23
HETATM   23  C7  UNL     1      -2.606   4.512  -0.859  1.00  0.00     0.185 C 
BRANCH  23  24
HETATM   24  O1  UNL     1      -2.890   5.894  -0.814  1.00  0.00    -0.399 OA
HETATM   25  H11 UNL     1      -3.252   6.151   0.067  1.00  0.00     0.209 HD
ENDBRANCH  23  24
ENDBRANCH  22  23
ENDBRANCH   3  22
TORSDOF 9
