REMARK  6 active torsions:
REMARK  status: ('A' for Active; 'I' for Inactive)
REMARK    1  A    between atoms: C3_3  and  C4_4 
REMARK    2  A    between atoms: N1_6  and  C6_7 
REMARK    3  A    between atoms: C6_7  and  C7_8 
REMARK    4  A    between atoms: C7_8  and  O1_9 
REMARK    5  A    between atoms: C8_11  and  C9_12 
REMARK    6  A    between atoms: C17_21  and  N4_22 
ROOT
HETATM    1  C4  UNL     1       0.157   0.055   0.439  1.00  0.00     0.019 A 
HETATM    2  C5  UNL     1      -0.370   1.090   1.192  1.00  0.00     0.126 A 
HETATM    3  N1  UNL     1      -1.687   1.094   1.324  1.00  0.00    -0.278 N 
HETATM    4  N2  UNL     1      -2.072   0.033   0.641  1.00  0.00    -0.171 NA
HETATM    5  C8  UNL     1      -0.991  -0.599   0.103  1.00  0.00     0.099 A 
ENDROOT
BRANCH   1   6
HETATM    6  C3  UNL     1       1.518  -0.336   0.012  1.00  0.00    -0.033 A 
HETATM    7  C2  UNL     1       2.483   0.711   0.235  1.00  0.00     0.024 A 
HETATM    8  C1  UNL     1       2.663   0.520   1.900  1.00  0.00     0.024 C 
HETATM    9  C16 UNL     1       3.692  -0.011  -0.496  1.00  0.00     0.031 A 
HETATM   10  C17 UNL     1       3.620   1.413  -0.093  1.00  0.00     0.167 A 
HETATM   11  C15 UNL     1       3.221  -1.186  -0.865  1.00  0.00    -0.012 A 
HETATM   12  C14 UNL     1       1.839  -1.452  -0.573  1.00  0.00     0.006 A 
BRANCH  10  13
HETATM   13  N4  UNL     1       3.707   2.400  -1.174  1.00  0.00    -0.133 NA
HETATM   14  O2  UNL     1       4.761   2.480  -1.751  1.00  0.00    -0.066 OA
ENDBRANCH  10  13
ENDBRANCH   1   6
BRANCH   5  15
HETATM   15  C9  UNL     1      -1.322  -1.757  -0.690  1.00  0.00    -0.002 A 
HETATM   16  C10 UNL     1      -0.997  -2.113  -2.007  1.00  0.00     0.033 A 
HETATM   17  C11 UNL     1      -1.405  -3.287  -2.595  1.00  0.00     0.117 A 
HETATM   18  N3  UNL     1      -2.150  -4.180  -1.936  1.00  0.00    -0.273 NA
HETATM   19  C12 UNL     1      -2.523  -3.952  -0.674  1.00  0.00     0.117 A 
HETATM   20  C13 UNL     1      -2.103  -2.770  -0.106  1.00  0.00     0.033 A 
ENDBRANCH   5  15
BRANCH   3  21
HETATM   21  C6  UNL     1      -2.468   2.060   2.057  1.00  0.00     0.176 C 
BRANCH  21  22
HETATM   22  C7  UNL     1      -2.823   3.165   1.088  1.00  0.00     0.185 C 
BRANCH  22  23
HETATM   23  O1  UNL     1      -3.554   2.671   0.029  1.00  0.00    -0.399 OA
HETATM   24  H9  UNL     1      -3.606   3.310  -0.701  1.00  0.00     0.209 HD
ENDBRANCH  22  23
ENDBRANCH  21  22
ENDBRANCH   3  21
TORSDOF 6
