REMARK  9 active torsions:
REMARK  status: ('A' for Active; 'I' for Inactive)
REMARK    1  A    between atoms: C2_2  and  O1_3 
REMARK    2  A    between atoms: O1_3  and  C3_4 
REMARK    3  A    between atoms: C3_4  and  C4_5 
REMARK    4  A    between atoms: C4_5  and  N1_6 
REMARK    5  A    between atoms: C5_7  and  C6_8 
REMARK    6  A    between atoms: C5_7  and  C12_15 
REMARK    7  A    between atoms: C6_8  and  C7_9 
REMARK    8  A    between atoms: C15_18  and  C16_19 
REMARK    9  A    between atoms: C16_19  and  N3_20 
ROOT
HETATM    1  C4  UNL     1      -0.860   0.516   0.086  1.00  0.00     0.030 C 
HETATM    2  C5  UNL     1      -0.020  -0.562   0.258  1.00  0.00    -0.040 C 
ENDROOT
BRANCH   2   3
HETATM    3  C6  UNL     1      -0.315  -1.978   0.012  1.00  0.00     0.075 C 
BRANCH   3   4
HETATM    4  C7  UNL     1      -1.604  -2.391  -0.550  1.00  0.00    -0.051 A 
HETATM    5  C8  UNL     1      -1.595  -2.522  -1.946  1.00  0.00     0.026 A 
HETATM    6  C9  UNL     1      -2.737  -2.946  -2.600  1.00  0.00     0.116 A 
HETATM    7  N2  UNL     1      -3.871  -3.247  -1.988  1.00  0.00    -0.273 NA
HETATM    8  C10 UNL     1      -3.999  -3.155  -0.623  1.00  0.00     0.116 A 
HETATM    9  C11 UNL     1      -2.842  -2.730  -0.017  1.00  0.00     0.026 A 
ENDBRANCH   3   4
ENDBRANCH   2   3
BRANCH   2  10
HETATM   10  C12 UNL     1       1.399  -0.671   0.798  1.00  0.00     0.087 C 
HETATM   11  C13 UNL     1       2.333  -1.109  -0.349  1.00  0.00     0.018 C 
HETATM   12  C14 UNL     1       3.714  -0.649   0.183  1.00  0.00     0.015 C 
HETATM   13  C15 UNL     1       3.340  -0.131   1.569  1.00  0.00     0.084 C 
HETATM   14  C17 UNL     1       2.028   0.556   1.287  1.00  0.00     0.141 C 
HETATM   15  O2  UNL     1       1.144   1.327   1.170  1.00  0.00    -0.297 OA
BRANCH  13  16
HETATM   16  C16 UNL     1       4.351   0.829   2.108  1.00  0.00     0.278 C 
BRANCH  16  17
HETATM   17  N3  UNL     1       3.941   1.290   3.432  1.00  0.00     0.079 N 
HETATM   18  H24 UNL     1       4.289   0.582   4.127  1.00  0.00     0.312 HD
HETATM   19  H25 UNL     1       4.382   2.194   3.702  1.00  0.00     0.312 HD
ENDBRANCH  16  17
ENDBRANCH  13  16
ENDBRANCH   2  10
BRANCH   1  20
HETATM   20  C3  UNL     1      -1.319   1.910   0.070  1.00  0.00     0.224 C 
BRANCH  20  21
HETATM   21  O1  UNL     1      -1.688   2.221  -1.256  1.00  0.00    -0.386 OA
BRANCH  21  22
HETATM   22  C2  UNL     1      -2.119   3.533  -1.300  1.00  0.00     0.163 C 
HETATM   23  C1  UNL     1      -2.501   3.830  -2.743  1.00  0.00     0.033 C 
ENDBRANCH  21  22
ENDBRANCH  20  21
ENDBRANCH   1  20
BRANCH   1  24
HETATM   24  N1  UNL     1      -2.184  -0.023  -0.218  1.00  0.00    -0.400 N 
HETATM   25  H8  UNL     1      -2.627  -0.109  -1.170  1.00  0.00     0.156 HD
HETATM   26  H9  UNL     1      -2.463  -0.226   0.803  1.00  0.00     0.156 HD
ENDBRANCH   1  24
TORSDOF 9
