REMARK  3 active torsions:
REMARK  status: ('A' for Active; 'I' for Inactive)
REMARK    1  A    between atoms: O1_1  and  C1_2 
REMARK    2  A    between atoms: C1_2  and  C2_3 
REMARK    3  A    between atoms: C3_5  and  C4_6 
ROOT
HETATM    1  C2  UNL     1       0.911   2.204   0.513  1.00  0.00     0.232 C 
HETATM    2  N1  UNL     1       1.976   1.289   0.214  1.00  0.00    -0.263 NA
HETATM    3  C3  UNL     1       1.624   0.049   0.234  1.00  0.00     0.065 C 
HETATM    4  C9  UNL     1       0.215  -0.048   0.546  1.00  0.00     0.144 C 
HETATM    5  C10 UNL     1      -0.650  -0.927  -0.304  1.00  0.00     0.037 C 
HETATM    6  C11 UNL     1      -1.445  -0.022  -1.264  1.00  0.00     0.044 C 
HETATM    7  C12 UNL     1      -2.318   0.749  -0.311  1.00  0.00    -0.064 C 
HETATM    8  C13 UNL     1      -1.631   1.690   0.363  1.00  0.00     0.091 C 
HETATM    9  N3  UNL     1      -0.234   1.351   0.467  1.00  0.00    -0.355 N 
HETATM   10  C14 UNL     1      -3.755   0.728   0.117  1.00  0.00     0.036 C 
HETATM   11  C15 UNL     1      -3.806  -0.516   1.034  1.00  0.00     0.006 C 
HETATM   12  C16 UNL     1      -3.044  -1.578   0.249  1.00  0.00     0.021 C 
HETATM   13  C17 UNL     1      -1.601  -1.682   0.592  1.00  0.00     0.089 C 
HETATM   14 CL1  UNL     1      -1.184  -3.433   0.569  1.00  0.00    -0.125 Cl
ENDROOT
BRANCH   3  15
HETATM   15  C4  UNL     1       2.726  -0.857  -0.070  1.00  0.00    -0.007 A 
HETATM   16  C5  UNL     1       2.564  -2.225  -0.057  1.00  0.00     0.032 A 
HETATM   17  C6  UNL     1       3.522  -3.161  -0.340  1.00  0.00     0.117 A 
HETATM   18  N2  UNL     1       4.759  -2.711  -0.666  1.00  0.00    -0.273 NA
HETATM   19  C7  UNL     1       5.031  -1.393  -0.710  1.00  0.00     0.117 A 
HETATM   20  C8  UNL     1       4.014  -0.521  -0.413  1.00  0.00     0.032 A 
ENDBRANCH   3  15
BRANCH   1  21
HETATM   21  C1  UNL     1       0.872   3.375  -0.441  1.00  0.00     0.213 C 
BRANCH  21  22
HETATM   22  O1  UNL     1       2.091   4.038  -0.326  1.00  0.00    -0.397 OA
HETATM   23  H1  UNL     1       1.885   5.001  -0.368  1.00  0.00     0.209 HD
ENDBRANCH  21  22
ENDBRANCH   1  21
TORSDOF 3
