REMARK  7 active torsions:
REMARK  status: ('A' for Active; 'I' for Inactive)
REMARK    1  A    between atoms: N1_2  and  C1_3 
REMARK    2  A    between atoms: C6_8  and  C7_9 
REMARK    3  A    between atoms: C7_9  and  C11_15 
REMARK    4  A    between atoms: C8_10  and  N2_11 
REMARK    5  A    between atoms: N2_11  and  C9_12 
REMARK    6  A    between atoms: C9_12  and  C10_13 
REMARK    7  A    between atoms: C10_13  and  O2_14 
ROOT
HETATM    1  C7  UNL     1      -0.481   0.563   0.137  1.00  0.00     0.019 C 
HETATM    2  C8  UNL     1      -1.089  -0.220   0.973  1.00  0.00     0.097 C 
ENDROOT
BRANCH   1   3
HETATM    3  C6  UNL     1       0.890   0.175  -0.151  1.00  0.00    -0.022 A 
HETATM    4  C5  UNL     1       1.498  -0.917   0.425  1.00  0.00     0.020 A 
HETATM    5  C4  UNL     1       2.792  -1.331   0.190  1.00  0.00    -0.049 A 
HETATM    6  C3  UNL     1       3.647  -2.443   0.680  1.00  0.00     0.042 C 
HETATM    7  C19 UNL     1       3.562  -0.604  -0.694  1.00  0.00    -0.025 A 
HETATM    8  C2  UNL     1       4.728  -2.586  -0.365  1.00  0.00     0.039 C 
HETATM    9  C1  UNL     1       4.908  -1.162  -0.836  1.00  0.00     0.172 C 
HETATM   10  C18 UNL     1       3.021   0.511  -1.316  1.00  0.00     0.011 A 
HETATM   11  C17 UNL     1       1.717   0.851  -1.020  1.00  0.00     0.013 A 
BRANCH   9  12
HETATM   12  N1  UNL     1       5.844  -0.490   0.023  1.00  0.00    -0.131 NA
HETATM   13  O1  UNL     1       5.708  -0.544   1.203  1.00  0.00    -0.066 OA
ENDBRANCH   9  12
ENDBRANCH   1   3
BRANCH   1  14
HETATM   14  C11 UNL     1      -1.103   1.738  -0.447  1.00  0.00     0.082 A 
HETATM   15  N3  UNL     1      -0.732   2.647  -1.287  1.00  0.00    -0.245 NA
HETATM   16  C12 UNL     1      -1.951   3.321  -1.228  1.00  0.00     0.087 A 
HETATM   17  C13 UNL     1      -2.669   4.398  -1.693  1.00  0.00     0.148 A 
HETATM   18  C16 UNL     1      -2.391   2.375  -0.329  1.00  0.00     0.025 A 
HETATM   19  N4  UNL     1      -3.942   4.555  -1.225  1.00  0.00    -0.271 NA
HETATM   20  C14 UNL     1      -4.449   3.659  -0.332  1.00  0.00     0.117 A 
HETATM   21  C15 UNL     1      -3.664   2.585   0.100  1.00  0.00     0.035 A 
ENDBRANCH   1  14
BRANCH   2  22
HETATM   22  N2  UNL     1      -2.403  -0.195   1.505  1.00  0.00    -0.396 N 
HETATM   23  H8  UNL     1      -2.737   0.240   2.410  1.00  0.00     0.158 HD
BRANCH  22  24
HETATM   24  C9  UNL     1      -3.341  -0.877   0.623  1.00  0.00     0.145 C 
BRANCH  24  25
HETATM   25  C10 UNL     1      -3.017  -2.361   0.624  1.00  0.00     0.183 C 
BRANCH  25  26
HETATM   26  O2  UNL     1      -3.122  -2.893   1.899  1.00  0.00    -0.399 OA
HETATM   27  H13 UNL     1      -3.816  -2.452   2.446  1.00  0.00     0.209 HD
ENDBRANCH  25  26
ENDBRANCH  24  25
ENDBRANCH  22  24
ENDBRANCH   2  22
TORSDOF 7
