REMARK  4 active torsions:
REMARK  status: ('A' for Active; 'I' for Inactive)
REMARK    1  A    between atoms: N2_9  and  C8_10 
REMARK    2  A    between atoms: C8_10  and  C9_11 
REMARK    3  A    between atoms: C9_11  and  O1_12 
REMARK    4  A    between atoms: C11_15  and  N4_16 
ROOT
HETATM    1  C1  UNL     1       3.843   0.621  -1.366  1.00  0.00     0.074 C 
HETATM    2  C2  UNL     1       2.382   0.886  -1.183  1.00  0.00     0.068 C 
HETATM    3  C3  UNL     1       1.655   1.190  -2.349  1.00  0.00     0.144 C 
HETATM    4  N1  UNL     1       0.824   0.614  -3.265  1.00  0.00    -0.270 NA
HETATM    5  C4  UNL     1      -0.490   0.496  -2.987  1.00  0.00     0.124 C 
HETATM    6  C5  UNL     1      -0.434  -0.245  -1.857  1.00  0.00    -0.020 C 
HETATM    7  C6  UNL     1      -0.386   0.780  -0.863  1.00  0.00    -0.021 C 
HETATM    8  C7  UNL     1       0.337  -0.180  -0.171  1.00  0.00     0.048 C 
HETATM    9  N2  UNL     1       1.318  -0.134   0.690  1.00  0.00    -0.270 N 
HETATM   10  N3  UNL     1       2.098   0.765   0.110  1.00  0.00    -0.176 NA
HETATM   11  C10 UNL     1      -0.374  -1.281  -0.843  1.00  0.00     0.100 C 
HETATM   12  C11 UNL     1      -1.488  -1.839  -0.098  1.00  0.00     0.153 C 
HETATM   13  C12 UNL     1      -2.840  -1.401  -0.505  1.00  0.00     0.034 C 
HETATM   14  C13 UNL     1      -3.338  -0.122   0.152  1.00  0.00     0.029 C 
HETATM   15  C14 UNL     1      -2.204   0.827   0.295  1.00  0.00    -0.030 C 
HETATM   16  C15 UNL     1      -1.459   1.624   1.109  1.00  0.00    -0.026 C 
HETATM   17  C16 UNL     1      -0.516   2.069   0.001  1.00  0.00     0.068 C 
ENDROOT
BRANCH   9  18
HETATM   18  C8  UNL     1       1.912  -0.605   1.907  1.00  0.00     0.177 C 
BRANCH  18  19
HETATM   19  C9  UNL     1       1.516   0.156   3.123  1.00  0.00     0.185 C 
BRANCH  19  20
HETATM   20  O1  UNL     1       0.158   0.096   3.369  1.00  0.00    -0.399 OA
HETATM   21  H10 UNL     1      -0.004  -0.139   4.320  1.00  0.00     0.209 HD
ENDBRANCH  19  20
ENDBRANCH  18  19
ENDBRANCH   9  18
BRANCH  12  22
HETATM   22  N4  UNL     1      -1.387  -3.304  -0.087  1.00  0.00    -0.135 NA
HETATM   23  O2  UNL     1      -2.361  -3.969   0.086  1.00  0.00    -0.066 OA
ENDBRANCH  12  22
TORSDOF 4
