REMARK  5 active torsions:
REMARK  status: ('A' for Active; 'I' for Inactive)
REMARK    1  A    between atoms: N1_2  and  C1_3 
REMARK    2  A    between atoms: N2_11  and  C8_12 
REMARK    3  A    between atoms: C8_12  and  C9_13 
REMARK    4  A    between atoms: C9_13  and  O2_14 
REMARK    5  A    between atoms: C10_16  and  C11_17 
ROOT
HETATM    1  C1  UNL     1       3.805   0.326   1.092  1.00  0.00     0.175 A 
HETATM    2  C2  UNL     1       4.759   0.165  -0.057  1.00  0.00     0.062 A 
HETATM    3  C3  UNL     1       3.889  -0.386  -1.117  1.00  0.00    -0.016 A 
HETATM    4  C4  UNL     1       2.636  -0.554  -0.848  1.00  0.00    -0.045 A 
HETATM    5  C5  UNL     1       1.672  -1.086  -1.795  1.00  0.00     0.108 C 
HETATM    6  S1  UNL     1       0.220  -1.628  -0.843  1.00  0.00    -0.165 SA
HETATM    7  C6  UNL     1      -0.953  -2.315  -1.720  1.00  0.00     0.027 C 
HETATM    8  C7  UNL     1      -2.172  -1.947  -1.439  1.00  0.00     0.131 C 
HETATM    9  N2  UNL     1      -2.750  -0.976  -0.577  1.00  0.00    -0.277 N 
HETATM   10  N3  UNL     1      -2.031   0.147  -0.291  1.00  0.00    -0.175 NA
HETATM   11  C10 UNL     1      -0.923   0.507   0.185  1.00  0.00     0.082 C 
HETATM   12  C16 UNL     1       0.020  -0.513   0.637  1.00  0.00     0.120 C 
HETATM   13  C17 UNL     1       1.330  -0.112   1.110  1.00  0.00     0.004 C 
HETATM   14  C18 UNL     1       2.515  -0.110   0.504  1.00  0.00    -0.026 A 
ENDROOT
BRANCH  11  15
HETATM   15  C11 UNL     1      -0.844   1.963   0.182  1.00  0.00    -0.006 A 
HETATM   16  C12 UNL     1       0.190   2.727   0.615  1.00  0.00     0.032 A 
HETATM   17  C13 UNL     1       0.281   4.094   0.619  1.00  0.00     0.117 A 
HETATM   18  N4  UNL     1      -0.767   4.779   0.141  1.00  0.00    -0.273 NA
HETATM   19  C14 UNL     1      -1.848   4.132  -0.317  1.00  0.00     0.117 A 
HETATM   20  C15 UNL     1      -1.857   2.768  -0.284  1.00  0.00     0.032 A 
ENDBRANCH  11  15
BRANCH   9  21
HETATM   21  C8  UNL     1      -4.097  -1.438  -0.176  1.00  0.00     0.176 C 
BRANCH  21  22
HETATM   22  C9  UNL     1      -3.818  -2.660   0.703  1.00  0.00     0.185 C 
BRANCH  22  23
HETATM   23  O2  UNL     1      -4.990  -3.212   1.162  1.00  0.00    -0.399 OA
HETATM   24  H12 UNL     1      -5.177  -4.062   0.714  1.00  0.00     0.209 HD
ENDBRANCH  22  23
ENDBRANCH  21  22
ENDBRANCH   9  21
BRANCH   1  25
HETATM   25  N1  UNL     1       4.154  -0.604   2.128  1.00  0.00    -0.131 NA
HETATM   26  O1  UNL     1       5.222  -1.113   2.255  1.00  0.00    -0.066 OA
ENDBRANCH   1  25
TORSDOF 5
