REMARK  2 active torsions:
REMARK  status: ('A' for Active; 'I' for Inactive)
REMARK    1  A    between atoms: N1_2  and  C1_3 
REMARK    2  A    between atoms: C12_15  and  O2_16 
ROOT
HETATM    1  C1  UNL     1      -3.659  -0.745  -1.810  1.00  0.00     0.173 C 
HETATM    2  C2  UNL     1      -4.454  -1.444  -0.758  1.00  0.00     0.039 C 
HETATM    3  C3  UNL     1      -3.599  -1.596   0.472  1.00  0.00     0.042 C 
HETATM    4  C4  UNL     1      -2.412  -0.750   0.184  1.00  0.00    -0.049 A 
HETATM    5  C5  UNL     1      -1.376  -0.455   1.070  1.00  0.00     0.022 A 
HETATM    6  C6  UNL     1      -0.358   0.364   0.585  1.00  0.00     0.003 A 
HETATM    7  C7  UNL     1      -0.382   0.857  -0.724  1.00  0.00    -0.025 A 
HETATM    8  C8  UNL     1      -1.422   0.547  -1.578  1.00  0.00     0.019 A 
HETATM    9  C9  UNL     1      -2.438  -0.264  -1.109  1.00  0.00    -0.024 A 
HETATM   10  C10 UNL     1       0.720   1.714  -1.162  1.00  0.00     0.184 C 
HETATM   11  N2  UNL     1       1.973   1.448  -0.491  1.00  0.00    -0.298 N 
HETATM   12  C11 UNL     1       3.134   1.203  -1.351  1.00  0.00     0.186 C 
HETATM   13  C12 UNL     1       4.050   0.302  -0.650  1.00  0.00     0.117 C 
HETATM   14  C13 UNL     1       3.432   0.076   0.494  1.00  0.00     0.077 C 
HETATM   15  C14 UNL     1       3.556  -0.646   1.752  1.00  0.00     0.098 C 
HETATM   16  N3  UNL     1       2.399  -0.166   2.140  1.00  0.00    -0.277 NA
HETATM   17  C15 UNL     1       1.767  -0.418   3.351  1.00  0.00     0.118 C 
HETATM   18  C16 UNL     1       0.765   0.212   2.758  1.00  0.00     0.053 C 
HETATM   19  C17 UNL     1       0.799   0.760   1.392  1.00  0.00     0.089 C 
HETATM   20  N4  UNL     1       1.694   1.514   0.867  1.00  0.00    -0.176 NA
ENDROOT
BRANCH   1  21
HETATM   21  N1  UNL     1      -4.370   0.317  -2.454  1.00  0.00    -0.131 NA
HETATM   22  O1  UNL     1      -4.690   0.234  -3.610  1.00  0.00    -0.066 OA
ENDBRANCH   1  21
BRANCH  13  23
HETATM   23  O2  UNL     1       5.090   0.187  -1.615  1.00  0.00    -0.384 OA
HETATM   24  H12 UNL     1       6.028   0.024  -1.234  1.00  0.00     0.210 HD
ENDBRANCH  13  23
TORSDOF 2
