REMARK  1 active torsions:
REMARK  status: ('A' for Active; 'I' for Inactive)
REMARK    1  A    between atoms: C1_2  and  C2_3 
ROOT
HETATM    1  C2  UNL     1      -1.654  -0.071   0.876  1.00  0.00     0.081 C 
HETATM    2  C3  UNL     1      -0.387   0.554   0.470  1.00  0.00     0.004 C 
HETATM    3  C4  UNL     1      -0.025   1.345  -0.528  1.00  0.00    -0.056 C 
HETATM    4  C5  UNL     1      -0.853   2.121  -1.461  1.00  0.00     0.007 C 
HETATM    5  C6  UNL     1      -2.169   1.887  -1.615  1.00  0.00     0.001 C 
HETATM    6  C7  UNL     1      -3.007   0.750  -1.172  1.00  0.00     0.004 C 
HETATM    7  C8  UNL     1      -2.602  -0.168  -0.278  1.00  0.00    -0.056 C 
HETATM    8  C9  UNL     1      -2.852  -1.618   0.014  1.00  0.00     0.070 C 
HETATM    9  C10 UNL     1      -1.607  -1.582   0.872  1.00  0.00     0.155 C 
HETATM   10  O2  UNL     1      -0.411  -1.970   0.281  1.00  0.00    -0.356 OA
HETATM   11  C11 UNL     1      -0.078  -1.979  -1.043  1.00  0.00     0.137 C 
HETATM   12  C12 UNL     1       1.114  -1.390  -1.246  1.00  0.00     0.056 C 
HETATM   13  C13 UNL     1       2.089  -0.760  -0.329  1.00  0.00     0.064 A 
HETATM   14  N1  UNL     1       2.823  -1.700   0.295  1.00  0.00    -0.261 NA
HETATM   15  C14 UNL     1       3.777  -1.314   1.181  1.00  0.00     0.117 A 
HETATM   16  C15 UNL     1       4.022   0.012   1.466  1.00  0.00     0.020 A 
HETATM   17  C16 UNL     1       3.226   0.909   0.784  1.00  0.00     0.011 A 
HETATM   18  C17 UNL     1       2.243   0.580  -0.127  1.00  0.00    -0.025 A 
HETATM   19  C18 UNL     1       1.411   1.548  -0.839  1.00  0.00     0.079 C 
ENDROOT
BRANCH   1  20
HETATM   20  C1  UNL     1      -2.252   0.484   2.108  1.00  0.00     0.252 C 
HETATM   21  O1  UNL     1      -2.456  -0.212   3.098  1.00  0.00    -0.305 OA
ENDBRANCH   1  20
TORSDOF 1
