REMARK  6 active torsions:
REMARK  status: ('A' for Active; 'I' for Inactive)
REMARK    1  A    between atoms: C5_5  and  N1_6 
REMARK    2  A    between atoms: N1_6  and  C6_7 
REMARK    3  A    between atoms: C13_14  and  N2_15 
REMARK    4  A    between atoms: C17_19  and  N3_20 
REMARK    5  A    between atoms: N3_20  and  B1_21 
REMARK    6  A    between atoms: B1_21  and  O1_22 
ROOT
HETATM    1  C1  UNL     1       1.212   2.129   1.525  1.00  0.00     0.013 C 
HETATM    2  C2  UNL     1       1.303   1.615   0.292  1.00  0.00    -0.006 C 
HETATM    3  C3  UNL     1      -0.057   1.431  -0.288  1.00  0.00     0.049 C 
HETATM    4  C4  UNL     1      -0.597   0.062  -0.095  1.00  0.00    -0.046 C 
HETATM    5  C5  UNL     1      -1.683   0.085   0.667  1.00  0.00     0.087 C 
HETATM    6  C8  UNL     1      -0.286  -1.312  -0.497  1.00  0.00     0.039 C 
HETATM    7  C9  UNL     1      -1.058  -1.630  -1.727  1.00  0.00    -0.010 C 
HETATM    8  C10 UNL     1      -1.999  -2.546  -1.922  1.00  0.00    -0.026 C 
HETATM    9  C11 UNL     1      -2.444  -3.457  -0.837  1.00  0.00     0.055 C 
HETATM   10  C12 UNL     1      -1.549  -3.284   0.354  1.00  0.00    -0.003 C 
HETATM   11  C13 UNL     1      -0.603  -2.345   0.506  1.00  0.00    -0.004 C 
HETATM   12  C14 UNL     1       1.220  -1.397  -0.778  1.00  0.00     0.024 C 
HETATM   13  C15 UNL     1       1.992  -0.972   0.421  1.00  0.00     0.004 C 
HETATM   14  C16 UNL     1       3.142  -0.049   0.101  1.00  0.00     0.026 C 
HETATM   15  C17 UNL     1       2.701   1.350  -0.214  1.00  0.00     0.094 C 
ENDROOT
BRANCH  11  16
HETATM   16  N2  UNL     1       0.086  -2.448   1.768  1.00  0.00    -0.305 NA
HETATM   17  H17 UNL     1       0.818  -2.932   2.317  1.00  0.00     0.124 HD
HETATM   18  H18 UNL     1       0.827  -2.941   2.319  1.00  0.00     0.124 HD
ENDBRANCH  11  16
BRANCH   5  19
HETATM   19  N1  UNL     1      -2.380   1.130   1.295  1.00  0.00    -0.399 N 
HETATM   20  H6  UNL     1      -2.169   1.494   2.268  1.00  0.00     0.158 HD
BRANCH  19  21
HETATM   21  C6  UNL     1      -3.434   1.672   0.469  1.00  0.00     0.114 C 
HETATM   22  C7  UNL     1      -4.159   2.783   1.164  1.00  0.00     0.026 C 
ENDBRANCH  19  21
ENDBRANCH   5  19
BRANCH  15  23
HETATM   23  N3  UNL     1       3.672   2.262   0.306  1.00  0.00    -0.359 NA
BRANCH  23  24
HETATM   24  B1  UNL     1       5.056   2.777  -0.457  1.00  0.00     0.484 B 
BRANCH  24  25
HETATM   25  O1  UNL     1       6.330   3.039  -1.569  1.00  0.00    -0.446 OA
HETATM   26  H26 UNL     1       7.072   3.659  -1.278  1.00  0.00     0.183 HD
ENDBRANCH  24  25
ENDBRANCH  23  24
ENDBRANCH  15  23
TORSDOF 6
