REMARK  4 active torsions:
REMARK  status: ('A' for Active; 'I' for Inactive)
REMARK    1  A    between atoms: N1_8  and  C8_9 
REMARK    2  A    between atoms: C8_9  and  C9_10 
REMARK    3  A    between atoms: C9_10  and  O1_11 
REMARK    4  A    between atoms: C15_19  and  N4_20 
ROOT
HETATM    1  C1  UNL     1      -4.541   0.357  -0.305  1.00  0.00     0.017 C 
HETATM    2  C2  UNL     1      -3.019   0.148  -0.437  1.00  0.00     0.037 C 
HETATM    3  C3  UNL     1      -2.441   1.251   0.376  1.00  0.00    -0.024 C 
HETATM    4  C4  UNL     1      -1.349   2.049   0.237  1.00  0.00    -0.024 C 
HETATM    5  C5  UNL     1      -0.332   2.026  -0.856  1.00  0.00     0.087 C 
HETATM    6  C6  UNL     1       0.966   1.564  -0.165  1.00  0.00     0.055 A 
HETATM    7  C7  UNL     1       2.151   2.076   0.386  1.00  0.00     0.138 A 
HETATM    8  N1  UNL     1       2.588   0.855   0.718  1.00  0.00    -0.292 N 
HETATM    9  N2  UNL     1       1.501   0.347   0.216  1.00  0.00    -0.257 N 
HETATM   10  C10 UNL     1       0.594  -0.720  -0.147  1.00  0.00     0.060 A 
HETATM   11  C11 UNL     1       1.125  -1.403  -1.193  1.00  0.00     0.051 A 
HETATM   12  C12 UNL     1       0.184  -2.289  -1.745  1.00  0.00     0.119 A 
HETATM   13  N3  UNL     1      -1.080  -2.339  -1.191  1.00  0.00    -0.263 NA
HETATM   14  C13 UNL     1      -1.343  -1.537  -0.146  1.00  0.00     0.064 A 
HETATM   15  C14 UNL     1      -0.579  -0.642   0.528  1.00  0.00     0.061 A 
HETATM   16  C15 UNL     1      -2.810  -1.233   0.257  1.00  0.00     0.198 C 
ENDROOT
BRANCH   8  17
HETATM   17  C8  UNL     1       3.656   0.159   1.345  1.00  0.00     0.174 C 
BRANCH  17  18
HETATM   18  C9  UNL     1       4.803  -0.221   0.480  1.00  0.00     0.185 C 
BRANCH  18  19
HETATM   19  O1  UNL     1       4.534  -1.056  -0.574  1.00  0.00    -0.399 OA
HETATM   20  H14 UNL     1       5.305  -1.636  -0.796  1.00  0.00     0.209 HD
ENDBRANCH  18  19
ENDBRANCH  17  18
ENDBRANCH   8  17
BRANCH  16  21
HETATM   21  N4  UNL     1      -3.696  -2.138  -0.357  1.00  0.00    -0.129 NA
HETATM   22  O2  UNL     1      -3.720  -3.297  -0.079  1.00  0.00    -0.066 OA
ENDBRANCH  16  21
TORSDOF 4
