REMARK  5 active torsions:
REMARK  status: ('A' for Active; 'I' for Inactive)
REMARK    1  A    between atoms: C2_2  and  S1_3 
REMARK    2  A    between atoms: C13_15  and  C14_16 
REMARK    3  A    between atoms: C14_16  and  C15_17 
REMARK    4  A    between atoms: C14_16  and  N2_24 
REMARK    5  A    between atoms: C15_17  and  C16_18 
ROOT
HETATM    1  S1  UNL     1      -0.924  -0.553  -0.355  1.00  0.00    -0.257 SA
HETATM    2  C3  UNL     1      -2.107  -1.439   0.605  1.00  0.00     0.086 C 
HETATM    3  C4  UNL     1      -3.335  -1.870  -0.085  1.00  0.00    -0.034 A 
HETATM    4  C5  UNL     1      -3.682  -3.241   0.013  1.00  0.00     0.009 A 
HETATM    5  C6  UNL     1      -4.801  -3.491  -0.657  1.00  0.00     0.001 A 
HETATM    6  C7  UNL     1      -5.673  -2.758  -1.404  1.00  0.00     0.001 A 
HETATM    7  C8  UNL     1      -5.290  -1.432  -1.467  1.00  0.00     0.019 A 
HETATM    8  C9  UNL     1      -4.153  -0.986  -0.828  1.00  0.00     0.008 A 
HETATM    9  S2  UNL     1      -4.018   0.790  -1.165  1.00  0.00    -0.112 SA
HETATM   10  C10 UNL     1      -2.763   1.535  -0.124  1.00  0.00     0.070 A 
HETATM   11  C11 UNL     1      -2.277   1.828   1.016  1.00  0.00    -0.007 A 
HETATM   12  C12 UNL     1      -1.132   1.213   0.295  1.00  0.00     0.040 A 
HETATM   13  C13 UNL     1      -0.016   0.890   0.210  1.00  0.00     0.036 A 
HETATM   14  C22 UNL     1      -0.334   2.418  -0.277  1.00  0.00     0.024 C 
HETATM   15  O1  UNL     1      -1.658   2.203  -0.873  1.00  0.00     0.000 OA
HETATM   16  H6  UNL     1      -2.228  -0.288  -1.987  1.00  0.00     0.075 HD
ENDROOT
BRANCH  13  17
HETATM   17  C14 UNL     1       1.398   0.698   0.035  1.00  0.00     0.243 C 
BRANCH  17  18
HETATM   18  C15 UNL     1       2.018   1.846   0.883  1.00  0.00     0.096 C 
BRANCH  18  19
HETATM   19  C16 UNL     1       3.483   1.840   0.847  1.00  0.00     0.036 A 
HETATM   20  C17 UNL     1       4.090   2.603  -0.104  1.00  0.00     0.027 A 
HETATM   21  C18 UNL     1       5.425   2.893  -0.448  1.00  0.00     0.003 A 
HETATM   22  C19 UNL     1       6.203   2.165   0.474  1.00  0.00     0.019 A 
HETATM   23  C20 UNL     1       5.733   1.362   1.476  1.00  0.00     0.117 A 
HETATM   24  N1  UNL     1       4.409   1.245   1.608  1.00  0.00    -0.266 NA
ENDBRANCH  18  19
ENDBRANCH  17  18
BRANCH  17  25
HETATM   25  N2  UNL     1       1.965  -0.445   0.723  1.00  0.00     0.085 N 
HETATM   26  C21 UNL     1       1.693  -0.551   2.097  1.00  0.00     0.307 C 
HETATM   27  H21 UNL     1       2.977  -0.437   0.473  1.00  0.00     0.315 HD
ENDBRANCH  17  25
ENDBRANCH  13  17
BRANCH   1  28
HETATM   28  C2  UNL     1       0.094  -1.367  -1.225  1.00  0.00     0.042 C 
HETATM   29  C1  UNL     1      -0.493  -2.287  -2.292  1.00  0.00     0.014 C 
ENDBRANCH   1  28
TORSDOF 5
