REMARK  6 active torsions:
REMARK  status: ('A' for Active; 'I' for Inactive)
REMARK    1  A    between atoms: N1_2  and  C2_3 
REMARK    2  A    between atoms: C2_3  and  C3_4 
REMARK    3  A    between atoms: C3_4  and  C4_5 
REMARK    4  A    between atoms: C7_8  and  C8_9 
REMARK    5  A    between atoms: C8_9  and  C9_10 
REMARK    6  A    between atoms: C18_22  and  C19_23 
REMARK       I    between atoms: C19_23  and  N4_25 
ROOT
HETATM    1  C9  UNL     1       0.066  -0.864  -0.554  1.00  0.00     0.062 C 
HETATM    2  N2  UNL     1       0.719  -2.007  -0.861  1.00  0.00    -0.179 NA
HETATM    3  N3  UNL     1      -0.231  -3.026  -1.315  1.00  0.00    -0.289 N 
HETATM    4  C10 UNL     1      -1.144  -3.445  -0.259  1.00  0.00     0.106 C 
HETATM    5  C11 UNL     1      -2.426  -3.484   0.232  1.00  0.00     0.001 C 
HETATM    6  C12 UNL     1      -3.880  -3.248   0.284  1.00  0.00     0.093 C 
HETATM    7  S1  UNL     1      -4.536  -2.303  -1.176  1.00  0.00    -0.193 SA
HETATM    8  C13 UNL     1      -3.538  -0.683  -1.125  1.00  0.00     0.054 A 
HETATM    9  C14 UNL     1      -3.469  -1.519  -2.154  1.00  0.00     0.073 A 
HETATM   10  C15 UNL     1      -2.362  -1.117  -1.451  1.00  0.00     0.059 A 
HETATM   11  C16 UNL     1      -1.324  -0.697  -0.739  1.00  0.00    -0.024 A 
HETATM   12  C17 UNL     1      -1.982   0.163   0.198  1.00  0.00     0.024 A 
HETATM   13  C18 UNL     1      -3.311   0.152  -0.052  1.00  0.00     0.030 A 
HETATM   14  H11 UNL     1      -0.280  -3.447  -2.306  1.00  0.00     0.188 HD
ENDROOT
BRANCH   1  15
HETATM   15  C8  UNL     1       0.838   0.305  -0.047  1.00  0.00     0.034 C 
BRANCH  15  16
HETATM   16  C7  UNL     1       1.736   1.225   0.380  1.00  0.00     0.054 A 
HETATM   17  C6  UNL     1       1.457   2.618   0.898  1.00  0.00    -0.041 A 
HETATM   18  C5  UNL     1       2.803   2.351   0.860  1.00  0.00     0.021 A 
HETATM   19  C4  UNL     1       3.176   1.021   0.335  1.00  0.00     0.026 A 
BRANCH  19  20
HETATM   20  C3  UNL     1       4.499   1.158   0.521  1.00  0.00    -0.002 C 
BRANCH  20  21
HETATM   21  C2  UNL     1       5.961   1.006   0.601  1.00  0.00     0.106 C 
BRANCH  21  22
HETATM   22  N1  UNL     1       7.196   0.944   0.694  1.00  0.00    -0.307 NA
HETATM   23  C1  UNL     1       7.989  -0.196   0.341  1.00  0.00     0.177 C 
ENDBRANCH  21  22
ENDBRANCH  20  21
ENDBRANCH  19  20
ENDBRANCH  15  16
ENDBRANCH   1  15
BRANCH  13  24
HETATM   24  C19 UNL     1      -4.318   0.973   0.566  1.00  0.00     0.248 C 
HETATM   25  O1  UNL     1      -5.350   1.086   1.277  1.00  0.00    -0.268 OA
HETATM   26  N4  UNL     1      -3.900   2.337   0.143  1.00  0.00    -0.361 N 
HETATM   27  C20 UNL     1      -4.458   3.673   0.422  1.00  0.00     0.149 C 
HETATM   28  H19 UNL     1      -3.049   2.565  -0.496  1.00  0.00     0.162 HD
ENDBRANCH  13  24
TORSDOF 6
