REMARK  5 active torsions:
REMARK  status: ('A' for Active; 'I' for Inactive)
REMARK    1  A    between atoms: C2_2  and  C3_3 
REMARK    2  A    between atoms: C3_3  and  S1_10 
REMARK    3  A    between atoms: C4_4  and  C5_5 
REMARK    4  A    between atoms: S1_10  and  C8_11 
REMARK    5  A    between atoms: C13_16  and  C14_17 
REMARK       I    between atoms: C14_17  and  N3_19 
ROOT
HETATM    1  C8  UNL     1      -1.439  -0.791   0.464  1.00  0.00     0.021 A 
HETATM    2  C9  UNL     1      -1.582  -1.156   1.768  1.00  0.00     0.020 A 
HETATM    3  C10 UNL     1      -2.650  -1.769   2.382  1.00  0.00     0.001 A 
HETATM    4  C11 UNL     1      -3.703  -2.034   1.511  1.00  0.00     0.001 A 
HETATM    5  C12 UNL     1      -3.665  -1.704   0.170  1.00  0.00     0.018 A 
HETATM    6  C13 UNL     1      -2.531  -1.079  -0.366  1.00  0.00     0.049 A 
ENDROOT
BRANCH   1   7
HETATM    7  S1  UNL     1      -0.155  -0.003  -0.444  1.00  0.00    -0.089 SA
BRANCH   7   8
HETATM    8  C3  UNL     1       1.220   0.520   0.436  1.00  0.00     0.018 C 
HETATM    9  C4  UNL     1       2.368   1.085  -0.239  1.00  0.00     0.053 C 
BRANCH   8  10
HETATM   10  C2  UNL     1       1.370   0.494   1.765  1.00  0.00    -0.018 C 
HETATM   11  C1  UNL     1       1.174   1.019   2.985  1.00  0.00     0.025 C 
ENDBRANCH   8  10
BRANCH   9  12
HETATM   12  C5  UNL     1       3.523   0.478   0.056  1.00  0.00     0.077 A 
HETATM   13  N1  UNL     1       3.787  -0.600   0.903  1.00  0.00    -0.276 N 
HETATM   14  N2  UNL     1       5.141  -0.553   0.642  1.00  0.00    -0.177 NA
HETATM   15  H4  UNL     1       3.421  -1.312   1.550  1.00  0.00     0.189 HD
HETATM   16  C6  UNL     1       4.974   0.456  -0.164  1.00  0.00     0.079 A 
HETATM   17  C7  UNL     1       5.785   1.344  -1.023  1.00  0.00     0.075 C 
ENDBRANCH   9  12
ENDBRANCH   7   8
ENDBRANCH   1   7
BRANCH   6  18
HETATM   18  C14 UNL     1      -2.791  -0.855  -1.796  1.00  0.00     0.252 C 
HETATM   19  O1  UNL     1      -2.692  -1.575  -2.837  1.00  0.00    -0.268 OA
HETATM   20  N3  UNL     1      -3.262   0.437  -2.164  1.00  0.00    -0.361 N 
HETATM   21  C15 UNL     1      -3.640   1.104  -3.391  1.00  0.00     0.149 C 
HETATM   22  H12 UNL     1      -3.395   1.167  -1.409  1.00  0.00     0.162 HD
ENDBRANCH   6  18
TORSDOF 5
