REMARK  5 active torsions:
REMARK  status: ('A' for Active; 'I' for Inactive)
REMARK    1  A    between atoms: C2_3  and  C3_4 
REMARK    2  A    between atoms: C3_4  and  C4_5 
REMARK    3  A    between atoms: C4_5  and  S1_6 
REMARK    4  A    between atoms: S1_6  and  C5_7 
REMARK    5  A    between atoms: C9_11  and  C10_12 
ROOT
HETATM    1  O1  UNL     1      -5.037   3.216   1.533  1.00  0.00    -0.430 OA
HETATM    2  C1  UNL     1      -5.083   2.209   0.877  1.00  0.00     0.391 C 
HETATM    3  C2  UNL     1      -5.020   0.973   0.048  1.00  0.00     0.037 C 
ENDROOT
BRANCH   3   4
HETATM    4  C3  UNL     1      -3.810   0.139   0.510  1.00  0.00     0.013 C 
BRANCH   4   5
HETATM    5  C4  UNL     1      -3.770  -1.070  -0.396  1.00  0.00     0.079 C 
BRANCH   5   6
HETATM    6  S1  UNL     1      -2.543  -2.282  -0.079  1.00  0.00    -0.132 SA
BRANCH   6   7
HETATM    7  C5  UNL     1      -0.869  -1.720  -0.284  1.00  0.00     0.007 A 
HETATM    8  C6  UNL     1      -0.103  -2.821  -0.111  1.00  0.00     0.017 A 
HETATM    9  C7  UNL     1       1.312  -2.429  -0.275  1.00  0.00     0.013 A 
HETATM   10  C8  UNL     1       1.408  -1.148  -0.536  1.00  0.00     0.004 A 
HETATM   11  C9  UNL     1       2.065   0.118  -0.830  1.00  0.00     0.114 C 
HETATM   12  C15 UNL     1      -0.001  -0.574  -0.476  1.00  0.00     0.176 A 
HETATM   13  N2  UNL     1       1.234   0.800  -1.523  1.00  0.00    -0.176 NA
HETATM   14  N3  UNL     1       0.015   0.088  -1.748  1.00  0.00    -0.299 N 
HETATM   15  H14 UNL     1      -0.578   0.120  -2.595  1.00  0.00     0.183 HD
BRANCH  11  16
HETATM   16  C10 UNL     1       3.445   0.384  -0.342  1.00  0.00     0.087 A 
HETATM   17  C11 UNL     1       4.095   1.585  -0.592  1.00  0.00     0.034 A 
HETATM   18  C12 UNL     1       5.384   1.795  -0.098  1.00  0.00     0.004 A 
HETATM   19  C13 UNL     1       6.023   0.828   0.635  1.00  0.00     0.019 A 
HETATM   20  C14 UNL     1       5.369  -0.355   0.876  1.00  0.00     0.117 A 
HETATM   21  N1  UNL     1       4.151  -0.518   0.393  1.00  0.00    -0.259 NA
ENDBRANCH  11  16
ENDBRANCH   6   7
ENDBRANCH   5   6
ENDBRANCH   4   5
ENDBRANCH   3   4
TORSDOF 5
