REMARK  6 active torsions:
REMARK  status: ('A' for Active; 'I' for Inactive)
REMARK    1  A    between atoms: C2_2  and  C3_3 
REMARK    2  A    between atoms: C4_4  and  C5_5 
REMARK    3  A    between atoms: C12_13  and  C13_14 
REMARK    4  A    between atoms: C13_14  and  C14_15 
REMARK    5  A    between atoms: C16_18  and  N2_19 
REMARK    6  A    between atoms: C17_21  and  N4_22 
ROOT
HETATM    1  C5  UNL     1       4.104  -0.478  -0.847  1.00  0.00     0.009 C 
HETATM    2  C6  UNL     1       2.775  -0.547  -1.097  1.00  0.00    -0.034 C 
HETATM    3  C7  UNL     1       2.554   0.199  -2.345  1.00  0.00     0.007 C 
HETATM    4  C8  UNL     1       1.423   0.525  -2.927  1.00  0.00     0.000 C 
HETATM    5  C9  UNL     1       0.520   0.027  -1.984  1.00  0.00     0.203 C 
HETATM    6  O1  UNL     1      -0.430  -0.936  -2.101  1.00  0.00    -0.345 OA
HETATM    7  C10 UNL     1      -1.195  -1.108  -0.851  1.00  0.00     0.102 A 
HETATM    8  C11 UNL     1      -2.545  -1.099  -0.712  1.00  0.00     0.047 A 
HETATM    9  C12 UNL     1      -3.173  -1.256   0.499  1.00  0.00    -0.051 A 
HETATM   10  C18 UNL     1      -2.381  -1.428   1.615  1.00  0.00     0.010 A 
HETATM   11  C19 UNL     1      -0.983  -1.440   1.486  1.00  0.00     0.040 A 
HETATM   12  C20 UNL     1      -0.325  -1.283   0.256  1.00  0.00     0.102 A 
HETATM   13  O2  UNL     1       1.049  -1.375   0.602  1.00  0.00    -0.344 OA
HETATM   14  C21 UNL     1       2.075  -1.436  -0.242  1.00  0.00     0.214 C 
ENDROOT
BRANCH   9  15
HETATM   15  C13 UNL     1      -4.644  -1.221   0.432  1.00  0.00     0.082 C 
BRANCH  15  16
HETATM   16  C14 UNL     1      -5.217   0.138   0.504  1.00  0.00     0.010 A 
HETATM   17  C15 UNL     1      -5.677   0.720  -0.685  1.00  0.00     0.147 A 
HETATM   18  N1  UNL     1      -6.200   1.939  -0.685  1.00  0.00    -0.075 NA
HETATM   19  C16 UNL     1      -6.323   2.681   0.428  1.00  0.00     0.721 A 
HETATM   20  N3  UNL     1      -5.891   2.152   1.587  1.00  0.00    -0.045 NA
HETATM   21  C17 UNL     1      -5.364   0.933   1.608  1.00  0.00     0.148 A 
BRANCH  19  22
HETATM   22  N2  UNL     1      -6.892   3.980   0.363  1.00  0.00    -0.231 N 
HETATM   23  H17 UNL     1      -7.917   3.934   0.096  1.00  0.00     0.174 HD
HETATM   24  H18 UNL     1      -6.351   4.870   0.560  1.00  0.00     0.174 HD
ENDBRANCH  19  22
BRANCH  21  25
HETATM   25  N4  UNL     1      -4.918   0.394   2.840  1.00  0.00    -0.383 N 
HETATM   26  H19 UNL     1      -5.502  -0.450   3.091  1.00  0.00     0.157 HD
HETATM   27  H20 UNL     1      -4.267   0.427   3.654  1.00  0.00     0.157 HD
ENDBRANCH  21  25
ENDBRANCH  15  16
ENDBRANCH   9  15
BRANCH   1  28
HETATM   28  C4  UNL     1       5.263  -0.788  -0.036  1.00  0.00    -0.003 C 
HETATM   29  C3  UNL     1       6.546  -0.745   0.239  1.00  0.00    -0.027 C 
BRANCH  29  30
HETATM   30  C2  UNL     1       7.571  -0.062  -0.584  1.00  0.00     0.022 C 
HETATM   31  C1  UNL     1       8.202   0.989   0.321  1.00  0.00     0.009 C 
ENDBRANCH  29  30
ENDBRANCH   1  28
TORSDOF 6
