REMARK  6 active torsions:
REMARK  status: ('A' for Active; 'I' for Inactive)
REMARK    1  A    between atoms: C2_2  and  N1_3 
REMARK    2  A    between atoms: C4_5  and  O1_6 
REMARK    3  A    between atoms: O1_6  and  C5_7 
REMARK    4  A    between atoms: C16_18  and  C17_19 
REMARK    5  A    between atoms: C19_22  and  N3_23 
REMARK    6  A    between atoms: C20_25  and  N5_26 
ROOT
HETATM    1  N1  UNL     1      -1.201  -0.680   0.921  1.00  0.00    -0.354 N 
HETATM    2  C3  UNL     1       0.201  -0.448   1.190  1.00  0.00     0.192 A 
HETATM    3  C4  UNL     1       0.559   0.988   0.975  1.00  0.00     0.066 A 
HETATM    4  C14 UNL     1      -0.373   1.836   0.586  1.00  0.00     0.036 A 
HETATM    5  C15 UNL     1      -1.740   1.404   0.364  1.00  0.00     0.033 A 
HETATM    6  C16 UNL     1      -2.230   0.195   0.504  1.00  0.00     0.049 A 
ENDROOT
BRANCH   6   7
HETATM    7  C17 UNL     1      -3.574  -0.177   0.308  1.00  0.00     0.050 A 
HETATM    8  C18 UNL     1      -4.100  -1.436   0.324  1.00  0.00     0.153 A 
HETATM    9  N2  UNL     1      -5.377  -1.767   0.169  1.00  0.00    -0.074 NA
HETATM   10  C19 UNL     1      -6.333  -0.813  -0.033  1.00  0.00     0.721 A 
HETATM   11  N4  UNL     1      -5.874   0.457  -0.060  1.00  0.00    -0.050 NA
HETATM   12  C20 UNL     1      -4.569   0.743   0.103  1.00  0.00     0.134 A 
BRANCH  10  13
HETATM   13  N3  UNL     1      -7.683  -1.208  -0.194  1.00  0.00    -0.231 N 
HETATM   14  H20 UNL     1      -8.177  -0.621  -0.915  1.00  0.00     0.174 HD
HETATM   15  H21 UNL     1      -8.109  -1.985   0.344  1.00  0.00     0.174 HD
ENDBRANCH  10  13
BRANCH  12  16
HETATM   16  N5  UNL     1      -4.442   2.151   0.036  1.00  0.00    -0.286 NA
HETATM   17  H22 UNL     1      -4.467   2.431   1.061  1.00  0.00     0.125 HD
HETATM   18  H23 UNL     1      -4.462   2.482   1.046  1.00  0.00     0.125 HD
ENDBRANCH  12  16
ENDBRANCH   6   7
BRANCH   1  19
HETATM   19  C2  UNL     1      -1.346  -2.061   1.194  1.00  0.00     0.065 C 
HETATM   20  C1  UNL     1      -0.700  -2.999   0.479  1.00  0.00     0.050 C 
ENDBRANCH   1  19
BRANCH   3  21
HETATM   21  O1  UNL     1       1.878   1.149   1.242  1.00  0.00    -0.340 OA
BRANCH  21  22
HETATM   22  C5  UNL     1       2.851   1.641   0.345  1.00  0.00     0.180 C 
HETATM   23  C6  UNL     1       4.187   1.677   1.003  1.00  0.00     0.010 C 
HETATM   24  C7  UNL     1       5.292   0.974   1.079  1.00  0.00    -0.001 C 
HETATM   25  C8  UNL     1       5.704  -0.286   0.468  1.00  0.00    -0.004 C 
HETATM   26  C9  UNL     1       5.163  -1.287  -0.221  1.00  0.00    -0.023 C 
HETATM   27  C10 UNL     1       3.745  -1.510  -0.676  1.00  0.00     0.054 C 
HETATM   28  C11 UNL     1       3.233  -0.300  -1.371  1.00  0.00    -0.018 C 
HETATM   29  C12 UNL     1       2.889   0.925  -0.949  1.00  0.00    -0.054 C 
HETATM   30  C13 UNL     1       2.439   1.716  -2.153  1.00  0.00     0.046 C 
ENDBRANCH  21  22
ENDBRANCH   3  21
TORSDOF 6
