REMARK  8 active torsions:
REMARK  status: ('A' for Active; 'I' for Inactive)
REMARK    1  A    between atoms: C2_2  and  O1_3 
REMARK    2  A    between atoms: O1_3  and  C3_4 
REMARK    3  A    between atoms: C6_7  and  C7_8 
REMARK    4  A    between atoms: C7_8  and  C8_9 
REMARK    5  A    between atoms: C11_12  and  C12_13 
REMARK    6  A    between atoms: C12_13  and  C13_14 
REMARK    7  A    between atoms: C13_14  and  N4_20 
REMARK       I    between atoms: N1_15  and  C14_16 
REMARK       I    between atoms: C14_16  and  N2_17 
REMARK    8  A    between atoms: C18_23  and  O2_24 
ROOT
HETATM    1  C8  UNL     1       0.858   1.316   0.070  1.00  0.00    -0.021 A 
HETATM    2  C9  UNL     1       0.362   0.831   1.275  1.00  0.00     0.011 A 
HETATM    3  C10 UNL     1      -0.747   0.021   1.381  1.00  0.00     0.008 A 
HETATM    4  C11 UNL     1      -1.428  -0.351   0.258  1.00  0.00    -0.048 A 
HETATM    5  C17 UNL     1      -0.970   0.109  -0.959  1.00  0.00     0.044 A 
HETATM    6  C18 UNL     1       0.141   0.917  -1.037  1.00  0.00     0.072 A 
ENDROOT
BRANCH   4   7
HETATM    7  C12 UNL     1      -2.636  -1.220   0.229  1.00  0.00     0.117 C 
BRANCH   7   8
HETATM    8  C13 UNL     1      -3.901  -0.444   0.331  1.00  0.00     0.122 C 
HETATM    9  N1  UNL     1      -4.713  -0.569  -0.623  1.00  0.00    -0.050 NA
HETATM   10  C14 UNL     1      -5.958  -0.015  -0.866  1.00  0.00     0.716 C 
HETATM   11  N2  UNL     1      -6.660   1.171  -1.203  1.00  0.00    -0.231 N 
HETATM   12  N3  UNL     1      -6.957  -0.859  -0.771  1.00  0.00    -0.111 NA
HETATM   13  H14 UNL     1      -7.255   1.707  -0.535  1.00  0.00     0.174 HD
HETATM   14  H15 UNL     1      -6.690   1.670  -2.124  1.00  0.00     0.174 HD
HETATM   15  C15 UNL     1      -6.782  -2.257  -0.441  1.00  0.00     0.198 C 
BRANCH   8  16
HETATM   16  N4  UNL     1      -4.137   0.380   1.461  1.00  0.00    -0.382 N 
HETATM   17  C16 UNL     1      -5.503   0.592   1.930  1.00  0.00     0.147 C 
HETATM   18  H19 UNL     1      -3.314   0.828   1.945  1.00  0.00     0.160 HD
ENDBRANCH   8  16
ENDBRANCH   7   8
ENDBRANCH   4   7
BRANCH   6  19
HETATM   19  O2  UNL     1       0.578   1.364  -2.269  1.00  0.00    -0.360 OA
HETATM   20  H24 UNL     1      -0.148   1.736  -2.901  1.00  0.00     0.217 HD
ENDBRANCH   6  19
BRANCH   1  21
HETATM   21  C7  UNL     1       2.062   2.178   0.084  1.00  0.00     0.080 C 
BRANCH  21  22
HETATM   22  C6  UNL     1       3.223   1.377  -0.348  1.00  0.00    -0.054 A 
HETATM   23  C5  UNL     1       3.771   1.240  -1.602  1.00  0.00     0.010 A 
HETATM   24  C4  UNL     1       4.869   0.431  -1.813  1.00  0.00     0.037 A 
HETATM   25  C3  UNL     1       5.476  -0.282  -0.789  1.00  0.00     0.068 A 
HETATM   26  C20 UNL     1       4.921  -0.141   0.474  1.00  0.00     0.037 A 
HETATM   27  C19 UNL     1       3.832   0.665   0.668  1.00  0.00     0.010 A 
BRANCH  25  28
HETATM   28  O1  UNL     1       6.565  -1.052  -1.137  1.00  0.00    -0.352 OA
BRANCH  28  29
HETATM   29  C2  UNL     1       7.295  -1.833  -0.234  1.00  0.00     0.171 C 
HETATM   30  C1  UNL     1       7.905  -0.995   0.872  1.00  0.00     0.034 C 
ENDBRANCH  28  29
ENDBRANCH  25  28
ENDBRANCH  21  22
ENDBRANCH   1  21
TORSDOF 8
