REMARK  3 active torsions:
REMARK  status: ('A' for Active; 'I' for Inactive)
REMARK    1  A    between atoms: C2_2  and  C3_3 
REMARK    2  A    between atoms: N1_15  and  N2_16 
REMARK    3  A    between atoms: N2_16  and  N3_17 
ROOT
HETATM    1  C3  UNL     1      -3.153  -0.859  -0.037  1.00  0.00    -0.073 C 
HETATM    2  C4  UNL     1      -4.051  -1.805  -0.164  1.00  0.00     0.003 C 
HETATM    3  C5  UNL     1      -3.610  -3.175  -0.381  1.00  0.00    -0.001 C 
HETATM    4  C6  UNL     1      -2.299  -3.297  -0.442  1.00  0.00     0.006 C 
HETATM    5  C7  UNL     1      -1.244  -2.345  -0.344  1.00  0.00     0.160 C 
HETATM    6  O1  UNL     1      -0.048  -2.756   0.366  1.00  0.00    -0.345 OA
HETATM    7  C8  UNL     1       0.834  -1.611   0.593  1.00  0.00     0.054 A 
HETATM    8  C9  UNL     1       0.761  -1.212   1.893  1.00  0.00     0.031 A 
HETATM    9  C10 UNL     1       1.609  -0.179   1.547  1.00  0.00     0.011 A 
HETATM   10  C11 UNL     1       1.944  -0.230   0.243  1.00  0.00     0.099 A 
HETATM   11  C12 UNL     1       2.132  -0.492  -1.072  1.00  0.00     0.043 A 
HETATM   12  C13 UNL     1       1.281  -1.505  -0.688  1.00  0.00     0.086 A 
HETATM   13  N1  UNL     1       2.299   1.200   0.113  1.00  0.00    -0.231 N 
HETATM   14  N4  UNL     1       0.991   1.805  -0.255  1.00  0.00    -0.315 N 
HETATM   15  C15 UNL     1      -0.068   1.060  -0.945  1.00  0.00     0.130 C 
HETATM   16  C16 UNL     1      -0.994   0.074  -0.773  1.00  0.00     0.030 C 
HETATM   17  C17 UNL     1      -1.699  -0.974   0.038  1.00  0.00     0.054 C 
HETATM   18  H19 UNL     1       0.868   2.821   0.000  1.00  0.00     0.182 HD
ENDROOT
BRANCH  13  19
HETATM   19  N2  UNL     1       3.362   2.097   0.210  1.00  0.00    -0.154 NA
HETATM   20  H14 UNL     1       3.786   2.137   1.161  1.00  0.00     0.168 HD
BRANCH  19  21
HETATM   21  N3  UNL     1       4.270   2.026  -0.829  1.00  0.00    -0.246 NA
HETATM   22  C14 UNL     1       4.927   3.331  -0.913  1.00  0.00     0.128 C 
HETATM   23  H15 UNL     1       5.031   1.352  -0.584  1.00  0.00     0.141 HD
ENDBRANCH  19  21
ENDBRANCH  13  19
BRANCH   1  24
HETATM   24  C2  UNL     1      -3.522   0.543   0.172  1.00  0.00     0.030 C 
HETATM   25  C1  UNL     1      -2.941   1.010   1.489  1.00  0.00     0.010 C 
ENDBRANCH   1  24
TORSDOF 3
