REMARK  4 active torsions:
REMARK  status: ('A' for Active; 'I' for Inactive)
REMARK    1  A    between atoms: C3_4  and  C4_5 
REMARK    2  A    between atoms: C13_14  and  C14_15 
REMARK    3  A    between atoms: C16_18  and  N2_19 
REMARK    4  A    between atoms: C17_21  and  N4_22 
ROOT
HETATM    1  C1  UNL     1      -2.691  -3.800  -0.432  1.00  0.00     0.000 C 
HETATM    2  O1  UNL     1      -2.003  -3.111   0.564  1.00  0.00     0.000 OA
HETATM    3  C2  UNL     1      -1.142  -2.104   0.361  1.00  0.00    -0.097 A 
HETATM    4  C3  UNL     1      -0.560  -0.999   0.030  1.00  0.00    -0.042 C 
HETATM    5  C12 UNL     1       0.846  -0.795   0.369  1.00  0.00    -0.029 C 
HETATM    6  C13 UNL     1       1.393   0.348  -0.008  1.00  0.00     0.028 C 
HETATM    7  C18 UNL     1       1.735  -1.721   1.073  1.00  0.00     0.006 C 
HETATM    8  C19 UNL     1       1.589  -3.035   1.015  1.00  0.00    -0.104 C 
HETATM    9  B1  UNL     1      -0.288  -3.437   1.215  1.00  0.00     0.224 B 
ENDROOT
BRANCH   4  10
HETATM   10  C4  UNL     1      -1.398  -0.008  -0.669  1.00  0.00     0.064 C 
HETATM   11  C5  UNL     1      -2.674  -0.543  -1.064  1.00  0.00    -0.013 C 
HETATM   12  C6  UNL     1      -3.988  -0.376  -0.949  1.00  0.00    -0.003 C 
HETATM   13  C7  UNL     1      -4.758   0.648  -0.212  1.00  0.00    -0.004 C 
HETATM   14  C8  UNL     1      -4.512   1.948   0.016  1.00  0.00    -0.023 C 
HETATM   15  C9  UNL     1      -3.362   2.838  -0.395  1.00  0.00     0.054 C 
HETATM   16  C10 UNL     1      -2.187   2.296   0.343  1.00  0.00    -0.026 C 
HETATM   17  C11 UNL     1      -1.453   1.188   0.207  1.00  0.00    -0.017 C 
ENDBRANCH   4  10
BRANCH   6  18
HETATM   18  C14 UNL     1       2.740   0.865   0.159  1.00  0.00     0.029 A 
HETATM   19  C15 UNL     1       3.143   2.106   0.647  1.00  0.00     0.151 A 
HETATM   20  N1  UNL     1       4.452   2.433   0.709  1.00  0.00    -0.074 NA
HETATM   21  C16 UNL     1       5.426   1.619   0.320  1.00  0.00     0.721 A 
HETATM   22  N3  UNL     1       5.083   0.412  -0.158  1.00  0.00    -0.045 NA
HETATM   23  C17 UNL     1       3.782   0.023  -0.246  1.00  0.00     0.152 A 
BRANCH  21  24
HETATM   24  N2  UNL     1       6.777   2.047   0.422  1.00  0.00    -0.231 N 
HETATM   25  H15 UNL     1       7.028   1.732   1.402  1.00  0.00     0.174 HD
HETATM   26  H16 UNL     1       7.323   2.534  -0.304  1.00  0.00     0.174 HD
ENDBRANCH  21  24
BRANCH  23  27
HETATM   27  N4  UNL     1       3.703  -1.287  -0.808  1.00  0.00    -0.383 N 
HETATM   28  H17 UNL     1       4.236  -2.072  -0.366  1.00  0.00     0.157 HD
HETATM   29  H18 UNL     1       3.154  -1.595  -1.653  1.00  0.00     0.157 HD
ENDBRANCH  23  27
ENDBRANCH   6  18
TORSDOF 4
