REMARK  7 active torsions:
REMARK  status: ('A' for Active; 'I' for Inactive)
REMARK    1  A    between atoms: O1_2  and  C2_3 
REMARK    2  A    between atoms: C2_3  and  C4_5 
REMARK    3  A    between atoms: C5_6  and  N1_7 
REMARK    4  A    between atoms: N1_7  and  C6_8 
REMARK    5  A    between atoms: C10_13  and  C11_14 
REMARK    6  A    between atoms: C11_14  and  C12_15 
REMARK    7  A    between atoms: C14_18  and  N3_19 
ROOT
HETATM    1  C6  UNL     1      -0.290  -0.778  -0.178  1.00  0.00     0.081 C 
HETATM    2  C7  UNL     1      -0.765  -1.986  -0.908  1.00  0.00     0.202 C 
HETATM    3  O2  UNL     1      -0.126  -1.470  -2.049  1.00  0.00    -0.381 OA
HETATM    4  C8  UNL     1      -0.311  -0.194  -1.598  1.00  0.00     0.152 C 
HETATM    5  C9  UNL     1       0.906   0.587  -1.194  1.00  0.00     0.042 C 
HETATM    6  C10 UNL     1       1.158  -0.534  -0.181  1.00  0.00     0.025 C 
ENDROOT
BRANCH   6   7
HETATM    7  C11 UNL     1       1.851  -0.100   1.062  1.00  0.00     0.049 C 
BRANCH   7   8
HETATM    8  C12 UNL     1       3.317   0.070   0.758  1.00  0.00    -0.021 A 
HETATM    9  C13 UNL     1       3.665   1.347   0.334  1.00  0.00     0.144 A 
HETATM   10  N2  UNL     1       4.942   1.653   0.024  1.00  0.00    -0.075 NA
HETATM   11  C14 UNL     1       5.874   0.677   0.138  1.00  0.00     0.719 A 
HETATM   12  N4  UNL     1       5.550  -0.543   0.542  1.00  0.00    -0.075 NA
HETATM   13  C15 UNL     1       4.290  -0.896   0.862  1.00  0.00     0.144 A 
BRANCH  11  14
HETATM   14  N3  UNL     1       7.204   1.042  -0.198  1.00  0.00    -0.231 N 
HETATM   15  H20 UNL     1       7.980   0.526  -0.692  1.00  0.00     0.174 HD
HETATM   16  H21 UNL     1       7.582   1.963   0.041  1.00  0.00     0.174 HD
ENDBRANCH  11  14
ENDBRANCH   7   8
ENDBRANCH   6   7
BRANCH   1  17
HETATM   17  N1  UNL     1      -1.177  -0.027   0.626  1.00  0.00    -0.385 N 
HETATM   18  H10 UNL     1      -1.378   0.999   0.435  1.00  0.00     0.159 HD
BRANCH  17  19
HETATM   19  C5  UNL     1      -1.884  -0.550   1.758  1.00  0.00     0.082 C 
HETATM   20  C4  UNL     1      -3.199  -0.386   1.705  1.00  0.00     0.021 C 
BRANCH  20  21
HETATM   21  C2  UNL     1      -3.938   0.262   0.619  1.00  0.00     0.140 C 
HETATM   22  C3  UNL     1      -4.448   1.638   0.995  1.00  0.00     0.044 C 
BRANCH  21  23
HETATM   23  O1  UNL     1      -5.017  -0.507   0.223  1.00  0.00    -0.387 OA
HETATM   24  C1  UNL     1      -5.010  -0.818  -1.130  1.00  0.00     0.202 C 
ENDBRANCH  21  23
ENDBRANCH  20  21
ENDBRANCH  17  19
ENDBRANCH   1  17
TORSDOF 7
