REMARK  7 active torsions:
REMARK  status: ('A' for Active; 'I' for Inactive)
REMARK    1  A    between atoms: O1_2  and  C2_3 
REMARK    2  A    between atoms: C3_4  and  C4_5 
REMARK    3  A    between atoms: C5_6  and  N1_7 
REMARK    4  A    between atoms: N1_7  and  C6_8 
REMARK    5  A    between atoms: C14_20  and  O2_21 
REMARK    6  A    between atoms: O2_21  and  C15_22 
REMARK    7  A    between atoms: C15_22  and  C16_23 
ROOT
HETATM    1  C4  UNL     1       1.493  -0.234   0.961  1.00  0.00     0.040 A 
HETATM    2  C5  UNL     1       2.491   0.600   0.952  1.00  0.00     0.142 A 
HETATM    3  N2  UNL     1       2.425   2.018   0.927  1.00  0.00    -0.225 NA
HETATM    4  C12 UNL     1       1.295   2.678   0.911  1.00  0.00     0.209 A 
HETATM    5  N3  UNL     1       0.123   1.886   0.919  1.00  0.00    -0.348 N 
HETATM    6  C13 UNL     1       0.217   0.488   0.943  1.00  0.00     0.069 A 
HETATM    7  C14 UNL     1      -0.945  -0.148   0.958  1.00  0.00     0.165 C 
HETATM    8  H11 UNL     1      -0.787   2.393   0.906  1.00  0.00     0.167 HD
ENDROOT
BRANCH   2   9
HETATM    9  N1  UNL     1       3.855   0.215   0.967  1.00  0.00    -0.338 N 
HETATM   10  H6  UNL     1       4.514  -0.274   1.645  1.00  0.00     0.167 HD
BRANCH   9  11
HETATM   11  C6  UNL     1       4.754   0.479  -0.105  1.00  0.00     0.072 A 
HETATM   12  C7  UNL     1       5.456   1.671   0.097  1.00  0.00     0.034 A 
HETATM   13  C8  UNL     1       6.390   2.137  -0.815  1.00  0.00     0.021 A 
HETATM   14  C9  UNL     1       6.668   1.435  -1.974  1.00  0.00     0.014 A 
HETATM   15 BR1  UNL     1       7.931   1.988  -3.289  1.00  0.00    -0.051 Br
HETATM   16  C10 UNL     1       5.957   0.249  -2.157  1.00  0.00     0.063 A 
HETATM   17  C11 UNL     1       5.038  -0.209  -1.259  1.00  0.00     0.144 A 
HETATM   18  F1  UNL     1       4.318  -1.346  -1.385  1.00  0.00    -0.204 F 
ENDBRANCH   9  11
ENDBRANCH   2   9
BRANCH   1  19
HETATM   19  C3  UNL     1       1.532  -1.666   0.986  1.00  0.00     0.041 C 
HETATM   20  C2  UNL     1       2.544  -2.505   1.007  1.00  0.00     0.135 C 
BRANCH  20  21
HETATM   21  O1  UNL     1       2.355  -3.877   1.029  1.00  0.00    -0.368 OA
HETATM   22  C1  UNL     1       3.323  -4.845   0.767  1.00  0.00     0.208 C 
ENDBRANCH  20  21
ENDBRANCH   1  19
BRANCH   7  23
HETATM   23  O2  UNL     1      -2.295   0.137   0.951  1.00  0.00    -0.360 OA
BRANCH  23  24
HETATM   24  C15 UNL     1      -2.936   0.306  -0.296  1.00  0.00     0.180 C 
BRANCH  24  25
HETATM   25  C16 UNL     1      -4.409   0.591  -0.111  1.00  0.00     0.040 C 
HETATM   26  C17 UNL     1      -5.129  -0.506   0.603  1.00  0.00     0.038 C 
HETATM   27  C18 UNL     1      -6.495  -0.501  -0.021  1.00  0.00     0.272 C 
HETATM   28  N4  UNL     1      -6.446   0.403  -1.145  1.00  0.00     0.084 N 
HETATM   29  C19 UNL     1      -6.949   1.717  -0.799  1.00  0.00     0.309 C 
HETATM   30  C20 UNL     1      -5.043   0.549  -1.485  1.00  0.00     0.278 C 
ENDBRANCH  24  25
ENDBRANCH  23  24
ENDBRANCH   7  23
TORSDOF 7
