REMARK  7 active torsions:
REMARK  status: ('A' for Active; 'I' for Inactive)
REMARK    1  A    between atoms: C2_2  and  C3_3 
REMARK    2  A    between atoms: C3_3  and  C4_4 
REMARK    3  A    between atoms: C10_11  and  O2_12 
REMARK    4  A    between atoms: C13_15  and  C14_16 
REMARK    5  A    between atoms: C14_16  and  C15_17 
REMARK    6  A    between atoms: C17_20  and  N2_21 
REMARK    7  A    between atoms: C18_23  and  N4_24 
ROOT
HETATM    1  C4  UNL     1      -0.676   0.939   1.030  1.00  0.00     0.019 C 
HETATM    2  C5  UNL     1      -2.079   0.512   1.203  1.00  0.00    -0.025 C 
HETATM    3  C6  UNL     1      -2.340  -0.687   1.684  1.00  0.00    -0.030 C 
HETATM    4  C7  UNL     1      -1.387  -1.768   2.114  1.00  0.00     0.030 C 
HETATM    5  O1  UNL     1      -1.735  -2.855   1.210  1.00  0.00     0.000 OA
HETATM    6  C8  UNL     1      -1.481  -2.513  -0.161  1.00  0.00    -0.000 C 
HETATM    7  C9  UNL     1      -1.825  -3.748   0.057  1.00  0.00     0.027 C 
HETATM    8  C10 UNL     1      -1.099  -1.425  -1.039  1.00  0.00     0.075 C 
HETATM    9  C12 UNL     1      -0.754  -0.160  -1.130  1.00  0.00     0.016 C 
HETATM   10  C13 UNL     1      -0.484   1.126  -0.460  1.00  0.00     0.023 C 
ENDROOT
BRANCH  10  11
HETATM   11  C14 UNL     1       0.874   1.664  -0.803  1.00  0.00     0.053 C 
BRANCH  11  12
HETATM   12  C15 UNL     1       2.032   0.869  -0.409  1.00  0.00     0.007 A 
HETATM   13  C16 UNL     1       2.794   1.239   0.706  1.00  0.00     0.147 A 
HETATM   14  N1  UNL     1       3.876   0.587   1.164  1.00  0.00    -0.075 NA
HETATM   15  C17 UNL     1       4.305  -0.524   0.531  1.00  0.00     0.721 A 
HETATM   16  N3  UNL     1       3.625  -0.942  -0.549  1.00  0.00    -0.045 NA
HETATM   17  C18 UNL     1       2.547  -0.273  -0.988  1.00  0.00     0.148 A 
BRANCH  15  18
HETATM   18  N2  UNL     1       5.435  -1.278   0.940  1.00  0.00    -0.231 N 
HETATM   19  H21 UNL     1       6.230  -0.771   1.412  1.00  0.00     0.174 HD
HETATM   20  H22 UNL     1       5.455  -2.318   0.767  1.00  0.00     0.174 HD
ENDBRANCH  15  18
BRANCH  17  21
HETATM   21  N4  UNL     1       1.930  -0.803  -2.147  1.00  0.00    -0.383 N 
HETATM   22  H23 UNL     1       1.460  -1.622  -2.565  1.00  0.00     0.157 HD
HETATM   23  H24 UNL     1       1.891  -0.179  -2.965  1.00  0.00     0.157 HD
ENDBRANCH  17  21
ENDBRANCH  11  12
ENDBRANCH  10  11
BRANCH   1  24
HETATM   24  C3  UNL     1      -0.546   2.247   1.782  1.00  0.00     0.035 C 
BRANCH  24  25
HETATM   25  C2  UNL     1      -1.495   3.282   1.221  1.00  0.00    -0.036 C 
HETATM   26  C1  UNL     1      -1.278   4.492   0.663  1.00  0.00     0.007 C 
ENDBRANCH  24  25
ENDBRANCH   1  24
BRANCH   8  27
HETATM   27  O2  UNL     1      -1.198  -2.249  -2.142  1.00  0.00    -0.355 OA
HETATM   28  C11 UNL     1      -2.149  -2.044  -3.163  1.00  0.00     0.210 C 
ENDBRANCH   8  27
TORSDOF 7
