REMARK  9 active torsions:
REMARK  status: ('A' for Active; 'I' for Inactive)
REMARK    1  A    between atoms: N1_2  and  C2_3 
REMARK    2  A    between atoms: C4_6  and  C5_7 
REMARK    3  A    between atoms: C6_8  and  C7_9 
REMARK    4  A    between atoms: C8_10  and  C9_11 
REMARK    5  A    between atoms: C8_10  and  C11_14 
REMARK    6  A    between atoms: C9_11  and  O1_12 
REMARK    7  A    between atoms: C11_14  and  C12_15 
REMARK    8  A    between atoms: C15_18  and  O2_19 
REMARK    9  A    between atoms: C19_23  and  N3_24 
ROOT
HETATM    1  C5  UNL     1      -2.078   0.289  -1.139  1.00  0.00     0.017 C 
HETATM    2  C6  UNL     1      -1.133  -0.362  -0.489  1.00  0.00     0.001 C 
ENDROOT
BRANCH   2   3
HETATM    3  C7  UNL     1       0.187  -0.485  -1.087  1.00  0.00     0.005 C 
HETATM    4  C8  UNL     1       1.201  -1.113  -0.527  1.00  0.00    -0.052 C 
BRANCH   4   5
HETATM    5  C9  UNL     1       1.281  -1.816   0.769  1.00  0.00     0.201 C 
BRANCH   5   6
HETATM    6  O1  UNL     1       1.614  -3.160   0.574  1.00  0.00    -0.392 OA
HETATM    7  C10 UNL     1       0.613  -3.730  -0.193  1.00  0.00     0.201 C 
ENDBRANCH   5   6
ENDBRANCH   4   5
BRANCH   4   8
HETATM    8  C11 UNL     1       2.528  -1.198  -1.177  1.00  0.00     0.074 C 
BRANCH   8   9
HETATM    9  C12 UNL     1       3.620  -0.586  -0.384  1.00  0.00    -0.054 A 
HETATM   10  C13 UNL     1       3.875   0.755  -0.577  1.00  0.00     0.010 A 
HETATM   11  C14 UNL     1       4.864   1.438   0.099  1.00  0.00     0.037 A 
HETATM   12  C15 UNL     1       5.649   0.773   1.016  1.00  0.00     0.068 A 
HETATM   13  C17 UNL     1       5.414  -0.576   1.229  1.00  0.00     0.037 A 
HETATM   14  C18 UNL     1       4.411  -1.247   0.537  1.00  0.00     0.010 A 
BRANCH  12  15
HETATM   15  O2  UNL     1       6.687   1.260   1.798  1.00  0.00    -0.356 OA
HETATM   16  C16 UNL     1       7.020   2.628   1.667  1.00  0.00     0.210 C 
ENDBRANCH  12  15
ENDBRANCH   8   9
ENDBRANCH   4   8
ENDBRANCH   2   3
BRANCH   1  17
HETATM   17  C4  UNL     1      -3.454   0.574  -0.816  1.00  0.00     0.028 A 
HETATM   18  C3  UNL     1      -4.314   1.290  -1.648  1.00  0.00     0.151 A 
HETATM   19  N2  UNL     1      -5.581   1.516  -1.280  1.00  0.00    -0.074 NA
HETATM   20  C2  UNL     1      -6.107   1.087  -0.123  1.00  0.00     0.723 A 
HETATM   21  N4  UNL     1      -5.297   0.396   0.693  1.00  0.00    -0.045 NA
HETATM   22  C19 UNL     1      -4.006   0.139   0.368  1.00  0.00     0.152 A 
BRANCH  20  23
HETATM   23  N1  UNL     1      -7.455   1.340   0.244  1.00  0.00    -0.227 N 
HETATM   24  C1  UNL     1      -8.355   2.079  -0.611  1.00  0.00     0.165 C 
HETATM   25  H4  UNL     1      -7.816   0.992   1.146  1.00  0.00     0.177 HD
ENDBRANCH  20  23
BRANCH  22  26
HETATM   26  N3  UNL     1      -3.316  -0.601   1.353  1.00  0.00    -0.383 N 
HETATM   27  H23 UNL     1      -2.828   0.008   2.026  1.00  0.00     0.157 HD
HETATM   28  H24 UNL     1      -3.466  -1.618   1.165  1.00  0.00     0.157 HD
ENDBRANCH  22  26
ENDBRANCH   1  17
TORSDOF 9
