REMARK  6 active torsions:
REMARK  status: ('A' for Active; 'I' for Inactive)
REMARK    1  A    between atoms: O1_2  and  C2_3 
REMARK    2  A    between atoms: C5_6  and  N1_7 
REMARK    3  A    between atoms: N1_7  and  C6_8 
REMARK    4  A    between atoms: C14_21  and  O2_22 
REMARK    5  A    between atoms: O2_22  and  C15_23 
REMARK    6  A    between atoms: C15_23  and  C16_24 
ROOT
HETATM    1  C2  UNL     1       0.660  -0.151  -0.794  1.00  0.00     0.105 A 
HETATM    2  C3  UNL     1       1.901  -0.583  -0.637  1.00  0.00     0.075 A 
HETATM    3  C4  UNL     1       2.512  -0.759   0.679  1.00  0.00     0.104 A 
HETATM    4  C5  UNL     1       3.754  -1.194   0.762  1.00  0.00     0.158 A 
HETATM    5  N2  UNL     1       4.292  -1.345   2.069  1.00  0.00    -0.223 NA
HETATM    6  C12 UNL     1       3.584  -1.064   3.117  1.00  0.00     0.226 A 
HETATM    7  N3  UNL     1       2.241  -0.592   3.061  1.00  0.00    -0.287 N 
HETATM    8  N4  UNL     1       1.684  -0.434   1.789  1.00  0.00    -0.260 N 
HETATM    9  C13 UNL     1       0.334   0.035   1.592  1.00  0.00     0.156 A 
HETATM   10  C14 UNL     1      -0.174   0.177   0.356  1.00  0.00     0.119 A 
HETATM   11  H10 UNL     1       1.678  -0.369   3.909  1.00  0.00     0.188 HD
ENDROOT
BRANCH   4  12
HETATM   12  N1  UNL     1       4.558  -1.511  -0.344  1.00  0.00    -0.337 N 
HETATM   13  H5  UNL     1       4.392  -2.285  -1.052  1.00  0.00     0.168 HD
BRANCH  12  14
HETATM   14  C6  UNL     1       5.656  -0.603  -0.361  1.00  0.00     0.072 A 
HETATM   15  C7  UNL     1       6.844  -0.870   0.291  1.00  0.00     0.034 A 
HETATM   16  C8  UNL     1       7.913  -0.009   0.286  1.00  0.00     0.021 A 
HETATM   17  C9  UNL     1       7.823   1.184  -0.394  1.00  0.00     0.014 A 
HETATM   18 BR1  UNL     1       9.276   2.435  -0.443  1.00  0.00    -0.051 Br
HETATM   19  C10 UNL     1       6.659   1.503  -1.064  1.00  0.00     0.063 A 
HETATM   20  C11 UNL     1       5.620   0.606  -1.027  1.00  0.00     0.144 A 
HETATM   21  F1  UNL     1       4.502   0.970  -1.701  1.00  0.00    -0.204 F 
ENDBRANCH  12  14
ENDBRANCH   4  12
BRANCH   1  22
HETATM   22  O1  UNL     1       0.028   0.035  -2.014  1.00  0.00    -0.353 OA
HETATM   23  C1  UNL     1      -0.208  -0.985  -2.950  1.00  0.00     0.210 C 
ENDBRANCH   1  22
BRANCH  10  24
HETATM   24  O2  UNL     1      -1.461   0.632   0.408  1.00  0.00    -0.346 OA
BRANCH  24  25
HETATM   25  C15 UNL     1      -2.399   0.377  -0.591  1.00  0.00     0.180 C 
BRANCH  25  26
HETATM   26  C16 UNL     1      -3.738   1.019  -0.237  1.00  0.00     0.013 C 
HETATM   27  C17 UNL     1      -4.292   0.484   1.067  1.00  0.00     0.037 C 
HETATM   28  C18 UNL     1      -5.648   1.094   1.267  1.00  0.00     0.272 C 
HETATM   29  N5  UNL     1      -6.583   0.670   0.271  1.00  0.00     0.084 N 
HETATM   30  C19 UNL     1      -7.013  -0.689   0.386  1.00  0.00     0.309 C 
HETATM   31  C20 UNL     1      -6.115   1.055  -1.025  1.00  0.00     0.272 C 
HETATM   32  C21 UNL     1      -4.710   0.588  -1.331  1.00  0.00     0.037 C 
ENDBRANCH  25  26
ENDBRANCH  24  25
ENDBRANCH  10  24
TORSDOF 6
