REMARK  7 active torsions:
REMARK  status: ('A' for Active; 'I' for Inactive)
REMARK    1  A    between atoms: O1_2  and  C2_3 
REMARK    2  A    between atoms: C2_3  and  C14_20 
REMARK    3  A    between atoms: C3_4  and  C4_5 
REMARK    4  A    between atoms: C5_6  and  N1_7 
REMARK    5  A    between atoms: N1_7  and  C6_8 
REMARK    6  A    between atoms: C14_20  and  O2_21 
REMARK    7  A    between atoms: O2_21  and  C15_22 
ROOT
HETATM    1  C4  UNL     1       1.457  -1.448   0.273  1.00  0.00     0.027 A 
HETATM    2  C5  UNL     1       2.712  -1.011  -0.000  1.00  0.00     0.135 A 
HETATM    3  N2  UNL     1       3.625  -1.862   0.554  1.00  0.00    -0.230 NA
HETATM    4  C12 UNL     1       2.971  -2.847   1.183  1.00  0.00     0.229 A 
HETATM    5  N3  UNL     1       2.020  -3.686   1.716  1.00  0.00    -0.265 NA
HETATM    6  C13 UNL     1       1.531  -2.622   1.028  1.00  0.00     0.170 A 
ENDROOT
BRANCH   1   7
HETATM    7  C3  UNL     1       0.220  -0.812  -0.100  1.00  0.00     0.048 C 
HETATM    8  C2  UNL     1      -0.012   0.474   0.080  1.00  0.00     0.070 C 
BRANCH   8   9
HETATM    9  O1  UNL     1       1.121   1.060   0.678  1.00  0.00    -0.358 OA
HETATM   10  C1  UNL     1       1.253   1.060   2.090  1.00  0.00     0.209 C 
ENDBRANCH   8   9
BRANCH   8  11
HETATM   11  C14 UNL     1      -1.012   1.536  -0.107  1.00  0.00     0.232 C 
BRANCH  11  12
HETATM   12  O2  UNL     1      -2.194   1.154  -0.681  1.00  0.00    -0.377 OA
BRANCH  12  13
HETATM   13  C15 UNL     1      -2.914   0.197  -0.014  1.00  0.00     0.156 C 
HETATM   14  C16 UNL     1      -3.314  -0.962  -0.913  1.00  0.00     0.064 C 
HETATM   15  C17 UNL     1      -4.786  -0.855  -1.156  1.00  0.00     0.275 C 
HETATM   16  N4  UNL     1      -5.161   0.453  -0.655  1.00  0.00     0.091 N 
HETATM   17  C18 UNL     1      -6.546   0.419  -0.267  1.00  0.00     0.310 C 
HETATM   18  C19 UNL     1      -4.272   0.689   0.444  1.00  0.00     0.247 C 
HETATM   19  C20 UNL     1      -4.707  -0.020   1.707  1.00  0.00     0.045 C 
ENDBRANCH  12  13
ENDBRANCH  11  12
ENDBRANCH   8  11
ENDBRANCH   1   7
BRANCH   2  20
HETATM   20  N1  UNL     1       3.212   0.083  -0.746  1.00  0.00    -0.338 N 
HETATM   21  H5  UNL     1       2.823   0.833  -1.349  1.00  0.00     0.167 HD
BRANCH  20  22
HETATM   22  C6  UNL     1       4.574   0.463  -0.884  1.00  0.00     0.072 A 
HETATM   23  C7  UNL     1       5.204   1.655  -0.534  1.00  0.00     0.034 A 
HETATM   24  C8  UNL     1       6.551   1.845  -0.741  1.00  0.00     0.021 A 
HETATM   25  C9  UNL     1       7.315   0.841  -1.306  1.00  0.00     0.014 A 
HETATM   26 BR1  UNL     1       9.156   1.292  -1.511  1.00  0.00    -0.051 Br
HETATM   27  C10 UNL     1       6.716  -0.350  -1.662  1.00  0.00     0.063 A 
HETATM   28  C11 UNL     1       5.359  -0.532  -1.451  1.00  0.00     0.144 A 
HETATM   29  F1  UNL     1       4.929  -1.751  -1.854  1.00  0.00    -0.204 F 
ENDBRANCH  20  22
ENDBRANCH   2  20
TORSDOF 7
