REMARK  6 active torsions:
REMARK  status: ('A' for Active; 'I' for Inactive)
REMARK    1  A    between atoms: C5_5  and  N1_6 
REMARK    2  A    between atoms: N1_6  and  C6_7 
REMARK    3  A    between atoms: C10_13  and  O1_14 
REMARK    4  A    between atoms: O1_14  and  C11_15 
REMARK    5  A    between atoms: C11_15  and  C12_16 
REMARK    6  A    between atoms: C18_23  and  O2_24 
ROOT
HETATM    1  C6  UNL     1      -3.260  -0.839  -2.184  1.00  0.00     0.142 A 
HETATM    2  N2  UNL     1      -3.284  -1.139  -3.517  1.00  0.00    -0.224 NA
HETATM    3  C7  UNL     1      -2.144  -1.303  -4.181  1.00  0.00     0.236 A 
HETATM    4  N3  UNL     1      -0.963  -1.179  -3.567  1.00  0.00    -0.241 NA
HETATM    5  C8  UNL     1      -0.848  -0.889  -2.266  1.00  0.00     0.075 A 
HETATM    6  C9  UNL     1       0.425  -0.798  -1.746  1.00  0.00     0.072 A 
HETATM    7  C10 UNL     1       0.504  -0.504  -0.379  1.00  0.00     0.104 A 
HETATM    8  C18 UNL     1      -0.654  -0.329   0.345  1.00  0.00     0.102 A 
HETATM    9  C20 UNL     1      -1.892  -0.435  -0.241  1.00  0.00     0.057 A 
HETATM   10  C21 UNL     1      -2.028  -0.719  -1.576  1.00  0.00     0.042 A 
ENDROOT
BRANCH   1  11
HETATM   11  N1  UNL     1      -4.468  -0.673  -1.480  1.00  0.00    -0.338 N 
HETATM   12  H6  UNL     1      -5.325  -0.961  -2.048  1.00  0.00     0.167 HD
BRANCH  11  13
HETATM   13  C5  UNL     1      -5.175  -0.284  -0.328  1.00  0.00     0.072 A 
HETATM   14  C4  UNL     1      -5.908  -1.187   0.462  1.00  0.00     0.033 A 
HETATM   15  C3  UNL     1      -6.585  -0.660   1.569  1.00  0.00     0.009 A 
HETATM   16  C2  UNL     1      -6.489   0.702   1.811  1.00  0.00    -0.059 A 
HETATM   17  C1  UNL     1      -7.223   1.212   2.994  1.00  0.00     0.048 C 
HETATM   18  C23 UNL     1      -5.774   1.591   1.043  1.00  0.00     0.051 A 
HETATM   19  C22 UNL     1      -5.112   1.068  -0.042  1.00  0.00     0.143 A 
HETATM   20  F1  UNL     1      -4.409   1.944  -0.796  1.00  0.00    -0.204 F 
ENDBRANCH  11  13
ENDBRANCH   1  11
BRANCH   8  21
HETATM   21  O2  UNL     1      -0.433  -0.044   1.685  1.00  0.00    -0.353 OA
HETATM   22  C19 UNL     1      -1.577   0.153   2.508  1.00  0.00     0.210 C 
ENDBRANCH   8  21
BRANCH   7  23
HETATM   23  O1  UNL     1       1.801  -0.414   0.130  1.00  0.00    -0.348 OA
BRANCH  23  24
HETATM   24  C11 UNL     1       2.910  -0.615  -0.715  1.00  0.00     0.180 C 
BRANCH  24  25
HETATM   25  C12 UNL     1       4.198  -0.467   0.043  1.00  0.00     0.013 C 
HETATM   26  C13 UNL     1       5.369  -0.694  -0.909  1.00  0.00     0.037 C 
HETATM   27  C14 UNL     1       6.567   0.095  -0.414  1.00  0.00     0.272 C 
HETATM   28  N4  UNL     1       6.523   0.159   1.050  1.00  0.00     0.084 N 
HETATM   29  C15 UNL     1       7.837   0.517   1.564  1.00  0.00     0.309 C 
HETATM   30  C16 UNL     1       5.514   1.142   1.434  1.00  0.00     0.272 C 
HETATM   31  C17 UNL     1       4.301   0.956   0.553  1.00  0.00     0.037 C 
ENDBRANCH  24  25
ENDBRANCH  23  24
ENDBRANCH   7  23
TORSDOF 6
