REMARK  6 active torsions:
REMARK  status: ('A' for Active; 'I' for Inactive)
REMARK    1  A    between atoms: O1_1  and  C1_2 
REMARK    2  A    between atoms: C5_6  and  N1_7 
REMARK    3  A    between atoms: N1_7  and  C6_8 
REMARK    4  A    between atoms: C15_20  and  O2_21 
REMARK    5  A    between atoms: O2_21  and  C16_22 
REMARK    6  A    between atoms: C16_22  and  C17_23 
ROOT
HETATM    1  C1  UNL     1       2.570  -1.438   0.168  1.00  0.00     0.096 A 
HETATM    2  C2  UNL     1       1.424  -1.842  -0.385  1.00  0.00     0.027 A 
HETATM    3  C3  UNL     1       0.438  -1.051  -1.137  1.00  0.00     0.089 A 
HETATM    4  C4  UNL     1      -0.950  -1.222  -0.738  1.00  0.00     0.038 C 
HETATM    5  C5  UNL     1      -1.971  -0.541  -1.238  1.00  0.00     0.126 C 
HETATM    6  N2  UNL     1      -1.983   0.478  -2.239  1.00  0.00    -0.225 NA
HETATM    7  C12 UNL     1      -0.979   1.293  -2.453  1.00  0.00     0.235 C 
HETATM    8  N3  UNL     1       0.290   1.341  -1.765  1.00  0.00    -0.245 NA
HETATM    9  C13 UNL     1       0.926   0.350  -1.188  1.00  0.00     0.050 A 
HETATM   10  C14 UNL     1       2.167   0.861  -0.611  1.00  0.00     0.068 A 
HETATM   11  C15 UNL     1       2.919  -0.025   0.027  1.00  0.00     0.103 A 
ENDROOT
BRANCH   5  12
HETATM   12  N1  UNL     1      -3.160  -1.017  -0.571  1.00  0.00    -0.341 N 
HETATM   13  H5  UNL     1      -3.365  -2.027  -0.732  1.00  0.00     0.167 HD
BRANCH  12  14
HETATM   14  C6  UNL     1      -3.958  -0.153   0.228  1.00  0.00     0.033 A 
HETATM   15  C7  UNL     1      -3.570   1.154   0.353  1.00  0.00     0.031 A 
HETATM   16  C8  UNL     1      -4.373   1.957   1.136  1.00  0.00     0.021 A 
HETATM   17  C9  UNL     1      -5.518   1.486   1.774  1.00  0.00     0.011 A 
HETATM   18 BR1  UNL     1      -6.611   2.615   2.852  1.00  0.00    -0.051 Br
HETATM   19  C10 UNL     1      -5.829   0.161   1.592  1.00  0.00     0.021 A 
HETATM   20  C11 UNL     1      -5.071  -0.718   0.816  1.00  0.00     0.031 A 
ENDBRANCH  12  14
ENDBRANCH   5  12
BRANCH   1  21
HETATM   21  O1  UNL     1       3.426  -2.314   0.866  1.00  0.00    -0.358 OA
HETATM   22  H1  UNL     1       3.121  -2.590   1.792  1.00  0.00     0.217 HD
ENDBRANCH   1  21
BRANCH  11  23
HETATM   23  O2  UNL     1       4.116   0.375   0.607  1.00  0.00    -0.346 OA
BRANCH  23  24
HETATM   24  C16 UNL     1       5.361   0.127  -0.038  1.00  0.00     0.207 C 
BRANCH  24  25
HETATM   25  C17 UNL     1       6.463   0.685   0.850  1.00  0.00     0.248 C 
HETATM   26  F1  UNL     1       6.391   0.027   2.071  1.00  0.00    -0.253 F 
ENDBRANCH  24  25
ENDBRANCH  23  24
ENDBRANCH  11  23
TORSDOF 6
