REMARK  6 active torsions:
REMARK  status: ('A' for Active; 'I' for Inactive)
REMARK    1  A    between atoms: C2_2  and  O1_3 
REMARK    2  A    between atoms: O1_3  and  C3_4 
REMARK    3  A    between atoms: C7_10  and  N3_11 
REMARK    4  A    between atoms: C15_22  and  C16_23 
REMARK    5  A    between atoms: C16_23  and  C17_24 
REMARK    6  A    between atoms: C16_23  and  C19_26 
ROOT
HETATM    1  C3  UNL     1      -0.141  -0.705  -0.788  1.00  0.00     0.190 C 
HETATM    2  C4  UNL     1       0.918  -1.364  -0.004  1.00  0.00     0.048 A 
HETATM    3  C5  UNL     1       1.002  -2.650   0.497  1.00  0.00     0.072 A 
HETATM    4  N1  UNL     1       2.059  -3.081   1.217  1.00  0.00    -0.241 NA
HETATM    5  C6  UNL     1       3.060  -2.213   1.446  1.00  0.00     0.235 A 
HETATM    6  N2  UNL     1       3.015  -0.959   0.977  1.00  0.00    -0.223 NA
HETATM    7  C7  UNL     1       1.960  -0.499   0.248  1.00  0.00     0.144 A 
HETATM    8  C13 UNL     1       0.025  -3.727   0.360  1.00  0.00     0.056 C 
HETATM    9  C14 UNL     1      -1.231  -3.548  -0.026  1.00  0.00     0.137 C 
HETATM   10  O2  UNL     1      -1.891  -2.380  -0.371  1.00  0.00    -0.354 OA
HETATM   11  C15 UNL     1      -1.533  -1.032  -0.214  1.00  0.00     0.165 C 
ENDROOT
BRANCH   7  12
HETATM   12  N3  UNL     1       2.179   0.846  -0.147  1.00  0.00    -0.304 N 
HETATM   13  C8  UNL     1       2.496   1.509  -1.399  1.00  0.00     0.162 A 
HETATM   14  C9  UNL     1       2.640   2.964  -1.215  1.00  0.00     0.012 A 
HETATM   15  C10 UNL     1       2.520   3.734  -0.147  1.00  0.00     0.013 A 
HETATM   16 BR1  UNL     1       2.765   5.623  -0.199  1.00  0.00    -0.051 Br
HETATM   17  C11 UNL     1       2.191   2.996   1.067  1.00  0.00     0.080 A 
HETATM   18  C12 UNL     1       2.040   1.672   1.038  1.00  0.00     0.193 A 
HETATM   19  F1  UNL     1       1.736   1.238   2.311  1.00  0.00    -0.186 F 
ENDBRANCH   7  12
BRANCH   1  20
HETATM   20  O1  UNL     1      -0.215  -1.361  -1.995  1.00  0.00    -0.379 OA
BRANCH  20  21
HETATM   21  C2  UNL     1      -0.062  -0.697  -3.150  1.00  0.00     0.164 C 
HETATM   22  C1  UNL     1      -1.060   0.432  -3.402  1.00  0.00     0.033 C 
ENDBRANCH  20  21
ENDBRANCH   1  20
BRANCH  11  23
HETATM   23  C16 UNL     1      -1.853  -0.438   1.081  1.00  0.00     0.017 C 
BRANCH  23  24
HETATM   24  C17 UNL     1      -1.811   1.087   1.025  1.00  0.00     0.002 C 
HETATM   25  C18 UNL     1      -2.854   1.493  -0.017  1.00  0.00     0.005 C 
ENDBRANCH  23  24
BRANCH  23  26
HETATM   26  C19 UNL     1      -1.186  -0.899   2.312  1.00  0.00     0.002 C 
HETATM   27  C20 UNL     1      -1.673  -0.142   3.562  1.00  0.00     0.005 C 
ENDBRANCH  23  26
ENDBRANCH  11  23
TORSDOF 6
