REMARK  5 active torsions:
REMARK  status: ('A' for Active; 'I' for Inactive)
REMARK    1  A    between atoms: O1_2  and  C2_3 
REMARK    2  A    between atoms: C2_3  and  C14_20 
REMARK    3  A    between atoms: C3_4  and  C4_5 
REMARK    4  A    between atoms: C6_7  and  N1_8 
REMARK    5  A    between atoms: N1_8  and  C7_9 
ROOT
HETATM    1  C4  UNL     1       1.947  -1.216   0.668  1.00  0.00     0.064 A 
HETATM    2  C5  UNL     1       3.033  -0.424   1.026  1.00  0.00     0.082 A 
HETATM    3  C6  UNL     1       4.311  -0.901   1.202  1.00  0.00     0.131 A 
HETATM    4  N2  UNL     1       4.534  -2.207   1.017  1.00  0.00    -0.224 NA
HETATM    5  C13 UNL     1       3.503  -2.996   0.670  1.00  0.00     0.235 A 
HETATM    6  N3  UNL     1       2.279  -2.503   0.509  1.00  0.00    -0.242 NA
ENDROOT
BRANCH   1   7
HETATM    7  C3  UNL     1       0.627  -0.654   0.499  1.00  0.00     0.071 C 
HETATM    8  C2  UNL     1      -0.461  -1.198  -0.011  1.00  0.00     0.100 C 
BRANCH   8   9
HETATM    9  O1  UNL     1      -0.574  -2.483  -0.515  1.00  0.00    -0.353 OA
HETATM   10  C1  UNL     1      -0.783  -3.635   0.277  1.00  0.00     0.210 C 
ENDBRANCH   8   9
BRANCH   8  11
HETATM   11  C14 UNL     1      -1.643  -0.305  -0.022  1.00  0.00     0.087 C 
HETATM   12  C15 UNL     1      -2.707  -0.962  -0.563  1.00  0.00     0.089 C 
HETATM   13  C16 UNL     1      -4.122  -1.008  -0.980  1.00  0.00     0.161 C 
HETATM   14  C17 UNL     1      -4.594   0.247  -1.691  1.00  0.00     0.305 C 
HETATM   15  O3  UNL     1      -4.908  -1.271   0.126  1.00  0.00    -0.382 OA
HETATM   16  N4  UNL     1      -5.217   1.172  -0.825  1.00  0.00     0.093 N 
HETATM   17  C18 UNL     1      -4.592   1.724   0.295  1.00  0.00     0.274 C 
HETATM   18  C21 UNL     1      -6.472   0.507  -0.376  1.00  0.00     0.298 C 
HETATM   19  C19 UNL     1      -3.408   2.591   0.192  1.00  0.00     0.057 C 
HETATM   20  C20 UNL     1      -2.128   2.063  -0.308  1.00  0.00     0.177 C 
HETATM   21  O2  UNL     1      -1.532   1.037   0.493  1.00  0.00    -0.352 OA
HETATM   22  C22 UNL     1      -6.228  -0.953  -0.086  1.00  0.00     0.198 C 
ENDBRANCH   8  11
ENDBRANCH   1   7
BRANCH   3  23
HETATM   23  N1  UNL     1       5.285   0.073   1.581  1.00  0.00    -0.341 N 
HETATM   24  H6  UNL     1       5.300   0.263   2.619  1.00  0.00     0.167 HD
BRANCH  23  25
HETATM   25  C7  UNL     1       6.140   0.729   0.685  1.00  0.00     0.035 A 
HETATM   26  C8  UNL     1       6.141   0.245  -0.603  1.00  0.00     0.032 A 
HETATM   27  C9  UNL     1       6.934   0.801  -1.596  1.00  0.00     0.046 A 
HETATM   28  C10 UNL     1       7.721   1.876  -1.182  1.00  0.00     0.138 A 
HETATM   29  F1  UNL     1       8.511   2.459  -2.092  1.00  0.00    -0.204 F 
HETATM   30  C11 UNL     1       7.724   2.366   0.109  1.00  0.00     0.074 A 
HETATM   31 CL1  UNL     1       8.762   3.735   0.535  1.00  0.00    -0.081 Cl
HETATM   32  C12 UNL     1       6.927   1.792   1.062  1.00  0.00     0.056 A 
ENDBRANCH  23  25
ENDBRANCH   3  23
TORSDOF 5
