REMARK  2 active torsions:
REMARK  status: ('A' for Active; 'I' for Inactive)
REMARK    1  A    between atoms: C9_10  and  N1_11 
REMARK    2  A    between atoms: N1_11  and  C10_12 
ROOT
HETATM    1  C1  UNL     1      -6.417   0.310   0.510  1.00  0.00     0.012 C 
HETATM    2  C2  UNL     1      -5.052   0.202  -0.230  1.00  0.00     0.006 C 
HETATM    3  C3  UNL     1      -4.779  -1.239  -0.444  1.00  0.00     0.008 C 
HETATM    4  C4  UNL     1      -3.754  -1.560  -1.520  1.00  0.00     0.027 C 
HETATM    5  C5  UNL     1      -2.493  -0.805  -1.396  1.00  0.00     0.176 C 
HETATM    6  O1  UNL     1      -1.880  -1.111  -0.137  1.00  0.00    -0.348 OA
HETATM    7  C6  UNL     1      -0.779  -0.251   0.112  1.00  0.00     0.103 A 
HETATM    8  C7  UNL     1       0.577  -0.262   0.041  1.00  0.00     0.057 A 
HETATM    9  C8  UNL     1       1.249   0.871   0.402  1.00  0.00     0.042 A 
HETATM   10  C9  UNL     1       2.618   0.801   0.310  1.00  0.00     0.142 A 
HETATM   11  N2  UNL     1       3.296   1.893   0.658  1.00  0.00    -0.224 NA
HETATM   12  C16 UNL     1       2.671   2.993   1.072  1.00  0.00     0.236 A 
HETATM   13  N3  UNL     1       1.328   3.040   1.155  1.00  0.00    -0.241 NA
HETATM   14  C17 UNL     1       0.568   1.983   0.824  1.00  0.00     0.075 A 
HETATM   15  C18 UNL     1      -0.805   2.009   0.901  1.00  0.00     0.072 A 
HETATM   16  C19 UNL     1      -1.526   0.890   0.547  1.00  0.00     0.104 A 
HETATM   17  O2  UNL     1      -2.811   0.810   0.587  1.00  0.00    -0.348 OA
HETATM   18  C20 UNL     1      -4.085   0.833   0.831  1.00  0.00     0.180 C 
ENDROOT
BRANCH  10  19
HETATM   19  N1  UNL     1       3.263  -0.375  -0.132  1.00  0.00    -0.338 N 
HETATM   20  H12 UNL     1       2.714  -1.212  -0.396  1.00  0.00     0.167 HD
BRANCH  19  21
HETATM   21  C10 UNL     1       4.639  -0.644  -0.294  1.00  0.00     0.072 A 
HETATM   22  C11 UNL     1       5.621   0.274  -0.023  1.00  0.00     0.034 A 
HETATM   23  C12 UNL     1       6.975   0.064  -0.163  1.00  0.00     0.021 A 
HETATM   24  C13 UNL     1       7.419  -1.157  -0.610  1.00  0.00     0.014 A 
HETATM   25 BR1  UNL     1       9.265  -1.563  -0.843  1.00  0.00    -0.051 Br
HETATM   26  C14 UNL     1       6.476  -2.116  -0.898  1.00  0.00     0.063 A 
HETATM   27  C15 UNL     1       5.141  -1.844  -0.737  1.00  0.00     0.144 A 
HETATM   28  F1  UNL     1       4.267  -2.859  -1.047  1.00  0.00    -0.204 F 
ENDBRANCH  19  21
ENDBRANCH  10  19
TORSDOF 2
