REMARK  2 active torsions:
REMARK  status: ('A' for Active; 'I' for Inactive)
REMARK    1  A    between atoms: O1_2  and  C2_3 
REMARK    2  A    between atoms: C15_22  and  N5_23 
ROOT
HETATM    1  C2  UNL     1      -1.135   2.937  -1.042  1.00  0.00     0.254 C 
HETATM    2  C3  UNL     1      -2.047   2.405  -0.085  1.00  0.00    -0.043 C 
HETATM    3  C4  UNL     1      -2.789   1.953   0.686  1.00  0.00     0.035 C 
HETATM    4  N1  UNL     1      -3.659   1.399   1.584  1.00  0.00    -0.223 N 
HETATM    5  O2  UNL     1      -2.802   0.376   1.397  1.00  0.00    -0.272 OA
HETATM    6  C5  UNL     1      -3.341  -0.864   1.606  1.00  0.00     0.204 C 
HETATM    7  C6  UNL     1      -2.312  -1.933   1.256  1.00  0.00     0.071 C 
HETATM    8  C7  UNL     1      -1.876  -1.860  -0.186  1.00  0.00     0.278 C 
HETATM    9  N2  UNL     1      -3.005  -1.841  -1.092  1.00  0.00     0.096 N 
HETATM   10  C8  UNL     1      -2.443  -2.028  -2.440  1.00  0.00     0.297 C 
HETATM   11  C9  UNL     1      -1.750  -0.761  -2.891  1.00  0.00     0.205 C 
HETATM   12  O3  UNL     1      -1.048  -0.155  -1.784  1.00  0.00    -0.351 OA
HETATM   13  C10 UNL     1      -1.044  -0.684  -0.509  1.00  0.00     0.080 C 
HETATM   14  C11 UNL     1      -0.178   0.206  -0.056  1.00  0.00     0.052 C 
HETATM   15  C12 UNL     1       0.665   1.358  -0.286  1.00  0.00     0.039 A 
HETATM   16  C13 UNL     1       0.246   2.562  -0.729  1.00  0.00     0.090 A 
HETATM   17  N3  UNL     1       1.252   3.415  -0.855  1.00  0.00    -0.242 NA
HETATM   18  C14 UNL     1       2.529   3.117  -0.577  1.00  0.00     0.235 A 
HETATM   19  N4  UNL     1       2.948   1.897  -0.129  1.00  0.00    -0.225 NA
HETATM   20  C15 UNL     1       1.949   0.968   0.023  1.00  0.00     0.125 A 
HETATM   21  H5  UNL     1      -4.444   2.021   1.895  1.00  0.00     0.205 HD
HETATM   22  H11 UNL     1      -3.557  -0.977  -1.047  1.00  0.00     0.316 HD
ENDROOT
BRANCH  20  23
HETATM   23  N5  UNL     1       2.375  -0.304   0.494  1.00  0.00    -0.415 N 
HETATM   24  B1  UNL     1       3.069  -0.387   1.847  1.00  0.00     0.283 B 
HETATM   25  C16 UNL     1       3.516  -1.840   2.306  1.00  0.00     0.006 C 
HETATM   26  H18 UNL     1       3.030   0.495   2.632  1.00  0.00     0.000 HD
HETATM   27  C17 UNL     1       4.482  -1.789   3.448  1.00  0.00     0.007 C 
HETATM   28  C18 UNL     1       4.153  -2.441   1.074  1.00  0.00     0.006 C 
HETATM   29 CL1  UNL     1       5.697  -3.310   1.129  1.00  0.00    -0.090 Cl
HETATM   30  C19 UNL     1       3.511  -2.299  -0.081  1.00  0.00     0.010 C 
HETATM   31  C20 UNL     1       2.210  -1.582  -0.205  1.00  0.00     0.135 C 
ENDBRANCH  20  23
BRANCH   1  32
HETATM   32  O1  UNL     1      -1.302   4.327  -1.091  1.00  0.00    -0.372 OA
HETATM   33  C1  UNL     1      -1.701   4.770  -2.347  1.00  0.00     0.204 C 
ENDBRANCH   1  32
TORSDOF 2
