REMARK  7 active torsions:
REMARK  status: ('A' for Active; 'I' for Inactive)
REMARK    1  A    between atoms: O1_2  and  C2_3 
REMARK    2  A    between atoms: N3_9  and  C6_10 
REMARK    3  A    between atoms: C14_20  and  O2_21 
REMARK    4  A    between atoms: O2_21  and  C15_22 
REMARK    5  A    between atoms: C15_22  and  C16_23 
REMARK    6  A    between atoms: C16_23  and  C17_24 
REMARK    7  A    between atoms: C17_24  and  N4_25 
ROOT
HETATM    1  C2  UNL     1      -0.501  -2.044   1.903  1.00  0.00     0.103 A 
HETATM    2  C3  UNL     1      -1.719  -2.228   2.398  1.00  0.00     0.071 A 
HETATM    3  C4  UNL     1      -2.740  -1.305   1.913  1.00  0.00     0.083 A 
HETATM    4  N1  UNL     1      -3.939  -1.533   2.343  1.00  0.00    -0.180 NA
HETATM    5  N2  UNL     1      -4.957  -0.697   1.921  1.00  0.00    -0.295 N 
HETATM    6  C5  UNL     1      -4.837  -0.699   0.486  1.00  0.00     0.267 C 
HETATM    7  N3  UNL     1      -3.610  -0.075   0.002  1.00  0.00    -0.349 N 
HETATM    8  C12 UNL     1      -2.601  -0.150   0.988  1.00  0.00     0.166 A 
HETATM    9  C13 UNL     1      -1.198  -0.109   0.534  1.00  0.00     0.044 A 
HETATM   10  C14 UNL     1      -0.249  -0.968   0.954  1.00  0.00     0.100 A 
HETATM   11  H5  UNL     1      -5.675  -0.163   2.471  1.00  0.00     0.184 HD
ENDROOT
BRANCH  10  12
HETATM   12  O2  UNL     1       1.099  -0.950   0.543  1.00  0.00    -0.348 OA
BRANCH  12  13
HETATM   13  C15 UNL     1       1.496  -1.537  -0.678  1.00  0.00     0.177 C 
BRANCH  13  14
HETATM   14  C16 UNL     1       2.928  -1.281  -1.042  1.00  0.00     0.057 C 
BRANCH  14  15
HETATM   15  C17 UNL     1       3.244   0.182  -1.184  1.00  0.00     0.274 C 
BRANCH  15  16
HETATM   16  N4  UNL     1       3.002   0.898   0.054  1.00  0.00     0.092 N 
HETATM   17  C18 UNL     1       3.936   0.546   1.102  1.00  0.00     0.298 C 
HETATM   18  C19 UNL     1       5.140   1.463   1.096  1.00  0.00     0.198 C 
HETATM   19  O3  UNL     1       5.460   1.945  -0.166  1.00  0.00    -0.388 OA
HETATM   20  C20 UNL     1       4.451   2.652  -0.772  1.00  0.00     0.198 C 
HETATM   21  C21 UNL     1       3.111   2.329  -0.142  1.00  0.00     0.298 C 
ENDBRANCH  15  16
ENDBRANCH  14  15
ENDBRANCH  13  14
ENDBRANCH  12  13
ENDBRANCH  10  12
BRANCH   1  22
HETATM   22  O1  UNL     1       0.445  -2.939   2.376  1.00  0.00    -0.353 OA
HETATM   23  C1  UNL     1       1.688  -2.540   2.919  1.00  0.00     0.210 C 
ENDBRANCH   1  22
BRANCH   7  24
HETATM   24  C6  UNL     1      -3.742   0.431  -1.315  1.00  0.00     0.034 A 
HETATM   25  C7  UNL     1      -4.712  -0.095  -2.141  1.00  0.00     0.032 A 
HETATM   26  C8  UNL     1      -4.891   0.369  -3.431  1.00  0.00     0.046 A 
HETATM   27  C9  UNL     1      -4.101   1.375  -3.931  1.00  0.00     0.138 A 
HETATM   28  F1  UNL     1      -4.265   1.843  -5.201  1.00  0.00    -0.204 F 
HETATM   29  C10 UNL     1      -3.114   1.942  -3.153  1.00  0.00     0.074 A 
HETATM   30 CL1  UNL     1      -2.076   3.232  -3.742  1.00  0.00    -0.081 Cl
HETATM   31  C11 UNL     1      -2.987   1.435  -1.877  1.00  0.00     0.056 A 
ENDBRANCH   7  24
TORSDOF 7
