REMARK  4 active torsions:
REMARK  status: ('A' for Active; 'I' for Inactive)
REMARK    1  A    between atoms: C9_10  and  O1_11 
REMARK    2  A    between atoms: C14_17  and  O3_18 
REMARK       I    between atoms: N2_21  and  C17_22 
REMARK       I    between atoms: C17_22  and  N3_24 
REMARK    3  A    between atoms: N3_24  and  C18_25 
REMARK    4  A    between atoms: C18_25  and  C20_27 
ROOT
HETATM    1  C1  UNL     1      -2.852  -2.383   0.748  1.00  0.00     0.078 A 
HETATM    2  C2  UNL     1      -2.490  -1.902  -0.476  1.00  0.00    -0.013 A 
HETATM    3  C3  UNL     1      -1.145  -1.833  -0.288  1.00  0.00     0.078 A 
HETATM    4  C4  UNL     1      -1.101  -2.467  -1.532  1.00  0.00     0.056 A 
HETATM    5  C5  UNL     1      -2.257  -2.811  -2.248  1.00  0.00     0.114 A 
HETATM    6  N1  UNL     1      -3.527  -2.567  -1.814  1.00  0.00    -0.285 NA
HETATM    7  C6  UNL     1      -3.814  -1.964  -0.650  1.00  0.00     0.087 A 
HETATM    8  C7  UNL     1      -4.909  -1.426  -0.153  1.00  0.00     0.031 C 
HETATM    9  C8  UNL     1      -4.904  -0.380   0.956  1.00  0.00     0.054 C 
HETATM   10  C9  UNL     1      -3.512   0.151   1.026  1.00  0.00     0.118 A 
HETATM   11  C10 UNL     1      -2.401   0.436   1.748  1.00  0.00    -0.024 A 
HETATM   12  O2  UNL     1      -3.382  -0.082   2.569  1.00  0.00     0.000 OA
HETATM   13  C11 UNL     1      -3.784   0.557   3.770  1.00  0.00     0.000 C 
HETATM   14  C12 UNL     1      -1.199   0.998   1.115  1.00  0.00     0.092 C 
HETATM   15  C13 UNL     1      -0.748   2.278   1.647  1.00  0.00     0.021 C 
HETATM   16  C14 UNL     1       0.316   2.602   0.919  1.00  0.00     0.060 C 
HETATM   17  C16 UNL     1       0.943   1.847  -0.208  1.00  0.00     0.194 C 
HETATM   18  N2  UNL     1       0.938   0.439   0.151  1.00  0.00    -0.300 N 
HETATM   19  C17 UNL     1       1.847  -0.579  -0.313  1.00  0.00     0.321 C 
HETATM   20  O4  UNL     1       1.820  -1.806   0.030  1.00  0.00    -0.247 OA
HETATM   21  N3  UNL     1       2.908  -0.334  -1.229  1.00  0.00    -0.333 N 
HETATM   22  C23 UNL     1      -0.073  -0.032   1.074  1.00  0.00     0.246 C 
HETATM   23  O5  UNL     1      -0.448  -1.324   0.728  1.00  0.00    -0.324 OA
HETATM   24  H19 UNL     1       3.037   0.656  -1.592  1.00  0.00     0.165 HD
ENDROOT
BRANCH  16  25
HETATM   25  O3  UNL     1       0.930   3.805   1.249  1.00  0.00    -0.359 OA
HETATM   26  C15 UNL     1       0.619   5.041   0.658  1.00  0.00     0.209 C 
ENDBRANCH  16  25
BRANCH  21  27
HETATM   27  C18 UNL     1       3.814  -1.338  -1.693  1.00  0.00     0.141 C 
HETATM   28  C19 UNL     1       3.677  -1.459  -3.205  1.00  0.00     0.039 C 
BRANCH  27  29
HETATM   29  C20 UNL     1       5.215  -1.011  -1.343  1.00  0.00     0.097 A 
HETATM   30  N4  UNL     1       6.204  -1.457  -0.922  1.00  0.00    -0.256 NA
HETATM   31  C21 UNL     1       7.344  -0.820  -0.730  1.00  0.00     0.124 A 
HETATM   32  C22 UNL     1       7.392   0.596  -1.077  1.00  0.00     0.071 A 
HETATM   33  S1  UNL     1       5.608   0.816  -1.688  1.00  0.00    -0.083 SA
ENDBRANCH  27  29
ENDBRANCH  21  27
BRANCH  10  34
HETATM   34  O1  UNL     1      -3.292   0.548  -0.314  1.00  0.00    -0.382 OA
HETATM   35  H8  UNL     1      -3.530   1.490  -0.580  1.00  0.00     0.211 HD
ENDBRANCH  10  34
TORSDOF 4
