REMARK  6 active torsions:
REMARK  status: ('A' for Active; 'I' for Inactive)
REMARK    1  A    between atoms: O1_2  and  C2_3 
REMARK    2  A    between atoms: C8_11  and  O2_12 
REMARK    3  A    between atoms: O2_12  and  C9_13 
REMARK    4  A    between atoms: C9_13  and  C10_14 
REMARK    5  A    between atoms: C10_14  and  C11_15 
REMARK    6  A    between atoms: C11_15  and  N3_16 
ROOT
HETATM    1  C2  UNL     1      -3.104   0.435   0.178  1.00  0.00     0.100 C 
HETATM    2  C3  UNL     1      -4.350   0.222   0.644  1.00  0.00     0.046 C 
HETATM    3  C4  UNL     1      -4.576  -1.160   0.966  1.00  0.00     0.186 A 
HETATM    4  N1  UNL     1      -5.811  -1.806   0.950  1.00  0.00    -0.267 NA
HETATM    5  C5  UNL     1      -5.608  -2.991   0.430  1.00  0.00     0.228 A 
HETATM    6  N2  UNL     1      -4.223  -3.161   0.067  1.00  0.00    -0.244 NA
HETATM    7  C6  UNL     1      -3.586  -2.045   0.377  1.00  0.00     0.067 A 
HETATM    8  C7  UNL     1      -2.221  -1.798  -0.016  1.00  0.00     0.069 C 
HETATM    9  C8  UNL     1      -1.984  -0.478  -0.146  1.00  0.00     0.103 C 
ENDROOT
BRANCH   9  10
HETATM   10  O2  UNL     1      -0.750  -0.001  -0.564  1.00  0.00    -0.348 OA
BRANCH  10  11
HETATM   11  C9  UNL     1       0.015   0.831   0.289  1.00  0.00     0.177 C 
BRANCH  11  12
HETATM   12  C10 UNL     1       1.309   1.194  -0.437  1.00  0.00     0.057 C 
BRANCH  12  13
HETATM   13  C11 UNL     1       2.074  -0.053  -0.757  1.00  0.00     0.274 C 
BRANCH  13  14
HETATM   14  N3  UNL     1       3.322   0.169  -1.448  1.00  0.00     0.088 N 
HETATM   15  C12 UNL     1       4.057  -1.012  -1.764  1.00  0.00     0.272 C 
HETATM   16  C13 UNL     1       5.168  -1.016  -0.737  1.00  0.00     0.032 C 
HETATM   17  C14 UNL     1       5.545   0.461  -0.734  1.00  0.00     0.032 C 
HETATM   18  C15 UNL     1       4.165   1.129  -0.828  1.00  0.00     0.272 C 
ENDBRANCH  13  14
ENDBRANCH  12  13
ENDBRANCH  11  12
ENDBRANCH  10  11
ENDBRANCH   9  10
BRANCH   1  19
HETATM   19  O1  UNL     1      -2.781   1.772  -0.117  1.00  0.00    -0.353 OA
HETATM   20  C1  UNL     1      -3.578   2.846   0.284  1.00  0.00     0.210 C 
ENDBRANCH   1  19
TORSDOF 6
