REMARK  4 active torsions:
REMARK  status: ('A' for Active; 'I' for Inactive)
REMARK    1  A    between atoms: C2_2  and  C3_3 
REMARK    2  A    between atoms: C2_2  and  N2_8 
REMARK    3  A    between atoms: C3_3  and  S1_4 
REMARK       I    between atoms: N2_8  and  C6_9 
REMARK       I    between atoms: C6_9  and  N3_11 
REMARK    4  A    between atoms: N3_11  and  C7_12 
ROOT
HETATM    1  C7  UNL     1      -0.188  -2.010   0.195  1.00  0.00     0.064 C 
HETATM    2  C8  UNL     1      -1.038  -3.009  -0.180  1.00  0.00     0.031 C 
HETATM    3  C9  UNL     1      -2.477  -3.185  -0.343  1.00  0.00     0.026 C 
HETATM    4  C10 UNL     1      -3.615  -2.592  -0.250  1.00  0.00     0.135 C 
HETATM    5  O2  UNL     1      -4.461  -1.529   0.008  1.00  0.00    -0.361 OA
HETATM    6  C11 UNL     1      -5.243  -0.833  -0.872  1.00  0.00     0.200 C 
HETATM    7  C12 UNL     1      -5.878   0.450  -0.565  1.00  0.00     0.194 C 
HETATM    8  O3  UNL     1      -5.347   1.598  -0.239  1.00  0.00    -0.389 OA
HETATM    9  C13 UNL     1      -4.582   2.031   0.749  1.00  0.00     0.173 C 
HETATM   10  C14 UNL     1      -3.148   1.570   0.774  1.00  0.00     0.024 C 
HETATM   11  C15 UNL     1      -2.342   2.247  -0.290  1.00  0.00     0.038 A 
HETATM   12  C16 UNL     1      -1.497   2.106  -1.370  1.00  0.00    -0.022 A 
HETATM   13  C17 UNL     1      -1.815   0.768  -0.880  1.00  0.00     0.177 A 
HETATM   14  O4  UNL     1      -0.685   0.157  -0.412  1.00  0.00    -0.357 OA
HETATM   15  C18 UNL     1      -0.887  -0.792   0.535  1.00  0.00     0.294 C 
HETATM   16  N4  UNL     1      -0.401  -0.049   1.731  1.00  0.00    -0.268 NA
HETATM   17  C19 UNL     1      -1.226   0.898   2.142  1.00  0.00     0.087 C 
HETATM   18  C20 UNL     1      -2.477   1.762   2.136  1.00  0.00     0.054 C 
ENDROOT
BRANCH   1  19
HETATM   19  N3  UNL     1       1.202  -1.955   0.315  1.00  0.00    -0.308 N 
HETATM   20  C6  UNL     1       2.015  -1.061  -0.432  1.00  0.00     0.321 C 
HETATM   21  N2  UNL     1       3.409  -1.158  -0.169  1.00  0.00    -0.328 N 
HETATM   22  O1  UNL     1       1.768  -0.193  -1.285  1.00  0.00    -0.247 OA
HETATM   23  H9  UNL     1       3.797  -1.851   0.535  1.00  0.00     0.165 HD
HETATM   24  H10 UNL     1       1.590  -2.619   0.993  1.00  0.00     0.170 HD
BRANCH  21  25
HETATM   25  C2  UNL     1       4.437  -0.335  -0.824  1.00  0.00     0.160 C 
HETATM   26  C1  UNL     1       5.347  -1.270  -1.622  1.00  0.00     0.046 C 
BRANCH  25  27
HETATM   27  C3  UNL     1       5.179   0.351   0.174  1.00  0.00    -0.079 C 
BRANCH  27  28
HETATM   28  S1  UNL     1       5.830   0.973   1.040  1.00  0.00     0.012 SA
HETATM   29  C4  UNL     1       6.584   1.715   2.086  1.00  0.00     0.128 A 
HETATM   30  C5  UNL     1       7.602   1.571   1.222  1.00  0.00     0.292 A 
HETATM   31  N1  UNL     1       7.527   0.905  -0.059  1.00  0.00    -0.016 N 
HETATM   32  H7  UNL     1       7.222   0.865  -1.071  1.00  0.00     0.292 HD
HETATM   33  H8  UNL     1       7.222   0.866  -1.068  1.00  0.00     0.292 HD
ENDBRANCH  27  28
ENDBRANCH  25  27
ENDBRANCH  21  25
ENDBRANCH   1  19
TORSDOF 4
