REMARK  0 active torsions:
REMARK  status: ('A' for Active; 'I' for Inactive)
ROOT
HETATM    1  C1  UNL     1      -1.618   4.161   2.090  1.00  0.00     0.066 C 
HETATM    2  C2  UNL     1      -1.362   2.760   1.680  1.00  0.00    -0.010 C 
HETATM    3  C3  UNL     1      -2.301   1.838   1.452  1.00  0.00    -0.001 C 
HETATM    4  C4  UNL     1      -3.755   1.916   1.533  1.00  0.00     0.056 C 
HETATM    5  C5  UNL     1      -4.567   1.724   0.315  1.00  0.00     0.181 C 
HETATM    6  O1  UNL     1      -4.389   0.530  -0.326  1.00  0.00    -0.333 OA
HETATM    7  C6  UNL     1      -3.336  -0.047  -0.960  1.00  0.00     0.178 A 
HETATM    8  N1  UNL     1      -3.401   0.703  -2.076  1.00  0.00    -0.217 NA
HETATM    9  C7  UNL     1      -2.579   0.600  -3.134  1.00  0.00     0.236 A 
HETATM   10  N2  UNL     1      -1.625  -0.335  -3.043  1.00  0.00    -0.241 NA
HETATM   11  C8  UNL     1      -1.513  -1.101  -1.971  1.00  0.00     0.073 A 
HETATM   12  C9  UNL     1      -0.499  -2.061  -1.880  1.00  0.00     0.039 A 
HETATM   13  C10 UNL     1      -0.282  -2.906  -0.787  1.00  0.00    -0.056 A 
HETATM   14  C11 UNL     1      -1.145  -2.774   0.275  1.00  0.00     0.008 A 
HETATM   15  C12 UNL     1      -2.142  -1.834   0.190  1.00  0.00     0.019 A 
HETATM   16  C13 UNL     1      -2.351  -1.002  -0.885  1.00  0.00     0.046 A 
HETATM   17  C14 UNL     1       0.921  -3.782  -0.976  1.00  0.00     0.040 C 
HETATM   18  C15 UNL     1       2.126  -2.866  -1.251  1.00  0.00     0.024 C 
HETATM   19  C16 UNL     1       2.222  -1.998  -0.009  1.00  0.00     0.123 C 
HETATM   20  N3  UNL     1       3.133  -0.893  -0.174  1.00  0.00    -0.382 N 
HETATM   21  C17 UNL     1       4.364  -0.580  -0.866  1.00  0.00     0.123 C 
HETATM   22  C18 UNL     1       5.168   0.092   0.240  1.00  0.00     0.026 C 
HETATM   23  C19 UNL     1       4.084   0.914   0.956  1.00  0.00     0.061 C 
HETATM   24  C20 UNL     1       2.811   0.311   0.511  1.00  0.00     0.043 C 
HETATM   25  C21 UNL     1       1.571   0.628   0.609  1.00  0.00     0.130 A 
HETATM   26  F1  UNL     1       0.361   0.186   0.261  1.00  0.00    -0.335 F 
HETATM   27  C22 UNL     1       0.591   1.554   1.088  1.00  0.00     0.489 A 
HETATM   28  N4  UNL     1       0.035   2.540   1.626  1.00  0.00    -0.384 NA
ENDROOT
TORSDOF 0
