REMARK  6 active torsions:
REMARK  status: ('A' for Active; 'I' for Inactive)
REMARK    1  A    between atoms: N1_5  and  C5_6 
REMARK    2  A    between atoms: C5_6  and  C6_7 
REMARK    3  A    between atoms: C6_7  and  O1_8 
REMARK    4  A    between atoms: C6_7  and  C7_9 
REMARK    5  A    between atoms: C7_9  and  N2_10 
REMARK    6  A    between atoms: C12_16  and  C14_19 
ROOT
HETATM    1  C1  UNL     1      -2.022   3.813   1.556  1.00  0.00     0.067 C 
HETATM    2  C2  UNL     1      -1.303   2.649   1.046  1.00  0.00     0.001 C 
HETATM    3  C3  UNL     1      -0.001   2.513   0.874  1.00  0.00     0.027 C 
HETATM    4  C4  UNL     1       0.753   1.318   0.348  1.00  0.00     0.306 C 
HETATM    5  N1  UNL     1      -0.013   0.276  -0.171  1.00  0.00     0.131 NA
HETATM    6  C12 UNL     1      -1.458   0.392  -0.156  1.00  0.00     0.293 C 
HETATM    7  C13 UNL     1      -1.810   0.640  -1.613  1.00  0.00     0.461 C 
HETATM    8  O3  UNL     1      -2.130   0.905  -2.774  1.00  0.00    -0.426 OA
HETATM    9  N4  UNL     1      -1.974   1.457   0.654  1.00  0.00    -0.353 N 
HETATM   10  H27 UNL     1      -2.961   1.302   0.973  1.00  0.00     0.162 HD
ENDROOT
BRANCH   6  11
HETATM   11  C14 UNL     1      -2.047  -0.921   0.269  1.00  0.00     0.036 A 
HETATM   12  C15 UNL     1      -1.586  -2.038   0.807  1.00  0.00     0.089 A 
HETATM   13  C16 UNL     1      -2.603  -3.056   1.035  1.00  0.00     0.252 A 
HETATM   14  O4  UNL     1      -2.366  -4.177   1.533  1.00  0.00    -0.268 OA
HETATM   15  N3  UNL     1      -3.810  -2.469   0.578  1.00  0.00    -0.289 N 
HETATM   16  C17 UNL     1      -5.115  -3.016   0.562  1.00  0.00     0.099 A 
HETATM   17  C21 UNL     1      -3.498  -1.166   0.105  1.00  0.00     0.052 A 
HETATM   18  C18 UNL     1      -6.126  -2.321   0.093  1.00  0.00     0.032 A 
HETATM   19  C19 UNL     1      -5.962  -0.944  -0.439  1.00  0.00     0.219 A 
HETATM   20  F1  UNL     1      -6.857  -0.115   0.195  1.00  0.00    -0.241 F 
HETATM   21  C20 UNL     1      -4.565  -0.496  -0.369  1.00  0.00     0.044 A 
ENDBRANCH   6  11
BRANCH   5  22
HETATM   22  C5  UNL     1       0.466  -0.200  -1.433  1.00  0.00     0.309 C 
BRANCH  22  23
HETATM   23  C6  UNL     1       1.737  -0.945  -1.502  1.00  0.00     0.174 C 
BRANCH  23  24
HETATM   24  O1  UNL     1       1.846  -2.094  -0.763  1.00  0.00    -0.392 OA
HETATM   25  H10 UNL     1       1.658  -1.968   0.195  1.00  0.00     0.210 HD
ENDBRANCH  23  24
BRANCH  23  26
HETATM   26  C7  UNL     1       3.019  -0.184  -1.562  1.00  0.00     0.305 C 
BRANCH  26  27
HETATM   27  N2  UNL     1       3.615   0.194  -0.327  1.00  0.00     0.095 N 
HETATM   28  C8  UNL     1       4.743   1.120  -0.546  1.00  0.00     0.298 C 
HETATM   29  C9  UNL     1       5.268   1.455   0.840  1.00  0.00     0.198 C 
HETATM   30  O2  UNL     1       5.979   0.346   1.290  1.00  0.00    -0.388 OA
HETATM   31  C10 UNL     1       5.610  -0.820   0.679  1.00  0.00     0.198 C 
HETATM   32  C11 UNL     1       4.119  -0.957   0.423  1.00  0.00     0.298 C 
ENDBRANCH  26  27
ENDBRANCH  23  26
ENDBRANCH  22  23
ENDBRANCH   5  22
TORSDOF 6
