REMARK  4 active torsions:
REMARK  status: ('A' for Active; 'I' for Inactive)
REMARK    1  A    between atoms: C2_2  and  N1_3 
REMARK    2  A    between atoms: N2_6  and  C5_7 
REMARK    3  A    between atoms: C5_7  and  C6_8 
REMARK    4  A    between atoms: C18_25  and  N7_26 
ROOT
HETATM    1  C6  UNL     1      -0.910  -0.802  -0.572  1.00  0.00    -0.012 C 
HETATM    2  C7  UNL     1      -0.611  -1.886   0.165  1.00  0.00     0.097 C 
HETATM    3  N3  UNL     1       0.663  -1.430   0.752  1.00  0.00    -0.363 N 
HETATM    4  C8  UNL     1       1.520  -2.099  -0.247  1.00  0.00     0.152 C 
HETATM    5  C9  UNL     1       1.037  -1.598  -1.571  1.00  0.00     0.008 C 
HETATM    6  C10 UNL     1       0.100  -0.596  -1.643  1.00  0.00     0.012 C 
HETATM    7  C11 UNL     1       0.813  -0.014  -2.772  1.00  0.00     0.157 C 
HETATM    8  F1  UNL     1       0.605  -0.422  -4.037  1.00  0.00    -0.203 F 
HETATM    9  C12 UNL     1       1.618   0.924  -2.214  1.00  0.00     0.099 C 
HETATM   10  C13 UNL     1       1.590   1.136  -0.757  1.00  0.00     0.148 C 
HETATM   11  C14 UNL     1       2.750   0.601  -0.019  1.00  0.00     0.130 C 
HETATM   12  N4  UNL     1       2.696  -0.181   0.978  1.00  0.00    -0.249 NA
HETATM   13  C15 UNL     1       1.588  -0.756   1.661  1.00  0.00     0.205 C 
HETATM   14  C16 UNL     1       0.837   0.151   2.575  1.00  0.00     0.057 C 
HETATM   15  N5  UNL     1       4.117   0.870  -0.269  1.00  0.00    -0.227 NA
HETATM   16  C17 UNL     1       4.696   0.880  -1.404  1.00  0.00     0.237 C 
HETATM   17  N6  UNL     1       4.355   0.671  -2.733  1.00  0.00    -0.225 NA
HETATM   18  C18 UNL     1       5.035   0.022  -3.581  1.00  0.00     0.126 C 
HETATM   19  C20 UNL     1       3.990   0.330  -4.528  1.00  0.00     0.074 C 
HETATM   20  C21 UNL     1       2.907   1.014  -4.268  1.00  0.00     0.146 C 
HETATM   21  O1  UNL     1       2.424   1.616  -3.138  1.00  0.00    -0.323 OA
ENDROOT
BRANCH   1  22
HETATM   22  C5  UNL     1      -2.077   0.132  -0.504  1.00  0.00     0.158 C 
BRANCH  22  23
HETATM   23  N2  UNL     1      -3.022  -0.242   0.490  1.00  0.00    -0.405 N 
HETATM   24  C4  UNL     1      -2.664  -0.148   1.836  1.00  0.00     0.147 C 
HETATM   25  C3  UNL     1      -3.749   0.035   2.835  1.00  0.00     0.291 C 
HETATM   26  N1  UNL     1      -5.089  -0.077   2.320  1.00  0.00     0.091 N 
HETATM   27  C23 UNL     1      -5.142   0.776   1.153  1.00  0.00     0.291 C 
HETATM   28  C22 UNL     1      -4.372  -0.017   0.104  1.00  0.00     0.147 C 
BRANCH  26  29
HETATM   29  C2  UNL     1      -6.054   0.220   3.319  1.00  0.00     0.268 C 
HETATM   30  C1  UNL     1      -6.105   1.642   3.777  1.00  0.00     0.037 C 
ENDBRANCH  26  29
ENDBRANCH  22  23
ENDBRANCH   1  22
BRANCH  18  31
HETATM   31  N7  UNL     1       6.229  -0.707  -3.723  1.00  0.00    -0.379 N 
HETATM   32  C19 UNL     1       6.927  -0.650  -2.453  1.00  0.00     0.147 C 
HETATM   33  H23 UNL     1       6.335  -1.102  -4.669  1.00  0.00     0.160 HD
ENDBRANCH  18  31
TORSDOF 4
