REMARK  11 active torsions:
REMARK  status: ('A' for Active; 'I' for Inactive)
REMARK    1  A    between atoms: C2_2  and  C3_3 
REMARK    2  A    between atoms: C2_2  and  C14_21 
REMARK    3  A    between atoms: C3_3  and  C4_4 
REMARK    4  A    between atoms: C4_4  and  N1_5 
REMARK       I    between atoms: N1_5  and  C5_6 
REMARK    5  A    between atoms: C5_6  and  C6_8 
REMARK    6  A    between atoms: C6_8  and  C7_9 
REMARK    7  A    between atoms: C6_8  and  P1_18 
REMARK    8  A    between atoms: C8_10  and  C9_11 
REMARK    9  A    between atoms: C9_11  and  O2_12 
REMARK   10  A    between atoms: O2_12  and  C10_13 
REMARK   11  A    between atoms: P1_18  and  N4_19 
ROOT
HETATM    1  C6  UNL     1      -0.405   1.628  -0.032  1.00  0.00     0.057 C 
ENDROOT
BRANCH   1   2
HETATM    2  C5  UNL     1       0.811   1.017   0.477  1.00  0.00     0.257 C 
HETATM    3  N1  UNL     1       1.337  -0.274   0.341  1.00  0.00    -0.333 N 
HETATM    4  H5  UNL     1       0.770  -0.934  -0.224  1.00  0.00     0.168 HD
HETATM    5  O1  UNL     1       1.629   1.689   1.194  1.00  0.00    -0.267 OA
BRANCH   3   6
HETATM    6  C4  UNL     1       2.577  -0.572   0.973  1.00  0.00     0.092 C 
BRANCH   6   7
HETATM    7  C3  UNL     1       3.653  -0.970   0.291  1.00  0.00     0.032 C 
BRANCH   7   8
HETATM    8  C2  UNL     1       4.957  -1.298   0.817  1.00  0.00     0.039 C 
HETATM    9  C1  UNL     1       5.984  -1.688   0.071  1.00  0.00     0.028 C 
BRANCH   8  10
HETATM   10  C14 UNL     1       5.055  -1.159   2.300  1.00  0.00     0.416 C 
HETATM   11  F1  UNL     1       4.154  -1.991   2.941  1.00  0.00    -0.166 F 
HETATM   12  F2  UNL     1       6.332  -1.559   2.658  1.00  0.00    -0.166 F 
HETATM   13  F3  UNL     1       4.819   0.152   2.693  1.00  0.00    -0.166 F 
ENDBRANCH   8  10
ENDBRANCH   7   8
ENDBRANCH   6   7
ENDBRANCH   3   6
ENDBRANCH   1   2
BRANCH   1  14
HETATM   14  C7  UNL     1      -1.446   1.064  -0.844  1.00  0.00     0.017 C 
HETATM   15  C8  UNL     1      -1.857  -0.021  -1.463  1.00  0.00     0.000 C 
BRANCH  15  16
HETATM   16  C9  UNL     1      -3.002  -0.466  -2.295  1.00  0.00     0.198 C 
BRANCH  16  17
HETATM   17  O2  UNL     1      -3.623  -1.528  -1.632  1.00  0.00    -0.356 OA
BRANCH  17  18
HETATM   18  C10 UNL     1      -4.713  -2.007  -2.337  1.00  0.00     0.287 A 
HETATM   19  C11 UNL     1      -5.887  -1.902  -1.435  1.00  0.00     0.146 A 
HETATM   20  N2  UNL     1      -6.353  -3.102  -1.201  1.00  0.00    -0.254 NA
HETATM   21  C12 UNL     1      -5.539  -4.043  -1.913  1.00  0.00     0.229 A 
HETATM   22  N3  UNL     1      -4.611  -3.431  -2.557  1.00  0.00    -0.246 NA
ENDBRANCH  17  18
ENDBRANCH  16  17
ENDBRANCH  15  16
ENDBRANCH   1  14
BRANCH   1  23
HETATM   23  P1  UNL     1      -0.624   3.243   0.398  1.00  0.00     0.044 P 
BRANCH  23  24
HETATM   24  N4  UNL     1       0.644   3.967   1.399  1.00  0.00    -0.295 NA
HETATM   25  C13 UNL     1       0.666   5.410   1.334  1.00  0.00     0.113 C 
HETATM   26  H13 UNL     1       0.703   3.596   2.355  1.00  0.00     0.126 HD
ENDBRANCH  23  24
ENDBRANCH   1  23
TORSDOF 11
