REMARK  0 active torsions:
REMARK  status: ('A' for Active; 'I' for Inactive)
ROOT
HETATM    1  C1  UNL     1      -1.567   3.165  -2.017  1.00  0.00     0.068 C 
HETATM    2  C2  UNL     1      -1.014   2.225  -0.976  1.00  0.00     0.007 C 
HETATM    3  C3  UNL     1       0.028   2.635  -0.267  1.00  0.00     0.024 C 
HETATM    4  C4  UNL     1       1.010   2.354   0.786  1.00  0.00     0.197 C 
HETATM    5  O1  UNL     1       2.302   2.402   0.274  1.00  0.00    -0.386 OA
HETATM    6  C5  UNL     1       3.244   2.205   1.285  1.00  0.00     0.198 C 
HETATM    7  C6  UNL     1       4.650   2.218   0.693  1.00  0.00     0.295 C 
HETATM    8  N1  UNL     1       4.785   1.136  -0.278  1.00  0.00     0.085 N 
HETATM    9  C7  UNL     1       4.777  -0.152   0.392  1.00  0.00     0.271 C 
HETATM   10  C8  UNL     1       4.743  -1.227  -0.667  1.00  0.00     0.050 C 
HETATM   11  C9  UNL     1       4.749  -2.609  -0.040  1.00  0.00     0.124 C 
HETATM   12  N2  UNL     1       3.696  -2.742   0.949  1.00  0.00    -0.361 N 
HETATM   13  C10 UNL     1       2.315  -2.574   0.820  1.00  0.00     0.221 C 
HETATM   14  O2  UNL     1       2.237  -2.268  -0.394  1.00  0.00    -0.273 OA
HETATM   15  C11 UNL     1       0.877  -2.499   1.101  1.00  0.00     0.129 C 
HETATM   16  C12 UNL     1       0.142  -1.957  -0.102  1.00  0.00    -0.019 C 
HETATM   17  C13 UNL     1      -0.628  -0.941  -0.436  1.00  0.00     0.005 C 
HETATM   18  C14 UNL     1      -1.418  -0.242  -1.487  1.00  0.00     0.204 C 
HETATM   19  C15 UNL     1      -2.500  -1.152  -1.939  1.00  0.00     0.249 C 
HETATM   20  O3  UNL     1      -2.390  -1.557  -3.152  1.00  0.00    -0.271 OA
HETATM   21  N3  UNL     1      -3.697  -1.748  -1.396  1.00  0.00    -0.324 N 
HETATM   22  C16 UNL     1      -4.553  -1.250  -0.344  1.00  0.00     0.045 A 
HETATM   23  C17 UNL     1      -5.219  -2.350   0.130  1.00  0.00     0.033 A 
HETATM   24  C18 UNL     1      -6.120  -2.154   1.161  1.00  0.00     0.044 A 
HETATM   25  C19 UNL     1      -6.373  -0.915   1.723  1.00  0.00     0.117 A 
HETATM   26  F1  UNL     1      -7.253  -0.718   2.731  1.00  0.00    -0.206 F 
HETATM   27  C20 UNL     1      -5.703   0.209   1.250  1.00  0.00     0.056 A 
HETATM   28  C21 UNL     1      -4.821  -0.001   0.236  1.00  0.00    -0.005 A 
HETATM   29  C22 UNL     1      -4.244   1.293  -0.105  1.00  0.00     0.031 C 
HETATM   30  C23 UNL     1      -3.064   1.680  -0.617  1.00  0.00     0.093 C 
HETATM   31  N4  UNL     1      -1.857   1.051  -1.056  1.00  0.00    -0.344 N 
HETATM   32  H11 UNL     1       5.759   1.237  -0.670  1.00  0.00     0.315 HD
HETATM   33  H18 UNL     1       3.400  -2.949   1.924  1.00  0.00     0.162 HD
HETATM   34  H24 UNL     1      -4.015  -2.660  -1.789  1.00  0.00     0.169 HD
ENDROOT
TORSDOF 0
