REMARK  3 active torsions:
REMARK  status: ('A' for Active; 'I' for Inactive)
REMARK    1  A    between atoms: C6_6  and  N1_7 
REMARK    2  A    between atoms: N4_15  and  C12_16 
REMARK    3  A    between atoms: C12_16  and  C13_17 
ROOT
HETATM    1  N1  UNL     1      -1.870  -0.065  -0.223  1.00  0.00    -0.326 N 
HETATM    2  C7  UNL     1      -1.275  -1.349   0.141  1.00  0.00     0.160 A 
HETATM    3  C8  UNL     1       0.104  -1.291  -0.360  1.00  0.00     0.028 A 
HETATM    4  C9  UNL     1       0.331  -0.132  -0.953  1.00  0.00     0.097 A 
HETATM    5  C10 UNL     1      -0.871   0.692  -0.906  1.00  0.00     0.160 A 
HETATM    6  N2  UNL     1      -0.809   1.853  -1.445  1.00  0.00    -0.220 NA
HETATM    7  C11 UNL     1       0.390   2.316  -2.066  1.00  0.00     0.257 A 
HETATM    8  N3  UNL     1       1.472   1.607  -2.123  1.00  0.00    -0.165 NA
HETATM    9  N4  UNL     1       1.526   0.307  -1.561  1.00  0.00    -0.261 N 
ENDROOT
BRANCH   9  10
HETATM   10  C12 UNL     1       2.790  -0.367  -1.675  1.00  0.00     0.189 C 
BRANCH  10  11
HETATM   11  C13 UNL     1       3.521  -0.518  -0.402  1.00  0.00    -0.020 A 
HETATM   12  C14 UNL     1       4.744   0.018  -0.234  1.00  0.00     0.109 A 
HETATM   13  O1  UNL     1       5.740   0.767  -0.871  1.00  0.00    -0.323 OA
HETATM   14  C16 UNL     1       5.306  -0.233   1.082  1.00  0.00     0.102 A 
HETATM   15  C15 UNL     1       6.932   0.717  -0.151  1.00  0.00     0.352 C 
HETATM   16  O2  UNL     1       6.557   0.360   1.146  1.00  0.00    -0.323 OA
HETATM   17  C17 UNL     1       4.424  -0.934   1.738  1.00  0.00     0.017 A 
HETATM   18  C18 UNL     1       3.241  -1.177   0.886  1.00  0.00     0.069 A 
ENDBRANCH  10  11
ENDBRANCH   9  10
BRANCH   1  19
HETATM   19  C6  UNL     1      -3.200   0.358   0.049  1.00  0.00     0.036 A 
HETATM   20  C5  UNL     1      -3.704   1.593  -0.320  1.00  0.00     0.029 A 
HETATM   21  C4  UNL     1      -4.996   1.979  -0.044  1.00  0.00     0.003 A 
HETATM   22  C3  UNL     1      -5.832   1.121   0.619  1.00  0.00     0.007 A 
HETATM   23  C2  UNL     1      -5.369  -0.119   1.004  1.00  0.00    -0.060 A 
HETATM   24  C1  UNL     1      -6.153  -1.172   1.738  1.00  0.00     0.048 C 
HETATM   25  C19 UNL     1      -4.055  -0.501   0.720  1.00  0.00     0.036 A 
ENDBRANCH   1  19
TORSDOF 3
