REMARK  7 active torsions:
REMARK  status: ('A' for Active; 'I' for Inactive)
REMARK    1  A    between atoms: N1_2  and  C3_4 
REMARK    2  A    between atoms: C3_4  and  C4_5 
REMARK    3  A    between atoms: C5_6  and  C6_7 
REMARK       I    between atoms: C6_7  and  N2_9 
REMARK    4  A    between atoms: N2_9  and  C7_10 
REMARK    5  A    between atoms: C10_13  and  C11_14 
REMARK    6  A    between atoms: C19_26  and  O2_27 
REMARK    7  A    between atoms: O2_27  and  C20_28 
ROOT
HETATM    1  C7  UNL     1      -0.929   0.344   0.635  1.00  0.00     0.069 A 
HETATM    2  C8  UNL     1      -1.218  -1.001   0.709  1.00  0.00     0.048 A 
HETATM    3  C9  UNL     1      -2.342  -1.531   1.254  1.00  0.00     0.025 A 
HETATM    4  C10 UNL     1      -2.600  -2.885   1.313  1.00  0.00     0.082 A 
HETATM    5  N3  UNL     1      -3.729  -3.345   1.866  1.00  0.00    -0.240 NA
HETATM    6  C16 UNL     1      -4.658  -2.529   2.386  1.00  0.00     0.234 A 
HETATM    7  N4  UNL     1      -4.423  -1.198   2.338  1.00  0.00    -0.241 NA
HETATM    8  C17 UNL     1      -3.307  -0.694   1.794  1.00  0.00     0.073 A 
HETATM    9  C18 UNL     1      -3.050   0.668   1.738  1.00  0.00     0.071 A 
HETATM   10  C19 UNL     1      -1.898   1.180   1.177  1.00  0.00     0.098 A 
ENDROOT
BRANCH   1  11
HETATM   11  N2  UNL     1       0.231   0.920   0.061  1.00  0.00    -0.321 N 
HETATM   12  C6  UNL     1       1.298   0.313  -0.615  1.00  0.00     0.245 C 
HETATM   13  O1  UNL     1       1.264  -0.926  -0.764  1.00  0.00    -0.268 OA
HETATM   14  H11 UNL     1       0.338   1.965   0.139  1.00  0.00     0.169 HD
BRANCH  12  15
HETATM   15  C5  UNL     1       2.416   1.073  -1.135  1.00  0.00     0.072 C 
HETATM   16  C4  UNL     1       3.440   0.559  -1.789  1.00  0.00     0.008 C 
BRANCH  16  17
HETATM   17  C3  UNL     1       3.908  -0.752  -2.245  1.00  0.00     0.299 C 
BRANCH  17  18
HETATM   18  N1  UNL     1       4.075  -0.834  -3.680  1.00  0.00     0.083 N 
HETATM   19  C1  UNL     1       4.524  -2.202  -3.950  1.00  0.00     0.309 C 
HETATM   20  C2  UNL     1       5.062   0.075  -4.183  1.00  0.00     0.309 C 
ENDBRANCH  17  18
ENDBRANCH  16  17
ENDBRANCH  12  15
ENDBRANCH   1  11
BRANCH  10  21
HETATM   21  O2  UNL     1      -1.683   2.518   1.141  1.00  0.00    -0.341 OA
BRANCH  21  22
HETATM   22  C20 UNL     1      -2.423   3.589   1.581  1.00  0.00     0.154 C 
HETATM   23  C21 UNL     1      -1.669   4.446   2.610  1.00  0.00     0.061 C 
HETATM   24  C22 UNL     1      -2.453   5.737   2.475  1.00  0.00     0.170 C 
HETATM   25  O3  UNL     1      -2.940   5.827   1.202  1.00  0.00    -0.389 OA
HETATM   26  C23 UNL     1      -2.680   4.642   0.530  1.00  0.00     0.200 C 
ENDBRANCH  21  22
ENDBRANCH  10  21
BRANCH   4  27
HETATM   27  C11 UNL     1      -1.616  -3.836   0.768  1.00  0.00     0.010 C 
HETATM   28  C12 UNL     1      -1.151  -4.440  -0.298  1.00  0.00     0.031 C 
HETATM   29  C13 UNL     1      -0.279  -5.380  -0.025  1.00  0.00     0.150 C 
HETATM   30  F1  UNL     1       0.099  -6.178  -1.078  1.00  0.00    -0.203 F 
HETATM   31  C14 UNL     1       0.044  -5.288   1.397  1.00  0.00     0.074 C 
HETATM   32 CL1  UNL     1       1.290  -6.331   2.040  1.00  0.00    -0.081 Cl
HETATM   33  C15 UNL     1      -0.776  -4.343   1.878  1.00  0.00     0.042 C 
ENDBRANCH   4  27
TORSDOF 7
