REMARK  3 active torsions:
REMARK  status: ('A' for Active; 'I' for Inactive)
REMARK    1  A    between atoms: C4_4  and  O1_5 
REMARK    2  A    between atoms: O1_5  and  C5_6 
REMARK    3  A    between atoms: C20_24  and  O3_25 
ROOT
HETATM    1  C1  UNL     1      -0.469  -2.891  -1.716  1.00  0.00     0.024 C 
HETATM    2  C2  UNL     1      -0.037  -1.892  -0.983  1.00  0.00    -0.031 C 
HETATM    3  C3  UNL     1       1.366  -1.516  -0.936  1.00  0.00     0.075 C 
HETATM    4  C4  UNL     1       1.677  -0.476  -0.181  1.00  0.00     0.188 C 
HETATM    5  O2  UNL     1       0.746   0.261   0.588  1.00  0.00    -0.300 OA
HETATM    6  C11 UNL     1      -0.448  -0.457   0.986  1.00  0.00     0.262 C 
HETATM    7  C12 UNL     1      -0.977  -1.137  -0.240  1.00  0.00    -0.004 C 
HETATM    8  C13 UNL     1      -2.228  -1.026  -0.742  1.00  0.00    -0.014 C 
HETATM    9  C14 UNL     1      -3.612  -0.529  -0.666  1.00  0.00     0.000 C 
HETATM   10  C15 UNL     1      -4.485   0.188   0.098  1.00  0.00     0.033 C 
HETATM   11  C16 UNL     1      -4.153   0.841   1.442  1.00  0.00     0.023 C 
HETATM   12  C17 UNL     1      -3.602  -0.202   2.371  1.00  0.00     0.027 C 
HETATM   13  C18 UNL     1      -2.132  -0.032   2.696  1.00  0.00     0.120 C 
HETATM   14  N1  UNL     1      -1.437   0.368   1.536  1.00  0.00    -0.381 N 
HETATM   15  C19 UNL     1      -1.765   1.591   0.937  1.00  0.00     0.151 C 
HETATM   16  C20 UNL     1      -3.186   1.982   1.229  1.00  0.00     0.140 C 
ENDROOT
BRANCH   4  17
HETATM   17  O1  UNL     1       2.898   0.078   0.017  1.00  0.00    -0.286 OA
BRANCH  17  18
HETATM   18  C5  UNL     1       3.980   0.177  -0.848  1.00  0.00     0.100 A 
HETATM   19  C6  UNL     1       4.255  -0.218  -2.114  1.00  0.00     0.039 A 
HETATM   20  C7  UNL     1       5.445   0.003  -2.751  1.00  0.00     0.003 A 
HETATM   21  C8  UNL     1       6.451   0.665  -2.104  1.00  0.00     0.002 A 
HETATM   22  C9  UNL     1       6.207   1.086  -0.809  1.00  0.00     0.026 A 
HETATM   23  C10 UNL     1       4.985   0.861  -0.147  1.00  0.00     0.068 A 
HETATM   24 CL1  UNL     1       4.972   1.504   1.481  1.00  0.00    -0.081 Cl
ENDBRANCH  17  18
ENDBRANCH   4  17
BRANCH  16  25
HETATM   25  O3  UNL     1      -3.263   2.748   2.417  1.00  0.00    -0.394 OA
HETATM   26  H20 UNL     1      -2.319   2.927   2.732  1.00  0.00     0.210 HD
ENDBRANCH  16  25
TORSDOF 3
