REMARK  7 active torsions:
REMARK  status: ('A' for Active; 'I' for Inactive)
REMARK    1  A    between atoms: C1_2  and  N1_4 
REMARK    2  A    between atoms: N1_4  and  C2_5 
REMARK    3  A    between atoms: C2_5  and  C3_6 
REMARK    4  A    between atoms: C4_7  and  N2_8 
REMARK    5  A    between atoms: N2_8  and  C5_9 
REMARK    6  A    between atoms: C5_9  and  C6_11 
REMARK    7  A    between atoms: C11_16  and  C12_17 
ROOT
HETATM    1  C3  UNL     1       1.891   1.287   0.427  1.00  0.00     0.046 C 
HETATM    2  C4  UNL     1       0.681   1.607   0.756  1.00  0.00     0.088 C 
ENDROOT
BRANCH   1   3
HETATM    3  C2  UNL     1       2.491  -0.002   0.336  1.00  0.00     0.042 C 
HETATM    4  C17 UNL     1       3.805  -0.115  -0.015  1.00  0.00    -0.004 C 
HETATM    5  C18 UNL     1       4.625   1.203  -0.342  1.00  0.00     0.014 C 
HETATM    6  C22 UNL     1       4.401  -1.506  -0.058  1.00  0.00     0.157 C 
HETATM    7  C19 UNL     1       6.021   1.305   0.087  1.00  0.00     0.034 C 
HETATM    8  C20 UNL     1       6.352  -0.184   0.033  1.00  0.00     0.071 C 
HETATM    9  C21 UNL     1       6.793  -0.915  -0.978  1.00  0.00     0.115 C 
HETATM   10  N5  UNL     1       5.535  -0.613   1.245  1.00  0.00    -0.261 NA
HETATM   11  N4  UNL     1       5.438  -1.489  -1.135  1.00  0.00    -0.384 N 
HETATM   12  H20 UNL     1       5.064  -1.959  -2.039  1.00  0.00     0.160 HD
HETATM   13  C23 UNL     1       5.257  -1.835   1.173  1.00  0.00     0.120 C 
BRANCH   3  14
HETATM   14  N1  UNL     1       1.851  -1.238   0.602  1.00  0.00    -0.334 N 
HETATM   15  H2  UNL     1       2.170  -1.375   1.586  1.00  0.00     0.165 HD
BRANCH  14  16
HETATM   16  C1  UNL     1       1.002  -2.221  -0.017  1.00  0.00     0.458 C 
HETATM   17  F1  UNL     1      -0.222  -1.747  -0.384  1.00  0.00    -0.191 F 
HETATM   18  F2  UNL     1       0.924  -3.342   0.790  1.00  0.00    -0.191 F 
ENDBRANCH  14  16
ENDBRANCH   3  14
ENDBRANCH   1   3
BRANCH   2  19
HETATM   19  N2  UNL     1      -0.471   0.879   1.136  1.00  0.00    -0.366 N 
HETATM   20  H5  UNL     1      -0.075   0.070   1.697  1.00  0.00     0.162 HD
BRANCH  19  21
HETATM   21  C5  UNL     1      -1.859   1.082   0.888  1.00  0.00     0.299 C 
HETATM   22  F3  UNL     1      -2.568   0.094   1.540  1.00  0.00    -0.222 F 
BRANCH  21  23
HETATM   23  C6  UNL     1      -2.257   1.115  -0.529  1.00  0.00    -0.018 A 
HETATM   24  C7  UNL     1      -1.418   0.975  -1.541  1.00  0.00     0.008 A 
HETATM   25  C8  UNL     1      -1.901   1.022  -2.915  1.00  0.00    -0.004 A 
HETATM   26  C9  UNL     1      -3.194   1.208  -3.004  1.00  0.00    -0.026 A 
HETATM   27  C10 UNL     1      -4.228   1.377  -1.969  1.00  0.00     0.041 A 
HETATM   28  C11 UNL     1      -3.736   1.328  -0.563  1.00  0.00     0.057 A 
BRANCH  28  29
HETATM   29  C12 UNL     1      -4.461   0.289   0.245  1.00  0.00    -0.032 A 
HETATM   30  C13 UNL     1      -5.228   0.618   1.370  1.00  0.00     0.011 A 
HETATM   31  C14 UNL     1      -5.871  -0.405   2.064  1.00  0.00     0.020 A 
HETATM   32  C15 UNL     1      -5.729  -1.707   1.620  1.00  0.00     0.116 A 
HETATM   33  N3  UNL     1      -4.989  -2.021   0.535  1.00  0.00    -0.273 NA
HETATM   34  C16 UNL     1      -4.355  -1.048  -0.156  1.00  0.00     0.124 A 
ENDBRANCH  28  29
ENDBRANCH  21  23
ENDBRANCH  19  21
ENDBRANCH   2  19
TORSDOF 7
