REMARK  4 active torsions:
REMARK  status: ('A' for Active; 'I' for Inactive)
REMARK    1  A    between atoms: C4_5  and  C5_6 
REMARK    2  A    between atoms: C6_7  and  O1_8 
REMARK    3  A    between atoms: C12_15  and  C13_16 
REMARK    4  A    between atoms: C20_25  and  O4_26 
ROOT
HETATM    1  C5  UNL     1       0.354  -1.837   0.509  1.00  0.00     0.017 A 
HETATM    2  C6  UNL     1       0.730  -3.155   0.819  1.00  0.00     0.075 A 
HETATM    3  C7  UNL     1      -0.143  -4.218   0.743  1.00  0.00     0.038 A 
HETATM    4  C8  UNL     1      -1.415  -3.963   0.349  1.00  0.00     0.021 A 
HETATM    5  C9  UNL     1      -1.759  -2.654   0.050  1.00  0.00     0.049 A 
HETATM    6  C10 UNL     1      -3.056  -2.387  -0.352  1.00  0.00     0.187 A 
HETATM    7  O2  UNL     1      -3.877  -3.332  -0.434  1.00  0.00    -0.287 OA
HETATM    8  C11 UNL     1      -3.343  -1.078  -0.634  1.00  0.00     0.093 A 
HETATM    9  C12 UNL     1      -2.502   0.004  -0.568  1.00  0.00     0.091 A 
HETATM   10  O3  UNL     1      -1.298  -0.345  -0.179  1.00  0.00    -0.308 OA
HETATM   11  C19 UNL     1      -0.918  -1.544   0.111  1.00  0.00     0.099 A 
ENDROOT
BRANCH   1  12
HETATM   12  C4  UNL     1       1.434  -0.906   0.648  1.00  0.00     0.056 C 
HETATM   13  C3  UNL     1       2.354  -1.149  -0.571  1.00  0.00     0.042 C 
HETATM   14  C2  UNL     1       3.162   0.119  -0.839  1.00  0.00     0.272 C 
HETATM   15  N1  UNL     1       3.502   0.590   0.491  1.00  0.00     0.086 N 
HETATM   16  C1  UNL     1       4.755   1.271   0.562  1.00  0.00     0.310 C 
HETATM   17  C21 UNL     1       2.375   1.392   0.913  1.00  0.00     0.304 C 
HETATM   18  C20 UNL     1       1.121   0.553   0.764  1.00  0.00     0.155 C 
BRANCH  18  19
HETATM   19  O4  UNL     1       0.366   0.762   1.899  1.00  0.00    -0.393 OA
HETATM   20  H18 UNL     1       0.518   1.690   2.214  1.00  0.00     0.210 HD
ENDBRANCH  18  19
ENDBRANCH   1  12
BRANCH   2  21
HETATM   21  O1  UNL     1       2.027  -3.516   1.236  1.00  0.00    -0.360 OA
HETATM   22  H9  UNL     1       2.203  -3.571   2.236  1.00  0.00     0.217 HD
ENDBRANCH   2  21
BRANCH   9  23
HETATM   23  C13 UNL     1      -2.841   1.379  -0.869  1.00  0.00     0.020 A 
HETATM   24  C14 UNL     1      -2.000   2.381  -0.437  1.00  0.00     0.016 A 
HETATM   25  C15 UNL     1      -2.190   3.722  -0.694  1.00  0.00     0.001 A 
HETATM   26  C16 UNL     1      -3.284   4.140  -1.430  1.00  0.00     0.002 A 
HETATM   27  C17 UNL     1      -4.153   3.166  -1.882  1.00  0.00     0.025 A 
HETATM   28  C18 UNL     1      -3.898   1.845  -1.587  1.00  0.00     0.047 A 
HETATM   29 CL1  UNL     1      -5.052   0.759  -2.272  1.00  0.00    -0.083 Cl
ENDBRANCH   9  23
TORSDOF 4
