REMARK  4 active torsions:
REMARK  status: ('A' for Active; 'I' for Inactive)
REMARK    1  A    between atoms: O1_2  and  C2_3 
REMARK    2  A    between atoms: C4_5  and  N1_6 
REMARK    3  A    between atoms: N1_6  and  C5_7 
REMARK    4  A    between atoms: C9_12  and  O2_13 
ROOT
HETATM    1  C5  UNL     1       1.503  -0.929  -0.207  1.00  0.00     0.054 A 
HETATM    2  C6  UNL     1       2.193  -0.233  -1.102  1.00  0.00     0.083 A 
HETATM    3  C7  UNL     1       1.700   0.550  -2.170  1.00  0.00     0.102 C 
HETATM    4  N2  UNL     1       1.291   1.214  -3.044  1.00  0.00    -0.191 NA
HETATM    5  C8  UNL     1       3.629  -0.387  -0.828  1.00  0.00     0.009 A 
HETATM    6  C9  UNL     1       4.630   0.153  -1.500  1.00  0.00     0.144 C 
HETATM    7  C10 UNL     1       3.691  -1.268   0.350  1.00  0.00     0.017 A 
HETATM    8  C11 UNL     1       2.471  -1.567   0.691  1.00  0.00     0.032 A 
ENDROOT
BRANCH   1   9
HETATM    9  N1  UNL     1       0.107  -0.955  -0.239  1.00  0.00    -0.354 N 
HETATM   10  H5  UNL     1      -0.151  -1.833  -0.743  1.00  0.00     0.166 HD
BRANCH   9  11
HETATM   11  C4  UNL     1      -0.851  -0.063   0.259  1.00  0.00     0.057 A 
HETATM   12  C3  UNL     1      -2.192  -0.355   0.075  1.00  0.00     0.069 A 
HETATM   13  C2  UNL     1      -3.154   0.505   0.554  1.00  0.00     0.092 A 
HETATM   14  C14 UNL     1      -2.772   1.673   1.225  1.00  0.00     0.069 A 
HETATM   15  C13 UNL     1      -1.420   1.946   1.398  1.00  0.00     0.052 A 
HETATM   16 CL2  UNL     1      -3.990   2.798   1.852  1.00  0.00    -0.081 Cl
HETATM   17  C12 UNL     1      -0.441   1.082   0.917  1.00  0.00     0.062 A 
HETATM   18 CL1  UNL     1       1.233   1.490   1.170  1.00  0.00    -0.082 Cl
BRANCH  13  19
HETATM   19  O1  UNL     1      -4.505   0.260   0.398  1.00  0.00    -0.354 OA
HETATM   20  C1  UNL     1      -4.896  -0.924  -0.282  1.00  0.00     0.210 C 
ENDBRANCH  13  19
ENDBRANCH   9  11
ENDBRANCH   1   9
BRANCH   6  21
HETATM   21  O2  UNL     1       4.335   0.952  -2.581  1.00  0.00    -0.372 OA
HETATM   22  H7  UNL     1       3.986   1.904  -2.422  1.00  0.00     0.216 HD
ENDBRANCH   6  21
TORSDOF 4
