REMARK  8 active torsions:
REMARK  status: ('A' for Active; 'I' for Inactive)
REMARK    1  A    between atoms: C3_3  and  C4_4 
REMARK    2  A    between atoms: C4_4  and  N1_5 
REMARK       I    between atoms: N1_5  and  C5_6 
REMARK    3  A    between atoms: C5_6  and  C6_8 
REMARK    4  A    between atoms: N2_12  and  C10_13 
REMARK    5  A    between atoms: C12_16  and  C13_17 
REMARK    6  A    between atoms: C13_17  and  C14_18 
REMARK    7  A    between atoms: N4_19  and  C15_20 
REMARK    8  A    between atoms: C15_20  and  C16_21 
ROOT
HETATM    1  C1  UNL     1       8.467  -0.481   2.791  1.00  0.00     0.112 C 
HETATM    2  C2  UNL     1       8.138  -0.485   1.351  1.00  0.00    -0.109 C 
HETATM    3  C3  UNL     1       7.875  -0.503   0.171  1.00  0.00    -0.087 C 
ENDROOT
BRANCH   3   4
HETATM    4  C4  UNL     1       7.563  -0.500  -1.270  1.00  0.00     0.217 C 
BRANCH   4   5
HETATM    5  N1  UNL     1       6.369   0.284  -1.537  1.00  0.00    -0.346 N 
HETATM    6  C5  UNL     1       5.236  -0.228  -0.855  1.00  0.00     0.252 C 
HETATM    7  O1  UNL     1       5.497  -1.246  -0.167  1.00  0.00    -0.268 OA
HETATM    8  H6  UNL     1       6.220   1.131  -2.127  1.00  0.00     0.163 HD
BRANCH   6   9
HETATM    9  C6  UNL     1       3.872   0.275  -0.866  1.00  0.00     0.033 C 
HETATM   10  C7  UNL     1       3.524   1.339  -1.566  1.00  0.00     0.018 C 
HETATM   11  C8  UNL     1       2.264   2.041  -1.753  1.00  0.00     0.019 C 
HETATM   12  C9  UNL     1       1.051   1.609  -1.411  1.00  0.00     0.098 C 
HETATM   13  N2  UNL     1       0.708   0.360  -0.783  1.00  0.00    -0.320 N 
HETATM   14  C19 UNL     1       1.598  -0.435  -0.020  1.00  0.00     0.099 C 
HETATM   15  C20 UNL     1       2.919  -0.455  -0.070  1.00  0.00     0.034 C 
BRANCH  13  16
HETATM   16  C10 UNL     1      -0.623  -0.112  -0.940  1.00  0.00     0.125 C 
HETATM   17  N3  UNL     1      -1.369  -0.633  -0.038  1.00  0.00    -0.269 NA
HETATM   18  C11 UNL     1      -2.725  -1.058  -0.415  1.00  0.00     0.205 C 
HETATM   19  C12 UNL     1      -3.309   0.075  -1.174  1.00  0.00     0.031 C 
HETATM   20  N5  UNL     1      -2.554   0.570  -2.084  1.00  0.00    -0.289 NA
HETATM   21  C18 UNL     1      -1.230   0.007  -2.298  1.00  0.00     0.227 C 
BRANCH  19  22
HETATM   22  C13 UNL     1      -4.686   0.528  -0.824  1.00  0.00     0.102 C 
BRANCH  22  23
HETATM   23  C14 UNL     1      -4.669   0.958   0.613  1.00  0.00     0.089 C 
HETATM   24  N4  UNL     1      -5.533   0.557   1.469  1.00  0.00    -0.305 NA
BRANCH  24  25
HETATM   25  C15 UNL     1      -6.568  -0.351   1.022  1.00  0.00     0.147 C 
BRANCH  25  26
HETATM   26  C16 UNL     1      -7.464  -0.671   2.222  1.00  0.00     0.017 C 
HETATM   27  C17 UNL     1      -8.071   0.599   2.738  1.00  0.00     0.007 C 
ENDBRANCH  25  26
ENDBRANCH  24  25
ENDBRANCH  22  23
ENDBRANCH  19  22
ENDBRANCH  13  16
ENDBRANCH   6   9
ENDBRANCH   4   5
ENDBRANCH   3   4
TORSDOF 8
