REMARK  3 active torsions:
REMARK  status: ('A' for Active; 'I' for Inactive)
REMARK    1  A    between atoms: O1_2  and  C2_3 
REMARK    2  A    between atoms: C9_12  and  N3_13 
REMARK    3  A    between atoms: N3_13  and  C10_14 
ROOT
HETATM    1  C2  UNL     1       2.940   0.120   0.792  1.00  0.00     0.069 A 
HETATM    2  C3  UNL     1       3.771  -0.903   1.181  1.00  0.00     0.039 A 
HETATM    3  C4  UNL     1       3.292  -2.102   1.649  1.00  0.00     0.035 A 
HETATM    4  C5  UNL     1       1.927  -2.211   1.703  1.00  0.00     0.069 A 
HETATM    5  N1  UNL     1       1.441  -3.358   2.170  1.00  0.00    -0.259 NA
HETATM    6  C6  UNL     1       0.149  -3.641   2.306  1.00  0.00     0.142 A 
HETATM    7  C7  UNL     1      -0.706  -2.652   1.927  1.00  0.00     0.089 A 
HETATM    8  C8  UNL     1      -2.119  -2.954   2.024  1.00  0.00     0.103 C 
HETATM    9  N2  UNL     1      -3.233  -3.208   2.087  1.00  0.00    -0.191 NA
HETATM   10  C9  UNL     1      -0.413  -1.413   1.428  1.00  0.00     0.068 A 
HETATM   11  C17 UNL     1       0.995  -1.271   1.344  1.00  0.00     0.024 A 
HETATM   12  C18 UNL     1       1.560  -0.066   0.873  1.00  0.00     0.053 A 
ENDROOT
BRANCH  10  13
HETATM   13  N3  UNL     1      -1.094  -0.291   1.006  1.00  0.00    -0.353 N 
HETATM   14  H7  UNL     1      -0.766   0.605   1.486  1.00  0.00     0.166 HD
BRANCH  13  15
HETATM   15  C10 UNL     1      -2.122   0.241   0.208  1.00  0.00     0.057 A 
HETATM   16  C11 UNL     1      -1.603   0.775  -0.965  1.00  0.00     0.069 A 
HETATM   17  C12 UNL     1      -2.191   1.411  -2.006  1.00  0.00     0.092 A 
HETATM   18  O2  UNL     1      -1.990   1.950  -3.107  1.00  0.00    -0.354 OA
HETATM   19  C14 UNL     1      -3.588   1.519  -1.798  1.00  0.00     0.069 A 
HETATM   20  C13 UNL     1      -1.682   2.503  -4.268  1.00  0.00     0.210 C 
HETATM   21 CL1  UNL     1      -4.811   2.257  -2.857  1.00  0.00    -0.081 Cl
HETATM   22  C15 UNL     1      -4.233   1.015  -0.641  1.00  0.00     0.052 A 
HETATM   23  C16 UNL     1      -3.475   0.400   0.314  1.00  0.00     0.062 A 
HETATM   24 CL2  UNL     1      -4.163  -0.157   1.804  1.00  0.00    -0.082 Cl
ENDBRANCH  13  15
ENDBRANCH  10  13
BRANCH   1  25
HETATM   25  O1  UNL     1       3.386   1.320   0.329  1.00  0.00    -0.356 OA
HETATM   26  C1  UNL     1       4.665   1.795   0.147  1.00  0.00     0.210 C 
ENDBRANCH   1  25
TORSDOF 3
