REMARK  8 active torsions:
REMARK  status: ('A' for Active; 'I' for Inactive)
REMARK    1  A    between atoms: C3_3  and  N1_4 
REMARK    2  A    between atoms: N1_4  and  C4_5 
REMARK    3  A    between atoms: N1_4  and  C6_8 
REMARK    4  A    between atoms: C4_5  and  C5_6 
REMARK    5  A    between atoms: C5_6  and  O1_7 
REMARK    6  A    between atoms: C12_15  and  O3_16 
REMARK    7  A    between atoms: O3_16  and  O4_17 
REMARK    8  A    between atoms: C14_19  and  C15_20 
ROOT
HETATM    1  C15 UNL     1       2.269   0.555   2.998  1.00  0.00     0.038 C 
HETATM    2  C16 UNL     1       2.264   0.547   4.270  1.00  0.00     0.223 C 
HETATM    3 CL1  UNL     1       2.325   0.330   6.052  1.00  0.00    -0.257 Cl
ENDROOT
BRANCH   1   4
HETATM    4  C14 UNL     1       2.662  -0.662   2.300  1.00  0.00     0.005 C 
HETATM    5  C13 UNL     1       2.679  -0.637   0.960  1.00  0.00    -0.021 C 
HETATM    6  C12 UNL     1       3.093  -1.905   0.400  1.00  0.00     0.221 C 
HETATM    7  C17 UNL     1       2.195   0.221  -0.157  1.00  0.00     0.205 C 
HETATM    8  C11 UNL     1       1.851  -2.643  -0.104  1.00  0.00    -0.033 A 
HETATM    9  C10 UNL     1       0.555  -3.229  -0.627  1.00  0.00     0.036 A 
HETATM   10  O2  UNL     1       0.791  -2.096  -0.493  1.00  0.00     0.000 OA
HETATM   11  C9  UNL     1      -0.234  -2.212  -0.733  1.00  0.00     0.034 A 
HETATM   12  C7  UNL     1      -0.956  -0.984  -0.780  1.00  0.00    -0.053 C 
HETATM   13  C6  UNL     1      -0.588   0.219  -0.371  1.00  0.00     0.037 C 
HETATM   14  C8  UNL     1      -2.138  -1.056  -1.723  1.00  0.00     0.046 C 
HETATM   15  C18 UNL     1       0.254   0.638   0.824  1.00  0.00     0.225 C 
HETATM   16  O5  UNL     1       1.436   1.300   0.405  1.00  0.00    -0.381 OA
BRANCH   6  17
HETATM   17  O3  UNL     1       3.865  -2.674   1.207  1.00  0.00    -0.229 OA
BRANCH  17  18
HETATM   18  O4  UNL     1       5.055  -2.980   0.783  1.00  0.00    -0.250 OA
HETATM   19  H17 UNL     1       5.082  -3.749   0.178  1.00  0.00     0.253 HD
ENDBRANCH  17  18
ENDBRANCH   6  17
BRANCH  13  20
HETATM   20  N1  UNL     1      -1.177   1.440  -0.761  1.00  0.00    -0.356 N 
BRANCH  20  21
HETATM   21  C3  UNL     1      -2.443   1.654  -0.087  1.00  0.00     0.087 C 
HETATM   22  C2  UNL     1      -3.097   0.824   0.707  1.00  0.00    -0.014 C 
HETATM   23  C1  UNL     1      -4.410   1.010   1.423  1.00  0.00     0.037 C 
ENDBRANCH  20  21
BRANCH  20  24
HETATM   24  C4  UNL     1      -0.849   2.551  -1.631  1.00  0.00     0.154 C 
BRANCH  24  25
HETATM   25  C5  UNL     1      -1.698   2.741  -2.824  1.00  0.00     0.184 C 
BRANCH  25  26
HETATM   26  O1  UNL     1      -1.757   1.740  -3.745  1.00  0.00    -0.399 OA
HETATM   27  H10 UNL     1      -0.954   1.648  -4.317  1.00  0.00     0.209 HD
ENDBRANCH  25  26
ENDBRANCH  24  25
ENDBRANCH  20  24
ENDBRANCH  13  20
ENDBRANCH   1   4
TORSDOF 8
