REMARK  9 active torsions:
REMARK  status: ('A' for Active; 'I' for Inactive)
REMARK    1  A    between atoms: C3_4  and  C4_5 
REMARK    2  A    between atoms: C11_14  and  C12_15 
REMARK    3  A    between atoms: C12_15  and  C13_16 
REMARK    4  A    between atoms: C13_16  and  C14_17 
REMARK    5  A    between atoms: C14_17  and  C15_18 
REMARK    6  A    between atoms: C15_18  and  C16_19 
REMARK    7  A    between atoms: C16_19  and  O3_20 
REMARK    8  A    between atoms: C17_21  and  O4_22 
REMARK    9  A    between atoms: C19_24  and  O5_25 
ROOT
HETATM    1  O1  UNL     1      -3.035  -3.805  -0.760  1.00  0.00    -0.287 OA
HETATM    2  C1  UNL     1      -2.458  -2.733  -0.420  1.00  0.00     0.190 A 
HETATM    3  C2  UNL     1      -2.950  -1.472  -0.661  1.00  0.00     0.094 A 
HETATM    4  C3  UNL     1      -2.312  -0.310  -0.286  1.00  0.00     0.091 A 
HETATM    5  O2  UNL     1      -1.168  -0.459   0.336  1.00  0.00    -0.308 OA
HETATM    6  C10 UNL     1      -0.655  -1.637   0.590  1.00  0.00     0.102 A 
HETATM    7  C11 UNL     1       0.564  -1.769   1.254  1.00  0.00     0.010 A 
HETATM    8  C17 UNL     1       1.091  -3.027   1.514  1.00  0.00     0.077 A 
HETATM    9  C18 UNL     1       0.469  -4.199   1.147  1.00  0.00     0.074 A 
HETATM   10  C19 UNL     1      -0.734  -4.086   0.492  1.00  0.00     0.085 A 
HETATM   11  C20 UNL     1      -1.249  -2.834   0.239  1.00  0.00     0.082 A 
ENDROOT
BRANCH   4  12
HETATM   12  C4  UNL     1      -2.913   0.968  -0.586  1.00  0.00     0.020 A 
HETATM   13  C5  UNL     1      -4.106   1.121  -1.230  1.00  0.00     0.016 A 
HETATM   14  C6  UNL     1      -4.705   2.325  -1.532  1.00  0.00     0.001 A 
HETATM   15  C7  UNL     1      -4.086   3.501  -1.172  1.00  0.00     0.002 A 
HETATM   16  C8  UNL     1      -2.872   3.413  -0.516  1.00  0.00     0.025 A 
HETATM   17  C9  UNL     1      -2.327   2.166  -0.245  1.00  0.00     0.047 A 
HETATM   18 CL1  UNL     1      -0.806   2.224   0.583  1.00  0.00    -0.083 Cl
ENDBRANCH   4  12
BRANCH   7  19
HETATM   19  C12 UNL     1       1.332  -0.597   1.698  1.00  0.00     0.044 C 
BRANCH  19  20
HETATM   20  C13 UNL     1       2.003   0.002   0.471  1.00  0.00     0.005 C 
BRANCH  20  21
HETATM   21  C14 UNL     1       2.826   1.218   0.810  1.00  0.00     0.002 C 
BRANCH  21  22
HETATM   22  C15 UNL     1       3.442   1.728  -0.476  1.00  0.00     0.026 C 
BRANCH  22  23
HETATM   23  C16 UNL     1       4.297   2.955  -0.261  1.00  0.00     0.164 C 
BRANCH  23  24
HETATM   24  O3  UNL     1       4.809   3.335  -1.509  1.00  0.00    -0.401 OA
HETATM   25  H16 UNL     1       5.745   3.029  -1.626  1.00  0.00     0.209 HD
ENDBRANCH  23  24
ENDBRANCH  22  23
ENDBRANCH  21  22
ENDBRANCH  20  21
ENDBRANCH  19  20
ENDBRANCH   7  19
BRANCH  10  26
HETATM   26  O5  UNL     1      -1.380  -5.249   0.112  1.00  0.00    -0.360 OA
HETATM   27  H19 UNL     1      -2.148  -5.584   0.685  1.00  0.00     0.217 HD
ENDBRANCH  10  26
BRANCH   8  28
HETATM   28  O4  UNL     1       2.312  -3.158   2.179  1.00  0.00    -0.360 OA
HETATM   29  H17 UNL     1       3.198  -3.094   1.693  1.00  0.00     0.217 HD
ENDBRANCH   8  28
TORSDOF 9
