REMARK  5 active torsions:
REMARK  status: ('A' for Active; 'I' for Inactive)
REMARK    1  A    between atoms: N1_2  and  C2_3 
REMARK    2  A    between atoms: C4_5  and  O1_6 
REMARK    3  A    between atoms: C5_8  and  C6_9 
REMARK    4  A    between atoms: C9_12  and  O2_13 
REMARK    5  A    between atoms: C13_18  and  C14_19 
ROOT
HETATM    1  C6  UNL     1      -0.412  -0.824  -1.435  1.00  0.00    -0.015 A 
HETATM    2  C7  UNL     1      -1.200  -1.646  -2.212  1.00  0.00     0.013 A 
HETATM    3  C8  UNL     1      -0.790  -2.889  -2.659  1.00  0.00     0.038 A 
HETATM    4  C9  UNL     1       0.472  -3.322  -2.307  1.00  0.00     0.082 A 
HETATM    5  C10 UNL     1       1.251  -2.494  -1.531  1.00  0.00     0.082 A 
HETATM    6  C11 UNL     1       2.525  -2.835  -1.128  1.00  0.00     0.190 A 
HETATM    7  O3  UNL     1       3.022  -3.943  -1.466  1.00  0.00    -0.287 OA
HETATM    8  C12 UNL     1       3.219  -1.938  -0.355  1.00  0.00     0.094 A 
HETATM    9  C13 UNL     1       2.764  -0.719   0.061  1.00  0.00     0.091 A 
HETATM   10  O4  UNL     1       1.558  -0.438  -0.344  1.00  0.00    -0.308 OA
HETATM   11  C20 UNL     1       0.874  -1.252  -1.069  1.00  0.00     0.100 A 
ENDROOT
BRANCH   1  12
HETATM   12  C5  UNL     1      -0.941   0.511  -0.991  1.00  0.00     0.052 C 
HETATM   13  P1  UNL     1      -1.868   1.252  -2.381  1.00  0.00    -0.090 P 
HETATM   14  C4  UNL     1      -3.537   1.794  -1.798  1.00  0.00     0.145 C 
HETATM   15  H10 UNL     1      -1.949   0.369  -3.521  1.00  0.00     0.060 HD
HETATM   16  C3  UNL     1      -3.927   0.941  -0.634  1.00  0.00     0.071 C 
HETATM   17  C2  UNL     1      -2.893   1.204   0.460  1.00  0.00     0.223 C 
HETATM   18  C21 UNL     1      -1.676   0.364   0.289  1.00  0.00     0.049 C 
BRANCH  14  19
HETATM   19  O1  UNL     1      -4.481   1.755  -2.818  1.00  0.00    -0.391 OA
HETATM   20  H9  UNL     1      -4.406   2.650  -3.273  1.00  0.00     0.210 HD
ENDBRANCH  14  19
BRANCH  17  21
HETATM   21  N1  UNL     1      -3.535   0.819   1.705  1.00  0.00     0.083 N 
HETATM   22  C1  UNL     1      -2.693   1.004   2.855  1.00  0.00     0.307 C 
HETATM   23  H4  UNL     1      -3.830  -0.177   1.588  1.00  0.00     0.315 HD
ENDBRANCH  17  21
ENDBRANCH   1  12
BRANCH   4  24
HETATM   24  O2  UNL     1       1.022  -4.557  -2.688  1.00  0.00    -0.360 OA
HETATM   25  H14 UNL     1       1.177  -5.286  -1.973  1.00  0.00     0.217 HD
ENDBRANCH   4  24
BRANCH   9  26
HETATM   26  C14 UNL     1       3.432   0.277   0.871  1.00  0.00     0.020 A 
HETATM   27  C15 UNL     1       2.745   1.441   1.153  1.00  0.00     0.016 A 
HETATM   28  C16 UNL     1       3.236   2.471   1.902  1.00  0.00     0.001 A 
HETATM   29  C17 UNL     1       4.497   2.403   2.439  1.00  0.00     0.002 A 
HETATM   30  C18 UNL     1       5.231   1.267   2.193  1.00  0.00     0.025 A 
HETATM   31  C19 UNL     1       4.679   0.270   1.433  1.00  0.00     0.047 A 
HETATM   32 CL1  UNL     1       5.718  -1.107   1.202  1.00  0.00    -0.083 Cl
ENDBRANCH   9  26
TORSDOF 5
