REMARK  3 active torsions:
REMARK  status: ('A' for Active; 'I' for Inactive)
REMARK    1  A    between atoms: C7_8  and  N2_9 
REMARK    2  A    between atoms: N2_9  and  C8_10 
REMARK    3  A    between atoms: C8_10  and  C9_11 
ROOT
HETATM    1  C1  UNL     1      -4.964  -0.464  -1.006  1.00  0.00     0.021 C 
HETATM    2  C2  UNL     1      -4.192   0.177   0.099  1.00  0.00    -0.002 C 
HETATM    3  C3  UNL     1      -4.477   1.650   0.271  1.00  0.00     0.021 C 
HETATM    4  C4  UNL     1      -4.376  -0.517   1.436  1.00  0.00     0.133 C 
HETATM    5  N1  UNL     1      -3.144  -0.112   2.124  1.00  0.00    -0.388 N 
HETATM    6  C5  UNL     1      -2.084  -0.132   1.155  1.00  0.00     0.037 A 
HETATM    7  C6  UNL     1      -0.721  -0.278   1.251  1.00  0.00     0.058 A 
HETATM    8  C7  UNL     1       0.077  -0.256   0.116  1.00  0.00     0.030 A 
HETATM    9  C15 UNL     1      -0.559  -0.080  -1.119  1.00  0.00     0.030 A 
HETATM   10  C16 UNL     1      -1.931   0.064  -1.182  1.00  0.00     0.012 A 
HETATM   11  C17 UNL     1      -2.709   0.041  -0.064  1.00  0.00    -0.022 A 
HETATM   12  H9  UNL     1      -2.995   0.155   3.136  1.00  0.00     0.159 HD
ENDROOT
BRANCH   8  13
HETATM   13  N2  UNL     1       1.512  -0.405   0.165  1.00  0.00    -0.384 N 
HETATM   14  H11 UNL     1       1.913  -0.532   1.121  1.00  0.00     0.160 HD
BRANCH  13  15
HETATM   15  C8  UNL     1       2.264  -0.367  -1.100  1.00  0.00     0.177 C 
BRANCH  15  16
HETATM   16  C9  UNL     1       3.677  -0.540  -0.768  1.00  0.00     0.033 C 
HETATM   17  C10 UNL     1       4.721  -1.344  -0.992  1.00  0.00     0.027 C 
HETATM   18  C11 UNL     1       6.077  -1.176  -0.408  1.00  0.00     0.000 C 
HETATM   19  C12 UNL     1       6.353  -0.176   0.451  1.00  0.00     0.008 C 
HETATM   20  C13 UNL     1       5.319   0.786   0.872  1.00  0.00     0.208 A 
HETATM   21  C14 UNL     1       4.824   1.954   0.254  1.00  0.00     0.252 A 
HETATM   22  N3  UNL     1       4.298   0.649  -0.196  1.00  0.00    -0.301 N 
HETATM   23  O1  UNL     1       4.892   3.208   0.224  1.00  0.00    -0.270 OA
ENDBRANCH  15  16
ENDBRANCH  13  15
ENDBRANCH   8  13
TORSDOF 3
