REMARK  7 active torsions:
REMARK  status: ('A' for Active; 'I' for Inactive)
REMARK    1  A    between atoms: N1_2  and  C2_3 
REMARK    2  A    between atoms: C2_3  and  C3_4 
REMARK    3  A    between atoms: C3_4  and  C4_5 
REMARK    4  A    between atoms: C4_5  and  O1_6 
REMARK    5  A    between atoms: C6_8  and  O2_9 
REMARK    6  A    between atoms: C9_13  and  C10_14 
REMARK    7  A    between atoms: C20_26  and  O5_27 
ROOT
HETATM    1  C4  UNL     1      -2.516   1.155  -0.167  1.00  0.00     0.106 C 
HETATM    2  C5  UNL     1      -2.186   0.612   1.244  1.00  0.00     0.051 C 
HETATM    3  C6  UNL     1      -1.022   0.174   1.699  1.00  0.00     0.081 C 
HETATM    4  C7  UNL     1       0.283   0.048   1.098  1.00  0.00     0.077 A 
HETATM    5  C8  UNL     1       0.763   0.334  -0.186  1.00  0.00     0.077 A 
HETATM    6  O3  UNL     1       1.989   0.132  -0.487  1.00  0.00    -0.312 OA
HETATM    7  C9  UNL     1       2.924  -0.331   0.275  1.00  0.00     0.091 A 
HETATM    8  C16 UNL     1       2.509  -0.630   1.553  1.00  0.00     0.094 A 
HETATM    9  C17 UNL     1       1.206  -0.454   1.992  1.00  0.00     0.190 A 
HETATM   10  O4  UNL     1       0.847  -0.738   3.174  1.00  0.00    -0.287 OA
HETATM   11  C18 UNL     1      -0.028   0.897  -1.379  1.00  0.00     0.072 C 
HETATM   12  C19 UNL     1       0.699   2.141  -1.858  1.00  0.00     0.020 C 
HETATM   13  C20 UNL     1      -1.382   1.006  -0.961  1.00  0.00     0.166 C 
ENDROOT
BRANCH   1  14
HETATM   14  C3  UNL     1      -3.817   0.559  -0.639  1.00  0.00     0.075 C 
BRANCH  14  15
HETATM   15  C2  UNL     1      -3.804  -0.839  -1.122  1.00  0.00     0.272 C 
BRANCH  15  16
HETATM   16  N1  UNL     1      -5.222  -1.143  -1.462  1.00  0.00     0.079 N 
HETATM   17  C1  UNL     1      -6.031  -1.187  -0.277  1.00  0.00     0.306 C 
HETATM   18  H4  UNL     1      -5.553  -0.389  -2.107  1.00  0.00     0.315 HD
ENDBRANCH  15  16
ENDBRANCH  14  15
ENDBRANCH   1  14
BRANCH   1  19
HETATM   19  O1  UNL     1      -2.936   2.490   0.194  1.00  0.00    -0.383 OA
HETATM   20  H9  UNL     1      -3.651   2.320   0.832  1.00  0.00     0.211 HD
ENDBRANCH   1  19
BRANCH  13  21
HETATM   21  O5  UNL     1      -1.423  -0.359  -0.665  1.00  0.00    -0.391 OA
HETATM   22  H22 UNL     1      -1.098  -0.850  -1.417  1.00  0.00     0.210 HD
ENDBRANCH  13  21
BRANCH   3  23
HETATM   23  O2  UNL     1      -1.062  -0.249   3.022  1.00  0.00    -0.360 OA
HETATM   24  H11 UNL     1      -1.449  -1.165   3.241  1.00  0.00     0.217 HD
ENDBRANCH   3  23
BRANCH   7  25
HETATM   25  C10 UNL     1       4.299  -0.532  -0.141  1.00  0.00     0.020 A 
HETATM   26  C11 UNL     1       5.294  -1.020   0.671  1.00  0.00     0.016 A 
HETATM   27  C12 UNL     1       6.604  -1.216   0.296  1.00  0.00     0.001 A 
HETATM   28  C13 UNL     1       6.977  -0.907  -0.993  1.00  0.00     0.002 A 
HETATM   29  C14 UNL     1       6.022  -0.410  -1.864  1.00  0.00     0.025 A 
HETATM   30  C15 UNL     1       4.718  -0.237  -1.418  1.00  0.00     0.047 A 
HETATM   31 CL1  UNL     1       3.631   0.388  -2.620  1.00  0.00    -0.083 Cl
ENDBRANCH   7  25
TORSDOF 7
