REMARK  10 active torsions:
REMARK  status: ('A' for Active; 'I' for Inactive)
REMARK    1  A    between atoms: C4_5  and  C5_6 
REMARK    2  A    between atoms: C6_7  and  O1_8 
REMARK    3  A    between atoms: C8_10  and  O2_11 
REMARK    4  A    between atoms: C12_16  and  C13_17 
REMARK    5  A    between atoms: C13_17  and  C14_18 
REMARK    6  A    between atoms: C14_18  and  C15_19 
REMARK    7  A    between atoms: C15_19  and  C16_20 
REMARK    8  A    between atoms: C16_20  and  C17_21 
REMARK    9  A    between atoms: C17_21  and  C18_22 
REMARK   10  A    between atoms: C21_27  and  O5_28 
ROOT
HETATM    1  C5  UNL     1      -1.745   1.546   0.797  1.00  0.00     0.017 A 
HETATM    2  C6  UNL     1      -2.115   2.842   1.173  1.00  0.00     0.077 A 
HETATM    3  C7  UNL     1      -1.404   3.991   0.997  1.00  0.00     0.074 A 
HETATM    4  C8  UNL     1      -0.176   3.884   0.381  1.00  0.00     0.085 A 
HETATM    5  C9  UNL     1       0.273   2.657  -0.024  1.00  0.00     0.082 A 
HETATM    6  C10 UNL     1       1.503   2.551  -0.643  1.00  0.00     0.190 A 
HETATM    7  O3  UNL     1       2.205   3.578  -0.832  1.00  0.00    -0.287 OA
HETATM    8  C11 UNL     1       1.898   1.285  -1.027  1.00  0.00     0.093 A 
HETATM    9  C12 UNL     1       1.102   0.183  -0.803  1.00  0.00     0.080 A 
HETATM   10  O4  UNL     1      -0.049   0.364  -0.212  1.00  0.00    -0.309 OA
HETATM   11  C20 UNL     1      -0.488   1.527   0.179  1.00  0.00     0.102 A 
ENDROOT
BRANCH   1  12
HETATM   12  C4  UNL     1      -2.632   0.413   1.054  1.00  0.00     0.056 C 
HETATM   13  C3  UNL     1      -3.531  -0.007  -0.025  1.00  0.00     0.042 C 
HETATM   14  C2  UNL     1      -3.186  -1.391  -0.509  1.00  0.00     0.272 C 
HETATM   15  N1  UNL     1      -3.492  -2.324   0.544  1.00  0.00     0.086 N 
HETATM   16  C1  UNL     1      -4.846  -2.754   0.612  1.00  0.00     0.310 C 
HETATM   17  C22 UNL     1      -2.932  -1.953   1.815  1.00  0.00     0.304 C 
HETATM   18  C21 UNL     1      -1.935  -0.811   1.611  1.00  0.00     0.155 C 
BRANCH  18  19
HETATM   19  O5  UNL     1      -1.403  -0.548   2.892  1.00  0.00    -0.393 OA
HETATM   20  H20 UNL     1      -1.040  -1.383   3.230  1.00  0.00     0.210 HD
ENDBRANCH  18  19
ENDBRANCH   1  12
BRANCH   2  21
HETATM   21  O1  UNL     1      -3.349   2.967   1.795  1.00  0.00    -0.360 OA
HETATM   22  H9  UNL     1      -4.094   3.567   1.468  1.00  0.00     0.217 HD
ENDBRANCH   2  21
BRANCH   4  23
HETATM   23  O2  UNL     1       0.603   5.001   0.167  1.00  0.00    -0.360 OA
HETATM   24  H11 UNL     1       1.296   5.340   0.817  1.00  0.00     0.217 HD
ENDBRANCH   4  23
BRANCH   9  25
HETATM   25  C13 UNL     1       1.487  -1.144  -1.192  1.00  0.00     0.038 C 
BRANCH  25  26
HETATM   26  C14 UNL     1       2.623  -1.449  -1.795  1.00  0.00     0.011 C 
BRANCH  26  27
HETATM   27  C15 UNL     1       3.830  -0.888  -2.304  1.00  0.00     0.055 C 
BRANCH  27  28
HETATM   28  C16 UNL     1       4.918  -0.811  -1.545  1.00  0.00    -0.128 C 
BRANCH  28  29
HETATM   29  C17 UNL     1       5.889  -1.078  -0.710  1.00  0.00     0.056 C 
BRANCH  29  30
HETATM   30  C18 UNL     1       6.585  -2.349  -0.822  1.00  0.00     0.020 C 
HETATM   31  C19 UNL     1       7.473  -1.860  -1.708  1.00  0.00     0.085 C 
HETATM   32 CL1  UNL     1       7.230  -0.161  -2.110  1.00  0.00    -0.097 Cl
ENDBRANCH  29  30
ENDBRANCH  28  29
ENDBRANCH  27  28
ENDBRANCH  26  27
ENDBRANCH  25  26
ENDBRANCH   9  25
TORSDOF 10
