REMARK  6 active torsions:
REMARK  status: ('A' for Active; 'I' for Inactive)
REMARK    1  A    between atoms: C6_6  and  N1_7 
REMARK    2  A    between atoms: C9_11  and  C10_12 
REMARK    3  A    between atoms: C10_12  and  C11_13 
REMARK    4  A    between atoms: C11_13  and  C12_14 
REMARK    5  A    between atoms: C12_14  and  C13_15 
REMARK    6  A    between atoms: C15_18  and  O2_19 
ROOT
HETATM    1  N1  UNL     1      -2.621   1.029   0.417  1.00  0.00    -0.268 N 
HETATM    2  C7  UNL     1      -1.278   1.053   0.889  1.00  0.00     0.221 C 
HETATM    3  N2  UNL     1      -0.974   0.344  -0.149  1.00  0.00    -0.279 NA
HETATM    4  C8  UNL     1       0.448  -0.021  -0.276  1.00  0.00     0.184 C 
HETATM    5  C9  UNL     1       1.133   1.053  -1.094  1.00  0.00    -0.055 C 
HETATM    6  C16 UNL     1      -0.074   1.509  -1.075  1.00  0.00     0.066 C 
HETATM    7  C17 UNL     1      -0.615   2.697  -1.662  1.00  0.00     0.115 C 
HETATM    8  P1  UNL     1      -2.205   2.957  -1.435  1.00  0.00    -0.047 P 
HETATM    9  N3  UNL     1      -3.218   1.847  -0.518  1.00  0.00    -0.213 NA
HETATM   10  H19 UNL     1      -3.972   2.375  -0.015  1.00  0.00     0.151 HD
ENDROOT
BRANCH   5  11
HETATM   11  C10 UNL     1       2.510   0.732  -1.233  1.00  0.00     0.005 C 
BRANCH  11  12
HETATM   12  C11 UNL     1       3.702   0.285  -1.253  1.00  0.00     0.003 C 
BRANCH  12  13
HETATM   13  C12 UNL     1       4.914   0.756  -1.827  1.00  0.00     0.035 C 
BRANCH  13  14
HETATM   14  C13 UNL     1       5.738  -0.188  -1.462  1.00  0.00     0.077 C 
HETATM   15  O1  UNL     1       5.573  -1.339  -0.735  1.00  0.00    -0.350 OA
HETATM   16  C14 UNL     1       6.950  -1.236  -0.333  1.00  0.00     0.214 C 
HETATM   17  C15 UNL     1       7.170  -0.507  -1.617  1.00  0.00     0.199 C 
BRANCH  17  18
HETATM   18  O2  UNL     1       7.362  -1.324  -2.724  1.00  0.00    -0.387 OA
HETATM   19  H16 UNL     1       7.487  -2.253  -2.382  1.00  0.00     0.210 HD
ENDBRANCH  17  18
ENDBRANCH  13  14
ENDBRANCH  12  13
ENDBRANCH  11  12
ENDBRANCH   5  11
BRANCH   1  20
HETATM   20  C6  UNL     1      -3.430   0.035   0.991  1.00  0.00     0.053 A 
HETATM   21  C5  UNL     1      -2.946  -0.838   1.936  1.00  0.00     0.031 A 
HETATM   22  C4  UNL     1      -3.719  -1.832   2.524  1.00  0.00     0.003 A 
HETATM   23  C3  UNL     1      -5.042  -1.980   2.166  1.00  0.00     0.007 A 
HETATM   24  C2  UNL     1      -5.583  -1.132   1.223  1.00  0.00    -0.060 A 
HETATM   25  C1  UNL     1      -6.999  -1.240   0.796  1.00  0.00     0.048 C 
HETATM   26  C18 UNL     1      -4.763  -0.165   0.675  1.00  0.00     0.038 A 
ENDBRANCH   1  20
TORSDOF 6
