REMARK  5 active torsions:
REMARK  status: ('A' for Active; 'I' for Inactive)
REMARK    1  A    between atoms: C5_5  and  N1_6 
REMARK       I    between atoms: N1_6  and  C6_7 
REMARK    2  A    between atoms: C6_7  and  C7_9 
REMARK    3  A    between atoms: C11_14  and  N3_15 
REMARK    4  A    between atoms: N3_15  and  C12_16 
REMARK    5  A    between atoms: C12_16  and  C13_17 
ROOT
HETATM    1  C7  UNL     1       1.212  -2.200   0.551  1.00  0.00     0.077 A 
HETATM    2  C8  UNL     1       0.825  -3.502   0.333  1.00  0.00     0.022 A 
HETATM    3  C9  UNL     1       1.793  -4.459   0.479  1.00  0.00     0.020 A 
HETATM    4  C10 UNL     1       3.100  -4.256   0.818  1.00  0.00     0.119 A 
HETATM    5  N2  UNL     1       3.417  -2.984   1.016  1.00  0.00    -0.243 NA
HETATM    6  C11 UNL     1       2.538  -1.955   0.899  1.00  0.00     0.139 A 
ENDROOT
BRANCH   1   7
HETATM    7  C6  UNL     1       0.149  -1.224   0.374  1.00  0.00     0.260 C 
HETATM    8  N1  UNL     1      -1.177  -1.557   0.042  1.00  0.00    -0.323 N 
HETATM    9  H4  UNL     1      -1.496  -2.565  -0.103  1.00  0.00     0.169 HD
HETATM   10  O1  UNL     1       0.070   0.027   0.446  1.00  0.00    -0.267 OA
BRANCH   8  11
HETATM   11  C5  UNL     1      -2.117  -0.553  -0.107  1.00  0.00     0.034 C 
HETATM   12  C4  UNL     1      -1.867   0.469  -1.197  1.00  0.00     0.059 C 
HETATM   13  C3  UNL     1      -2.976   1.324  -1.125  1.00  0.00     0.036 C 
HETATM   14  C2  UNL     1      -4.358   0.851  -1.472  1.00  0.00    -0.027 C 
HETATM   15  N5  UNL     1      -3.029   2.754  -0.731  1.00  0.00    -0.388 N 
HETATM   16  C1  UNL     1      -5.447   0.478  -2.136  1.00  0.00     0.022 C 
HETATM   17  C19 UNL     1      -4.310   0.870   0.020  1.00  0.00     0.020 C 
HETATM   18  C18 UNL     1      -3.274  -0.111   0.384  1.00  0.00     0.018 C 
HETATM   19  C20 UNL     1      -5.655   0.462   0.605  1.00  0.00     0.027 C 
HETATM   20  C21 UNL     1      -4.064   2.344   0.269  1.00  0.00     0.138 C 
HETATM   21  H21 UNL     1      -2.369   3.408  -1.269  1.00  0.00     0.159 HD
ENDBRANCH   8  11
ENDBRANCH   1   7
BRANCH   6  22
HETATM   22  N3  UNL     1       2.821  -0.575   1.104  1.00  0.00    -0.370 N 
HETATM   23  H8  UNL     1       3.840  -0.684   1.351  1.00  0.00     0.161 HD
BRANCH  22  24
HETATM   24  C12 UNL     1       3.102   0.788   1.307  1.00  0.00     0.160 C 
BRANCH  24  25
HETATM   25  C13 UNL     1       4.138   1.317   0.355  1.00  0.00    -0.038 A 
HETATM   26  C14 UNL     1       3.797   1.866  -0.865  1.00  0.00     0.028 A 
HETATM   27  C15 UNL     1       4.850   2.319  -1.656  1.00  0.00     0.116 A 
HETATM   28  N4  UNL     1       6.157   2.239  -1.278  1.00  0.00    -0.273 NA
HETATM   29  C16 UNL     1       6.512   1.702  -0.081  1.00  0.00     0.116 A 
HETATM   30  C17 UNL     1       5.476   1.242   0.728  1.00  0.00     0.028 A 
ENDBRANCH  24  25
ENDBRANCH  22  24
ENDBRANCH   6  22
TORSDOF 5
