REMARK  6 active torsions:
REMARK  status: ('A' for Active; 'I' for Inactive)
REMARK    1  A    between atoms: C3_4  and  C4_5 
REMARK    2  A    between atoms: C5_6  and  C6_7 
REMARK    3  A    between atoms: C6_7  and  N2_8 
REMARK    4  A    between atoms: N2_8  and  C7_9 
REMARK    5  A    between atoms: C11_14  and  C12_15 
REMARK       I    between atoms: C12_15  and  N4_17 
REMARK    6  A    between atoms: N4_17  and  C13_18 
ROOT
HETATM    1  C1  UNL     1       8.222   1.789   0.104  1.00  0.00     0.039 C 
HETATM    2  C2  UNL     1       7.270   1.317  -0.447  1.00  0.00     0.023 C 
HETATM    3  N1  UNL     1       6.174   0.749  -1.082  1.00  0.00    -0.211 NA
HETATM    4  C3  UNL     1       5.705   1.109  -2.220  1.00  0.00     0.127 C 
ENDROOT
BRANCH   4   5
HETATM    5  C4  UNL     1       4.571   0.579  -2.958  1.00  0.00     0.017 C 
HETATM    6  C5  UNL     1       3.831  -0.427  -2.504  1.00  0.00    -0.006 C 
BRANCH   6   7
HETATM    7  C6  UNL     1       3.865  -1.249  -1.291  1.00  0.00     0.148 C 
BRANCH   7   8
HETATM    8  N2  UNL     1       2.645  -1.191  -0.505  1.00  0.00    -0.371 N 
HETATM    9  H7  UNL     1       1.919  -0.613  -0.954  1.00  0.00     0.161 HD
BRANCH   8  10
HETATM   10  C7  UNL     1       2.580  -1.891   0.725  1.00  0.00     0.139 A 
HETATM   11  N3  UNL     1       3.662  -2.571   1.143  1.00  0.00    -0.243 NA
HETATM   12  C8  UNL     1       3.717  -3.253   2.293  1.00  0.00     0.119 A 
HETATM   13  C9  UNL     1       2.599  -3.261   3.098  1.00  0.00     0.020 A 
HETATM   14  C10 UNL     1       1.465  -2.582   2.718  1.00  0.00     0.022 A 
HETATM   15  C11 UNL     1       1.465  -1.900   1.528  1.00  0.00     0.077 A 
BRANCH  15  16
HETATM   16  C12 UNL     1       0.249  -1.204   1.142  1.00  0.00     0.260 C 
HETATM   17  O1  UNL     1      -0.080  -0.521   0.143  1.00  0.00    -0.267 OA
HETATM   18  N4  UNL     1      -0.910  -1.196   1.958  1.00  0.00    -0.323 N 
HETATM   19  H11 UNL     1      -0.973  -1.689   2.900  1.00  0.00     0.169 HD
BRANCH  18  20
HETATM   20  C13 UNL     1      -1.923  -0.424   1.277  1.00  0.00     0.037 A 
HETATM   21  C14 UNL     1      -2.713  -1.226   0.441  1.00  0.00     0.030 A 
HETATM   22  C15 UNL     1      -3.705  -0.613  -0.262  1.00  0.00     0.012 A 
HETATM   23  C16 UNL     1      -3.989   0.715  -0.216  1.00  0.00    -0.022 A 
HETATM   24  C17 UNL     1      -3.182   1.472   0.625  1.00  0.00     0.037 A 
HETATM   25  C20 UNL     1      -4.980   1.630  -0.856  1.00  0.00    -0.002 C 
HETATM   26  C18 UNL     1      -2.156   0.930   1.372  1.00  0.00     0.059 A 
HETATM   27  N5  UNL     1      -3.636   2.839   0.535  1.00  0.00    -0.388 N 
HETATM   28  C19 UNL     1      -4.213   2.930  -0.817  1.00  0.00     0.133 C 
HETATM   29  H15 UNL     1      -3.524   3.530   1.329  1.00  0.00     0.159 HD
HETATM   30  C21 UNL     1      -5.193   1.187  -2.268  1.00  0.00     0.021 C 
HETATM   31  C22 UNL     1      -6.208   1.641  -0.018  1.00  0.00     0.021 C 
ENDBRANCH  18  20
ENDBRANCH  15  16
ENDBRANCH   8  10
ENDBRANCH   7   8
ENDBRANCH   6   7
ENDBRANCH   4   5
TORSDOF 6
