REMARK  5 active torsions:
REMARK  status: ('A' for Active; 'I' for Inactive)
REMARK    1  A    between atoms: C7_7  and  N1_8 
REMARK       I    between atoms: N1_8  and  C8_9 
REMARK    2  A    between atoms: C8_9  and  C9_11 
REMARK    3  A    between atoms: C13_16  and  N3_17 
REMARK    4  A    between atoms: N3_17  and  C14_18 
REMARK    5  A    between atoms: C14_18  and  C15_19 
ROOT
HETATM    1  C9  UNL     1       1.848  -0.467   0.640  1.00  0.00     0.077 A 
HETATM    2  C10 UNL     1       2.449  -1.303   1.544  1.00  0.00     0.022 A 
HETATM    3  C11 UNL     1       3.706  -1.001   2.010  1.00  0.00     0.020 A 
HETATM    4  C12 UNL     1       4.401   0.098   1.621  1.00  0.00     0.119 A 
HETATM    5  N2  UNL     1       3.776   0.877   0.744  1.00  0.00    -0.243 NA
HETATM    6  C13 UNL     1       2.551   0.646   0.246  1.00  0.00     0.139 A 
ENDROOT
BRANCH   1   7
HETATM    7  C8  UNL     1       0.542  -0.728   0.118  1.00  0.00     0.260 C 
HETATM    8  N1  UNL     1      -0.132  -1.894   0.566  1.00  0.00    -0.323 N 
HETATM    9  H10 UNL     1       0.149  -2.639   1.238  1.00  0.00     0.169 HD
HETATM   10  O1  UNL     1      -0.271  -0.210  -0.678  1.00  0.00    -0.267 OA
BRANCH   8  11
HETATM   11  C7  UNL     1      -1.368  -2.124   0.061  1.00  0.00     0.032 A 
HETATM   12  C6  UNL     1      -2.414  -2.566  -0.741  1.00  0.00     0.032 A 
HETATM   13  C5  UNL     1      -3.705  -2.181  -0.290  1.00  0.00    -0.071 A 
HETATM   14  C4  UNL     1      -4.747  -0.924  -0.400  1.00  0.00     0.049 A 
HETATM   15  C22 UNL     1      -4.743  -1.758   0.249  1.00  0.00     0.033 A 
HETATM   16  C2  UNL     1      -5.002  -0.944   1.120  1.00  0.00    -0.030 A 
HETATM   17  C1  UNL     1      -5.914  -1.780   1.838  1.00  0.00     0.016 C 
HETATM   18  C3  UNL     1      -5.314   0.508   1.534  1.00  0.00     0.016 C 
HETATM   19  C21 UNL     1      -3.523  -1.157   1.250  1.00  0.00     0.007 A 
HETATM   20  C20 UNL     1      -2.195  -1.426   1.008  1.00  0.00     0.015 A 
ENDBRANCH   8  11
ENDBRANCH   1   7
BRANCH   6  21
HETATM   21  N3  UNL     1       2.088   1.616  -0.673  1.00  0.00    -0.370 N 
HETATM   22  H14 UNL     1       1.145   1.504  -1.100  1.00  0.00     0.161 HD
BRANCH  21  23
HETATM   23  C14 UNL     1       2.739   2.817  -1.158  1.00  0.00     0.160 C 
BRANCH  23  24
HETATM   24  C15 UNL     1       3.991   2.556  -1.895  1.00  0.00    -0.038 A 
HETATM   25  C16 UNL     1       5.294   2.514  -1.504  1.00  0.00     0.028 A 
HETATM   26  C17 UNL     1       6.307   2.236  -2.378  1.00  0.00     0.116 A 
HETATM   27  N4  UNL     1       6.089   1.982  -3.695  1.00  0.00    -0.273 NA
HETATM   28  C18 UNL     1       4.792   2.017  -4.119  1.00  0.00     0.116 A 
HETATM   29  C19 UNL     1       3.735   2.299  -3.249  1.00  0.00     0.028 A 
ENDBRANCH  23  24
ENDBRANCH  21  23
ENDBRANCH   6  21
TORSDOF 5
