REMARK  5 active torsions:
REMARK  status: ('A' for Active; 'I' for Inactive)
REMARK    1  A    between atoms: C8_8  and  N1_9 
REMARK       I    between atoms: N1_9  and  C9_10 
REMARK    2  A    between atoms: C9_10  and  C10_12 
REMARK    3  A    between atoms: C14_17  and  N3_18 
REMARK    4  A    between atoms: N3_18  and  C15_19 
REMARK    5  A    between atoms: C15_19  and  C16_20 
ROOT
HETATM    1  C10 UNL     1      -1.670  -1.419   2.040  1.00  0.00     0.077 A 
HETATM    2  C11 UNL     1      -1.476  -2.050   3.241  1.00  0.00     0.022 A 
HETATM    3  C12 UNL     1      -2.564  -2.567   3.904  1.00  0.00     0.020 A 
HETATM    4  C13 UNL     1      -3.848  -2.474   3.410  1.00  0.00     0.119 A 
HETATM    5  N2  UNL     1      -3.956  -1.843   2.232  1.00  0.00    -0.243 NA
HETATM    6  C14 UNL     1      -2.937  -1.319   1.536  1.00  0.00     0.139 A 
ENDROOT
BRANCH   1   7
HETATM    7  C9  UNL     1      -0.517  -0.877   1.346  1.00  0.00     0.260 C 
HETATM    8  N1  UNL     1       0.792  -0.989   1.885  1.00  0.00    -0.323 N 
HETATM    9  H8  UNL     1       1.029  -1.459   2.804  1.00  0.00     0.169 HD
HETATM   10  O1  UNL     1      -0.361  -0.263   0.264  1.00  0.00    -0.267 OA
BRANCH   8  11
HETATM   11  C8  UNL     1       1.928  -0.466   1.219  1.00  0.00     0.026 C 
HETATM   12  C7  UNL     1       2.348  -0.904  -0.144  1.00  0.00     0.007 C 
HETATM   13  C6  UNL     1       3.304  -0.653  -1.053  1.00  0.00    -0.014 A 
HETATM   14  C5  UNL     1       4.118  -0.114  -1.271  1.00  0.00    -0.027 A 
HETATM   15  B1  UNL     1       3.949   0.949  -0.228  1.00  0.00     0.242 B 
HETATM   16  C4  UNL     1       4.704   0.286  -1.413  1.00  0.00    -0.096 A 
HETATM   17  C2  UNL     1       5.465   0.822  -1.577  1.00  0.00    -0.043 A 
HETATM   18  C1  UNL     1       6.581   1.063  -0.400  1.00  0.00     0.009 C 
HETATM   19  C3  UNL     1       5.245   2.399  -1.964  1.00  0.00     0.009 C 
HETATM   20  C22 UNL     1       3.919   1.084   1.169  1.00  0.00    -0.008 C 
HETATM   21  C21 UNL     1       2.676   0.472   1.828  1.00  0.00    -0.006 C 
ENDBRANCH   8  11
ENDBRANCH   1   7
BRANCH   6  22
HETATM   22  N3  UNL     1      -3.231  -0.680   0.299  1.00  0.00    -0.370 N 
HETATM   23  H12 UNL     1      -2.560  -0.232  -0.345  1.00  0.00     0.161 HD
BRANCH  22  24
HETATM   24  C15 UNL     1      -4.575  -0.603  -0.183  1.00  0.00     0.160 C 
BRANCH  24  25
HETATM   25  C16 UNL     1      -4.732   0.091  -1.482  1.00  0.00    -0.038 A 
HETATM   26  C17 UNL     1      -4.953   1.455  -1.526  1.00  0.00     0.028 A 
HETATM   27  C18 UNL     1      -5.117   2.232  -2.657  1.00  0.00     0.116 A 
HETATM   28  N4  UNL     1      -5.052   1.573  -3.834  1.00  0.00    -0.273 NA
HETATM   29  C19 UNL     1      -4.836   0.229  -3.845  1.00  0.00     0.116 A 
HETATM   30  C20 UNL     1      -4.673  -0.543  -2.711  1.00  0.00     0.028 A 
ENDBRANCH  24  25
ENDBRANCH  22  24
ENDBRANCH   6  22
TORSDOF 5
