REMARK  0 active torsions:
REMARK  status: ('A' for Active; 'I' for Inactive)
ROOT
HETATM    1  C1  UNL     1       6.377   0.716   1.278  1.00  0.00     0.036 C 
HETATM    2  C2  UNL     1       5.682  -0.579   1.078  1.00  0.00    -0.022 C 
HETATM    3  C3  UNL     1       4.575  -0.633   0.304  1.00  0.00    -0.043 C 
HETATM    4  C4  UNL     1       3.959  -1.945   0.164  1.00  0.00     0.027 C 
HETATM    5  C5  UNL     1       2.905  -2.375  -0.490  1.00  0.00     0.108 C 
HETATM    6  N1  UNL     1       1.833  -2.015  -1.338  1.00  0.00    -0.310 N 
HETATM    7  N2  UNL     1       0.787  -1.360  -0.698  1.00  0.00    -0.300 N 
HETATM    8  C6  UNL     1       0.991  -0.639   0.551  1.00  0.00     0.137 C 
HETATM    9  C7  UNL     1       1.415   0.601   0.200  1.00  0.00     0.046 C 
HETATM   10  C8  UNL     1       0.560   1.799  -0.210  1.00  0.00     0.226 C 
HETATM   11  O1  UNL     1      -0.186   1.284  -1.263  1.00  0.00    -0.378 OA
HETATM   12  C9  UNL     1      -1.412   0.776  -0.977  1.00  0.00     0.146 C 
HETATM   13  C10 UNL     1      -2.070   1.449   0.223  1.00  0.00     0.047 C 
HETATM   14  C11 UNL     1      -3.581   1.324   0.153  1.00  0.00    -0.028 C 
HETATM   15  C12 UNL     1      -4.078   2.012  -1.139  1.00  0.00     0.019 C 
HETATM   16  C13 UNL     1      -4.150   2.201   1.287  1.00  0.00     0.019 C 
HETATM   17  C14 UNL     1      -4.123  -0.007   0.199  1.00  0.00    -0.018 C 
HETATM   18  C15 UNL     1      -4.154  -1.292   0.276  1.00  0.00    -0.005 C 
HETATM   19  C16 UNL     1      -3.568  -2.573   0.392  1.00  0.00     0.048 C 
HETATM   20  C17 UNL     1      -2.206  -2.592   0.484  1.00  0.00     0.084 C 
HETATM   21  N3  UNL     1      -1.910  -1.176   0.417  1.00  0.00    -0.409 N 
HETATM   22  C18 UNL     1      -1.569  -0.706  -0.942  1.00  0.00     0.125 C 
HETATM   23  C19 UNL     1      -0.449  -1.522  -1.487  1.00  0.00     0.175 C 
HETATM   24  N4  UNL     1       2.792   0.923   0.163  1.00  0.00    -0.386 N 
HETATM   25  C20 UNL     1       4.115   0.635  -0.316  1.00  0.00     0.158 C 
HETATM   26  H7  UNL     1       1.723  -2.165  -2.362  1.00  0.00     0.186 HD
HETATM   27  H24 UNL     1      -2.017  -0.806   1.407  1.00  0.00     0.154 HD
HETATM   28  H28 UNL     1       2.622   1.746   0.819  1.00  0.00     0.159 HD
ENDROOT
TORSDOF 0
