REMARK  5 active torsions:
REMARK  status: ('A' for Active; 'I' for Inactive)
REMARK    1  A    between atoms: C3_3  and  C4_4 
REMARK    2  A    between atoms: C4_4  and  C6_6 
REMARK    3  A    between atoms: C6_6  and  C7_7 
REMARK    4  A    between atoms: C7_7  and  C8_8 
REMARK    5  A    between atoms: C11_14  and  C12_15 
ROOT
HETATM    1  C8  UNL     1       0.140  -1.925  -0.489  1.00  0.00     0.059 C 
HETATM    2  N1  UNL     1      -0.175  -3.214  -0.499  1.00  0.00    -0.242 NA
HETATM    3  C9  UNL     1      -1.519  -3.816  -0.609  1.00  0.00     0.234 C 
HETATM    4  N2  UNL     1      -2.719  -3.490  -1.127  1.00  0.00    -0.235 NA
HETATM    5  C10 UNL     1      -3.010  -2.231  -1.860  1.00  0.00     0.234 C 
HETATM    6  N3  UNL     1      -2.734  -0.879  -1.928  1.00  0.00    -0.246 NA
HETATM    7  C11 UNL     1      -1.801  -0.235  -0.947  1.00  0.00     0.048 C 
HETATM    8  C20 UNL     1      -0.711  -0.785  -0.483  1.00  0.00     0.059 C 
ENDROOT
BRANCH   7   9
HETATM    9  C12 UNL     1      -2.262   1.168  -0.345  1.00  0.00     0.084 C 
HETATM   10  C13 UNL     1      -1.937   2.111  -1.488  1.00  0.00    -0.014 C 
HETATM   11  C14 UNL     1      -3.068   2.652  -0.999  1.00  0.00    -0.003 C 
HETATM   12  C15 UNL     1      -4.035   2.627  -0.091  1.00  0.00    -0.004 C 
HETATM   13  C16 UNL     1      -4.266   1.870   1.031  1.00  0.00    -0.025 C 
HETATM   14  C17 UNL     1      -4.055   0.819   2.108  1.00  0.00     0.053 C 
HETATM   15  C18 UNL     1      -2.836  -0.009   1.933  1.00  0.00     0.171 C 
HETATM   16  O1  UNL     1      -1.564   0.455   1.779  1.00  0.00    -0.390 OA
HETATM   17  C19 UNL     1      -1.387   1.442   0.786  1.00  0.00     0.182 C 
ENDBRANCH   7   9
BRANCH   1  18
HETATM   18  C7  UNL     1       1.648  -1.807  -0.317  1.00  0.00     0.028 C 
BRANCH  18  19
HETATM   19  C6  UNL     1       2.866  -1.813  -0.137  1.00  0.00    -0.016 C 
BRANCH  19  20
HETATM   20  C4  UNL     1       3.503  -0.508  -0.639  1.00  0.00     0.026 C 
HETATM   21  C5  UNL     1       4.368  -1.204  -1.839  1.00  0.00     0.018 C 
BRANCH  20  22
HETATM   22  C3  UNL     1       4.575   0.069   0.142  1.00  0.00    -0.023 C 
HETATM   23  C2  UNL     1       4.673   1.230   0.826  1.00  0.00    -0.034 C 
HETATM   24  C1  UNL     1       6.054   1.317   1.442  1.00  0.00     0.036 C 
ENDBRANCH  20  22
ENDBRANCH  19  20
ENDBRANCH  18  19
ENDBRANCH   1  18
TORSDOF 5
