REMARK  7 active torsions:
REMARK  status: ('A' for Active; 'I' for Inactive)
REMARK    1  A    between atoms: C5_8  and  C6_9 
REMARK    2  A    between atoms: C9_13  and  O1_14 
REMARK    3  A    between atoms: O1_14  and  C10_15 
REMARK    4  A    between atoms: C10_15  and  C11_16 
REMARK    5  A    between atoms: C11_16  and  N5_17 
REMARK    6  A    between atoms: C11_16  and  C12_18 
REMARK    7  A    between atoms: C12_18  and  C13_19 
ROOT
HETATM    1  C6  UNL     1      -2.143   1.252   0.450  1.00  0.00    -0.006 A 
HETATM    2  C7  UNL     1      -1.596   2.369   1.039  1.00  0.00     0.128 A 
HETATM    3  N4  UNL     1      -0.287   2.689   1.031  1.00  0.00    -0.269 NA
HETATM    4  C8  UNL     1       0.603   1.873   0.404  1.00  0.00     0.152 A 
HETATM    5  C9  UNL     1       0.077   0.746  -0.195  1.00  0.00     0.087 A 
HETATM    6  C19 UNL     1      -1.253   0.418  -0.189  1.00  0.00     0.052 A 
ENDROOT
BRANCH   5   7
HETATM    7  O1  UNL     1       1.012  -0.065  -0.826  1.00  0.00    -0.348 OA
BRANCH   7   8
HETATM    8  C10 UNL     1       2.385   0.279  -0.829  1.00  0.00     0.200 C 
BRANCH   8   9
HETATM    9  C11 UNL     1       3.174  -0.773  -1.583  1.00  0.00     0.102 C 
BRANCH   9  10
HETATM   10  N5  UNL     1       3.028  -2.061  -0.971  1.00  0.00    -0.424 N 
HETATM   11  H13 UNL     1       3.243  -2.855  -1.579  1.00  0.00     0.150 HD
HETATM   12  H14 UNL     1       3.396  -2.079  -0.014  1.00  0.00     0.150 HD
ENDBRANCH   9  10
BRANCH   9  13
HETATM   13  C12 UNL     1       4.575  -0.374  -1.855  1.00  0.00     0.065 C 
BRANCH  13  14
HETATM   14  C13 UNL     1       5.409  -0.090  -0.681  1.00  0.00    -0.056 A 
HETATM   15  C14 UNL     1       6.072  -1.221  -0.213  1.00  0.00     0.007 A 
HETATM   16  C15 UNL     1       6.911  -1.130   0.902  1.00  0.00     0.001 A 
HETATM   17  C16 UNL     1       7.057   0.107   1.514  1.00  0.00     0.000 A 
HETATM   18  C17 UNL     1       6.394   1.217   1.037  1.00  0.00     0.001 A 
HETATM   19  C18 UNL     1       5.565   1.134  -0.061  1.00  0.00     0.007 A 
ENDBRANCH  13  14
ENDBRANCH   9  13
ENDBRANCH   8   9
ENDBRANCH   7   8
ENDBRANCH   5   7
BRANCH   1  20
HETATM   20  C5  UNL     1      -3.548   0.939   0.476  1.00  0.00    -0.024 A 
HETATM   21  C4  UNL     1      -4.458   1.688   1.068  1.00  0.00     0.007 A 
HETATM   22  C3  UNL     1      -5.922   1.507   1.183  1.00  0.00     0.179 A 
HETATM   23  N3  UNL     1      -6.292   0.296   0.509  1.00  0.00    -0.271 N 
HETATM   24  N2  UNL     1      -7.582  -0.268   0.368  1.00  0.00    -0.217 N 
HETATM   25  C21 UNL     1      -5.368  -0.584  -0.162  1.00  0.00     0.079 A 
HETATM   26  N1  UNL     1      -7.443  -1.466  -0.375  1.00  0.00    -0.162 NA
HETATM   27  H4  UNL     1      -8.539   0.020   0.688  1.00  0.00     0.210 HD
HETATM   28  C2  UNL     1      -6.206  -1.660  -0.682  1.00  0.00     0.080 A 
HETATM   29  C1  UNL     1      -5.610  -2.802  -1.462  1.00  0.00     0.075 C 
HETATM   30  C20 UNL     1      -4.083  -0.255  -0.161  1.00  0.00     0.045 A 
ENDBRANCH   1  20
TORSDOF 7
