REMARK  10 active torsions:
REMARK  status: ('A' for Active; 'I' for Inactive)
REMARK    1  A    between atoms: N1_1  and  C1_2 
REMARK    2  A    between atoms: C1_2  and  C2_3 
REMARK    3  A    between atoms: C1_2  and  C17_21 
REMARK    4  A    between atoms: C2_3  and  C3_4 
REMARK    5  A    between atoms: C3_4  and  O1_5 
REMARK    6  A    between atoms: O1_5  and  C4_6 
REMARK    7  A    between atoms: C7_10  and  C8_11 
REMARK    8  A    between atoms: C8_11  and  C9_12 
REMARK    9  A    between atoms: C13_16  and  C14_17 
REMARK   10  A    between atoms: C17_21  and  C18_22 
ROOT
HETATM    1  C4  UNL     1       0.715  -0.971  -0.357  1.00  0.00     0.086 A 
HETATM    2  C5  UNL     1       0.957  -1.940  -1.288  1.00  0.00     0.152 A 
HETATM    3  N2  UNL     1       2.114  -2.633  -1.415  1.00  0.00    -0.270 NA
HETATM    4  C6  UNL     1       3.119  -2.359  -0.563  1.00  0.00     0.123 A 
HETATM    5  C7  UNL     1       2.924  -1.384   0.402  1.00  0.00    -0.034 A 
HETATM    6  C16 UNL     1       1.727  -0.674   0.524  1.00  0.00     0.047 A 
ENDROOT
BRANCH   1   7
HETATM    7  O1  UNL     1      -0.471  -0.288  -0.258  1.00  0.00    -0.350 OA
BRANCH   7   8
HETATM    8  C3  UNL     1      -1.579  -0.494  -1.091  1.00  0.00     0.178 C 
BRANCH   8   9
HETATM    9  C2  UNL     1      -2.685   0.451  -0.660  1.00  0.00     0.062 C 
BRANCH   9  10
HETATM   10  C1  UNL     1      -3.003   0.111   0.769  1.00  0.00     0.224 C 
BRANCH  10  11
HETATM   11  N1  UNL     1      -1.855   0.274   1.637  1.00  0.00     0.083 N 
HETATM   12  H1  UNL     1      -1.728  -0.547   2.279  1.00  0.00     0.313 HD
HETATM   13  H2  UNL     1      -1.907   1.153   2.200  1.00  0.00     0.313 HD
ENDBRANCH  10  11
BRANCH  10  14
HETATM   14  C17 UNL     1      -4.113   1.001   1.302  1.00  0.00     0.073 C 
BRANCH  14  15
HETATM   15  C18 UNL     1      -5.279   0.843   0.429  1.00  0.00    -0.056 A 
HETATM   16  C19 UNL     1      -6.217  -0.146   0.723  1.00  0.00     0.007 A 
HETATM   17  C20 UNL     1      -7.363  -0.425   0.009  1.00  0.00     0.001 A 
HETATM   18  C21 UNL     1      -7.608   0.347  -1.103  1.00  0.00     0.000 A 
HETATM   19  C22 UNL     1      -6.724   1.342  -1.452  1.00  0.00     0.001 A 
HETATM   20  C23 UNL     1      -5.593   1.586  -0.712  1.00  0.00     0.007 A 
ENDBRANCH  14  15
ENDBRANCH  10  14
ENDBRANCH   9  10
ENDBRANCH   8   9
ENDBRANCH   7   8
ENDBRANCH   1   7
BRANCH   5  21
HETATM   21  C8  UNL     1       3.995  -1.022   1.386  1.00  0.00     0.078 C 
BRANCH  21  22
HETATM   22  C9  UNL     1       4.841   0.077   0.822  1.00  0.00    -0.053 A 
HETATM   23  C10 UNL     1       4.634   1.431   0.968  1.00  0.00     0.007 A 
HETATM   24  C11 UNL     1       5.502   2.329   0.388  1.00  0.00     0.002 A 
HETATM   25  C12 UNL     1       6.604   1.898  -0.355  1.00  0.00     0.014 A 
HETATM   26  C13 UNL     1       6.813   0.533  -0.502  1.00  0.00     0.002 A 
HETATM   27  C15 UNL     1       5.940  -0.360   0.081  1.00  0.00     0.022 A 
BRANCH  26  28
HETATM   28  C14 UNL     1       7.963   0.074  -1.278  1.00  0.00     0.269 C 
HETATM   29  O2  UNL     1       8.694   0.971  -1.766  1.00  0.00    -0.301 OA
ENDBRANCH  26  28
ENDBRANCH  21  22
ENDBRANCH   5  21
TORSDOF 10
