REMARK  9 active torsions:
REMARK  status: ('A' for Active; 'I' for Inactive)
REMARK    1  A    between atoms: C2_2  and  N1_3 
REMARK    2  A    between atoms: N1_3  and  C3_4 
REMARK    3  A    between atoms: N1_3  and  S1_26 
REMARK    4  A    between atoms: C3_4  and  C4_5 
REMARK    5  A    between atoms: N2_6  and  C5_7 
REMARK    6  A    between atoms: C7_10  and  C8_11 
REMARK    7  A    between atoms: C8_11  and  C9_13 
REMARK    8  A    between atoms: C10_14  and  O2_15 
REMARK    9  A    between atoms: C16_23  and  N4_24 
ROOT
HETATM    1  C5  UNL     1      -0.997  -0.533   1.122  1.00  0.00     0.749 A 
HETATM    2  N3  UNL     1      -0.175   0.118   1.987  1.00  0.00    -0.072 NA
HETATM    3  C6  UNL     1       1.107   0.364   1.659  1.00  0.00     0.156 A 
HETATM    4  C7  UNL     1       1.656  -0.018   0.461  1.00  0.00     0.079 A 
HETATM    5  C16 UNL     1       0.814  -0.675  -0.403  1.00  0.00     0.156 A 
HETATM    6  N5  UNL     1      -0.488  -0.918  -0.058  1.00  0.00    -0.043 NA
ENDROOT
BRANCH   4   7
HETATM    7  C8  UNL     1       3.006   0.255   0.051  1.00  0.00     0.203 C 
HETATM    8  O1  UNL     1       3.140   0.029  -1.203  1.00  0.00    -0.286 OA
BRANCH   7   9
HETATM    9  C9  UNL     1       4.233   0.702   0.628  1.00  0.00     0.090 A 
HETATM   10  C10 UNL     1       5.144   1.333  -0.203  1.00  0.00     0.085 A 
HETATM   11  C12 UNL     1       6.381   1.773   0.278  1.00  0.00     0.041 A 
HETATM   12  C13 UNL     1       6.710   1.581   1.595  1.00  0.00     0.048 A 
HETATM   13  C14 UNL     1       5.843   0.959   2.465  1.00  0.00     0.156 A 
HETATM   14  F1  UNL     1       6.225   0.802   3.741  1.00  0.00    -0.203 F 
HETATM   15  C15 UNL     1       4.645   0.552   1.924  1.00  0.00     0.171 A 
HETATM   16  F2  UNL     1       3.887  -0.085   2.843  1.00  0.00    -0.202 F 
BRANCH  10  17
HETATM   17  O2  UNL     1       4.888   1.565  -1.545  1.00  0.00    -0.355 OA
HETATM   18  C11 UNL     1       5.808   2.203  -2.389  1.00  0.00     0.210 C 
ENDBRANCH  10  17
ENDBRANCH   7   9
ENDBRANCH   4   7
BRANCH   5  19
HETATM   19  N4  UNL     1       1.163  -1.160  -1.694  1.00  0.00    -0.383 N 
HETATM   20  H15 UNL     1       1.181  -0.737  -2.632  1.00  0.00     0.157 HD
HETATM   21  H16 UNL     1       1.491  -2.159  -1.843  1.00  0.00     0.157 HD
ENDBRANCH   5  19
BRANCH   1  22
HETATM   22  N2  UNL     1      -2.349  -0.794   1.465  1.00  0.00    -0.076 NA
HETATM   23  C4  UNL     1      -2.968  -1.756   0.825  1.00  0.00     0.130 C 
BRANCH  23  24
HETATM   24  C3  UNL     1      -4.358  -2.162   1.047  1.00  0.00     0.182 C 
BRANCH  24  25
HETATM   25  N1  UNL     1      -5.213  -1.463   0.123  1.00  0.00    -0.307 N 
BRANCH  25  26
HETATM   26  C2  UNL     1      -4.853  -1.517  -1.228  1.00  0.00     0.131 C 
HETATM   27  C1  UNL     1      -5.888  -1.908  -2.231  1.00  0.00     0.027 C 
ENDBRANCH  25  26
BRANCH  25  28
HETATM   28  S1  UNL     1      -5.803   0.025   0.701  1.00  0.00     0.225 S 
HETATM   29  C17 UNL     1      -4.525   1.248   0.512  1.00  0.00     0.186 C 
HETATM   30  O3  UNL     1      -6.928   0.467  -0.218  1.00  0.00    -0.206 OA
HETATM   31  O4  UNL     1      -6.201  -0.005   2.130  1.00  0.00    -0.206 OA
ENDBRANCH  25  28
ENDBRANCH  24  25
ENDBRANCH  23  24
ENDBRANCH   1  22
TORSDOF 9
