REMARK  7 active torsions:
REMARK  status: ('A' for Active; 'I' for Inactive)
REMARK    1  A    between atoms: C2_2  and  C3_3 
REMARK    2  A    between atoms: C4_4  and  O1_5 
REMARK    3  A    between atoms: O1_5  and  C5_6 
REMARK    4  A    between atoms: C5_6  and  N1_7 
REMARK    5  A    between atoms: C5_6  and  C6_8 
REMARK    6  A    between atoms: C6_8  and  C7_9 
REMARK    7  A    between atoms: C12_14  and  N2_15 
ROOT
HETATM    1  O1  UNL     1       0.142   0.578   1.682  1.00  0.00    -0.320 OA
ENDROOT
BRANCH   1   2
HETATM    2  C4  UNL     1      -0.875   0.386   0.763  1.00  0.00     0.054 C 
HETATM    3  C3  UNL     1      -2.124  -0.349   1.176  1.00  0.00     0.073 C 
HETATM    4  C18 UNL     1      -3.221   0.438   0.532  1.00  0.00    -0.044 A 
HETATM    5  C15 UNL     1      -3.249   0.242  -0.941  1.00  0.00     0.134 A 
HETATM    6  C17 UNL     1      -4.016   1.186   1.280  1.00  0.00     0.027 A 
HETATM    7  C14 UNL     1      -1.910   0.617  -1.489  1.00  0.00     0.061 C 
HETATM    8  N3  UNL     1      -4.342   1.043  -1.490  1.00  0.00    -0.305 N 
HETATM    9  C13 UNL     1      -0.853   0.799  -0.480  1.00  0.00     0.008 C 
HETATM   10  N4  UNL     1      -5.223   1.861  -0.738  1.00  0.00    -0.191 NA
HETATM   11  H22 UNL     1      -4.406   0.946  -2.526  1.00  0.00     0.183 HD
HETATM   12  C16 UNL     1      -5.044   1.904   0.538  1.00  0.00     0.138 A 
BRANCH   3  13
HETATM   13  C2  UNL     1      -2.009  -1.741   0.602  1.00  0.00     0.011 C 
HETATM   14  C1  UNL     1      -3.206  -2.597   0.942  1.00  0.00     0.006 C 
ENDBRANCH   3  13
ENDBRANCH   1   2
BRANCH   1  15
HETATM   15  C5  UNL     1       1.493   0.728   1.281  1.00  0.00     0.363 C 
BRANCH  15  16
HETATM   16  N1  UNL     1       2.334   0.934   2.452  1.00  0.00     0.107 N 
HETATM   17  H8  UNL     1       1.746   1.482   3.138  1.00  0.00     0.316 HD
HETATM   18  H9  UNL     1       3.136   1.577   2.201  1.00  0.00     0.316 HD
ENDBRANCH  15  16
BRANCH  15  19
HETATM   19  C6  UNL     1       1.900  -0.541   0.560  1.00  0.00     0.105 C 
BRANCH  19  20
HETATM   20  C7  UNL     1       3.319  -0.493   0.088  1.00  0.00    -0.028 A 
HETATM   21  C8  UNL     1       4.302  -1.193   0.761  1.00  0.00     0.009 A 
HETATM   22  C9  UNL     1       5.593  -1.115   0.284  1.00  0.00     0.001 A 
HETATM   23  C10 UNL     1       5.974  -0.376  -0.835  1.00  0.00     0.002 A 
HETATM   24  C11 UNL     1       4.985   0.317  -1.495  1.00  0.00     0.029 A 
HETATM   25  C12 UNL     1       3.671   0.246  -1.021  1.00  0.00     0.032 A 
BRANCH  25  26
HETATM   26  N2  UNL     1       2.666   0.958  -1.704  1.00  0.00    -0.399 N 
HETATM   27  H16 UNL     1       2.220   1.899  -1.847  1.00  0.00     0.156 HD
HETATM   28  H17 UNL     1       1.961   0.592  -2.404  1.00  0.00     0.156 HD
ENDBRANCH  25  26
ENDBRANCH  19  20
ENDBRANCH  15  19
ENDBRANCH   1  15
TORSDOF 7
