REMARK  9 active torsions:
REMARK  status: ('A' for Active; 'I' for Inactive)
REMARK    1  A    between atoms: N3_7  and  C5_8 
REMARK    2  A    between atoms: C6_9  and  C7_10 
REMARK    3  A    between atoms: C8_11  and  C9_12 
REMARK    4  A    between atoms: C12_16  and  O1_17 
REMARK    5  A    between atoms: O1_17  and  C13_18 
REMARK    6  A    between atoms: C13_18  and  C14_19 
REMARK    7  A    between atoms: C14_19  and  N5_20 
REMARK    8  A    between atoms: C14_19  and  C15_21 
REMARK    9  A    between atoms: C15_21  and  C16_22 
ROOT
HETATM    1  C9  UNL     1      -1.338   0.592   0.096  1.00  0.00    -0.016 A 
HETATM    2  C10 UNL     1      -0.978   1.851  -0.336  1.00  0.00     0.127 A 
HETATM    3  N4  UNL     1       0.223   2.406  -0.099  1.00  0.00    -0.269 NA
HETATM    4  C11 UNL     1       1.112   1.683   0.597  1.00  0.00     0.152 A 
HETATM    5  C12 UNL     1       0.931   0.425   1.100  1.00  0.00     0.087 A 
HETATM    6  C22 UNL     1      -0.337  -0.074   0.812  1.00  0.00     0.051 A 
ENDROOT
BRANCH   5   7
HETATM    7  O1  UNL     1       1.637  -0.465   1.792  1.00  0.00    -0.348 OA
BRANCH   7   8
HETATM    8  C13 UNL     1       2.888  -0.497   2.277  1.00  0.00     0.200 C 
BRANCH   8   9
HETATM    9  C14 UNL     1       3.978  -0.500   1.274  1.00  0.00     0.102 C 
BRANCH   9  10
HETATM   10  N5  UNL     1       4.107   0.572   0.374  1.00  0.00    -0.424 N 
HETATM   11  H16 UNL     1       3.567   0.553  -0.496  1.00  0.00     0.150 HD
HETATM   12  H17 UNL     1       4.363   1.482   0.765  1.00  0.00     0.150 HD
ENDBRANCH   9  10
BRANCH   9  13
HETATM   13  C15 UNL     1       5.359  -0.669   1.947  1.00  0.00     0.065 C 
BRANCH  13  14
HETATM   14  C16 UNL     1       6.351  -0.655   0.839  1.00  0.00    -0.056 A 
HETATM   15  C17 UNL     1       6.638  -1.910   0.290  1.00  0.00     0.007 A 
HETATM   16  C18 UNL     1       7.541  -2.066  -0.748  1.00  0.00     0.001 A 
HETATM   17  C19 UNL     1       8.196  -0.964  -1.280  1.00  0.00     0.000 A 
HETATM   18  C20 UNL     1       7.894   0.260  -0.719  1.00  0.00     0.001 A 
HETATM   19  C21 UNL     1       6.994   0.433   0.318  1.00  0.00     0.007 A 
ENDBRANCH  13  14
ENDBRANCH   9  13
ENDBRANCH   8   9
ENDBRANCH   7   8
ENDBRANCH   5   7
BRANCH   1  20
HETATM   20  C8  UNL     1      -2.643   0.012  -0.170  1.00  0.00     0.013 C 
HETATM   21  C7  UNL     1      -3.686   0.470  -0.806  1.00  0.00     0.002 C 
BRANCH  21  22
HETATM   22  C6  UNL     1      -3.998   1.704  -1.501  1.00  0.00     0.019 C 
HETATM   23  C5  UNL     1      -5.181   1.867  -2.059  1.00  0.00     0.118 C 
BRANCH  23  24
HETATM   24  N3  UNL     1      -5.976   0.696  -1.845  1.00  0.00    -0.251 N 
HETATM   25  C2  UNL     1      -6.918   0.342  -0.810  1.00  0.00     0.074 A 
HETATM   26  C1  UNL     1      -7.195   1.163   0.190  1.00  0.00     0.047 C 
HETATM   27  C3  UNL     1      -7.463  -1.005  -1.071  1.00  0.00     0.080 A 
HETATM   28  C4  UNL     1      -8.460  -1.682  -0.202  1.00  0.00     0.075 C 
HETATM   29  N1  UNL     1      -6.907  -1.434  -2.161  1.00  0.00    -0.161 NA
HETATM   30  N2  UNL     1      -6.010  -0.460  -2.668  1.00  0.00    -0.213 N 
HETATM   31  H6  UNL     1      -5.456  -0.625  -3.558  1.00  0.00     0.211 HD
ENDBRANCH  23  24
ENDBRANCH  21  22
ENDBRANCH   1  20
TORSDOF 9
