REMARK  1 active torsions:
REMARK  status: ('A' for Active; 'I' for Inactive)
REMARK    1  A    between atoms: C19_22  and  N4_23 
ROOT
HETATM    1  C1  UNL     1       2.382  -3.045   1.829  1.00  0.00     0.073 C 
HETATM    2  C2  UNL     1       1.741  -1.803   1.331  1.00  0.00     0.061 C 
HETATM    3  N1  UNL     1       1.150  -1.010   2.205  1.00  0.00    -0.155 NA
HETATM    4  N2  UNL     1       1.091   0.409   2.362  1.00  0.00    -0.159 NA
HETATM    5  C3  UNL     1       1.104   1.260   1.351  1.00  0.00     0.041 C 
HETATM    6  C4  UNL     1       2.370   1.785   0.706  1.00  0.00     0.096 C 
HETATM    7  C5  UNL     1       2.859   0.818  -0.348  1.00  0.00    -0.042 C 
HETATM    8  C6  UNL     1       3.614   1.456  -1.220  1.00  0.00    -0.029 A 
HETATM    9  C7  UNL     1       4.234   2.691  -1.683  1.00  0.00     0.013 A 
HETATM   10  C8  UNL     1       4.437   1.480  -2.414  1.00  0.00     0.013 A 
HETATM   11  C9  UNL     1       2.714  -0.634  -0.651  1.00  0.00     0.019 C 
HETATM   12  C10 UNL     1       1.768  -1.455  -0.124  1.00  0.00    -0.004 C 
HETATM   13  C11 UNL     1       0.611  -2.130  -0.821  1.00  0.00     0.311 C 
HETATM   14  N3  UNL     1      -0.637  -1.618  -0.275  1.00  0.00     0.098 N 
HETATM   15  C12 UNL     1      -0.843  -0.229  -0.626  1.00  0.00     0.271 C 
HETATM   16  C13 UNL     1      -1.780  -0.197  -1.760  1.00  0.00     0.011 C 
HETATM   17  C14 UNL     1      -3.082  -0.262  -2.107  1.00  0.00    -0.002 C 
HETATM   18  C15 UNL     1      -4.264  -0.424  -1.231  1.00  0.00    -0.004 C 
HETATM   19  C16 UNL     1      -4.503  -0.045   0.037  1.00  0.00    -0.027 C 
HETATM   20  C17 UNL     1      -3.687   0.684   1.066  1.00  0.00     0.029 C 
HETATM   21  C18 UNL     1      -2.517   1.388   0.374  1.00  0.00     0.037 C 
HETATM   22  C19 UNL     1      -1.211   0.637   0.551  1.00  0.00     0.063 C 
HETATM   23  C20 UNL     1      -0.176   1.708   0.831  1.00  0.00     0.089 C 
HETATM   24  H11 UNL     1      -1.398  -2.237  -0.656  1.00  0.00     0.317 HD
ENDROOT
BRANCH  22  25
HETATM   25  N4  UNL     1      -1.419  -0.238   1.662  1.00  0.00    -0.419 N 
HETATM   26  H21 UNL     1      -1.622  -1.210   1.485  1.00  0.00     0.150 HD
HETATM   27  H22 UNL     1      -1.391   0.143   2.595  1.00  0.00     0.150 HD
ENDBRANCH  22  25
TORSDOF 1
