REMARK  5 active torsions:
REMARK  status: ('A' for Active; 'I' for Inactive)
REMARK    1  A    between atoms: B1_1  and  C1_2 
REMARK    2  A    between atoms: C4_5  and  O1_6 
REMARK    3  A    between atoms: C6_8  and  C7_9 
REMARK    4  A    between atoms: C7_9  and  C8_11 
REMARK    5  A    between atoms: C9_12  and  N1_13 
ROOT
HETATM    1  C8  UNL     1      -0.207  -1.122   0.178  1.00  0.00     0.100 A 
HETATM    2  C9  UNL     1      -0.332  -2.423   0.723  1.00  0.00     0.121 A 
HETATM    3  N2  UNL     1      -1.470  -3.144   0.807  1.00  0.00    -0.101 NA
HETATM    4  C10 UNL     1      -2.682  -2.951   0.474  1.00  0.00     0.201 A 
HETATM    5  N3  UNL     1      -2.036  -1.981   0.186  1.00  0.00    -0.217 N 
HETATM    6  C11 UNL     1      -1.522  -0.935  -0.161  1.00  0.00     0.141 A 
HETATM    7  N4  UNL     1      -1.997   0.287  -0.681  1.00  0.00    -0.369 N 
HETATM    8  C12 UNL     1      -0.953   1.192  -0.245  1.00  0.00     0.151 C 
HETATM    9  C13 UNL     1      -3.312   0.302  -1.386  1.00  0.00     0.125 C 
HETATM   10  C14 UNL     1      -4.366  -0.347  -0.523  1.00  0.00     0.039 C 
HETATM   11  C15 UNL     1      -4.766  -1.738  -0.710  1.00  0.00     0.124 C 
HETATM   12  N5  UNL     1      -3.967  -2.718   0.110  1.00  0.00    -0.364 N 
HETATM   13  H19 UNL     1      -3.942  -3.611   0.739  1.00  0.00     0.162 HD
ENDROOT
BRANCH   1  14
HETATM   14  C7  UNL     1       0.591   0.012  -0.159  1.00  0.00     0.205 C 
HETATM   15  O2  UNL     1       1.358  -0.680   0.596  1.00  0.00    -0.286 OA
BRANCH  14  16
HETATM   16  C6  UNL     1       1.830   0.768  -0.078  1.00  0.00     0.086 A 
HETATM   17  C4  UNL     1       2.764   1.059   0.891  1.00  0.00     0.085 A 
HETATM   18  C3  UNL     1       3.960   1.787   0.678  1.00  0.00     0.037 A 
HETATM   19  C2  UNL     1       4.098   2.182  -0.621  1.00  0.00    -0.000 A 
HETATM   20  C1  UNL     1       3.269   1.974  -1.690  1.00  0.00    -0.070 A 
HETATM   21  C16 UNL     1       2.135   1.257  -1.377  1.00  0.00     0.128 A 
HETATM   22  F1  UNL     1       1.373   1.090  -2.523  1.00  0.00    -0.205 F 
BRANCH  17  23
HETATM   23  O1  UNL     1       2.414   0.566   2.112  1.00  0.00    -0.355 OA
HETATM   24  C5  UNL     1       3.090   0.653   3.318  1.00  0.00     0.210 C 
ENDBRANCH  17  23
BRANCH  20  25
HETATM   25  B1  UNL     1       3.676   2.538  -3.077  1.00  0.00     0.178 B 
HETATM   26  H1  UNL     1       2.976   3.290  -3.685  1.00  0.00    -0.026 HD
HETATM   27  H2  UNL     1       4.833   2.456  -3.386  1.00  0.00    -0.026 HD
ENDBRANCH  20  25
ENDBRANCH  14  16
ENDBRANCH   1  14
BRANCH   2  28
HETATM   28  N1  UNL     1       0.931  -2.884   1.198  1.00  0.00    -0.387 N 
HETATM   29  H8  UNL     1       1.532  -3.345   0.454  1.00  0.00     0.157 HD
HETATM   30  H9  UNL     1       1.190  -2.758   2.188  1.00  0.00     0.157 HD
ENDBRANCH   2  28
TORSDOF 5
