REMARK  13 active torsions:
REMARK  status: ('A' for Active; 'I' for Inactive)
REMARK    1  A    between atoms: C2_2  and  C3_3 
REMARK    2  A    between atoms: C4_7  and  C5_8 
REMARK    3  A    between atoms: C5_8  and  C6_9 
REMARK    4  A    between atoms: C6_9  and  C7_10 
REMARK    5  A    between atoms: C9_12  and  S1_13 
REMARK    6  A    between atoms: S1_13  and  C10_14 
REMARK    7  A    between atoms: C10_14  and  C11_15 
REMARK    8  A    between atoms: C11_15  and  O2_16 
REMARK    9  A    between atoms: O2_16  and  C12_17 
REMARK   10  A    between atoms: C12_17  and  C13_18 
REMARK   11  A    between atoms: C13_18  and  N2_19 
REMARK   12  A    between atoms: C13_18  and  C14_20 
REMARK   13  A    between atoms: C14_20  and  C15_21 
ROOT
HETATM    1  S1  UNL     1       0.002  -1.250  -1.373  1.00  0.00    -0.139 SA
ENDROOT
BRANCH   1   2
HETATM    2  C9  UNL     1      -0.935  -0.134  -0.316  1.00  0.00     0.047 C 
HETATM    3  C7  UNL     1      -1.975  -0.463   0.475  1.00  0.00    -0.074 C 
HETATM    4  C8  UNL     1      -2.523  -1.844   0.597  1.00  0.00     0.044 C 
BRANCH   3   5
HETATM    5  C6  UNL     1      -2.769   0.463   1.365  1.00  0.00     0.064 C 
BRANCH   5   6
HETATM    6  C5  UNL     1      -4.151   0.396   0.889  1.00  0.00     0.017 C 
BRANCH   6   7
HETATM    7  C4  UNL     1      -4.822   1.323   0.269  1.00  0.00     0.101 A 
HETATM    8  C3  UNL     1      -6.099   1.190  -0.141  1.00  0.00     0.088 A 
HETATM    9  N1  UNL     1      -6.616   2.341  -0.796  1.00  0.00    -0.223 NA
HETATM   10  P1  UNL     1      -5.399   3.469  -0.810  1.00  0.00     0.238 P 
HETATM   11  O1  UNL     1      -4.101   2.524   0.045  1.00  0.00    -0.292 OA
BRANCH   8  12
HETATM   12  C2  UNL     1      -6.829   0.120   0.028  1.00  0.00     0.003 C 
HETATM   13  C1  UNL     1      -8.218   0.119  -0.475  1.00  0.00     0.038 C 
ENDBRANCH   8  12
ENDBRANCH   6   7
ENDBRANCH   5   6
ENDBRANCH   3   5
ENDBRANCH   1   2
BRANCH   1  14
HETATM   14  C10 UNL     1       1.096  -2.203  -0.273  1.00  0.00     0.104 C 
BRANCH  14  15
HETATM   15  C11 UNL     1       2.096  -1.181   0.314  1.00  0.00     0.178 C 
BRANCH  15  16
HETATM   16  O2  UNL     1       2.753  -0.651  -0.774  1.00  0.00    -0.388 OA
BRANCH  16  17
HETATM   17  C12 UNL     1       3.676   0.313  -0.497  1.00  0.00     0.203 C 
BRANCH  17  18
HETATM   18  C13 UNL     1       4.767  -0.213   0.382  1.00  0.00     0.242 C 
BRANCH  18  19
HETATM   19  N2  UNL     1       5.465  -1.332  -0.245  1.00  0.00     0.085 N 
HETATM   20  H19 UNL     1       4.964  -1.698  -1.073  1.00  0.00     0.313 HD
HETATM   21  H20 UNL     1       5.793  -2.045   0.415  1.00  0.00     0.313 HD
ENDBRANCH  18  19
BRANCH  18  22
HETATM   22  C14 UNL     1       5.775   0.815   0.768  1.00  0.00     0.049 C 
BRANCH  22  23
HETATM   23  C15 UNL     1       6.524   1.451  -0.361  1.00  0.00     0.032 A 
HETATM   24  C16 UNL     1       5.941   2.194  -1.430  1.00  0.00    -0.022 A 
HETATM   25  C17 UNL     1       6.472   0.942  -1.731  1.00  0.00    -0.022 A 
ENDBRANCH  22  23
ENDBRANCH  18  22
ENDBRANCH  17  18
ENDBRANCH  16  17
ENDBRANCH  15  16
ENDBRANCH  14  15
ENDBRANCH   1  14
TORSDOF 13
