REMARK  9 active torsions:
REMARK  status: ('A' for Active; 'I' for Inactive)
REMARK    1  A    between atoms: C2_2  and  C3_3 
REMARK    2  A    between atoms: C4_5  and  C5_6 
REMARK    3  A    between atoms: C6_7  and  C7_8 
REMARK    4  A    between atoms: C10_12  and  O1_13 
REMARK    5  A    between atoms: O1_13  and  C11_14 
REMARK    6  A    between atoms: C11_14  and  C12_15 
REMARK    7  A    between atoms: C12_15  and  N3_16 
REMARK    8  A    between atoms: C12_15  and  C13_17 
REMARK    9  A    between atoms: C13_17  and  C14_18 
ROOT
HETATM    1  C7  UNL     1       2.253   0.887   0.611  1.00  0.00    -0.016 A 
HETATM    2  C8  UNL     1       2.579   2.099   0.056  1.00  0.00     0.127 A 
HETATM    3  N2  UNL     1       1.570   2.832  -0.453  1.00  0.00    -0.269 NA
HETATM    4  C9  UNL     1       0.311   2.350  -0.395  1.00  0.00     0.152 A 
HETATM    5  C10 UNL     1      -0.044   1.128   0.160  1.00  0.00     0.087 A 
HETATM    6  C20 UNL     1       0.975   0.374   0.681  1.00  0.00     0.051 A 
ENDROOT
BRANCH   5   7
HETATM    7  O1  UNL     1      -1.376   0.741   0.159  1.00  0.00    -0.348 OA
BRANCH   7   8
HETATM    8  C11 UNL     1      -2.316   1.630  -0.418  1.00  0.00     0.211 C 
BRANCH   8   9
HETATM    9  C12 UNL     1      -3.680   0.983  -0.293  1.00  0.00     0.246 C 
BRANCH   9  10
HETATM   10  N3  UNL     1      -3.907   0.793   1.129  1.00  0.00     0.085 N 
HETATM   11  H14 UNL     1      -3.070   0.400   1.616  1.00  0.00     0.313 HD
HETATM   12  H15 UNL     1      -4.294   1.640   1.573  1.00  0.00     0.313 HD
ENDBRANCH   9  10
BRANCH   9  13
HETATM   13  C13 UNL     1      -3.727  -0.325  -1.045  1.00  0.00     0.076 C 
BRANCH  13  14
HETATM   14  C14 UNL     1      -5.120  -0.865  -0.847  1.00  0.00    -0.056 A 
HETATM   15  C15 UNL     1      -5.393  -1.692   0.228  1.00  0.00     0.007 A 
HETATM   16  C16 UNL     1      -6.659  -2.205   0.439  1.00  0.00     0.001 A 
HETATM   17  C17 UNL     1      -7.698  -1.898  -0.435  1.00  0.00     0.000 A 
HETATM   18  C18 UNL     1      -7.424  -1.071  -1.510  1.00  0.00     0.001 A 
HETATM   19  C19 UNL     1      -6.146  -0.552  -1.725  1.00  0.00     0.007 A 
ENDBRANCH  13  14
ENDBRANCH   9  13
ENDBRANCH   8   9
ENDBRANCH   7   8
ENDBRANCH   5   7
BRANCH   1  20
HETATM   20  C6  UNL     1       3.311   0.058   1.175  1.00  0.00     0.011 C 
HETATM   21  C5  UNL     1       4.597   0.365   1.208  1.00  0.00     0.007 C 
BRANCH  21  22
HETATM   22  C4  UNL     1       5.744  -0.424   1.765  1.00  0.00     0.178 A 
HETATM   23  C3  UNL     1       6.811  -0.722   0.810  1.00  0.00     0.036 A 
HETATM   24  N1  UNL     1       5.917  -1.673   1.203  1.00  0.00    -0.281 NA
BRANCH  23  25
HETATM   25  C2  UNL     1       7.994  -0.344  -0.009  1.00  0.00     0.052 C 
HETATM   26  C1  UNL     1       8.478  -1.550  -0.805  1.00  0.00     0.011 C 
ENDBRANCH  23  25
ENDBRANCH  21  22
ENDBRANCH   1  20
TORSDOF 9
