REMARK  8 active torsions:
REMARK  status: ('A' for Active; 'I' for Inactive)
REMARK    1  A    between atoms: N1_1  and  C1_2 
REMARK    2  A    between atoms: C1_2  and  C2_3 
REMARK    3  A    between atoms: C2_3  and  O1_4 
REMARK    4  A    between atoms: O1_4  and  C3_5 
REMARK    5  A    between atoms: C3_5  and  C4_6 
REMARK    6  A    between atoms: C8_12  and  C9_13 
REMARK    7  A    between atoms: C9_13  and  C10_14 
REMARK    8  A    between atoms: C13_18  and  C14_19 
ROOT
HETATM    1  C4  UNL     1      -2.771   1.196   0.255  1.00  0.00     0.084 C 
HETATM    2  N2  UNL     1      -3.335   2.319   0.629  1.00  0.00    -0.181 NA
HETATM    3  N3  UNL     1      -2.844   3.626   0.650  1.00  0.00    -0.313 N 
HETATM    4  C5  UNL     1      -1.444   3.943   0.768  1.00  0.00     0.145 C 
HETATM    5  C6  UNL     1      -0.667   3.533  -0.463  1.00  0.00     0.049 C 
HETATM    6  C7  UNL     1      -0.559   2.053  -0.543  1.00  0.00    -0.016 C 
HETATM    7  C8  UNL     1      -1.409   1.081  -0.253  1.00  0.00    -0.029 C 
HETATM    8  H9  UNL     1      -3.643   4.318   0.568  1.00  0.00     0.182 HD
ENDROOT
BRANCH   7   9
HETATM    9  C9  UNL     1      -0.934  -0.294  -0.470  1.00  0.00     0.080 C 
BRANCH   9  10
HETATM   10  C10 UNL     1       0.467  -0.310  -1.006  1.00  0.00    -0.035 A 
HETATM   11  C11 UNL     1       0.570  -0.296  -2.402  1.00  0.00     0.123 A 
HETATM   12  N4  UNL     1       1.775  -0.308  -3.001  1.00  0.00    -0.272 NA
HETATM   13  C12 UNL     1       2.927  -0.333  -2.319  1.00  0.00     0.128 A 
HETATM   14  C13 UNL     1       2.836  -0.347  -0.926  1.00  0.00    -0.008 A 
HETATM   15  C20 UNL     1       1.630  -0.336  -0.258  1.00  0.00     0.022 A 
BRANCH  14  16
HETATM   16  C14 UNL     1       4.043  -0.374  -0.107  1.00  0.00    -0.025 A 
HETATM   17  C15 UNL     1       5.111  -1.044  -0.666  1.00  0.00     0.012 A 
HETATM   18  C16 UNL     1       6.323  -1.143   0.014  1.00  0.00     0.001 A 
HETATM   19  C17 UNL     1       6.424  -0.547   1.268  1.00  0.00     0.000 A 
HETATM   20  C18 UNL     1       5.333   0.117   1.796  1.00  0.00     0.001 A 
HETATM   21  C19 UNL     1       4.126   0.223   1.136  1.00  0.00     0.012 A 
ENDBRANCH  14  16
ENDBRANCH   9  10
ENDBRANCH   7   9
BRANCH   1  22
HETATM   22  C3  UNL     1      -3.596  -0.060   0.361  1.00  0.00     0.229 C 
BRANCH  22  23
HETATM   23  O1  UNL     1      -3.061  -0.986   1.220  1.00  0.00    -0.383 OA
BRANCH  23  24
HETATM   24  C2  UNL     1      -3.796  -2.159   1.346  1.00  0.00     0.197 C 
BRANCH  24  25
HETATM   25  C1  UNL     1      -3.975  -2.922   0.072  1.00  0.00     0.292 C 
BRANCH  25  26
HETATM   26  N1  UNL     1      -4.758  -4.148   0.273  1.00  0.00     0.080 N 
HETATM   27  H1  UNL     1      -4.528  -4.745  -0.570  1.00  0.00     0.312 HD
HETATM   28  H2  UNL     1      -4.409  -4.692   1.095  1.00  0.00     0.312 HD
ENDBRANCH  25  26
ENDBRANCH  24  25
ENDBRANCH  23  24
ENDBRANCH  22  23
ENDBRANCH   1  22
TORSDOF 8
