REMARK  6 active torsions:
REMARK  status: ('A' for Active; 'I' for Inactive)
REMARK    1  A    between atoms: C5_8  and  C6_9 
REMARK    2  A    between atoms: C8_13  and  C9_14 
REMARK    3  A    between atoms: C9_14  and  C10_15 
REMARK    4  A    between atoms: C10_15  and  N4_16 
REMARK    5  A    between atoms: C10_15  and  C11_17 
REMARK    6  A    between atoms: C11_17  and  C12_18 
ROOT
HETATM    1  C6  UNL     1       1.616   0.493   0.256  1.00  0.00    -0.010 A 
HETATM    2  C7  UNL     1       1.716   1.685   0.748  1.00  0.00     0.099 A 
HETATM    3  N3  UNL     1       0.741   2.649   1.073  1.00  0.00    -0.372 N 
HETATM    4  P2  UNL     1      -0.975   2.231   0.767  1.00  0.00    -0.000 P 
HETATM    5  C8  UNL     1      -0.909   0.535   0.084  1.00  0.00    -0.033 A 
HETATM    6  C18 UNL     1       0.288   0.003  -0.042  1.00  0.00     0.023 A 
HETATM    7  H9  UNL     1       0.819   3.592   1.471  1.00  0.00     0.164 HD
HETATM    8  H10 UNL     1      -1.626   2.156   2.081  1.00  0.00     0.085 HD
ENDROOT
BRANCH   1   9
HETATM    9  C5  UNL     1       2.801  -0.318   0.008  1.00  0.00    -0.024 C 
HETATM   10  C4  UNL     1       2.692  -1.538  -0.495  1.00  0.00     0.014 C 
HETATM   11  C3  UNL     1       3.828  -2.451  -0.779  1.00  0.00     0.026 C 
HETATM   12  P1  UNL     1       5.237  -1.823  -0.992  1.00  0.00     0.005 P 
HETATM   13  N2  UNL     1       6.607  -2.427  -0.121  1.00  0.00    -0.289 N 
HETATM   14  C20 UNL     1       5.228  -0.277   0.002  1.00  0.00     0.013 C 
HETATM   15  H5  UNL     1       5.551  -1.497  -2.324  1.00  0.00     0.085 HD
HETATM   16  N1  UNL     1       7.336  -1.239  -0.001  1.00  0.00    -0.180 NA
HETATM   17  H4  UNL     1       6.988  -3.324   0.288  1.00  0.00     0.187 HD
HETATM   18  C2  UNL     1       6.696  -0.158   0.053  1.00  0.00     0.063 C 
HETATM   19  C1  UNL     1       7.335   1.207   0.185  1.00  0.00     0.073 C 
HETATM   20  C19 UNL     1       4.082   0.274   0.249  1.00  0.00     0.028 C 
ENDBRANCH   1   9
BRANCH   5  21
HETATM   21  C9  UNL     1      -2.159  -0.158  -0.278  1.00  0.00     0.076 C 
BRANCH  21  22
HETATM   22  C10 UNL     1      -2.953   0.507  -1.371  1.00  0.00     0.226 C 
BRANCH  22  23
HETATM   23  N4  UNL     1      -3.327   1.823  -0.953  1.00  0.00     0.083 N 
HETATM   24  H14 UNL     1      -3.503   1.884   0.066  1.00  0.00     0.313 HD
HETATM   25  H15 UNL     1      -2.628   2.509  -1.281  1.00  0.00     0.313 HD
ENDBRANCH  22  23
BRANCH  22  26
HETATM   26  C11 UNL     1      -4.167  -0.371  -1.648  1.00  0.00     0.074 C 
BRANCH  26  27
HETATM   27  C12 UNL     1      -5.007  -0.522  -0.455  1.00  0.00    -0.056 A 
HETATM   28  C13 UNL     1      -4.938  -1.504   0.533  1.00  0.00     0.007 A 
HETATM   29  C14 UNL     1      -5.808  -1.508   1.602  1.00  0.00     0.001 A 
HETATM   30  C15 UNL     1      -6.788  -0.551   1.756  1.00  0.00     0.000 A 
HETATM   31  C16 UNL     1      -6.904   0.443   0.810  1.00  0.00     0.001 A 
HETATM   32  C17 UNL     1      -6.018   0.416  -0.244  1.00  0.00     0.007 A 
ENDBRANCH  26  27
ENDBRANCH  22  26
ENDBRANCH  21  22
ENDBRANCH   5  21
TORSDOF 6
