REMARK  7 active torsions:
REMARK  status: ('A' for Active; 'I' for Inactive)
REMARK    1  A    between atoms: C5_7  and  C6_8 
REMARK    2  A    between atoms: C6_8  and  C7_9 
REMARK    3  A    between atoms: C7_9  and  O2_10 
REMARK    4  A    between atoms: O2_10  and  C8_11 
REMARK    5  A    between atoms: C8_11  and  C10_13 
REMARK    6  A    between atoms: C13_16  and  N2_17 
REMARK    7  A    between atoms: N2_17  and  C14_18 
ROOT
HETATM    1  C10 UNL     1       0.323   1.242  -0.771  1.00  0.00     0.085 A 
HETATM    2  C11 UNL     1       0.510   0.753   0.448  1.00  0.00     0.035 A 
HETATM    3  C12 UNL     1       1.291  -0.370   0.977  1.00  0.00     0.052 A 
HETATM    4  C13 UNL     1       2.026  -1.300   0.380  1.00  0.00     0.129 A 
HETATM    5  N3  UNL     1       2.400  -1.651  -0.965  1.00  0.00    -0.223 NA
HETATM    6  C20 UNL     1       2.189  -1.140  -2.131  1.00  0.00     0.259 A 
HETATM    7  N4  UNL     1       1.484   0.015  -2.616  1.00  0.00    -0.143 NA
HETATM    8  N5  UNL     1       0.758   0.945  -2.105  1.00  0.00    -0.151 NA
ENDROOT
BRANCH   1   9
HETATM    9  C8  UNL     1      -0.577   2.423  -0.816  1.00  0.00     0.170 C 
HETATM   10  C9  UNL     1       0.288   3.546  -1.371  1.00  0.00     0.046 C 
BRANCH   9  11
HETATM   11  O2  UNL     1      -1.664   2.156  -1.603  1.00  0.00    -0.380 OA
BRANCH  11  12
HETATM   12  C7  UNL     1      -2.895   2.322  -1.038  1.00  0.00     0.171 C 
BRANCH  12  13
HETATM   13  C6  UNL     1      -3.191   1.466   0.157  1.00  0.00     0.066 C 
BRANCH  13  14
HETATM   14  C5  UNL     1      -3.134   0.009  -0.183  1.00  0.00     0.255 C 
HETATM   15  C2  UNL     1      -3.437  -0.814   1.046  1.00  0.00    -0.033 C 
HETATM   16  C1  UNL     1      -2.579  -0.610   2.033  1.00  0.00     0.019 C 
HETATM   17  C3  UNL     1      -4.661  -1.668   0.819  1.00  0.00     0.205 C 
HETATM   18  O1  UNL     1      -5.725  -0.822   0.488  1.00  0.00    -0.358 OA
HETATM   19  C4  UNL     1      -5.478  -0.170  -0.722  1.00  0.00     0.438 C 
HETATM   20  N1  UNL     1      -4.132  -0.367  -1.168  1.00  0.00     0.115 N 
HETATM   21  H7  UNL     1      -3.995   0.034  -2.100  1.00  0.00     0.319 HD
ENDBRANCH  13  14
ENDBRANCH  12  13
ENDBRANCH  11  12
ENDBRANCH   9  11
ENDBRANCH   1   9
BRANCH   4  22
HETATM   22  N2  UNL     1       2.627  -2.222   1.285  1.00  0.00    -0.341 N 
HETATM   23  H19 UNL     1       2.267  -2.982   1.924  1.00  0.00     0.167 HD
BRANCH  22  24
HETATM   24  C14 UNL     1       4.013  -1.906   1.174  1.00  0.00     0.035 A 
HETATM   25  C15 UNL     1       4.779  -2.566   0.223  1.00  0.00     0.032 A 
HETATM   26  C16 UNL     1       6.128  -2.271   0.101  1.00  0.00     0.046 A 
HETATM   27  C17 UNL     1       6.725  -1.325   0.916  1.00  0.00     0.138 A 
HETATM   28  F1  UNL     1       8.044  -1.047   0.785  1.00  0.00    -0.204 F 
HETATM   29  C18 UNL     1       5.968  -0.654   1.875  1.00  0.00     0.074 A 
HETATM   30 CL1  UNL     1       6.685   0.559   2.937  1.00  0.00    -0.081 Cl
HETATM   31  C19 UNL     1       4.628  -0.970   1.972  1.00  0.00     0.056 A 
ENDBRANCH  22  24
ENDBRANCH   4  22
TORSDOF 7
