REMARK  5 active torsions:
REMARK  status: ('A' for Active; 'I' for Inactive)
REMARK    1  A    between atoms: C4_4  and  N1_5 
REMARK    2  A    between atoms: N1_5  and  C5_6 
REMARK    3  A    between atoms: C9_12  and  C10_13 
REMARK    4  A    between atoms: C11_14  and  C12_16 
REMARK    5  A    between atoms: C12_16  and  C13_17 
ROOT
HETATM    1  C5  UNL     1       2.224  -1.499  -0.218  1.00  0.00     0.141 A 
HETATM    2  N2  UNL     1       3.192  -2.443  -0.171  1.00  0.00    -0.224 NA
HETATM    3  C6  UNL     1       3.284  -3.314  -1.218  1.00  0.00     0.235 A 
HETATM    4  N3  UNL     1       2.445  -3.243  -2.267  1.00  0.00    -0.246 NA
HETATM    5  C7  UNL     1       1.476  -2.288  -2.302  1.00  0.00     0.046 A 
HETATM    6  C8  UNL     1       0.576  -2.236  -3.482  1.00  0.00     0.071 C 
HETATM    7  C9  UNL     1       1.329  -1.382  -1.279  1.00  0.00     0.037 A 
ENDROOT
BRANCH   7   8
HETATM    8  C10 UNL     1       0.352  -0.337  -1.214  1.00  0.00     0.055 C 
HETATM    9  C11 UNL     1      -0.934  -0.310  -1.521  1.00  0.00     0.099 C 
HETATM   10  F1  UNL     1      -1.784  -1.246  -2.003  1.00  0.00    -0.210 F 
BRANCH   9  11
HETATM   11  C12 UNL     1      -1.768   0.905  -1.372  1.00  0.00     0.108 C 
BRANCH  11  12
HETATM   12  C13 UNL     1      -2.866   0.594  -0.436  1.00  0.00    -0.022 C 
HETATM   13  C14 UNL     1      -4.040   0.417   0.069  1.00  0.00     0.076 C 
HETATM   14  C15 UNL     1      -4.648  -0.973   0.248  1.00  0.00     0.265 C 
HETATM   15  O2  UNL     1      -4.883   1.517   0.531  1.00  0.00    -0.351 OA
HETATM   16  O1  UNL     1      -4.037  -1.247   1.533  1.00  0.00    -0.276 OA
HETATM   17  N4  UNL     1      -3.276  -0.147   1.823  1.00  0.00    -0.288 N 
HETATM   18  C16 UNL     1      -3.877   0.829   2.641  1.00  0.00     0.176 C 
HETATM   19  C18 UNL     1      -2.286   0.197   0.896  1.00  0.00     0.186 C 
HETATM   20  C17 UNL     1      -4.854   1.779   1.985  1.00  0.00     0.197 C 
ENDBRANCH  11  12
ENDBRANCH   9  11
ENDBRANCH   7   8
BRANCH   1  21
HETATM   21  N1  UNL     1       2.257  -0.670   0.946  1.00  0.00    -0.340 N 
HETATM   22  H4  UNL     1       1.614  -1.147   1.646  1.00  0.00     0.167 HD
BRANCH  21  23
HETATM   23  C4  UNL     1       3.016   0.524   1.073  1.00  0.00     0.036 A 
HETATM   24  C3  UNL     1       4.285   0.393   1.497  1.00  0.00     0.042 A 
HETATM   25  C2  UNL     1       4.917   1.720   1.571  1.00  0.00    -0.022 A 
HETATM   26  C1  UNL     1       6.156   2.009   1.943  1.00  0.00     0.025 C 
HETATM   27  C20 UNL     1       3.869   2.637   1.141  1.00  0.00     0.045 A 
HETATM   28  C19 UNL     1       2.783   1.942   0.858  1.00  0.00     0.054 A 
HETATM   29 CL1  UNL     1       4.018   4.377   1.017  1.00  0.00    -0.083 Cl
ENDBRANCH  21  23
ENDBRANCH   1  21
TORSDOF 5
