REMARK  4 active torsions:
REMARK  status: ('A' for Active; 'I' for Inactive)
REMARK    1  A    between atoms: C7_8  and  C8_9 
REMARK    2  A    between atoms: C8_9  and  N1_10 
REMARK    3  A    between atoms: N1_10  and  C9_11 
REMARK    4  A    between atoms: N5_19  and  C14_20 
ROOT
HETATM    1  C9  UNL     1      -1.089   0.820   0.295  1.00  0.00     0.140 A 
HETATM    2  N2  UNL     1      -0.893   0.021   1.352  1.00  0.00    -0.224 NA
HETATM    3  C10 UNL     1       0.305  -0.484   1.681  1.00  0.00     0.237 A 
HETATM    4  N3  UNL     1       1.387  -0.200   0.943  1.00  0.00    -0.221 NA
HETATM    5  C11 UNL     1       1.308   0.586  -0.130  1.00  0.00     0.168 A 
HETATM    6  C12 UNL     1       0.052   1.097  -0.450  1.00  0.00     0.077 A 
HETATM    7  C13 UNL     1       0.260   1.851  -1.571  1.00  0.00     0.158 A 
HETATM    8  N4  UNL     1       1.562   1.812  -1.925  1.00  0.00    -0.177 NA
HETATM    9  N5  UNL     1       2.219   1.035  -1.045  1.00  0.00    -0.215 N 
ENDROOT
BRANCH   1  10
HETATM   10  N1  UNL     1      -2.381   1.373  -0.039  1.00  0.00    -0.373 N 
HETATM   11  H8  UNL     1      -2.419   1.988  -0.859  1.00  0.00     0.161 HD
BRANCH  10  12
HETATM   12  C8  UNL     1      -3.453   0.982   0.825  1.00  0.00     0.135 C 
BRANCH  12  13
HETATM   13  C7  UNL     1      -3.750  -0.475   0.633  1.00  0.00     0.032 A 
HETATM   14  C4  UNL     1      -4.764  -1.689   0.257  1.00  0.00     0.069 A 
HETATM   15  C3  UNL     1      -5.750  -2.521  -0.029  1.00  0.00     0.040 A 
HETATM   16  O1  UNL     1      -4.051  -3.132   0.001  1.00  0.00    -0.379 OA
HETATM   17  C2  UNL     1      -6.019  -1.177   0.231  1.00  0.00     0.011 A 
HETATM   18  C6  UNL     1      -4.449  -1.295   0.377  1.00  0.00     0.035 A 
HETATM   19  C5  UNL     1      -2.943  -2.274   0.369  1.00  0.00     0.183 A 
HETATM   20  C1  UNL     1      -7.105  -0.456   0.279  1.00  0.00     0.015 C 
ENDBRANCH  12  13
ENDBRANCH  10  12
ENDBRANCH   1  10
BRANCH   9  21
HETATM   21  C14 UNL     1       3.589   0.612  -0.888  1.00  0.00     0.061 A 
HETATM   22  C15 UNL     1       3.926  -0.414  -1.763  1.00  0.00     0.032 A 
HETATM   23  C16 UNL     1       5.206  -0.952  -1.736  1.00  0.00     0.003 A 
HETATM   24  C17 UNL     1       6.122  -0.442  -0.824  1.00  0.00     0.007 A 
HETATM   25  C18 UNL     1       5.780   0.594   0.059  1.00  0.00    -0.060 A 
HETATM   26  C19 UNL     1       6.753   1.145   1.045  1.00  0.00     0.048 C 
HETATM   27  C20 UNL     1       4.494   1.107   0.003  1.00  0.00     0.038 A 
ENDBRANCH   9  21
TORSDOF 4
