REMARK  5 active torsions:
REMARK  status: ('A' for Active; 'I' for Inactive)
REMARK    1  A    between atoms: N1_2  and  N2_3 
REMARK    2  A    between atoms: N2_3  and  C2_4 
REMARK    3  A    between atoms: C2_4  and  C3_5 
REMARK    4  A    between atoms: C5_10  and  S1_11 
REMARK    5  A    between atoms: S1_11  and  C6_12 
ROOT
HETATM    1  C3  UNL     1       2.852  -0.039   0.320  1.00  0.00     0.074 A 
HETATM    2  N3  UNL     1       2.067  -0.692   1.108  1.00  0.00    -0.171 NA
HETATM    3  N4  UNL     1       1.227  -1.677   0.586  1.00  0.00    -0.217 N 
HETATM    4  C4  UNL     1       1.260  -1.934  -0.793  1.00  0.00     0.147 A 
HETATM    5  N5  UNL     1       0.379  -2.831  -0.700  1.00  0.00    -0.233 NA
HETATM    6  C5  UNL     1       0.235  -2.690   0.714  1.00  0.00     0.303 A 
HETATM    7  C15 UNL     1       2.144  -1.200  -1.682  1.00  0.00     0.054 A 
HETATM    8  C16 UNL     1       2.928  -0.265  -1.127  1.00  0.00     0.034 A 
ENDROOT
BRANCH   6   9
HETATM    9  S1  UNL     1      -1.326  -2.175   1.370  1.00  0.00    -0.080 SA
BRANCH   9  10
HETATM   10  C6  UNL     1      -2.217  -1.118   0.293  1.00  0.00     0.005 A 
HETATM   11  C7  UNL     1      -2.110  -0.574  -0.951  1.00  0.00     0.021 A 
HETATM   12  C8  UNL     1      -2.978   0.261  -1.575  1.00  0.00     0.034 A 
HETATM   13  C9  UNL     1      -4.117   0.632  -0.912  1.00  0.00     0.066 A 
HETATM   14  N6  UNL     1      -4.958   1.460  -1.555  1.00  0.00    -0.260 NA
HETATM   15  C13 UNL     1      -4.337   0.138   0.370  1.00  0.00    -0.006 A 
HETATM   16  C10 UNL     1      -6.114   1.882  -0.976  1.00  0.00     0.117 A 
HETATM   17  C11 UNL     1      -6.375   1.419   0.294  1.00  0.00     0.020 A 
HETATM   18  C12 UNL     1      -5.509   0.570   0.947  1.00  0.00     0.015 A 
HETATM   19  C14 UNL     1      -3.395  -0.717   0.942  1.00  0.00     0.032 A 
ENDBRANCH   9  10
ENDBRANCH   6   9
BRANCH   1  20
HETATM   20  C2  UNL     1       3.780   1.027   0.786  1.00  0.00     0.202 C 
BRANCH  20  21
HETATM   21  N2  UNL     1       5.153   0.718   0.499  1.00  0.00    -0.309 N 
HETATM   22  H3  UNL     1       5.363  -0.195   0.012  1.00  0.00     0.182 HD
BRANCH  21  23
HETATM   23  N1  UNL     1       6.199   1.607   0.856  1.00  0.00    -0.203 NA
HETATM   24  C1  UNL     1       7.385   1.468   0.364  1.00  0.00     0.172 C 
ENDBRANCH  21  23
ENDBRANCH  20  21
ENDBRANCH   1  20
TORSDOF 5
