REMARK  5 active torsions:
REMARK  status: ('A' for Active; 'I' for Inactive)
REMARK    1  A    between atoms: C2_2  and  C3_3 
REMARK    2  A    between atoms: C8_8  and  C9_9 
REMARK    3  A    between atoms: C9_9  and  S1_10 
REMARK    4  A    between atoms: S1_10  and  C10_11 
REMARK    5  A    between atoms: C10_11  and  C11_12 
ROOT
HETATM    1  S1  UNL     1       0.196  -0.843  -0.626  1.00  0.00    -0.157 SA
ENDROOT
BRANCH   1   2
HETATM    2  C9  UNL     1      -1.402  -0.130  -0.996  1.00  0.00     0.113 C 
BRANCH   2   3
HETATM    3  C8  UNL     1      -2.417  -0.333   0.067  1.00  0.00    -0.043 A 
HETATM    4  C3  UNL     1      -3.664   0.280  -0.103  1.00  0.00    -0.051 A 
HETATM    5  C4  UNL     1      -4.648   0.130   0.841  1.00  0.00     0.007 A 
HETATM    6  C5  UNL     1      -4.469  -0.621   1.993  1.00  0.00     0.001 A 
HETATM    7  C6  UNL     1      -3.248  -1.226   2.165  1.00  0.00     0.001 A 
HETATM    8  C7  UNL     1      -2.272  -1.069   1.215  1.00  0.00     0.008 A 
BRANCH   4   9
HETATM    9  C2  UNL     1      -3.905   1.095  -1.315  1.00  0.00     0.034 C 
HETATM   10  C1  UNL     1      -5.280   1.685  -1.368  1.00  0.00     0.010 C 
ENDBRANCH   4   9
ENDBRANCH   2   3
ENDBRANCH   1   2
BRANCH   1  11
HETATM   11  C10 UNL     1       1.037  -0.042   0.744  1.00  0.00     0.156 C 
BRANCH  11  12
HETATM   12  C11 UNL     1       2.344  -0.742   0.936  1.00  0.00     0.161 A 
HETATM   13  N1  UNL     1       2.583  -1.803   1.728  1.00  0.00    -0.132 NA
HETATM   14  N2  UNL     1       3.855  -2.145   1.642  1.00  0.00    -0.133 NA
HETATM   15  C12 UNL     1       4.487  -1.317   0.789  1.00  0.00     0.157 A 
HETATM   16  N3  UNL     1       3.547  -0.458   0.361  1.00  0.00    -0.201 N 
HETATM   17  C15 UNL     1       5.761  -0.943   0.122  1.00  0.00     0.138 A 
HETATM   18  N4  UNL     1       4.078   0.480  -0.552  1.00  0.00    -0.174 NA
HETATM   19  C13 UNL     1       5.353   0.223  -0.708  1.00  0.00     0.036 A 
HETATM   20  C14 UNL     1       6.261   0.997  -1.596  1.00  0.00     0.068 C 
ENDBRANCH  11  12
ENDBRANCH   1  11
TORSDOF 5
