REMARK  6 active torsions:
REMARK  status: ('A' for Active; 'I' for Inactive)
REMARK    1  A    between atoms: N1_2  and  N2_3 
REMARK    2  A    between atoms: C2_4  and  C3_5 
REMARK    3  A    between atoms: C3_5  and  C4_6 
REMARK    4  A    between atoms: C9_14  and  C14_20 
REMARK    5  A    between atoms: C12_18  and  C13_19 
REMARK    6  A    between atoms: C13_19  and  C14_20 
ROOT
HETATM    1  C4  UNL     1       0.995  -0.625  -0.463  1.00  0.00     0.072 C 
HETATM    2  N3  UNL     1       0.358  -0.024  -1.357  1.00  0.00    -0.182 NA
HETATM    3  N4  UNL     1       0.541   0.755  -2.371  1.00  0.00    -0.305 N 
HETATM    4  C5  UNL     1       0.299   2.112  -2.948  1.00  0.00     0.206 C 
HETATM    5  S1  UNL     1      -1.505   2.307  -3.083  1.00  0.00    -0.182 SA
HETATM    6  C6  UNL     1      -2.281   1.919  -1.462  1.00  0.00     0.028 A 
HETATM    7  C7  UNL     1      -1.467   2.525  -0.577  1.00  0.00     0.017 A 
HETATM    8  C8  UNL     1      -1.796   1.494   0.278  1.00  0.00     0.009 A 
HETATM    9  C9  UNL     1      -2.494   1.228  -0.861  1.00  0.00     0.007 A 
HETATM   10  N5  UNL     1      -2.553   0.117  -0.059  1.00  0.00     0.000 N 
HETATM   11  C10 UNL     1      -3.357  -0.898  -0.373  1.00  0.00     0.209 A 
HETATM   12  C11 UNL     1      -4.205  -1.916  -0.745  1.00  0.00    -0.001 A 
HETATM   13  C12 UNL     1      -4.143  -0.813  -1.546  1.00  0.00     0.065 A 
HETATM   14  C13 UNL     1      -3.337   0.269  -1.281  1.00  0.00     0.034 A 
HETATM   15  C14 UNL     1      -3.124   1.239  -2.291  1.00  0.00     0.069 A 
HETATM   16  N6  UNL     1      -2.186  -1.339   0.374  1.00  0.00     0.177 N 
HETATM   17  N7  UNL     1      -1.034  -1.759   1.099  1.00  0.00    -0.121 NA
HETATM   18  C15 UNL     1       0.077  -1.302   0.490  1.00  0.00     0.309 C 
HETATM   19  H8  UNL     1       1.084   0.119  -2.995  1.00  0.00     0.183 HD
HETATM   20  H16 UNL     1      -2.226  -2.228   0.941  1.00  0.00     0.342 HD
ENDROOT
BRANCH   1  21
HETATM   21  C3  UNL     1       2.319  -0.947   0.142  1.00  0.00     0.110 C 
BRANCH  21  22
HETATM   22  C2  UNL     1       2.498  -0.470   1.520  1.00  0.00     0.117 C 
HETATM   23  N2  UNL     1       3.531  -1.084   2.032  1.00  0.00    -0.196 NA
BRANCH  23  24
HETATM   24  N1  UNL     1       3.987  -0.872   3.327  1.00  0.00    -0.319 N 
HETATM   25  C1  UNL     1       5.413  -0.647   3.568  1.00  0.00     0.169 C 
HETATM   26  H4  UNL     1       3.137  -0.918   3.962  1.00  0.00     0.181 HD
ENDBRANCH  23  24
ENDBRANCH  21  22
ENDBRANCH   1  21
TORSDOF 6
