REMARK  1 active torsions:
REMARK  status: ('A' for Active; 'I' for Inactive)
REMARK    1  A    between atoms: C3_4  and  C4_5 
ROOT
HETATM    1  C4  UNL     1       1.720  -0.791  -0.663  1.00  0.00     0.091 C 
HETATM    2  C5  UNL     1       1.542  -2.158  -0.668  1.00  0.00     0.036 C 
HETATM    3  C6  UNL     1       0.778  -3.157  -0.108  1.00  0.00     0.023 C 
HETATM    4  C7  UNL     1      -0.405  -3.651  -0.617  1.00  0.00     0.141 C 
HETATM    5  N2  UNL     1      -1.727  -3.417  -0.835  1.00  0.00    -0.161 NA
HETATM    6  N3  UNL     1      -2.001  -2.307  -1.482  1.00  0.00    -0.129 NA
HETATM    7  C8  UNL     1      -1.560  -1.102  -1.193  1.00  0.00     0.190 C 
HETATM    8  N4  UNL     1      -0.435  -0.209  -1.076  1.00  0.00    -0.190 N 
HETATM    9  N5  UNL     1       0.844   0.106  -1.082  1.00  0.00    -0.159 NA
HETATM   10  S1  UNL     1      -1.070   1.429  -0.456  1.00  0.00    -0.045 SA
HETATM   11  C9  UNL     1      -2.017   1.270   1.139  1.00  0.00     0.085 C 
HETATM   12  C10 UNL     1      -2.815   2.560   1.039  1.00  0.00     0.095 C 
HETATM   13  C11 UNL     1      -4.085   2.083   0.263  1.00  0.00    -0.011 C 
HETATM   14  C12 UNL     1      -3.378   1.160  -0.373  1.00  0.00    -0.037 C 
HETATM   15  C13 UNL     1      -2.544   1.648  -1.589  1.00  0.00     0.132 C 
HETATM   16  C14 UNL     1      -2.704  -0.174  -0.792  1.00  0.00     0.022 C 
HETATM   17  C15 UNL     1      -3.388  -1.163   0.120  1.00  0.00     0.035 C 
HETATM   18  C16 UNL     1      -3.200  -0.818   1.764  1.00  0.00     0.118 C 
HETATM   19  N6  UNL     1      -2.484   0.331   2.353  1.00  0.00    -0.257 NA
ENDROOT
BRANCH   1  20
HETATM   20  C3  UNL     1       2.992  -0.358  -0.145  1.00  0.00     0.031 A 
HETATM   21  C2  UNL     1       3.372   0.963  -0.052  1.00  0.00     0.127 A 
HETATM   22  N1  UNL     1       4.610   1.073   0.469  1.00  0.00    -0.285 N 
HETATM   23  C1  UNL     1       5.396   2.269   0.741  1.00  0.00     0.179 C 
HETATM   24  N7  UNL     1       5.022  -0.163   0.708  1.00  0.00    -0.185 NA
HETATM   25  C17 UNL     1       4.083  -1.040   0.354  1.00  0.00     0.154 A 
ENDBRANCH   1  20
TORSDOF 1
