REMARK  3 active torsions:
REMARK  status: ('A' for Active; 'I' for Inactive)
REMARK    1  A    between atoms: C3_4  and  C4_5 
REMARK    2  A    between atoms: C8_11  and  S1_12 
REMARK    3  A    between atoms: C11_15  and  C12_16 
ROOT
HETATM    1  C4  UNL     1      -3.086   0.493  -0.877  1.00  0.00     0.090 A 
HETATM    2  C5  UNL     1      -3.768   1.362  -1.705  1.00  0.00     0.038 A 
HETATM    3  C6  UNL     1      -3.124   1.736  -2.857  1.00  0.00     0.057 A 
HETATM    4  C7  UNL     1      -1.852   1.295  -3.225  1.00  0.00     0.175 A 
HETATM    5  N2  UNL     1      -1.004   1.474  -4.236  1.00  0.00    -0.128 NA
HETATM    6  N3  UNL     1       0.089   0.770  -4.025  1.00  0.00    -0.121 NA
HETATM    7  C8  UNL     1      -0.063   0.127  -2.855  1.00  0.00     0.211 A 
HETATM    8  N5  UNL     1      -1.262   0.440  -2.343  1.00  0.00    -0.187 N 
HETATM    9  N6  UNL     1      -1.850   0.056  -1.221  1.00  0.00    -0.163 NA
ENDROOT
BRANCH   7  10
HETATM   10  S1  UNL     1       1.174  -0.954  -2.158  1.00  0.00    -0.089 SA
HETATM   11  C9  UNL     1       1.644  -2.498  -2.144  1.00  0.00     0.049 A 
HETATM   12  C10 UNL     1       2.755  -2.221  -1.243  1.00  0.00     0.025 A 
HETATM   13  C11 UNL     1       2.600  -0.921  -1.073  1.00  0.00     0.003 A 
BRANCH  13  14
HETATM   14  C12 UNL     1       3.258   0.149  -0.340  1.00  0.00     0.027 C 
HETATM   15  C13 UNL     1       4.310   0.167   0.459  1.00  0.00    -0.037 A 
HETATM   16  C14 UNL     1       5.113  -0.971   0.815  1.00  0.00     0.010 A 
HETATM   17  C17 UNL     1       4.746   1.429   1.067  1.00  0.00     0.186 A 
HETATM   18  C15 UNL     1       6.161  -0.980   1.604  1.00  0.00     0.019 A 
HETATM   19  C16 UNL     1       6.565   0.275   2.187  1.00  0.00     0.110 A 
HETATM   20  N4  UNL     1       5.885   1.314   1.903  1.00  0.00    -0.297 NA
ENDBRANCH  13  14
ENDBRANCH   7  10
BRANCH   1  21
HETATM   21  C3  UNL     1      -3.717   0.057   0.365  1.00  0.00     0.031 A 
HETATM   22  C2  UNL     1      -4.952   0.373   0.904  1.00  0.00     0.127 A 
HETATM   23  N1  UNL     1      -5.132  -0.260   2.080  1.00  0.00    -0.285 N 
HETATM   24  C1  UNL     1      -6.337  -0.125   2.887  1.00  0.00     0.179 C 
HETATM   25  N7  UNL     1      -4.037  -0.979   2.313  1.00  0.00    -0.185 NA
HETATM   26  C18 UNL     1      -3.163  -0.807   1.292  1.00  0.00     0.154 A 
ENDBRANCH   1  21
TORSDOF 3
