REMARK  5 active torsions:
REMARK  status: ('A' for Active; 'I' for Inactive)
REMARK    1  A    between atoms: C6_8  and  C7_9 
REMARK    2  A    between atoms: C7_9  and  N3_10 
REMARK    3  A    between atoms: N3_10  and  C9_12 
REMARK    4  A    between atoms: C16_20  and  S1_21 
REMARK    5  A    between atoms: S1_21  and  N5_22 
ROOT
HETATM    1  C9  UNL     1      -0.386  -0.376   0.031  1.00  0.00     0.121 C 
HETATM    2  N4  UNL     1      -0.831  -1.191  -0.846  1.00  0.00    -0.268 NA
HETATM    3  C10 UNL     1      -2.236  -1.573  -1.026  1.00  0.00     0.191 C 
HETATM    4  C11 UNL     1      -3.055  -0.639  -0.152  1.00  0.00    -0.015 A 
HETATM    5  C12 UNL     1      -2.713   0.609  -0.589  1.00  0.00     0.012 A 
HETATM    6  C13 UNL     1      -3.175   1.580   0.246  1.00  0.00     0.030 A 
HETATM    7  C14 UNL     1      -3.896   1.115   1.357  1.00  0.00     0.034 A 
HETATM    8  C15 UNL     1      -4.215  -0.205   1.729  1.00  0.00     0.054 A 
HETATM    9  C16 UNL     1      -3.741  -1.173   0.880  1.00  0.00     0.084 A 
HETATM   10  N6  UNL     1      -4.228   2.205   2.283  1.00  0.00    -0.351 N 
HETATM   11  C17 UNL     1      -3.023   1.641   2.908  1.00  0.00     0.207 C 
HETATM   12  N7  UNL     1      -1.860   1.171   3.091  1.00  0.00    -0.256 NA
HETATM   13  C18 UNL     1      -0.848   0.949   2.159  1.00  0.00     0.122 C 
HETATM   14  C19 UNL     1      -0.116   0.543   1.141  1.00  0.00     0.069 C 
HETATM   15  H22 UNL     1      -4.708   2.991   2.668  1.00  0.00     0.166 HD
ENDROOT
BRANCH   1  16
HETATM   16  N3  UNL     1       0.918  -0.700  -0.604  1.00  0.00    -0.366 N 
HETATM   17  C8  UNL     1       1.304  -1.167  -1.931  1.00  0.00     0.151 C 
BRANCH  16  18
HETATM   18  C7  UNL     1       2.186  -0.621   0.116  1.00  0.00     0.166 C 
BRANCH  18  19
HETATM   19  C6  UNL     1       3.267   0.079  -0.594  1.00  0.00     0.009 A 
HETATM   20  C2  UNL     1       4.165  -0.545  -1.461  1.00  0.00     0.061 A 
HETATM   21  C1  UNL     1       4.397  -1.956  -1.869  1.00  0.00     0.073 C 
HETATM   22  N1  UNL     1       4.990   0.380  -1.972  1.00  0.00    -0.177 NA
HETATM   23  N2  UNL     1       4.680   1.571  -1.481  1.00  0.00    -0.278 N 
HETATM   24  C3  UNL     1       5.436   2.772  -1.873  1.00  0.00     0.179 C 
HETATM   25  C4  UNL     1       3.629   1.412  -0.632  1.00  0.00     0.036 A 
HETATM   26  C5  UNL     1       2.997   2.523   0.093  1.00  0.00     0.070 C 
ENDBRANCH  18  19
ENDBRANCH  16  18
ENDBRANCH   1  16
BRANCH   9  27
HETATM   27  S1  UNL     1      -4.126  -2.852   1.140  1.00  0.00     0.240 S 
HETATM   28  O1  UNL     1      -2.958  -3.775   1.106  1.00  0.00    -0.206 OA
HETATM   29  O2  UNL     1      -4.848  -2.998   2.436  1.00  0.00    -0.206 OA
BRANCH  27  30
HETATM   30  N5  UNL     1      -5.216  -3.403  -0.126  1.00  0.00    -0.225 NA
HETATM   31  H20 UNL     1      -6.140  -3.710   0.316  1.00  0.00     0.136 HD
HETATM   32  H21 UNL     1      -5.467  -2.583  -0.727  1.00  0.00     0.136 HD
ENDBRANCH  27  30
ENDBRANCH   9  27
TORSDOF 5
