REMARK  6 active torsions:
REMARK  status: ('A' for Active; 'I' for Inactive)
REMARK    1  A    between atoms: C5_5  and  N1_6 
REMARK    2  A    between atoms: N3_11  and  N4_12 
REMARK    3  A    between atoms: N4_12  and  C10_14 
REMARK    4  A    between atoms: C10_14  and  C11_15 
REMARK    5  A    between atoms: C19_24  and  S1_25 
REMARK    6  A    between atoms: S1_25  and  N6_26 
ROOT
HETATM    1  N1  UNL     1      -1.711  -0.793  -2.417  1.00  0.00    -0.234 N 
HETATM    2  C6  UNL     1      -2.418  -1.282  -3.552  1.00  0.00     0.234 A 
HETATM    3  N2  UNL     1      -2.024  -1.145  -4.771  1.00  0.00    -0.253 NA
HETATM    4  C7  UNL     1      -0.801  -0.459  -4.986  1.00  0.00     0.138 A 
HETATM    5  C8  UNL     1      -0.027   0.054  -4.038  1.00  0.00     0.150 A 
HETATM    6  N3  UNL     1      -0.512  -0.127  -2.696  1.00  0.00    -0.219 N 
ENDROOT
BRANCH   1   7
HETATM    7  C5  UNL     1      -2.221  -1.000  -1.108  1.00  0.00     0.060 A 
HETATM    8  C4  UNL     1      -2.844  -2.143  -0.645  1.00  0.00     0.032 A 
HETATM    9  C3  UNL     1      -3.320  -2.181   0.658  1.00  0.00     0.011 A 
HETATM   10  C2  UNL     1      -3.177  -1.091   1.490  1.00  0.00    -0.039 A 
HETATM   11  C1  UNL     1      -3.724  -1.233   2.886  1.00  0.00     0.050 C 
HETATM   12  C19 UNL     1      -2.553   0.062   1.036  1.00  0.00     0.087 A 
HETATM   13  C18 UNL     1      -2.076   0.106  -0.264  1.00  0.00     0.057 A 
BRANCH  12  14
HETATM   14  S1  UNL     1      -2.419   1.417   2.159  1.00  0.00     0.257 S 
HETATM   15  O1  UNL     1      -3.852   1.808   2.483  1.00  0.00    -0.201 OA
HETATM   16  O2  UNL     1      -1.642   1.046   3.380  1.00  0.00    -0.201 OA
BRANCH  14  17
HETATM   17  N6  UNL     1      -1.670   2.766   1.436  1.00  0.00    -0.324 N 
HETATM   18  H27 UNL     1      -0.810   3.096   1.873  1.00  0.00     0.169 HD
HETATM   19  H28 UNL     1      -1.786   2.872   0.430  1.00  0.00     0.169 HD
ENDBRANCH  14  17
ENDBRANCH  12  14
ENDBRANCH   1   7
BRANCH   6  20
HETATM   20  N4  UNL     1       0.297   0.368  -1.633  1.00  0.00    -0.210 NA
HETATM   21  C9  UNL     1       0.793   1.646  -2.035  1.00  0.00     0.139 C 
BRANCH  20  22
HETATM   22  C10 UNL     1       1.340  -0.604  -1.343  1.00  0.00     0.151 C 
BRANCH  22  23
HETATM   23  C11 UNL     1       2.133  -0.303  -0.137  1.00  0.00    -0.047 C 
HETATM   24  C12 UNL     1       3.459  -0.135  -0.294  1.00  0.00    -0.019 C 
HETATM   25  C13 UNL     1       4.410   0.168   0.792  1.00  0.00     0.047 C 
HETATM   26  C14 UNL     1       3.739   0.329   2.129  1.00  0.00     0.121 C 
HETATM   27  N5  UNL     1       2.354   0.653   2.045  1.00  0.00    -0.409 N 
HETATM   28  C15 UNL     1       2.041   2.037   2.080  1.00  0.00     0.143 C 
HETATM   29  C16 UNL     1       1.548  -0.181   1.225  1.00  0.00     0.104 C 
HETATM   30  C17 UNL     1       1.471  -1.565   1.887  1.00  0.00     0.037 C 
ENDBRANCH  22  23
ENDBRANCH  20  22
ENDBRANCH   6  20
TORSDOF 6
