REMARK  2 active torsions:
REMARK  status: ('A' for Active; 'I' for Inactive)
REMARK    1  A    between atoms: C3_4  and  C4_5 
REMARK    2  A    between atoms: S1_9  and  C6_10 
ROOT
HETATM    1  C4  UNL     1       2.790   0.052   0.031  1.00  0.00     0.089 A 
HETATM    2  N2  UNL     1       2.124  -1.050   0.114  1.00  0.00    -0.174 NA
HETATM    3  N3  UNL     1       0.719  -1.051   0.293  1.00  0.00    -0.271 N 
HETATM    4  C5  UNL     1      -0.335  -2.073   0.385  1.00  0.00     0.228 C 
HETATM    5  S1  UNL     1      -1.477  -1.370  -0.855  1.00  0.00    -0.099 SA
HETATM    6  N5  UNL     1      -1.056   0.142  -0.593  1.00  0.00    -0.157 NA
HETATM    7  C14 UNL     1      -0.047   0.155   0.433  1.00  0.00     0.229 A 
HETATM    8  C15 UNL     1       0.835   1.340   0.316  1.00  0.00     0.020 A 
HETATM    9  C16 UNL     1       2.144   1.339   0.132  1.00  0.00     0.034 A 
ENDROOT
BRANCH   5  10
HETATM   10  C6  UNL     1      -3.133  -1.710  -0.295  1.00  0.00     0.103 A 
HETATM   11  C7  UNL     1      -4.154  -1.184  -1.226  1.00  0.00     0.006 A 
HETATM   12  C8  UNL     1      -4.946  -0.334  -0.593  1.00  0.00    -0.010 A 
HETATM   13  C9  UNL     1      -6.046   0.456  -0.910  1.00  0.00     0.015 A 
HETATM   14  C12 UNL     1      -4.542  -0.236   0.714  1.00  0.00     0.064 A 
HETATM   15  C10 UNL     1      -6.658   1.259   0.026  1.00  0.00     0.020 A 
HETATM   16  C11 UNL     1      -6.191   1.304   1.328  1.00  0.00     0.117 A 
HETATM   17  N4  UNL     1      -5.114   0.537   1.659  1.00  0.00    -0.261 NA
HETATM   18  C13 UNL     1      -3.492  -1.010   0.957  1.00  0.00     0.025 A 
ENDBRANCH   5  10
BRANCH   1  19
HETATM   19  C3  UNL     1       4.238   0.019  -0.155  1.00  0.00     0.031 A 
HETATM   20  C2  UNL     1       5.106   1.063  -0.264  1.00  0.00     0.127 A 
HETATM   21  N1  UNL     1       6.355   0.547  -0.426  1.00  0.00    -0.285 N 
HETATM   22  C1  UNL     1       7.611   1.225  -0.586  1.00  0.00     0.179 C 
HETATM   23  N6  UNL     1       6.298  -0.780  -0.422  1.00  0.00    -0.185 NA
HETATM   24  C17 UNL     1       5.020  -1.126  -0.259  1.00  0.00     0.154 A 
ENDBRANCH   1  19
TORSDOF 2
