REMARK  6 active torsions:
REMARK  status: ('A' for Active; 'I' for Inactive)
REMARK    1  A    between atoms: C5_5  and  N1_6 
REMARK    2  A    between atoms: N1_6  and  C6_7 
REMARK    3  A    between atoms: C9_11  and  N3_12 
REMARK    4  A    between atoms: N3_12  and  C11_14 
REMARK    5  A    between atoms: C22_29  and  S1_30 
REMARK    6  A    between atoms: S1_30  and  N8_31 
ROOT
HETATM    1  C6  UNL     1       2.034   0.083  -1.511  1.00  0.00     0.728 A 
HETATM    2  N2  UNL     1       2.012   1.362  -1.976  1.00  0.00    -0.075 NA
HETATM    3  C7  UNL     1       1.212   2.281  -1.406  1.00  0.00     0.140 A 
HETATM    4  C8  UNL     1       0.380   2.000  -0.342  1.00  0.00     0.071 A 
HETATM    5  C9  UNL     1       0.418   0.699   0.112  1.00  0.00     0.150 A 
HETATM    6  N7  UNL     1       1.218  -0.203  -0.463  1.00  0.00    -0.045 NA
ENDROOT
BRANCH   5   7
HETATM    7  N3  UNL     1      -0.443   0.368   1.220  1.00  0.00    -0.336 N 
HETATM    8  C10 UNL     1      -0.169   0.422   2.657  1.00  0.00     0.158 C 
BRANCH   7   9
HETATM    9  C11 UNL     1      -1.691  -0.051   0.676  1.00  0.00     0.034 A 
HETATM   10  C12 UNL     1      -1.854  -1.249   0.169  1.00  0.00     0.008 A 
HETATM   11  C13 UNL     1      -3.061  -1.860  -0.435  1.00  0.00     0.072 A 
HETATM   12  C14 UNL     1      -4.164  -0.899  -0.401  1.00  0.00    -0.012 A 
HETATM   13  C15 UNL     1      -5.212  -1.509  -0.943  1.00  0.00     0.092 C 
HETATM   14  C19 UNL     1      -4.023   0.453   0.152  1.00  0.00     0.053 A 
HETATM   15  N4  UNL     1      -6.573  -1.181  -1.224  1.00  0.00    -0.397 N 
HETATM   16  C16 UNL     1      -7.191   0.148  -1.313  1.00  0.00     0.135 C 
HETATM   17  H16 UNL     1      -7.096  -2.085  -1.366  1.00  0.00     0.158 HD
HETATM   18  C17 UNL     1      -7.060   0.768   0.050  1.00  0.00     0.132 C 
HETATM   19  N5  UNL     1      -6.183   1.909   0.097  1.00  0.00    -0.234 NA
HETATM   20  C18 UNL     1      -6.631   2.749   1.205  1.00  0.00     0.136 C 
HETATM   21  N6  UNL     1      -4.849   1.602   0.335  1.00  0.00    -0.319 N 
HETATM   22  H24 UNL     1      -4.382   2.440   0.743  1.00  0.00     0.181 HD
HETATM   23  C20 UNL     1      -2.869   0.832   0.651  1.00  0.00     0.060 A 
ENDBRANCH   7   9
ENDBRANCH   5   7
BRANCH   1  24
HETATM   24  N1  UNL     1       2.762  -1.059  -1.931  1.00  0.00    -0.188 N 
HETATM   25  H6  UNL     1       2.376  -1.809  -2.559  1.00  0.00     0.184 HD
BRANCH  24  26
HETATM   26  C5  UNL     1       4.120  -1.265  -1.510  1.00  0.00     0.050 A 
HETATM   27  C4  UNL     1       4.853  -2.391  -1.806  1.00  0.00     0.030 A 
HETATM   28  C3  UNL     1       6.159  -2.572  -1.408  1.00  0.00     0.010 A 
HETATM   29  C2  UNL     1       6.780  -1.571  -0.669  1.00  0.00    -0.039 A 
HETATM   30  C1  UNL     1       8.186  -1.755  -0.246  1.00  0.00     0.050 C 
HETATM   31  C22 UNL     1       6.082  -0.403  -0.337  1.00  0.00     0.087 A 
HETATM   32  C21 UNL     1       4.757  -0.267  -0.764  1.00  0.00     0.055 A 
BRANCH  31  33
HETATM   33  S1  UNL     1       6.868   0.856   0.596  1.00  0.00     0.257 S 
HETATM   34  O1  UNL     1       5.925   2.019   0.707  1.00  0.00    -0.201 OA
HETATM   35  O2  UNL     1       8.064   1.362  -0.181  1.00  0.00    -0.201 OA
BRANCH  33  36
HETATM   36  N8  UNL     1       7.344   0.370   2.146  1.00  0.00    -0.324 N 
HETATM   37  H27 UNL     1       6.697   0.492   2.915  1.00  0.00     0.169 HD
HETATM   38  H28 UNL     1       8.180  -0.185   2.254  1.00  0.00     0.169 HD
ENDBRANCH  33  36
ENDBRANCH  31  33
ENDBRANCH  24  26
ENDBRANCH   1  24
TORSDOF 6
