REMARK  6 active torsions:
REMARK  status: ('A' for Active; 'I' for Inactive)
REMARK    1  A    between atoms: C6_6  and  N1_7 
REMARK    2  A    between atoms: N1_7  and  C8_9 
REMARK    3  A    between atoms: C11_13  and  N3_14 
REMARK    4  A    between atoms: N3_14  and  C12_15 
REMARK    5  A    between atoms: C15_18  and  S1_19 
REMARK    6  A    between atoms: S1_19  and  N4_20 
ROOT
HETATM    1  C8  UNL     1      -0.065   0.113   0.191  1.00  0.00     0.150 A 
HETATM    2  C9  UNL     1      -0.450   1.138  -0.617  1.00  0.00     0.071 A 
HETATM    3  C10 UNL     1      -1.698   1.594  -0.923  1.00  0.00     0.140 A 
HETATM    4  N2  UNL     1      -2.685   0.906  -0.318  1.00  0.00    -0.075 NA
HETATM    5  C11 UNL     1      -2.430  -0.120   0.497  1.00  0.00     0.728 A 
HETATM    6  N5  UNL     1      -1.165  -0.466   0.713  1.00  0.00    -0.045 NA
ENDROOT
BRANCH   1   7
HETATM    7  N1  UNL     1       1.164  -0.431   0.575  1.00  0.00    -0.336 N 
HETATM    8  C7  UNL     1       1.069  -1.599   1.480  1.00  0.00     0.158 C 
BRANCH   7   9
HETATM    9  C6  UNL     1       2.495  -0.121   0.291  1.00  0.00     0.037 A 
HETATM   10  C5  UNL     1       3.003   0.883  -0.499  1.00  0.00     0.031 A 
HETATM   11  C4  UNL     1       4.307   1.173  -0.767  1.00  0.00     0.018 A 
HETATM   12  C3  UNL     1       5.257   0.391  -0.196  1.00  0.00     0.018 A 
HETATM   13  C2  UNL     1       6.632   0.390  -0.241  1.00  0.00     0.039 A 
HETATM   14  C18 UNL     1       4.870  -0.647   0.617  1.00  0.00     0.091 A 
HETATM   15  C1  UNL     1       7.538   1.298  -0.972  1.00  0.00     0.071 C 
HETATM   16  N7  UNL     1       7.046  -0.629   0.530  1.00  0.00    -0.277 N 
HETATM   17  N6  UNL     1       6.006  -1.244   1.040  1.00  0.00    -0.172 NA
HETATM   18  C19 UNL     1       8.375  -1.106   0.854  1.00  0.00     0.179 C 
HETATM   19  C17 UNL     1       3.533  -0.856   0.823  1.00  0.00     0.064 A 
ENDBRANCH   7   9
ENDBRANCH   1   7
BRANCH   5  20
HETATM   20  N3  UNL     1      -3.493  -0.849   1.137  1.00  0.00    -0.192 N 
HETATM   21  H11 UNL     1      -3.260  -1.647   1.766  1.00  0.00     0.184 HD
BRANCH  20  22
HETATM   22  C12 UNL     1      -4.842  -0.531   0.949  1.00  0.00     0.031 A 
HETATM   23  C13 UNL     1      -5.313   0.379   1.784  1.00  0.00     0.027 A 
HETATM   24  C14 UNL     1      -6.737   0.624   1.483  1.00  0.00     0.023 A 
HETATM   25  C15 UNL     1      -7.122  -0.134   0.472  1.00  0.00     0.058 A 
HETATM   26  C16 UNL     1      -5.944  -0.942   0.038  1.00  0.00     0.109 A 
BRANCH  25  27
HETATM   27  S1  UNL     1      -8.682  -0.272  -0.316  1.00  0.00     0.235 S 
HETATM   28  O1  UNL     1      -8.850  -1.655  -0.906  1.00  0.00    -0.206 OA
HETATM   29  O2  UNL     1      -9.811  -0.111   0.660  1.00  0.00    -0.206 OA
BRANCH  27  30
HETATM   30  N4  UNL     1      -8.825   0.838  -1.621  1.00  0.00    -0.225 NA
HETATM   31  H14 UNL     1      -7.897   1.136  -1.961  1.00  0.00     0.136 HD
HETATM   32  H15 UNL     1      -9.337   1.701  -1.323  1.00  0.00     0.136 HD
ENDBRANCH  27  30
ENDBRANCH  25  27
ENDBRANCH  20  22
ENDBRANCH   5  20
TORSDOF 6
