REMARK  5 active torsions:
REMARK  status: ('A' for Active; 'I' for Inactive)
REMARK    1  A    between atoms: C6_6  and  N1_7 
REMARK    2  A    between atoms: N1_7  and  C8_9 
REMARK    3  A    between atoms: C9_11  and  N3_12 
REMARK    4  A    between atoms: C14_17  and  S1_18 
REMARK    5  A    between atoms: S1_18  and  N4_19 
ROOT
HETATM    1  C8  UNL     1       0.895  -1.614   0.339  1.00  0.00     0.125 C 
HETATM    2  N2  UNL     1       1.176  -1.774  -0.912  1.00  0.00    -0.232 NA
HETATM    3  C9  UNL     1       2.411  -1.286  -1.544  1.00  0.00     0.374 C 
HETATM    4  C10 UNL     1       3.118  -0.718  -0.324  1.00  0.00    -0.003 A 
HETATM    5  C11 UNL     1       3.714  -1.871   0.137  1.00  0.00     0.012 A 
HETATM    6  C12 UNL     1       4.039  -1.377   1.372  1.00  0.00     0.014 A 
HETATM    7  C13 UNL     1       3.736  -0.072   1.772  1.00  0.00    -0.004 A 
HETATM    8  C14 UNL     1       3.106   0.901   1.046  1.00  0.00     0.086 A 
HETATM    9  C15 UNL     1       2.723   0.545  -0.212  1.00  0.00     0.036 A 
HETATM   10  C16 UNL     1       4.036   0.259   3.148  1.00  0.00     0.062 C 
HETATM   11  N5  UNL     1       2.856  -0.224   3.471  1.00  0.00    -0.309 NA
HETATM   12  C17 UNL     1       2.012  -0.752   2.446  1.00  0.00     0.260 C 
HETATM   13  C18 UNL     1       1.001  -1.260   1.778  1.00  0.00     0.047 C 
ENDROOT
BRANCH   1  14
HETATM   14  N1  UNL     1      -0.286  -2.315  -0.046  1.00  0.00    -0.337 N 
HETATM   15  C7  UNL     1      -0.570  -3.735  -0.248  1.00  0.00     0.158 C 
BRANCH  14  16
HETATM   16  C6  UNL     1      -1.471  -1.516  -0.297  1.00  0.00     0.037 A 
HETATM   17  C5  UNL     1      -2.678  -2.043  -0.676  1.00  0.00     0.031 A 
HETATM   18  C4  UNL     1      -3.763  -1.198  -0.895  1.00  0.00     0.018 A 
HETATM   19  C3  UNL     1      -3.697   0.169  -0.750  1.00  0.00     0.018 A 
HETATM   20  C2  UNL     1      -4.566   1.248  -0.888  1.00  0.00     0.039 A 
HETATM   21  C20 UNL     1      -2.480   0.687  -0.368  1.00  0.00     0.091 A 
HETATM   22  C1  UNL     1      -5.997   1.068  -1.295  1.00  0.00     0.071 C 
HETATM   23  N7  UNL     1      -3.866   2.355  -0.593  1.00  0.00    -0.277 N 
HETATM   24  N6  UNL     1      -2.629   2.027  -0.284  1.00  0.00    -0.172 NA
HETATM   25  C21 UNL     1      -4.573   3.639  -0.667  1.00  0.00     0.179 C 
HETATM   26  C19 UNL     1      -1.399  -0.128  -0.148  1.00  0.00     0.064 A 
ENDBRANCH  14  16
ENDBRANCH   1  14
BRANCH   3  27
HETATM   27  N3  UNL     1       2.012  -0.244  -2.467  1.00  0.00     0.107 N 
HETATM   28  H10 UNL     1       2.387  -0.437  -3.430  1.00  0.00     0.316 HD
HETATM   29  H11 UNL     1       0.982  -0.062  -2.458  1.00  0.00     0.316 HD
ENDBRANCH   3  27
BRANCH   8  30
HETATM   30  S1  UNL     1       2.791   2.502   1.644  1.00  0.00     0.240 S 
HETATM   31  O1  UNL     1       1.986   3.246   0.631  1.00  0.00    -0.206 OA
HETATM   32  O2  UNL     1       2.013   2.439   2.953  1.00  0.00    -0.206 OA
BRANCH  30  33
HETATM   33  N4  UNL     1       4.273   3.302   2.022  1.00  0.00    -0.225 NA
HETATM   34  H14 UNL     1       5.099   2.797   1.680  1.00  0.00     0.136 HD
HETATM   35  H15 UNL     1       4.230   4.305   1.824  1.00  0.00     0.136 HD
ENDBRANCH  30  33
ENDBRANCH   8  30
TORSDOF 5
