REMARK  3 active torsions:
REMARK  status: ('A' for Active; 'I' for Inactive)
REMARK    1  A    between atoms: C3_4  and  C4_5 
REMARK    2  A    between atoms: C8_11  and  S1_12 
REMARK    3  A    between atoms: S1_12  and  C9_13 
ROOT
HETATM    1  C4  UNL     1      -1.286  -0.482   0.140  1.00  0.00     0.090 A 
HETATM    2  C5  UNL     1      -1.447  -1.665   0.834  1.00  0.00     0.038 A 
HETATM    3  C6  UNL     1      -0.349  -2.347   1.328  1.00  0.00     0.057 A 
HETATM    4  C7  UNL     1       0.891  -1.755   1.073  1.00  0.00     0.175 A 
HETATM    5  N2  UNL     1       2.092  -2.219   1.445  1.00  0.00    -0.128 NA
HETATM    6  N3  UNL     1       2.988  -1.354   0.999  1.00  0.00    -0.120 NA
HETATM    7  C8  UNL     1       2.343  -0.345   0.345  1.00  0.00     0.217 A 
HETATM    8  N4  UNL     1       1.001  -0.584   0.382  1.00  0.00    -0.187 N 
HETATM    9  N5  UNL     1      -0.070   0.051  -0.082  1.00  0.00    -0.163 NA
ENDROOT
BRANCH   1  10
HETATM   10  C3  UNL     1      -2.516   0.172  -0.348  1.00  0.00     0.031 A 
HETATM   11  C2  UNL     1      -3.830  -0.248  -0.200  1.00  0.00     0.127 A 
HETATM   12  N1  UNL     1      -4.633   0.657  -0.804  1.00  0.00    -0.285 N 
HETATM   13  C1  UNL     1      -6.068   0.458  -0.799  1.00  0.00     0.179 C 
HETATM   14  N6  UNL     1      -3.888   1.613  -1.316  1.00  0.00    -0.185 NA
HETATM   15  C13 UNL     1      -2.583   1.366  -1.066  1.00  0.00     0.154 A 
ENDBRANCH   1  10
BRANCH   7  16
HETATM   16  S1  UNL     1       2.988   1.105  -0.470  1.00  0.00    -0.049 SA
BRANCH  16  17
HETATM   17  C9  UNL     1       4.770   1.144  -0.353  1.00  0.00     0.008 A 
HETATM   18  C10 UNL     1       5.912   1.751  -0.625  1.00  0.00     0.019 A 
HETATM   19  C11 UNL     1       6.748   0.749   0.040  1.00  0.00     0.003 A 
HETATM   20  C12 UNL     1       5.594   0.122   0.323  1.00  0.00     0.019 A 
ENDBRANCH  16  17
ENDBRANCH   7  16
TORSDOF 3
