REMARK  0 active torsions:
REMARK  status: ('A' for Active; 'I' for Inactive)
ROOT
HETATM    1  C1  UNL     1      -4.557  -0.367  -0.161  1.00  0.00     0.048 C 
HETATM    2  C2  UNL     1      -3.113  -0.517   0.044  1.00  0.00    -0.029 C 
HETATM    3  C3  UNL     1      -2.643   0.473  -0.626  1.00  0.00     0.007 C 
HETATM    4  C4  UNL     1      -2.614   1.625  -1.439  1.00  0.00    -0.002 C 
HETATM    5  C5  UNL     1      -1.721   2.397  -1.930  1.00  0.00    -0.005 C 
HETATM    6  C6  UNL     1      -0.334   2.779  -2.117  1.00  0.00     0.180 C 
HETATM    7  N1  UNL     1       0.649   1.916  -1.492  1.00  0.00    -0.248 N 
HETATM    8  N2  UNL     1       1.075   0.788  -2.067  1.00  0.00    -0.182 NA
HETATM    9  C7  UNL     1       1.989   0.166  -1.312  1.00  0.00     0.158 A 
HETATM   10  C8  UNL     1       2.131   0.968  -0.199  1.00  0.00     0.076 A 
HETATM   11  C9  UNL     1       2.956   0.801   0.917  1.00  0.00     0.140 A 
HETATM   12  N3  UNL     1       2.914   1.738   1.884  1.00  0.00    -0.224 NA
HETATM   13  C10 UNL     1       2.086   2.822   1.776  1.00  0.00     0.237 A 
HETATM   14  N4  UNL     1       1.287   2.965   0.675  1.00  0.00    -0.222 NA
HETATM   15  C11 UNL     1       1.292   2.058  -0.318  1.00  0.00     0.163 A 
HETATM   16  N5  UNL     1       3.812  -0.343   1.004  1.00  0.00    -0.370 N 
HETATM   17  C12 UNL     1       3.258  -1.465   1.770  1.00  0.00     0.160 C 
HETATM   18  C13 UNL     1       1.975  -1.919   1.226  1.00  0.00    -0.038 A 
HETATM   19  C14 UNL     1       1.759  -2.855   0.235  1.00  0.00     0.012 A 
HETATM   20  C15 UNL     1       0.500  -3.201  -0.214  1.00  0.00     0.040 A 
HETATM   21  C16 UNL     1      -0.629  -2.618   0.314  1.00  0.00     0.105 A 
HETATM   22  C17 UNL     1      -0.397  -1.695   1.294  1.00  0.00     0.106 A 
HETATM   23  C18 UNL     1       0.820  -1.330   1.760  1.00  0.00     0.048 A 
HETATM   24  O1  UNL     1      -1.572  -1.178   1.753  1.00  0.00    -0.313 OA
HETATM   25  C19 UNL     1      -2.611  -1.620   0.886  1.00  0.00     0.303 C 
HETATM   26  O2  UNL     1      -2.027  -2.677   0.153  1.00  0.00    -0.313 OA
HETATM   27  H11 UNL     1       4.547   0.133   0.437  1.00  0.00     0.161 HD
ENDROOT
TORSDOF 0
