REMARK  5 active torsions:
REMARK  status: ('A' for Active; 'I' for Inactive)
REMARK    1  A    between atoms: C2_2  and  C3_3 
REMARK    2  A    between atoms: C6_6  and  C7_7 
REMARK    3  A    between atoms: C7_7  and  C8_8 
REMARK    4  A    between atoms: C18_22  and  S1_23 
REMARK    5  A    between atoms: S1_23  and  C19_24 
ROOT
HETATM    1  C7  UNL     1      -0.962   0.814  -0.466  1.00  0.00     0.154 A 
HETATM    2  N3  UNL     1      -1.060   1.653  -1.655  1.00  0.00    -0.257 NA
HETATM    3  C13 UNL     1      -1.519   2.821  -1.374  1.00  0.00     0.205 A 
HETATM    4  N4  UNL     1      -1.804   2.981   0.010  1.00  0.00    -0.347 N 
HETATM    5  C14 UNL     1      -2.333   4.251   0.501  1.00  0.00     0.157 C 
HETATM    6  C15 UNL     1      -1.445   1.699   0.571  1.00  0.00     0.042 A 
HETATM    7  C16 UNL     1      -1.641   1.635   1.901  1.00  0.00     0.042 C 
ENDROOT
BRANCH   1   8
HETATM    8  C6  UNL     1       0.490   0.516  -0.400  1.00  0.00    -0.016 A 
HETATM    9  C5  UNL     1       1.046   0.004  -1.580  1.00  0.00     0.011 A 
HETATM   10  C4  UNL     1       2.378  -0.330  -1.711  1.00  0.00     0.013 A 
HETATM   11  C3  UNL     1       3.162  -0.133  -0.597  1.00  0.00    -0.020 A 
HETATM   12  C18 UNL     1       2.646   0.369   0.578  1.00  0.00     0.018 A 
HETATM   13  C17 UNL     1       1.313   0.689   0.666  1.00  0.00     0.030 A 
BRANCH  11  14
HETATM   14  C2  UNL     1       4.568  -0.474  -0.699  1.00  0.00     0.002 C 
HETATM   15  C1  UNL     1       5.029  -0.953  -1.839  1.00  0.00     0.012 C 
ENDBRANCH  11  14
BRANCH  12  16
HETATM   16  S1  UNL     1       3.756   0.580   1.949  1.00  0.00    -0.061 SA
BRANCH  16  17
HETATM   17  C19 UNL     1       3.818  -0.897   2.956  1.00  0.00     0.309 C 
HETATM   18  O1  UNL     1       3.453  -2.043   3.034  1.00  0.00    -0.295 OA
ENDBRANCH  16  17
ENDBRANCH  12  16
ENDBRANCH   1   8
BRANCH   1  19
HETATM   19  C8  UNL     1      -1.796  -0.386  -0.746  1.00  0.00     0.026 A 
HETATM   20  C9  UNL     1      -2.661  -0.601  -1.832  1.00  0.00     0.151 A 
HETATM   21  N1  UNL     1      -3.235  -1.797  -1.736  1.00  0.00    -0.184 NA
HETATM   22  N2  UNL     1      -2.810  -2.407  -0.649  1.00  0.00    -0.278 N 
HETATM   23  C10 UNL     1      -3.211  -3.729  -0.206  1.00  0.00     0.179 C 
HETATM   24  C11 UNL     1      -1.936  -1.568  -0.033  1.00  0.00     0.037 A 
HETATM   25  C12 UNL     1      -1.237  -1.887   1.226  1.00  0.00     0.070 C 
ENDBRANCH   1  19
TORSDOF 5
