REMARK  6 active torsions:
REMARK  status: ('A' for Active; 'I' for Inactive)
REMARK    1  A    between atoms: C5_5  and  N1_6 
REMARK    2  A    between atoms: N1_6  and  C6_7 
REMARK    3  A    between atoms: C10_11  and  N2_12 
REMARK    4  A    between atoms: N2_12  and  C12_14 
REMARK    5  A    between atoms: C22_27  and  S1_28 
REMARK    6  A    between atoms: S1_28  and  N6_29 
ROOT
HETATM    1  C6  UNL     1      -1.084   0.044  -1.671  1.00  0.00     0.143 A 
HETATM    2  C7  UNL     1      -1.023  -1.414  -1.964  1.00  0.00     0.070 C 
HETATM    3  C8  UNL     1      -0.156   0.790  -2.524  1.00  0.00     0.032 A 
HETATM    4  C9  UNL     1       0.804   1.361  -1.813  1.00  0.00     0.051 A 
HETATM    5  C10 UNL     1       0.519   0.995  -0.452  1.00  0.00     0.127 A 
HETATM    6  N5  UNL     1      -0.529   0.258  -0.332  1.00  0.00    -0.237 NA
ENDROOT
BRANCH   1   7
HETATM    7  N1  UNL     1      -2.421   0.588  -1.672  1.00  0.00    -0.359 N 
HETATM    8  H6  UNL     1      -2.638   1.347  -2.353  1.00  0.00     0.162 HD
BRANCH   7   9
HETATM    9  C5  UNL     1      -3.410   0.125  -0.795  1.00  0.00     0.031 A 
HETATM   10  C4  UNL     1      -3.165  -0.877   0.121  1.00  0.00     0.030 A 
HETATM   11  C3  UNL     1      -4.203  -1.282   0.959  1.00  0.00     0.010 A 
HETATM   12  C2  UNL     1      -5.482  -0.737   0.933  1.00  0.00    -0.039 A 
HETATM   13  C1  UNL     1      -6.540  -1.217   1.855  1.00  0.00     0.050 C 
HETATM   14  C22 UNL     1      -5.720   0.267   0.012  1.00  0.00     0.082 A 
HETATM   15  C21 UNL     1      -4.682   0.660  -0.815  1.00  0.00     0.054 A 
BRANCH  14  16
HETATM   16  S1  UNL     1      -7.300   0.996  -0.078  1.00  0.00     0.239 S 
HETATM   17  O1  UNL     1      -7.315   2.028  -1.175  1.00  0.00    -0.206 OA
HETATM   18  O2  UNL     1      -7.631   1.713   1.204  1.00  0.00    -0.206 OA
BRANCH  16  19
HETATM   19  N6  UNL     1      -8.504  -0.180  -0.458  1.00  0.00    -0.225 NA
HETATM   20  H25 UNL     1      -9.434   0.271  -0.244  1.00  0.00     0.136 HD
HETATM   21  H26 UNL     1      -8.520  -0.334  -1.498  1.00  0.00     0.136 HD
ENDBRANCH  16  19
ENDBRANCH  14  16
ENDBRANCH   7   9
ENDBRANCH   1   7
BRANCH   5  22
HETATM   22  N2  UNL     1       1.342   1.423   0.642  1.00  0.00    -0.336 N 
HETATM   23  C11 UNL     1       1.006   2.299   1.774  1.00  0.00     0.158 C 
BRANCH  22  24
HETATM   24  C12 UNL     1       2.687   0.942   0.653  1.00  0.00     0.037 A 
HETATM   25  C13 UNL     1       3.573   1.287   1.655  1.00  0.00     0.031 A 
HETATM   26  C14 UNL     1       4.884   0.860   1.729  1.00  0.00     0.018 A 
HETATM   27  C15 UNL     1       5.356   0.026   0.733  1.00  0.00     0.018 A 
HETATM   28  C16 UNL     1       6.554  -0.598   0.450  1.00  0.00     0.039 A 
HETATM   29  C19 UNL     1       4.501  -0.339  -0.282  1.00  0.00     0.091 A 
HETATM   30  C17 UNL     1       7.784  -0.480   1.299  1.00  0.00     0.071 C 
HETATM   31  N3  UNL     1       6.433  -1.306  -0.682  1.00  0.00    -0.277 N 
HETATM   32  C18 UNL     1       7.461  -2.109  -1.328  1.00  0.00     0.179 C 
HETATM   33  N4  UNL     1       5.193  -1.141  -1.111  1.00  0.00    -0.172 NA
HETATM   34  C20 UNL     1       3.197   0.109  -0.321  1.00  0.00     0.064 A 
ENDBRANCH  22  24
ENDBRANCH   5  22
TORSDOF 6
