REMARK  7 active torsions:
REMARK  status: ('A' for Active; 'I' for Inactive)
REMARK    1  A    between atoms: C2_2  and  C4_4 
REMARK    2  A    between atoms: C4_4  and  C5_5 
REMARK    3  A    between atoms: C6_7  and  N2_8 
REMARK       I    between atoms: N2_8  and  C7_9 
REMARK       I    between atoms: C7_9  and  N3_10 
REMARK       I    between atoms: C7_9  and  N4_11 
REMARK    4  A    between atoms: C10_14  and  O1_15 
REMARK    5  A    between atoms: O1_15  and  C11_16 
REMARK    6  A    between atoms: C11_16  and  C12_17 
REMARK    7  A    between atoms: C12_17  and  N5_18 
ROOT
HETATM    1  N2  UNL     1       2.281   0.431  -0.133  1.00  0.00    -0.337 N 
HETATM    2  C7  UNL     1       1.678   1.639   0.411  1.00  0.00     0.290 C 
HETATM    3  N3  UNL     1       2.528   2.421   1.223  1.00  0.00    -0.394 N 
HETATM    4  N4  UNL     1       0.349   1.366   0.878  1.00  0.00    -0.318 N 
HETATM    5  C8  UNL     1      -0.589   1.055  -0.185  1.00  0.00     0.094 A 
HETATM    6  C9  UNL     1      -1.882   0.766   0.035  1.00  0.00     0.027 A 
HETATM    7  C10 UNL     1      -2.538   0.712   1.322  1.00  0.00     0.181 A 
HETATM    8  C17 UNL     1      -1.557   1.043   2.394  1.00  0.00     0.001 A 
HETATM    9  C18 UNL     1      -1.951   1.055   3.724  1.00  0.00     0.012 A 
HETATM   10  C19 UNL     1      -1.106   1.338   4.802  1.00  0.00     0.001 A 
HETATM   11  C20 UNL     1       0.224   1.624   4.487  1.00  0.00     0.002 A 
HETATM   12  C21 UNL     1       0.622   1.615   3.189  1.00  0.00     0.030 A 
HETATM   13  C22 UNL     1      -0.240   1.333   2.165  1.00  0.00     0.046 A 
HETATM   14  H10 UNL     1       1.870  -0.509   0.098  1.00  0.00     0.165 HD
HETATM   15  H12 UNL     1       2.506   3.439   1.069  1.00  0.00     0.153 HD
HETATM   16  H13 UNL     1       3.450   2.014   1.446  1.00  0.00     0.153 HD
ENDROOT
BRANCH   1  17
HETATM   17  C6  UNL     1       3.415   0.409  -0.978  1.00  0.00     0.128 A 
HETATM   18  N1  UNL     1       3.774   0.234  -2.351  1.00  0.00    -0.236 NA
HETATM   19  C5  UNL     1       5.027   0.401  -2.025  1.00  0.00     0.041 A 
HETATM   20  C23 UNL     1       4.695   0.585  -0.614  1.00  0.00     0.077 A 
BRANCH  19  21
HETATM   21  C4  UNL     1       6.287   0.404  -2.789  1.00  0.00     0.063 C 
BRANCH  21  22
HETATM   22  C2  UNL     1       7.242  -0.676  -2.302  1.00  0.00    -0.017 C 
HETATM   23  C1  UNL     1       6.629  -2.061  -2.443  1.00  0.00     0.010 C 
HETATM   24  C3  UNL     1       7.562  -0.459  -0.848  1.00  0.00     0.010 C 
ENDBRANCH  21  22
ENDBRANCH  19  21
ENDBRANCH   1  17
BRANCH   7  25
HETATM   25  O1  UNL     1      -3.229  -0.458   1.652  1.00  0.00    -0.376 OA
BRANCH  25  26
HETATM   26  C11 UNL     1      -4.560  -0.148   1.774  1.00  0.00     0.189 C 
BRANCH  26  27
HETATM   27  C12 UNL     1      -5.303   0.147   0.520  1.00  0.00     0.152 C 
BRANCH  27  28
HETATM   28  N5  UNL     1      -5.460  -0.958  -0.390  1.00  0.00    -0.346 N 
HETATM   29  C13 UNL     1      -6.740  -1.649  -0.159  1.00  0.00     0.152 C 
HETATM   30  C14 UNL     1      -7.046  -2.581  -1.308  1.00  0.00     0.188 C 
HETATM   31  O2  UNL     1      -6.733  -2.051  -2.532  1.00  0.00    -0.380 OA
HETATM   32  C15 UNL     1      -5.400  -1.818  -2.766  1.00  0.00     0.270 C 
HETATM   33  C16 UNL     1      -4.741  -1.556  -1.460  1.00  0.00     0.243 C 
HETATM   34  O3  UNL     1      -3.566  -1.763  -1.038  1.00  0.00    -0.271 OA
ENDBRANCH  27  28
ENDBRANCH  26  27
ENDBRANCH  25  26
ENDBRANCH   7  25
TORSDOF 7
