REMARK  2 active torsions:
REMARK  status: ('A' for Active; 'I' for Inactive)
REMARK    1  A    between atoms: O1_1  and  C1_2 
REMARK    2  A    between atoms: C4_5  and  C5_6 
ROOT
HETATM    1  C5  UNL     1       1.386  -0.088  -1.020  1.00  0.00     0.151 A 
HETATM    2  N1  UNL     1       0.957  -1.447  -1.108  1.00  0.00    -0.362 N 
HETATM    3  C6  UNL     1       0.148  -1.322   0.084  1.00  0.00     0.132 A 
HETATM    4  C7  UNL     1       0.527  -0.059   0.191  1.00  0.00     0.010 A 
HETATM    5  C8  UNL     1       0.009   0.773   1.333  1.00  0.00     0.156 C 
HETATM    6  N2  UNL     1      -1.411   0.789   1.396  1.00  0.00    -0.407 N 
HETATM    7  C9  UNL     1      -2.078   1.467   0.326  1.00  0.00     0.125 C 
HETATM    8  C10 UNL     1      -3.328   2.138   0.681  1.00  0.00     0.002 C 
HETATM    9  C11 UNL     1      -4.581   1.757   0.859  1.00  0.00    -0.002 C 
HETATM   10  C12 UNL     1      -5.153   0.515   0.292  1.00  0.00     0.002 C 
HETATM   11  C13 UNL     1      -4.491  -0.500  -0.298  1.00  0.00     0.029 C 
HETATM   12  C14 UNL     1      -3.037  -0.642  -0.539  1.00  0.00     0.031 C 
HETATM   13  C15 UNL     1      -2.253   0.423  -0.750  1.00  0.00     0.031 C 
HETATM   14  N3  UNL     1      -2.790  -2.068  -0.482  1.00  0.00    -0.351 N 
HETATM   15  C16 UNL     1      -1.870  -2.567   0.483  1.00  0.00     0.209 C 
HETATM   16  N4  UNL     1      -0.669  -2.284   0.739  1.00  0.00    -0.226 NA
HETATM   17  H5  UNL     1       1.308  -2.056  -1.905  1.00  0.00     0.162 HD
HETATM   18  H8  UNL     1      -1.887  -0.005   1.820  1.00  0.00     0.154 HD
HETATM   19  H15 UNL     1      -3.331  -2.627  -1.178  1.00  0.00     0.166 HD
ENDROOT
BRANCH   1  20
HETATM   20  C4  UNL     1       2.839   0.108  -0.790  1.00  0.00    -0.031 A 
HETATM   21  C3  UNL     1       3.718   0.980  -1.392  1.00  0.00     0.012 A 
HETATM   22  C2  UNL     1       5.036   0.974  -1.005  1.00  0.00     0.037 A 
HETATM   23  C1  UNL     1       5.506   0.120  -0.030  1.00  0.00     0.065 A 
HETATM   24  C18 UNL     1       4.633  -0.776   0.597  1.00  0.00     0.037 A 
HETATM   25  C17 UNL     1       3.298  -0.748   0.183  1.00  0.00     0.012 A 
BRANCH  23  26
HETATM   26  O1  UNL     1       6.852   0.168   0.311  1.00  0.00    -0.361 OA
HETATM   27  H1  UNL     1       7.558   0.010  -0.420  1.00  0.00     0.217 HD
ENDBRANCH  23  26
ENDBRANCH   1  20
TORSDOF 2
