REMARK  6 active torsions:
REMARK  status: ('A' for Active; 'I' for Inactive)
REMARK    1  A    between atoms: B1_1  and  C1_2 
REMARK    2  A    between atoms: C1_2  and  C2_3 
REMARK    3  A    between atoms: C4_5  and  C5_6 
REMARK    4  A    between atoms: C6_7  and  C7_8 
REMARK    5  A    between atoms: N1_11  and  C10_12 
REMARK    6  A    between atoms: C10_12  and  C11_13 
ROOT
HETATM    1  C7  UNL     1      -0.921  -0.315   0.014  1.00  0.00     0.074 A 
HETATM    2  C8  UNL     1       0.129  -0.923  -0.868  1.00  0.00     0.006 A 
HETATM    3  C9  UNL     1       1.342  -1.349  -0.556  1.00  0.00     0.109 A 
HETATM    4  N1  UNL     1       1.696  -1.210   0.812  1.00  0.00    -0.278 N 
HETATM    5  N2  UNL     1       0.835  -0.659   1.788  1.00  0.00    -0.188 NA
HETATM    6  C17 UNL     1      -0.328  -0.269   1.397  1.00  0.00     0.124 A 
ENDROOT
BRANCH   1   7
HETATM    7  C6  UNL     1      -2.054  -1.271   0.111  1.00  0.00    -0.013 C 
HETATM    8  C5  UNL     1      -3.313  -1.046  -0.120  1.00  0.00    -0.003 C 
BRANCH   8   9
HETATM    9  C4  UNL     1      -3.904   0.213  -0.533  1.00  0.00     0.001 C 
HETATM   10  C2  UNL     1      -5.190   0.450  -0.771  1.00  0.00    -0.093 C 
HETATM   11  C3  UNL     1      -6.100  -0.701  -0.589  1.00  0.00     0.042 C 
BRANCH  10  12
HETATM   12  C1  UNL     1      -5.693   1.769  -1.187  1.00  0.00    -0.027 C 
BRANCH  12  13
HETATM   13  B1  UNL     1      -6.752   2.345  -0.138  1.00  0.00     0.139 B 
HETATM   14  H1  UNL     1      -7.332   3.341  -0.421  1.00  0.00    -0.032 HD
HETATM   15  H2  UNL     1      -7.215   1.551   0.618  1.00  0.00    -0.032 HD
ENDBRANCH  12  13
ENDBRANCH  10  12
ENDBRANCH   8   9
ENDBRANCH   1   7
BRANCH   4  16
HETATM   16  C10 UNL     1       3.001  -1.655   1.235  1.00  0.00     0.188 C 
BRANCH  16  17
HETATM   17  C11 UNL     1       4.009  -0.744   0.629  1.00  0.00    -0.037 A 
HETATM   18  C12 UNL     1       4.028   0.338  -0.171  1.00  0.00     0.020 A 
HETATM   19  C13 UNL     1       5.381   0.785  -0.411  1.00  0.00     0.204 A 
HETATM   20  O1  UNL     1       5.765   2.021   0.081  1.00  0.00    -0.351 OA
HETATM   21  C15 UNL     1       6.207  -0.178   0.407  1.00  0.00     0.082 A 
HETATM   22  C14 UNL     1       7.151   1.880   0.317  1.00  0.00     0.346 C 
HETATM   23  O2  UNL     1       7.397   0.481   0.029  1.00  0.00    -0.327 OA
HETATM   24  C16 UNL     1       5.404  -1.080   1.006  1.00  0.00     0.044 A 
ENDBRANCH  16  17
ENDBRANCH   4  16
TORSDOF 6
