REMARK  1 active torsions:
REMARK  status: ('A' for Active; 'I' for Inactive)
REMARK    1  A    between atoms: C7_7  and  N1_8 
ROOT
HETATM    1  C1  UNL     1       2.670  -2.146  -3.915  1.00  0.00     0.049 A 
HETATM    2  C2  UNL     1       2.907  -1.874  -2.675  1.00  0.00    -0.053 A 
HETATM    3  C3  UNL     1       1.494  -1.831  -3.255  1.00  0.00     0.042 A 
HETATM    4  C4  UNL     1       0.645  -1.537  -2.279  1.00  0.00    -0.018 C 
HETATM    5  C5  UNL     1      -0.598  -1.267  -1.644  1.00  0.00    -0.005 C 
HETATM    6  C6  UNL     1      -1.605  -0.983  -0.806  1.00  0.00     0.012 C 
HETATM    7  C7  UNL     1      -3.057  -0.878  -1.120  1.00  0.00     0.263 C 
HETATM    8  C8  UNL     1      -3.529   0.341  -0.322  1.00  0.00     0.009 C 
HETATM    9  C9  UNL     1      -2.860   0.719   0.797  1.00  0.00    -0.019 C 
HETATM   10  C10 UNL     1      -2.471   1.476   2.016  1.00  0.00     0.046 C 
HETATM   11  C11 UNL     1      -2.597   0.607   3.257  1.00  0.00     0.020 C 
HETATM   12  C12 UNL     1      -1.066   2.018   1.933  1.00  0.00     0.122 C 
HETATM   13  N2  UNL     1      -0.325   0.939   1.845  1.00  0.00    -0.166 NA
HETATM   14  N3  UNL     1       1.015   0.870   1.748  1.00  0.00    -0.156 NA
HETATM   15  C13 UNL     1       1.994   1.502   2.195  1.00  0.00     0.054 C 
HETATM   16  C14 UNL     1       2.709   2.540   2.959  1.00  0.00     0.072 C 
HETATM   17  C15 UNL     1       2.893   0.600   1.474  1.00  0.00     0.048 C 
HETATM   18  C16 UNL     1       2.904  -0.455   0.682  1.00  0.00     0.118 C 
HETATM   19  N4  UNL     1       3.578  -1.424  -0.081  1.00  0.00    -0.273 NA
HETATM   20  C17 UNL     1       3.287  -1.657  -1.295  1.00  0.00     0.119 C 
ENDROOT
BRANCH   7  21
HETATM   21  N1  UNL     1      -3.293  -0.628  -2.502  1.00  0.00     0.089 N 
HETATM   22  H8  UNL     1      -2.788   0.197  -2.878  1.00  0.00     0.314 HD
HETATM   23  H9  UNL     1      -4.350  -0.509  -2.604  1.00  0.00     0.314 HD
ENDBRANCH   7  21
TORSDOF 1
