REMARK  4 active torsions:
REMARK  status: ('A' for Active; 'I' for Inactive)
REMARK    1  A    between atoms: C4_5  and  N1_6 
REMARK    2  A    between atoms: N1_6  and  C5_7 
REMARK    3  A    between atoms: C10_12  and  C11_13 
REMARK    4  A    between atoms: C11_13  and  C12_14 
ROOT
HETATM    1  C5  UNL     1      -2.181   0.266  -0.653  1.00  0.00     0.015 A 
HETATM    2  C6  UNL     1      -1.574   1.366  -0.231  1.00  0.00     0.026 A 
HETATM    3  C7  UNL     1      -0.125   1.471  -0.355  1.00  0.00     0.011 A 
HETATM    4  C8  UNL     1       0.630   0.511  -0.874  1.00  0.00    -0.026 A 
HETATM    5  C9  UNL     1       2.088   0.679  -0.971  1.00  0.00     0.097 A 
HETATM    6  C10 UNL     1       2.657  -0.549  -1.588  1.00  0.00     0.043 A 
HETATM    7  N3  UNL     1       1.986  -1.564  -1.965  1.00  0.00    -0.158 NA
HETATM    8  N4  UNL     1       0.599  -1.679  -1.853  1.00  0.00    -0.154 NA
HETATM    9  C17 UNL     1      -0.070  -0.685  -1.328  1.00  0.00     0.069 A 
HETATM   10  C18 UNL     1      -1.532  -0.924  -1.263  1.00  0.00     0.118 A 
ENDROOT
BRANCH   1  11
HETATM   11  N1  UNL     1      -3.593   0.049  -0.584  1.00  0.00    -0.359 N 
HETATM   12  H3  UNL     1      -4.184  -0.344  -1.350  1.00  0.00     0.166 HD
BRANCH  11  13
HETATM   13  C4  UNL     1      -4.624   0.238   0.383  1.00  0.00     0.032 A 
HETATM   14  C3  UNL     1      -4.818  -0.865   1.201  1.00  0.00     0.031 A 
HETATM   15  C2  UNL     1      -5.771  -0.910   2.217  1.00  0.00     0.026 A 
HETATM   16  C1  UNL     1      -6.540   0.231   2.380  1.00  0.00     0.034 A 
HETATM   17 CL1  UNL     1      -7.759   0.262   3.631  1.00  0.00    -0.084 Cl
HETATM   18  C20 UNL     1      -6.360   1.331   1.578  1.00  0.00     0.026 A 
HETATM   19  C19 UNL     1      -5.409   1.355   0.575  1.00  0.00     0.031 A 
ENDBRANCH  11  13
ENDBRANCH   1  11
BRANCH   6  20
HETATM   20  C11 UNL     1       4.115  -0.587  -1.777  1.00  0.00     0.095 C 
BRANCH  20  21
HETATM   21  C12 UNL     1       4.902  -0.463  -0.539  1.00  0.00    -0.050 A 
HETATM   22  C13 UNL     1       5.246  -1.601   0.154  1.00  0.00     0.026 A 
HETATM   23  C14 UNL     1       5.976  -1.550   1.312  1.00  0.00     0.116 A 
HETATM   24  N2  UNL     1       6.399  -0.369   1.835  1.00  0.00    -0.273 NA
HETATM   25  C15 UNL     1       6.078   0.765   1.180  1.00  0.00     0.116 A 
HETATM   26  C16 UNL     1       5.347   0.740   0.018  1.00  0.00     0.026 A 
ENDBRANCH  20  21
ENDBRANCH   6  20
TORSDOF 4
