REMARK  8 active torsions:
REMARK  status: ('A' for Active; 'I' for Inactive)
REMARK    1  A    between atoms: C3_3  and  C4_4 
REMARK    2  A    between atoms: C4_4  and  C5_5 
REMARK    3  A    between atoms: C4_4  and  C13_14 
REMARK    4  A    between atoms: C5_5  and  C6_6 
REMARK    5  A    between atoms: C6_6  and  C7_7 
REMARK    6  A    between atoms: C7_7  and  C8_8 
REMARK    7  A    between atoms: C13_14  and  N2_15 
REMARK    8  A    between atoms: C13_14  and  N3_16 
ROOT
HETATM    1  C4  UNL     1      -0.530  -0.754  -1.088  1.00  0.00     0.050 C 
ENDROOT
BRANCH   1   2
HETATM    2  C3  UNL     1      -0.679  -2.213  -1.480  1.00  0.00    -0.023 C 
HETATM    3  C2  UNL     1      -1.616  -3.136  -1.292  1.00  0.00    -0.034 C 
HETATM    4  C1  UNL     1      -1.831  -4.572  -1.643  1.00  0.00     0.036 C 
ENDBRANCH   1   2
BRANCH   1   5
HETATM    5  C5  UNL     1       0.649  -0.761  -0.119  1.00  0.00     0.013 C 
BRANCH   5   6
HETATM    6  C6  UNL     1       1.917  -1.266  -0.721  1.00  0.00     0.005 C 
BRANCH   6   7
HETATM    7  C7  UNL     1       3.031  -1.228   0.325  1.00  0.00     0.038 C 
BRANCH   7   8
HETATM    8  C8  UNL     1       3.266   0.131   0.818  1.00  0.00    -0.055 A 
HETATM    9  C9  UNL     1       4.190   0.938   0.174  1.00  0.00     0.026 A 
HETATM   10  C10 UNL     1       4.418   2.225   0.634  1.00  0.00     0.116 A 
HETATM   11  N1  UNL     1       3.769   2.726   1.695  1.00  0.00    -0.273 NA
HETATM   12  C11 UNL     1       2.861   1.980   2.355  1.00  0.00     0.116 A 
HETATM   13  C12 UNL     1       2.620   0.691   1.910  1.00  0.00     0.026 A 
ENDBRANCH   7   8
ENDBRANCH   6   7
ENDBRANCH   5   6
ENDBRANCH   1   5
BRANCH   1  14
HETATM   14  C13 UNL     1      -1.741  -0.333  -0.326  1.00  0.00     0.184 C 
BRANCH  14  15
HETATM   15  N2  UNL     1      -1.968  -1.035   0.896  1.00  0.00    -0.410 N 
HETATM   16  H18 UNL     1      -2.956  -1.329   1.048  1.00  0.00     0.151 HD
HETATM   17  H19 UNL     1      -1.500  -0.642   1.727  1.00  0.00     0.151 HD
ENDBRANCH  14  15
BRANCH  14  18
HETATM   18  N3  UNL     1      -1.924   1.090  -0.172  1.00  0.00    -0.365 N 
HETATM   19  C14 UNL     1      -3.082   1.318   0.662  1.00  0.00     0.089 A 
HETATM   20  C15 UNL     1      -3.558   2.507   0.989  1.00  0.00     0.040 A 
HETATM   21  C16 UNL     1      -2.913   3.722   0.507  1.00  0.00     0.033 A 
HETATM   22 CL1  UNL     1      -3.375   5.375   0.817  1.00  0.00    -0.085 Cl
HETATM   23  C17 UNL     1      -1.860   3.463  -0.247  1.00  0.00     0.017 A 
HETATM   24  C18 UNL     1      -1.196   2.220  -0.707  1.00  0.00     0.153 A 
ENDBRANCH  14  18
ENDBRANCH   1  14
TORSDOF 8
