REMARK  5 active torsions:
REMARK  status: ('A' for Active; 'I' for Inactive)
REMARK    1  A    between atoms: C4_4  and  C5_5 
REMARK    2  A    between atoms: C5_5  and  C6_6 
REMARK    3  A    between atoms: C9_9  and  N1_10 
REMARK    4  A    between atoms: N1_10  and  C10_11 
REMARK    5  A    between atoms: C10_11  and  C12_13 
ROOT
HETATM    1  C6  UNL     1       1.505  -0.547  -0.395  1.00  0.00     0.006 C 
HETATM    2  C7  UNL     1       0.617   0.164   0.254  1.00  0.00     0.006 C 
HETATM    3  C8  UNL     1      -0.334   1.051   0.927  1.00  0.00     0.107 C 
HETATM    4  C9  UNL     1      -1.748   0.602   0.521  1.00  0.00     0.105 C 
HETATM    5  N2  UNL     1      -2.367  -0.446  -0.017  1.00  0.00    -0.229 NA
HETATM    6  C18 UNL     1      -1.471  -1.535  -0.336  1.00  0.00     0.230 C 
HETATM    7  N3  UNL     1      -0.444  -1.311  -0.991  1.00  0.00    -0.263 NA
HETATM    8  C19 UNL     1       0.644  -2.042  -1.485  1.00  0.00     0.271 C 
HETATM    9  N4  UNL     1       1.804  -1.957  -0.552  1.00  0.00    -0.375 N 
HETATM   10  H24 UNL     1       2.634  -2.052   0.073  1.00  0.00     0.161 HD
ENDROOT
BRANCH   4  11
HETATM   11  N1  UNL     1      -2.758   1.581   0.836  1.00  0.00    -0.370 N 
HETATM   12  H11 UNL     1      -2.493   2.317   1.563  1.00  0.00     0.161 HD
BRANCH  11  13
HETATM   13  C10 UNL     1      -4.079   1.624   0.240  1.00  0.00     0.112 C 
HETATM   14  C11 UNL     1      -4.826   2.793   0.839  1.00  0.00     0.037 C 
BRANCH  13  15
HETATM   15  C12 UNL     1      -4.807   0.351   0.304  1.00  0.00    -0.036 A 
HETATM   16  C13 UNL     1      -5.474  -0.107  -0.820  1.00  0.00     0.009 A 
HETATM   17  C14 UNL     1      -6.163  -1.307  -0.769  1.00  0.00     0.001 A 
HETATM   18  C15 UNL     1      -6.173  -2.030   0.410  1.00  0.00     0.000 A 
HETATM   19  C16 UNL     1      -5.518  -1.599   1.545  1.00  0.00     0.001 A 
HETATM   20  C17 UNL     1      -4.829  -0.385   1.470  1.00  0.00     0.009 A 
ENDBRANCH  13  15
ENDBRANCH  11  13
ENDBRANCH   4  11
BRANCH   1  21
HETATM   21  C5  UNL     1       2.367   0.243  -1.271  1.00  0.00     0.090 C 
BRANCH  21  22
HETATM   22  C4  UNL     1       3.824   0.108  -0.874  1.00  0.00    -0.074 C 
HETATM   23  C3  UNL     1       4.831  -0.354  -1.609  1.00  0.00     0.007 C 
HETATM   24  C2  UNL     1       6.160  -0.358  -0.920  1.00  0.00     0.140 C 
HETATM   25  C1  UNL     1       6.789   1.003  -0.840  1.00  0.00     0.044 C 
HETATM   26  O1  UNL     1       6.023  -0.971   0.319  1.00  0.00    -0.382 OA
HETATM   27  C21 UNL     1       5.172  -0.321   1.170  1.00  0.00     0.172 C 
HETATM   28  C20 UNL     1       4.145   0.553   0.514  1.00  0.00     0.060 C 
ENDBRANCH  21  22
ENDBRANCH   1  21
TORSDOF 5
