REMARK  2 active torsions:
REMARK  status: ('A' for Active; 'I' for Inactive)
REMARK    1  A    between atoms: O1_1  and  C1_2 
REMARK    2  A    between atoms: C8_9  and  C9_10 
ROOT
HETATM    1  C1  UNL     1      -3.210  -0.682  -0.920  1.00  0.00     0.067 C 
HETATM    2  C2  UNL     1      -1.931  -0.825  -1.193  1.00  0.00    -0.022 C 
HETATM    3  C3  UNL     1      -1.572  -0.980  -2.625  1.00  0.00     0.010 C 
HETATM    4  C4  UNL     1      -0.444  -1.100  -3.329  1.00  0.00     0.000 C 
HETATM    5  C5  UNL     1       1.017  -1.124  -3.079  1.00  0.00    -0.004 C 
HETATM    6  C6  UNL     1       1.663  -0.979  -1.905  1.00  0.00    -0.026 C 
HETATM    7  C7  UNL     1       2.229  -0.812  -0.605  1.00  0.00     0.042 C 
HETATM    8  C8  UNL     1       1.288  -0.639   0.572  1.00  0.00     0.070 C 
HETATM    9  C15 UNL     1      -0.004  -0.067   0.285  1.00  0.00     0.025 C 
HETATM   10  N1  UNL     1      -0.443   1.099   0.544  1.00  0.00    -0.267 NA
HETATM   11  C16 UNL     1      -1.742   1.560   0.222  1.00  0.00     0.133 C 
HETATM   12  C17 UNL     1      -3.031   1.676   0.101  1.00  0.00     0.102 C 
HETATM   13  N2  UNL     1      -4.148   0.853   0.523  1.00  0.00    -0.392 N 
HETATM   14  C18 UNL     1      -3.520  -0.506   0.520  1.00  0.00     0.183 C 
HETATM   15  C19 UNL     1      -0.784  -1.116  -0.361  1.00  0.00     0.096 C 
HETATM   16  H15 UNL     1      -5.059   1.302   0.726  1.00  0.00     0.159 HD
ENDROOT
BRANCH   8  17
HETATM   17  C9  UNL     1       2.137   0.100   1.583  1.00  0.00    -0.048 A 
HETATM   18  C10 UNL     1       2.676  -0.256   2.799  1.00  0.00     0.011 A 
HETATM   19  C11 UNL     1       3.431   0.617   3.512  1.00  0.00     0.043 A 
HETATM   20  C12 UNL     1       3.677   1.899   3.026  1.00  0.00     0.116 A 
HETATM   21  F1  UNL     1       4.447   2.712   3.803  1.00  0.00    -0.206 F 
HETATM   22  C13 UNL     1       3.143   2.288   1.796  1.00  0.00     0.043 A 
HETATM   23  C14 UNL     1       2.367   1.383   1.067  1.00  0.00     0.011 A 
ENDBRANCH   8  17
BRANCH   1  24
HETATM   24  O1  UNL     1      -4.184  -0.681  -1.869  1.00  0.00    -0.363 OA
HETATM   25  H1  UNL     1      -5.030  -1.235  -1.798  1.00  0.00     0.217 HD
ENDBRANCH   1  24
TORSDOF 2
