REMARK  5 active torsions:
REMARK  status: ('A' for Active; 'I' for Inactive)
REMARK    1  A    between atoms: C2_2  and  N1_3 
REMARK    2  A    between atoms: C2_2  and  C15_19 
REMARK    3  A    between atoms: N1_3  and  C3_4 
REMARK    4  A    between atoms: C8_11  and  C9_12 
REMARK    5  A    between atoms: C12_15  and  O1_16 
ROOT
HETATM    1  C3  UNL     1      -0.652  -0.886  -0.812  1.00  0.00     0.138 A 
HETATM    2  N2  UNL     1      -0.741  -1.895  -1.822  1.00  0.00    -0.224 NA
HETATM    3  C4  UNL     1       0.335  -2.595  -2.295  1.00  0.00     0.236 A 
HETATM    4  N3  UNL     1       1.579  -2.387  -1.839  1.00  0.00    -0.240 NA
HETATM    5  C5  UNL     1       1.866  -1.484  -0.895  1.00  0.00     0.083 A 
HETATM    6  C6  UNL     1       0.650  -1.032  -0.694  1.00  0.00     0.040 A 
HETATM    7  C7  UNL     1       1.177  -0.059   0.367  1.00  0.00     0.032 A 
HETATM    8  C8  UNL     1       2.371  -0.562   0.111  1.00  0.00     0.005 A 
ENDROOT
BRANCH   1   9
HETATM    9  N1  UNL     1      -2.031  -0.731  -0.937  1.00  0.00    -0.366 N 
HETATM   10  H5  UNL     1      -2.888  -1.075  -1.332  1.00  0.00     0.161 HD
BRANCH   9  11
HETATM   11  C2  UNL     1      -2.329   0.444  -0.114  1.00  0.00     0.112 C 
HETATM   12  C1  UNL     1      -1.961   0.202   1.323  1.00  0.00     0.037 C 
BRANCH  11  13
HETATM   13  C15 UNL     1      -3.737   0.873  -0.272  1.00  0.00    -0.036 A 
HETATM   14  C16 UNL     1      -4.341   0.714  -1.540  1.00  0.00     0.009 A 
HETATM   15  C17 UNL     1      -5.661   1.150  -1.574  1.00  0.00     0.001 A 
HETATM   16  C18 UNL     1      -6.458   1.690  -0.616  1.00  0.00     0.000 A 
HETATM   17  C19 UNL     1      -5.713   1.765   0.520  1.00  0.00     0.001 A 
HETATM   18  C20 UNL     1      -4.426   1.425   0.835  1.00  0.00     0.009 A 
ENDBRANCH  11  13
ENDBRANCH   9  11
ENDBRANCH   1   9
BRANCH   8  19
HETATM   19  C9  UNL     1       3.764  -0.438   0.513  1.00  0.00    -0.023 A 
HETATM   20  C10 UNL     1       4.051   0.482   1.513  1.00  0.00     0.015 A 
HETATM   21  C11 UNL     1       5.358   0.711   1.988  1.00  0.00     0.037 A 
HETATM   22  C12 UNL     1       6.244  -0.075   1.340  1.00  0.00     0.065 A 
HETATM   23  C13 UNL     1       6.138  -1.016   0.356  1.00  0.00     0.037 A 
HETATM   24  C14 UNL     1       4.801  -1.178  -0.056  1.00  0.00     0.015 A 
BRANCH  22  25
HETATM   25  O1  UNL     1       7.582   0.101   1.757  1.00  0.00    -0.361 OA
HETATM   26  H10 UNL     1       8.015   0.977   1.439  1.00  0.00     0.217 HD
ENDBRANCH  22  25
ENDBRANCH   8  19
TORSDOF 5
