REMARK  7 active torsions:
REMARK  status: ('A' for Active; 'I' for Inactive)
REMARK    1  A    between atoms: C2_2  and  C3_3 
REMARK    2  A    between atoms: C3_3  and  C4_4 
REMARK    3  A    between atoms: C4_4  and  O1_5 
REMARK    4  A    between atoms: O1_5  and  C5_6 
REMARK    5  A    between atoms: C5_6  and  C6_7 
REMARK    6  A    between atoms: C6_7  and  N1_8 
REMARK    7  A    between atoms: N1_8  and  C7_9 
ROOT
HETATM    1  C5  UNL     1       1.156   0.207  -0.579  1.00  0.00     0.218 C 
HETATM    2  O3  UNL     1       2.140   0.680   0.240  1.00  0.00    -0.347 OA
HETATM    3  C13 UNL     1       1.876   1.841   0.917  1.00  0.00     0.202 C 
HETATM    4  C14 UNL     1       1.444   2.949   0.043  1.00  0.00     0.040 C 
HETATM    5  C15 UNL     1       1.054   2.542  -1.158  1.00  0.00     0.131 C 
HETATM    6  F1  UNL     1       0.641   3.512  -2.019  1.00  0.00    -0.208 F 
HETATM    7  C16 UNL     1       0.994   1.168  -1.727  1.00  0.00     0.295 C 
HETATM    8  F2  UNL     1       2.080   1.104  -2.609  1.00  0.00    -0.236 F 
ENDROOT
BRANCH   1   9
HETATM    9  O1  UNL     1       1.277  -1.091  -0.914  1.00  0.00    -0.351 OA
BRANCH   9  10
HETATM   10  C4  UNL     1       2.362  -1.546  -1.573  1.00  0.00     0.175 C 
BRANCH  10  11
HETATM   11  C3  UNL     1       3.662  -1.374  -0.824  1.00  0.00     0.052 C 
BRANCH  11  12
HETATM   12  C2  UNL     1       3.650  -2.105   0.468  1.00  0.00    -0.035 C 
HETATM   13  C1  UNL     1       3.802  -1.662   1.697  1.00  0.00     0.007 C 
ENDBRANCH  11  12
ENDBRANCH  10  11
ENDBRANCH   9  10
ENDBRANCH   1   9
BRANCH   1  14
HETATM   14  C6  UNL     1      -0.156   0.313   0.215  1.00  0.00     0.194 C 
BRANCH  14  15
HETATM   15  N1  UNL     1      -1.249  -0.134  -0.658  1.00  0.00    -0.365 N 
HETATM   16  H10 UNL     1      -1.241  -0.476  -1.639  1.00  0.00     0.161 HD
BRANCH  15  17
HETATM   17  C7  UNL     1      -2.564  -0.100  -0.069  1.00  0.00     0.142 A 
HETATM   18  C8  UNL     1      -3.124   0.990   0.408  1.00  0.00     0.058 A 
HETATM   19  C9  UNL     1      -4.446   1.097   1.016  1.00  0.00     0.028 A 
HETATM   20  C10 UNL     1      -5.365   0.161   1.199  1.00  0.00     0.035 A 
HETATM   21 CL1  UNL     1      -6.837   0.660   1.966  1.00  0.00    -0.084 Cl
HETATM   22  C11 UNL     1      -5.333  -1.258   0.849  1.00  0.00     0.048 A 
HETATM   23  C12 UNL     1      -4.325  -1.897   0.282  1.00  0.00     0.146 A 
HETATM   24  O2  UNL     1      -3.088  -1.401  -0.111  1.00  0.00    -0.306 OA
ENDBRANCH  15  17
ENDBRANCH  14  15
ENDBRANCH   1  14
TORSDOF 7
