REMARK  3 active torsions:
REMARK  status: ('A' for Active; 'I' for Inactive)
REMARK    1  A    between atoms: O1_1  and  C1_2 
REMARK    2  A    between atoms: C4_5  and  C5_6 
REMARK    3  A    between atoms: C7_8  and  C8_9 
ROOT
HETATM    1  C5  UNL     1      -0.829   0.181   0.968  1.00  0.00     0.234 C 
HETATM    2  C6  UNL     1       0.601   0.599   1.026  1.00  0.00     0.068 C 
HETATM    3  C7  UNL     1       1.497  -0.630   0.782  1.00  0.00     0.116 C 
HETATM    4  N1  UNL     1       0.794  -1.624  -0.093  1.00  0.00    -0.356 N 
HETATM    5  C14 UNL     1      -0.616  -2.507  -0.166  1.00  0.00     0.412 A 
HETATM    6  C15 UNL     1      -1.056  -2.989   1.121  1.00  0.00     0.184 A 
HETATM    7  C16 UNL     1      -0.840  -2.736  -0.163  1.00  0.00     0.434 A 
HETATM    8  N2  UNL     1      -0.674  -2.539  -1.394  1.00  0.00    -0.131 N 
HETATM    9  C17 UNL     1      -1.068  -2.926  -2.581  1.00  0.00     0.408 A 
HETATM   10  N3  UNL     1      -0.523  -2.379  -1.499  1.00  0.00     0.154 N 
HETATM   11  N4  UNL     1      -0.919  -0.968  -0.017  1.00  0.00     0.052 N 
HETATM   12  H12 UNL     1       1.647  -1.598  -0.815  1.00  0.00     0.158 HD
HETATM   13  H15 UNL     1      -1.072  -0.038  -0.709  1.00  0.00     0.291 HD
ENDROOT
BRANCH   1  14
HETATM   14  C4  UNL     1      -1.889   1.069   0.686  1.00  0.00    -0.027 A 
HETATM   15  C3  UNL     1      -3.150   0.414   0.649  1.00  0.00     0.012 A 
HETATM   16  C2  UNL     1      -4.248   1.252   0.356  1.00  0.00     0.037 A 
HETATM   17  C1  UNL     1      -4.206   2.661   0.101  1.00  0.00     0.065 A 
HETATM   18  C19 UNL     1      -2.927   3.085   0.176  1.00  0.00     0.037 A 
HETATM   19  C18 UNL     1      -1.796   2.387   0.447  1.00  0.00     0.012 A 
BRANCH  17  20
HETATM   20  O1  UNL     1      -5.336   3.355  -0.166  1.00  0.00    -0.361 OA
HETATM   21  H1  UNL     1      -6.277   3.069   0.040  1.00  0.00     0.217 HD
ENDBRANCH  17  20
ENDBRANCH   1  14
BRANCH   3  22
HETATM   22  C8  UNL     1       2.781  -0.257   0.231  1.00  0.00    -0.036 A 
HETATM   23  C9  UNL     1       3.671  -1.146  -0.325  1.00  0.00     0.012 A 
HETATM   24  C10 UNL     1       4.909  -0.816  -0.939  1.00  0.00     0.043 A 
HETATM   25  C11 UNL     1       5.093   0.551  -0.889  1.00  0.00     0.116 A 
HETATM   26  F1  UNL     1       6.271   0.972  -1.486  1.00  0.00    -0.206 F 
HETATM   27  C12 UNL     1       4.261   1.495  -0.356  1.00  0.00     0.043 A 
HETATM   28  C13 UNL     1       3.097   1.084   0.206  1.00  0.00     0.012 A 
ENDBRANCH   3  22
TORSDOF 3
