REMARK  6 active torsions:
REMARK  status: ('A' for Active; 'I' for Inactive)
REMARK       I    between atoms: C1_2  and  N1_3 
REMARK    1  A    between atoms: C1_2  and  C6_9 
REMARK    2  A    between atoms: N1_3  and  O2_4 
REMARK    3  A    between atoms: O2_4  and  C2_5 
REMARK    4  A    between atoms: C2_5  and  C3_6 
REMARK    5  A    between atoms: C11_16  and  N2_17 
REMARK    6  A    between atoms: N2_17  and  C12_18 
ROOT
HETATM    1  C6  UNL     1       0.672   0.037   1.192  1.00  0.00     0.064 A 
HETATM    2  C7  UNL     1       0.424   0.156   2.537  1.00  0.00     0.022 A 
HETATM    3  C8  UNL     1       1.473   0.244   3.405  1.00  0.00     0.046 A 
HETATM    4  C9  UNL     1       2.769   0.215   2.938  1.00  0.00     0.157 A 
HETATM    5  F1  UNL     1       3.797   0.305   3.831  1.00  0.00    -0.203 F 
HETATM    6  C10 UNL     1       2.999   0.096   1.592  1.00  0.00     0.182 A 
HETATM    7  F2  UNL     1       4.305   0.075   1.217  1.00  0.00    -0.200 F 
HETATM    8  C11 UNL     1       1.955   0.005   0.696  1.00  0.00     0.090 A 
ENDROOT
BRANCH   1   9
HETATM    9  C1  UNL     1      -0.425  -0.059   0.252  1.00  0.00     0.277 C 
HETATM   10  O1  UNL     1      -0.472  -0.171  -0.994  1.00  0.00    -0.265 OA
HETATM   11  N1  UNL     1      -1.763  -0.032   0.711  1.00  0.00    -0.231 N 
HETATM   12  H1  UNL     1      -2.076   0.055   1.713  1.00  0.00     0.197 HD
BRANCH  11  13
HETATM   13  O2  UNL     1      -2.962  -0.096   0.132  1.00  0.00    -0.277 OA
BRANCH  13  14
HETATM   14  C2  UNL     1      -2.970  -0.213  -1.233  1.00  0.00     0.205 C 
BRANCH  14  15
HETATM   15  C3  UNL     1      -4.429  -0.306  -1.694  1.00  0.00     0.012 A 
HETATM   16  C4  UNL     1      -5.274   0.915  -1.317  1.00  0.00     0.007 A 
HETATM   17  C5  UNL     1      -5.486  -0.360  -0.617  1.00  0.00     0.007 A 
ENDBRANCH  14  15
ENDBRANCH  13  14
ENDBRANCH  11  13
ENDBRANCH   1   9
BRANCH   8  18
HETATM   18  N2  UNL     1       2.313  -0.114  -0.674  1.00  0.00    -0.350 N 
HETATM   19  H11 UNL     1       1.751  -0.192  -1.548  1.00  0.00     0.166 HD
BRANCH  18  20
HETATM   20  C12 UNL     1       3.676  -0.147  -1.114  1.00  0.00     0.071 A 
HETATM   21  C13 UNL     1       4.668   0.552  -1.627  1.00  0.00     0.036 A 
HETATM   22  I1  UNL     1       4.716   2.602  -2.186  1.00  0.00    -0.042 I 
HETATM   23  C14 UNL     1       5.603  -0.575  -1.633  1.00  0.00     0.047 A 
HETATM   24  C15 UNL     1       4.609  -1.276  -1.120  1.00  0.00     0.063 A 
HETATM   25 CL1  UNL     1       4.686  -2.983  -0.691  1.00  0.00    -0.082 Cl
ENDBRANCH  18  20
ENDBRANCH   8  18
TORSDOF 6
