REMARK  6 active torsions:
REMARK  status: ('A' for Active; 'I' for Inactive)
REMARK    1  A    between atoms: C5_6  and  N2_7 
REMARK    2  A    between atoms: C8_13  and  N6_14 
REMARK    3  A    between atoms: N6_14  and  C9_15 
REMARK    4  A    between atoms: C12_18  and  S1_19 
REMARK    5  A    between atoms: S1_19  and  C13_21 
REMARK    6  A    between atoms: C13_21  and  N7_22 
ROOT
HETATM    1  N1  UNL     1      -0.585  -1.398   2.747  1.00  0.00    -0.191 NA
HETATM    2  C1  UNL     1      -1.186  -0.777   1.982  1.00  0.00     0.103 C 
HETATM    3  C2  UNL     1      -1.958  -0.013   1.017  1.00  0.00     0.091 A 
HETATM    4  C3  UNL     1      -3.311  -0.249   0.882  1.00  0.00     0.045 A 
HETATM    5  C4  UNL     1      -4.047   0.494  -0.042  1.00  0.00     0.059 A 
HETATM    6  C5  UNL     1      -5.383   0.180  -0.101  1.00  0.00     0.136 A 
HETATM    7  N3  UNL     1      -6.129   0.887  -1.004  1.00  0.00    -0.224 NA
HETATM    8  C6  UNL     1      -5.486   1.830  -1.752  1.00  0.00     0.237 A 
HETATM    9  N4  UNL     1      -4.157   2.115  -1.667  1.00  0.00    -0.221 NA
HETATM   10  C7  UNL     1      -3.374   1.436  -0.784  1.00  0.00     0.167 A 
HETATM   11  N5  UNL     1      -2.047   1.653  -0.639  1.00  0.00    -0.209 NA
HETATM   12  C8  UNL     1      -1.327   0.930   0.262  1.00  0.00     0.151 A 
ENDROOT
BRANCH  12  13
HETATM   13  N6  UNL     1       0.059   1.226   0.302  1.00  0.00    -0.340 N 
HETATM   14  H5  UNL     1       0.406   2.231   0.334  1.00  0.00     0.167 HD
BRANCH  13  15
HETATM   15  C9  UNL     1       1.259   0.472   0.329  1.00  0.00     0.033 A 
HETATM   16  C10 UNL     1       1.988   0.147   1.425  1.00  0.00     0.031 A 
HETATM   17  C11 UNL     1       3.148  -0.580   1.321  1.00  0.00     0.023 A 
HETATM   18  C12 UNL     1       3.529  -0.957   0.053  1.00  0.00     0.033 A 
HETATM   19  C14 UNL     1       2.821  -0.652  -1.097  1.00  0.00     0.023 A 
HETATM   20  C15 UNL     1       1.656   0.083  -0.940  1.00  0.00     0.031 A 
BRANCH  18  21
HETATM   21  S1  UNL     1       5.017  -1.893  -0.228  1.00  0.00     0.067 S 
HETATM   22  O1  UNL     1       5.098  -3.138   0.613  1.00  0.00    -0.251 OA
BRANCH  21  23
HETATM   23  C13 UNL     1       6.460  -0.828  -0.035  1.00  0.00     0.259 C 
BRANCH  23  24
HETATM   24  N7  UNL     1       6.299   0.238  -1.022  1.00  0.00    -0.051 NA
HETATM   25  O2  UNL     1       5.882   1.283  -0.572  1.00  0.00    -0.101 OA
ENDBRANCH  23  24
ENDBRANCH  21  23
ENDBRANCH  18  21
ENDBRANCH  13  15
ENDBRANCH  12  13
BRANCH   6  26
HETATM   26  N2  UNL     1      -5.972  -0.812   0.711  1.00  0.00    -0.383 N 
HETATM   27  H2  UNL     1      -6.750  -0.635   1.383  1.00  0.00     0.157 HD
HETATM   28  H3  UNL     1      -5.625  -1.789   0.664  1.00  0.00     0.157 HD
ENDBRANCH   6  26
TORSDOF 6
