REMARK  3 active torsions:
REMARK  status: ('A' for Active; 'I' for Inactive)
REMARK    1  A    between atoms: C12_15  and  B1_16 
REMARK    2  A    between atoms: N3_18  and  C14_19 
REMARK    3  A    between atoms: C14_19  and  N4_21 
ROOT
HETATM    1  C1  UNL     1       0.916  -0.702   2.320  1.00  0.00     0.080 C 
HETATM    2  C2  UNL     1       0.200  -0.063   1.193  1.00  0.00     0.167 C 
HETATM    3  C3  UNL     1      -0.760   0.816   1.100  1.00  0.00     0.058 C 
HETATM    4  C4  UNL     1      -1.235   1.275   2.359  1.00  0.00     0.097 C 
HETATM    5  N1  UNL     1      -1.609   1.647   3.389  1.00  0.00    -0.192 NA
HETATM    6  C5  UNL     1      -1.255   1.202  -0.225  1.00  0.00     0.080 C 
HETATM    7  C6  UNL     1      -2.728   0.871  -0.225  1.00  0.00    -0.008 C 
HETATM    8  C7  UNL     1      -3.065  -0.274  -0.780  1.00  0.00    -0.016 C 
HETATM    9  C8  UNL     1      -4.472  -0.541  -0.769  1.00  0.00     0.389 C 
HETATM   10  O1  UNL     1      -5.718  -0.681  -0.710  1.00  0.00    -0.405 OA
HETATM   11  C9  UNL     1      -2.253  -1.350  -1.292  1.00  0.00     0.013 C 
HETATM   12  C10 UNL     1      -0.987  -1.646  -1.407  1.00  0.00     0.055 C 
HETATM   13  C11 UNL     1       0.365  -1.309  -1.203  1.00  0.00     0.455 A 
HETATM   14  N2  UNL     1       1.375  -0.819  -0.621  1.00  0.00     0.197 N 
HETATM   15  C12 UNL     1       2.360   0.030  -1.431  1.00  0.00     0.274 A 
HETATM   16  C14 UNL     1       2.375  -0.486  -0.238  1.00  0.00     0.378 A 
HETATM   17  C15 UNL     1       3.519  -0.800  -1.077  1.00  0.00     0.110 A 
HETATM   18  N4  UNL     1       0.858  -0.580  -0.006  1.00  0.00     0.216 N 
ENDROOT
BRANCH  15  19
HETATM   19  B1  UNL     1       2.735   1.450  -0.773  1.00  0.00     0.333 B 
HETATM   20  C13 UNL     1       3.640   1.332   0.599  1.00  0.00    -0.007 A 
HETATM   21  N3  UNL     1       2.455   0.718   0.729  1.00  0.00    -0.283 NA
HETATM   22  H11 UNL     1       3.236   2.251  -1.591  1.00  0.00     0.009 HD
ENDBRANCH  15  19
TORSDOF 3
