REMARK  7 active torsions:
REMARK  status: ('A' for Active; 'I' for Inactive)
REMARK    1  A    between atoms: O1_2  and  N1_3 
REMARK    2  A    between atoms: N1_3  and  O2_4 
REMARK    3  A    between atoms: N1_3  and  C2_5 
REMARK    4  A    between atoms: C2_5  and  C3_6 
REMARK    5  A    between atoms: C6_9  and  B1_10 
REMARK    6  A    between atoms: B1_10  and  C7_11 
REMARK    7  A    between atoms: C10_17  and  N5_18 
ROOT
HETATM    1  C7  UNL     1      -1.954   0.140   0.814  1.00  0.00     0.014 C 
HETATM    2  N2  UNL     1      -2.341   1.403   1.036  1.00  0.00    -0.244 NA
HETATM    3  C8  UNL     1      -3.462   1.832   0.211  1.00  0.00     0.192 A 
HETATM    4  N3  UNL     1      -3.689   2.944  -0.422  1.00  0.00    -0.222 NA
HETATM    5  C9  UNL     1      -4.955   2.837  -1.103  1.00  0.00     0.233 A 
HETATM    6  N4  UNL     1      -5.470   1.656  -0.862  1.00  0.00    -0.230 NA
HETATM    7  C10 UNL     1      -4.604   0.944  -0.024  1.00  0.00     0.335 A 
HETATM    8  C11 UNL     1      -4.155  -0.403  -0.330  1.00  0.00     0.006 C 
HETATM    9  C12 UNL     1      -5.072  -1.291  -1.068  1.00  0.00     0.050 C 
HETATM   10  C13 UNL     1      -2.912  -0.746   0.092  1.00  0.00     0.064 C 
HETATM   11  C14 UNL     1      -2.604  -2.128  -0.260  1.00  0.00     0.101 C 
HETATM   12  N6  UNL     1      -2.337  -3.234  -0.539  1.00  0.00    -0.191 NA
ENDROOT
BRANCH   1  13
HETATM   13  B1  UNL     1      -0.797  -0.746   1.424  1.00  0.00     0.256 B 
HETATM   14  H9  UNL     1      -0.921  -1.179   2.511  1.00  0.00    -0.014 HD
BRANCH  13  15
HETATM   15  C6  UNL     1       0.627  -0.628   0.761  1.00  0.00    -0.094 A 
HETATM   16  C5  UNL     1       1.357   0.515   1.034  1.00  0.00    -0.004 A 
HETATM   17  C4  UNL     1       2.614   0.651   0.467  1.00  0.00     0.008 A 
HETATM   18  C3  UNL     1       3.140  -0.342  -0.365  1.00  0.00    -0.041 A 
HETATM   19  C16 UNL     1       2.394  -1.494  -0.635  1.00  0.00     0.008 A 
HETATM   20  C15 UNL     1       1.140  -1.622  -0.064  1.00  0.00    -0.004 A 
BRANCH  18  21
HETATM   21  C2  UNL     1       4.516  -0.099  -0.932  1.00  0.00     0.191 C 
BRANCH  21  22
HETATM   22  N1  UNL     1       5.457  -0.662   0.025  1.00  0.00    -0.068 NA
BRANCH  22  23
HETATM   23  O1  UNL     1       5.360  -0.097   1.225  1.00  0.00    -0.284 OA
HETATM   24  C1  UNL     1       6.197   0.982   1.429  1.00  0.00     0.232 C 
ENDBRANCH  22  23
BRANCH  22  25
HETATM   25  O2  UNL     1       6.690  -0.479  -0.505  1.00  0.00    -0.288 OA
HETATM   26  H4  UNL     1       7.063  -1.277  -0.945  1.00  0.00     0.239 HD
ENDBRANCH  22  25
ENDBRANCH  21  22
ENDBRANCH  18  21
ENDBRANCH  13  15
ENDBRANCH   1  13
BRANCH   7  27
HETATM   27  N5  UNL     1      -5.321   0.794   1.309  1.00  0.00     0.121 N 
HETATM   28  H11 UNL     1      -6.081   0.105   1.079  1.00  0.00     0.317 HD
HETATM   29  H12 UNL     1      -4.572   0.299   1.866  1.00  0.00     0.317 HD
ENDBRANCH   7  27
TORSDOF 7
