REMARK  7 active torsions:
REMARK  status: ('A' for Active; 'I' for Inactive)
REMARK    1  A    between atoms: C3_3  and  C4_5 
REMARK    2  A    between atoms: C5_7  and  C6_8 
REMARK    3  A    between atoms: C6_8  and  N1_9 
REMARK    4  A    between atoms: N1_9  and  C7_10 
REMARK    5  A    between atoms: C11_16  and  O1_17 
REMARK    6  A    between atoms: C14_20  and  O2_21 
REMARK    7  A    between atoms: O2_21  and  C15_22 
ROOT
HETATM    1  C7  UNL     1       0.407   1.225   0.267  1.00  0.00     0.140 A 
HETATM    2  N2  UNL     1       0.378   2.502  -0.073  1.00  0.00    -0.224 NA
HETATM    3  C8  UNL     1      -0.513   3.363   0.420  1.00  0.00     0.236 A 
HETATM    4  N3  UNL     1      -1.457   2.963   1.316  1.00  0.00    -0.241 NA
HETATM    5  C9  UNL     1      -1.470   1.680   1.691  1.00  0.00     0.077 A 
HETATM    6  C10 UNL     1      -2.442   1.312   2.597  1.00  0.00     0.069 A 
HETATM    7  C11 UNL     1      -2.500  -0.018   3.020  1.00  0.00     0.073 A 
HETATM    8  C13 UNL     1      -1.540  -0.875   2.467  1.00  0.00     0.074 A 
HETATM    9  C14 UNL     1      -0.576  -0.498   1.564  1.00  0.00     0.088 A 
HETATM   10  C20 UNL     1      -0.536   0.817   1.163  1.00  0.00     0.072 A 
ENDROOT
BRANCH   1  11
HETATM   11  N1  UNL     1       1.410   0.429  -0.319  1.00  0.00    -0.370 N 
HETATM   12  H8  UNL     1       1.722  -0.561  -0.273  1.00  0.00     0.161 HD
BRANCH  11  13
HETATM   13  C6  UNL     1       2.355   0.995  -1.271  1.00  0.00     0.150 C 
BRANCH  13  14
HETATM   14  C5  UNL     1       1.666   1.508  -2.497  1.00  0.00     0.015 C 
HETATM   15  C4  UNL     1       1.714   2.773  -2.974  1.00  0.00     0.052 C 
HETATM   16 CL1  UNL     1       2.739   3.830  -1.979  1.00  0.00    -0.086 Cl
BRANCH  15  17
HETATM   17  C3  UNL     1       0.854   2.660  -4.171  1.00  0.00     0.170 A 
HETATM   18  C2  UNL     1       0.316   3.258  -5.196  1.00  0.00     0.171 A 
HETATM   19  C1  UNL     1       0.091   4.449  -6.005  1.00  0.00     0.045 C 
HETATM   20  F1  UNL     1       1.076   3.989  -4.383  1.00  0.00    -0.379 F 
ENDBRANCH  15  17
ENDBRANCH  13  14
ENDBRANCH  11  13
ENDBRANCH   1  11
BRANCH   9  21
HETATM   21  O2  UNL     1       0.309  -1.407   1.081  1.00  0.00    -0.345 OA
BRANCH  21  22
HETATM   22  C15 UNL     1       0.436  -2.760   1.343  1.00  0.00     0.133 C 
HETATM   23  C16 UNL     1       0.028  -3.577   0.093  1.00  0.00     0.058 C 
HETATM   24  C17 UNL     1       0.580  -4.982   0.160  1.00  0.00     0.170 C 
HETATM   25  O3  UNL     1       0.832  -5.351   1.483  1.00  0.00    -0.391 OA
HETATM   26  C18 UNL     1       1.959  -4.644   1.931  1.00  0.00     0.170 C 
HETATM   27  C19 UNL     1       1.859  -3.174   1.618  1.00  0.00     0.058 C 
ENDBRANCH  21  22
ENDBRANCH   9  21
BRANCH   7  28
HETATM   28  O1  UNL     1      -3.454  -0.441   3.934  1.00  0.00    -0.356 OA
HETATM   29  C12 UNL     1      -4.377   0.473   4.440  1.00  0.00     0.210 C 
ENDBRANCH   7  28
TORSDOF 7
