REMARK  7 active torsions:
REMARK  status: ('A' for Active; 'I' for Inactive)
REMARK    1  A    between atoms: C5_6  and  N2_7 
REMARK    2  A    between atoms: C7_9  and  C8_10 
REMARK    3  A    between atoms: C13_17  and  N4_18 
REMARK    4  A    between atoms: N4_18  and  C14_19 
REMARK    5  A    between atoms: C14_19  and  C15_20 
REMARK    6  A    between atoms: C15_20  and  O2_21 
REMARK    7  A    between atoms: C16_23  and  N6_24 
ROOT
HETATM    1  C1  UNL     1      -0.550  -2.549  -3.038  1.00  0.00     0.050 C 
HETATM    2  C2  UNL     1      -0.478  -1.599  -1.914  1.00  0.00    -0.025 C 
HETATM    3  C3  UNL     1      -1.334  -1.258  -0.915  1.00  0.00     0.097 C 
HETATM    4  C4  UNL     1      -2.580  -1.992  -0.949  1.00  0.00     0.104 C 
HETATM    5  N1  UNL     1      -3.578  -2.571  -0.995  1.00  0.00    -0.191 NA
HETATM    6  C5  UNL     1      -1.080  -0.152   0.002  1.00  0.00     0.147 C 
HETATM    7  N3  UNL     1      -0.015   0.626  -0.073  1.00  0.00    -0.253 NA
HETATM    8  C12 UNL     1       0.953   0.412  -1.110  1.00  0.00     0.216 A 
HETATM    9  C13 UNL     1       2.337   0.721  -0.907  1.00  0.00     0.132 A 
HETATM   10  N5  UNL     1       3.023  -0.328  -1.286  1.00  0.00    -0.215 NA
HETATM   11  C16 UNL     1       2.117  -1.360  -1.729  1.00  0.00     0.132 A 
HETATM   12  C17 UNL     1       0.832  -0.955  -1.620  1.00  0.00     0.027 A 
ENDROOT
BRANCH   6  13
HETATM   13  N2  UNL     1      -2.059   0.059   0.999  1.00  0.00    -0.336 N 
HETATM   14  C6  UNL     1      -2.959   1.153   0.734  1.00  0.00     0.107 A 
HETATM   15  C7  UNL     1      -3.920   1.518   1.563  1.00  0.00     0.017 A 
HETATM   16  C9  UNL     1      -4.128   0.802   2.816  1.00  0.00     0.013 A 
HETATM   17  C10 UNL     1      -3.314  -0.197   3.042  1.00  0.00    -0.006 A 
HETATM   18  C11 UNL     1      -2.210  -0.724   2.230  1.00  0.00     0.157 A 
BRANCH  15  19
HETATM   19  C8  UNL     1      -4.793   2.636   1.232  1.00  0.00     0.271 C 
HETATM   20  O1  UNL     1      -4.630   3.260   0.143  1.00  0.00    -0.301 OA
ENDBRANCH  15  19
ENDBRANCH   6  13
BRANCH  11  21
HETATM   21  N6  UNL     1       2.486  -2.657  -2.240  1.00  0.00    -0.383 N 
HETATM   22  H17 UNL     1       2.692  -3.581  -1.803  1.00  0.00     0.157 HD
HETATM   23  H18 UNL     1       2.554  -2.640  -3.272  1.00  0.00     0.157 HD
ENDBRANCH  11  21
BRANCH   9  24
HETATM   24  N4  UNL     1       2.926   1.909  -0.395  1.00  0.00    -0.374 N 
HETATM   25  H11 UNL     1       2.337   2.785  -0.444  1.00  0.00     0.161 HD
BRANCH  24  26
HETATM   26  C14 UNL     1       4.268   1.916   0.164  1.00  0.00     0.147 C 
BRANCH  26  27
HETATM   27  C15 UNL     1       4.216   1.111   1.447  1.00  0.00     0.183 C 
BRANCH  27  28
HETATM   28  O2  UNL     1       5.457   1.057   2.061  1.00  0.00    -0.399 OA
HETATM   29  H16 UNL     1       6.221   1.175   1.426  1.00  0.00     0.209 HD
ENDBRANCH  27  28
ENDBRANCH  26  27
ENDBRANCH  24  26
ENDBRANCH   9  24
TORSDOF 7
