REMARK  8 active torsions:
REMARK  status: ('A' for Active; 'I' for Inactive)
REMARK    1  A    between atoms: C5_6  and  N2_7 
REMARK    2  A    between atoms: N2_7  and  C6_8 
REMARK    3  A    between atoms: C6_8  and  C7_9 
REMARK    4  A    between atoms: C7_9  and  O1_10 
REMARK    5  A    between atoms: C9_13  and  C10_14 
REMARK    6  A    between atoms: C10_14  and  C11_15 
REMARK    7  A    between atoms: C11_15  and  O2_16 
REMARK    8  A    between atoms: O2_16  and  N4_17 
ROOT
HETATM    1  C1  UNL     1      -0.448  -3.701  -0.832  1.00  0.00     0.050 C 
HETATM    2  C2  UNL     1      -0.693  -2.245  -0.660  1.00  0.00    -0.029 A 
HETATM    3  C3  UNL     1      -1.836  -1.539  -0.783  1.00  0.00     0.068 A 
HETATM    4  C4  UNL     1      -3.040  -2.275  -1.137  1.00  0.00     0.098 C 
HETATM    5  N1  UNL     1      -4.007  -2.846  -1.431  1.00  0.00    -0.192 NA
HETATM    6  C5  UNL     1      -1.585  -0.104  -0.514  1.00  0.00     0.317 A 
HETATM    7  C8  UNL     1      -0.116  -0.080  -0.238  1.00  0.00     0.087 A 
HETATM    8  N3  UNL     1       0.627   1.003   0.057  1.00  0.00    -0.234 NA
HETATM    9  C9  UNL     1       1.946   0.857   0.289  1.00  0.00     0.128 A 
HETATM   10  N5  UNL     1       2.528  -0.378   0.225  1.00  0.00    -0.245 NA
HETATM   11  C12 UNL     1       1.764  -1.446  -0.072  1.00  0.00     0.132 A 
HETATM   12  C13 UNL     1       0.409  -1.349  -0.318  1.00  0.00     0.016 A 
ENDROOT
BRANCH   6  13
HETATM   13  N2  UNL     1      -2.278   0.330   0.658  1.00  0.00     0.101 N 
HETATM   14  H5  UNL     1      -1.875  -0.136   1.486  1.00  0.00     0.317 HD
BRANCH  13  15
HETATM   15  C6  UNL     1      -3.690   0.306   0.582  1.00  0.00     0.296 C 
BRANCH  15  16
HETATM   16  C7  UNL     1      -4.156   1.384  -0.402  1.00  0.00     0.194 C 
BRANCH  16  17
HETATM   17  O1  UNL     1      -5.549   1.394  -0.506  1.00  0.00    -0.399 OA
HETATM   18  H10 UNL     1      -5.857   0.542  -0.860  1.00  0.00     0.209 HD
ENDBRANCH  16  17
ENDBRANCH  15  16
ENDBRANCH  13  15
ENDBRANCH   6  13
BRANCH   9  19
HETATM   19  C10 UNL     1       2.702   2.107   0.612  1.00  0.00     0.108 C 
BRANCH  19  20
HETATM   20  C11 UNL     1       4.160   1.763   0.842  1.00  0.00     0.201 C 
BRANCH  20  21
HETATM   21  O2  UNL     1       4.936   2.882   1.150  1.00  0.00    -0.308 OA
BRANCH  21  22
HETATM   22  N4  UNL     1       6.187   2.509   1.413  1.00  0.00    -0.215 NA
HETATM   23  H15 UNL     1       6.414   1.552   1.064  1.00  0.00     0.150 HD
HETATM   24  H16 UNL     1       6.297   2.448   2.471  1.00  0.00     0.150 HD
ENDBRANCH  21  22
ENDBRANCH  20  21
ENDBRANCH  19  20
ENDBRANCH   9  19
TORSDOF 8
