REMARK  7 active torsions:
REMARK  status: ('A' for Active; 'I' for Inactive)
REMARK    1  A    between atoms: O1_2  and  C2_3 
REMARK    2  A    between atoms: C4_5  and  O2_6 
REMARK    3  A    between atoms: O2_6  and  C5_7 
REMARK    4  A    between atoms: C11_14  and  B1_15 
REMARK    5  A    between atoms: B1_15  and  C12_16 
REMARK    6  A    between atoms: C12_16  and  C13_17 
REMARK    7  A    between atoms: C14_18  and  C15_19 
ROOT
HETATM    1  C2  UNL     1      -1.573   3.300   0.020  1.00  0.00     0.073 A 
HETATM    2  C3  UNL     1      -1.889   1.964   0.152  1.00  0.00     0.074 A 
HETATM    3  C4  UNL     1      -0.921   1.001   0.001  1.00  0.00     0.085 A 
HETATM    4  C10 UNL     1       0.378   1.407  -0.288  1.00  0.00     0.039 A 
HETATM    5  C11 UNL     1       1.449   0.557  -0.466  1.00  0.00     0.002 A 
HETATM    6  N1  UNL     1       2.681   1.012  -0.743  1.00  0.00    -0.258 NA
HETATM    7  C16 UNL     1       2.924   2.324  -0.860  1.00  0.00     0.232 A 
HETATM    8  N2  UNL     1       1.918   3.198  -0.696  1.00  0.00    -0.241 NA
HETATM    9  C17 UNL     1       0.657   2.761  -0.414  1.00  0.00     0.074 A 
HETATM   10  C18 UNL     1      -0.292   3.723  -0.267  1.00  0.00     0.069 A 
ENDROOT
BRANCH   3  11
HETATM   11  O2  UNL     1      -1.024  -0.379   0.092  1.00  0.00    -0.345 OA
BRANCH  11  12
HETATM   12  C5  UNL     1      -2.211  -1.068   0.372  1.00  0.00     0.133 C 
HETATM   13  C6  UNL     1      -1.991  -1.986   1.550  1.00  0.00     0.058 C 
HETATM   14  C7  UNL     1      -3.252  -2.770   1.846  1.00  0.00     0.170 C 
HETATM   15  O3  UNL     1      -4.154  -2.729   0.806  1.00  0.00    -0.391 OA
HETATM   16  C8  UNL     1      -3.604  -2.960  -0.447  1.00  0.00     0.170 C 
HETATM   17  C9  UNL     1      -2.546  -1.952  -0.837  1.00  0.00     0.058 C 
ENDBRANCH  11  12
ENDBRANCH   3  11
BRANCH   1  18
HETATM   18  O1  UNL     1      -2.663   4.141   0.202  1.00  0.00    -0.356 OA
HETATM   19  C1  UNL     1      -2.543   5.538   0.107  1.00  0.00     0.210 C 
ENDBRANCH   1  18
BRANCH   5  20
HETATM   20  B1  UNL     1       1.177  -0.990  -0.332  1.00  0.00     0.224 B 
HETATM   21  H14 UNL     1       0.962  -1.406   0.775  1.00  0.00    -0.019 HD
BRANCH  20  22
HETATM   22  C12 UNL     1       2.170  -1.944  -1.158  1.00  0.00    -0.020 C 
BRANCH  22  23
HETATM   23  C13 UNL     1       3.506  -1.928  -0.457  1.00  0.00    -0.038 C 
HETATM   24  C14 UNL     1       4.799  -1.648  -0.556  1.00  0.00    -0.001 C 
BRANCH  24  25
HETATM   25  C15 UNL     1       5.956  -1.751   0.396  1.00  0.00     0.249 C 
HETATM   26  F1  UNL     1       6.479  -0.498   0.559  1.00  0.00    -0.251 F 
ENDBRANCH  24  25
ENDBRANCH  22  23
ENDBRANCH  20  22
ENDBRANCH   5  20
TORSDOF 7
