REMARK  2 active torsions:
REMARK  status: ('A' for Active; 'I' for Inactive)
REMARK    1  A    between atoms: N1_1  and  C1_2 
REMARK    2  A    between atoms: C8_13  and  N5_14 
ROOT
HETATM    1  C1  UNL     1       0.107  -2.125  -0.678  1.00  0.00     0.082 A 
HETATM    2  S1  UNL     1      -0.552  -3.853  -0.278  1.00  0.00    -0.083 SA
HETATM    3  C2  UNL     1      -2.274  -3.164   0.081  1.00  0.00     0.066 A 
HETATM    4  C3  UNL     1      -2.175  -1.795  -0.126  1.00  0.00     0.018 A 
HETATM    5  C4  UNL     1      -3.230  -0.933   0.018  1.00  0.00     0.092 A 
HETATM    6  C5  UNL     1      -3.456  -0.061   1.004  1.00  0.00     0.157 A 
HETATM    7  N2  UNL     1      -2.883   0.367   2.171  1.00  0.00    -0.222 NA
HETATM    8  C6  UNL     1      -2.351   1.627   2.114  1.00  0.00     0.236 C 
HETATM    9  N3  UNL     1      -2.498   2.423   1.009  1.00  0.00    -0.235 NA
HETATM   10  C7  UNL     1      -2.175   1.806  -0.170  1.00  0.00     0.236 C 
HETATM   11  N4  UNL     1      -1.799   0.819  -1.047  1.00  0.00    -0.223 NA
HETATM   12  C8  UNL     1      -0.772   0.015  -0.711  1.00  0.00     0.149 C 
HETATM   13  C15 UNL     1      -0.980  -1.320  -0.500  1.00  0.00     0.057 A 
HETATM   14  N6  UNL     1      -4.443  -0.126  -0.073  1.00  0.00    -0.335 N 
HETATM   15  H12 UNL     1      -5.333   0.138  -0.598  1.00  0.00     0.168 HD
ENDROOT
BRANCH  12  16
HETATM   16  N5  UNL     1       0.421   0.776  -0.634  1.00  0.00    -0.315 N 
HETATM   17  C9  UNL     1       1.387   0.934  -1.686  1.00  0.00     0.098 C 
HETATM   18  C10 UNL     1       2.656   0.830  -1.947  1.00  0.00     0.018 C 
HETATM   19  C11 UNL     1       3.810   0.459  -1.184  1.00  0.00     0.013 C 
HETATM   20  C12 UNL     1       3.999   0.090   0.059  1.00  0.00     0.109 C 
HETATM   21  S2  UNL     1       3.235  -0.232   1.611  1.00  0.00     0.183 S 
HETATM   22  O1  UNL     1       3.326  -1.684   2.052  1.00  0.00    -0.223 OA
HETATM   23  O2  UNL     1       1.526   0.108   1.506  1.00  0.00    -0.261 OA
HETATM   24  C13 UNL     1       1.175   1.415   1.817  1.00  0.00     0.172 C 
HETATM   25  C14 UNL     1       0.672   1.447   0.595  1.00  0.00     0.123 C 
ENDBRANCH  12  16
BRANCH   1  26
HETATM   26  N1  UNL     1       1.446  -2.086  -1.041  1.00  0.00    -0.393 N 
HETATM   27  H1  UNL     1       2.258  -2.217  -0.404  1.00  0.00     0.156 HD
HETATM   28  H2  UNL     1       1.717  -1.913  -2.041  1.00  0.00     0.156 HD
ENDBRANCH   1  26
TORSDOF 2
