REMARK  4 active torsions:
REMARK  status: ('A' for Active; 'I' for Inactive)
REMARK    1  A    between atoms: C10_17  and  N7_18 
REMARK    2  A    between atoms: N7_18  and  C11_19 
REMARK    3  A    between atoms: C14_22  and  S2_23 
REMARK    4  A    between atoms: S2_23  and  N8_24 
ROOT
HETATM    1  N1  UNL     1       0.687  -4.829  -1.401  1.00  0.00    -0.004 N 
HETATM    2  C1  UNL     1      -0.385  -4.014  -1.059  1.00  0.00     0.234 A 
HETATM    3  C2  UNL     1       0.157  -2.801  -0.882  1.00  0.00     0.091 A 
HETATM    4  S1  UNL     1       1.870  -3.277  -1.248  1.00  0.00     0.039 SA
HETATM    5  C3  UNL     1       2.860  -1.760  -1.371  1.00  0.00     0.070 C 
HETATM    6  C4  UNL     1       3.281  -0.755  -0.623  1.00  0.00     0.043 C 
HETATM    7  C5  UNL     1       3.800   0.412   0.133  1.00  0.00     0.101 C 
HETATM    8  N2  UNL     1       5.062   0.259  -0.013  1.00  0.00    -0.256 NA
HETATM    9  C6  UNL     1       6.071   1.143   0.534  1.00  0.00     0.420 C 
HETATM   10  N3  UNL     1       5.559   2.021   1.521  1.00  0.00     0.121 N 
HETATM   11  C7  UNL     1       4.610   3.006   1.068  1.00  0.00     0.422 C 
HETATM   12  N4  UNL     1       3.240   2.488   1.168  1.00  0.00    -0.239 NA
HETATM   13  C8  UNL     1       2.820   1.336   0.770  1.00  0.00     0.176 C 
HETATM   14  N5  UNL     1       1.552   0.728   0.834  1.00  0.00    -0.220 NA
HETATM   15  C9  UNL     1       0.941   0.415  -0.269  1.00  0.00     0.237 C 
HETATM   16  N6  UNL     1      -0.343  -0.211  -0.295  1.00  0.00    -0.223 NA
HETATM   17  C10 UNL     1      -0.452  -1.489  -0.556  1.00  0.00     0.148 C 
HETATM   18  H1  UNL     1       1.569  -5.366  -1.323  1.00  0.00     0.298 HD
HETATM   19  H2  UNL     1       1.014  -5.361  -2.264  1.00  0.00     0.298 HD
HETATM   20  H8  UNL     1       5.133   1.466   2.321  1.00  0.00     0.320 HD
ENDROOT
BRANCH  17  21
HETATM   21  N7  UNL     1      -1.868  -1.753  -0.540  1.00  0.00    -0.340 N 
HETATM   22  H12 UNL     1      -2.401  -2.617  -0.864  1.00  0.00     0.167 HD
BRANCH  21  23
HETATM   23  C11 UNL     1      -2.900  -0.876  -0.065  1.00  0.00     0.033 A 
HETATM   24  C12 UNL     1      -3.100   0.168  -0.973  1.00  0.00     0.031 A 
HETATM   25  C13 UNL     1      -4.039   1.155  -0.776  1.00  0.00     0.027 A 
HETATM   26  C14 UNL     1      -4.804   1.080   0.385  1.00  0.00     0.074 A 
HETATM   27  C15 UNL     1      -4.621   0.057   1.292  1.00  0.00     0.027 A 
HETATM   28  C16 UNL     1      -3.671  -0.929   1.080  1.00  0.00     0.031 A 
BRANCH  26  29
HETATM   29  S2  UNL     1      -6.019   2.278   0.735  1.00  0.00     0.239 S 
HETATM   30  O1  UNL     1      -6.484   2.908  -0.568  1.00  0.00    -0.206 OA
HETATM   31  O2  UNL     1      -7.196   1.593   1.420  1.00  0.00    -0.206 OA
BRANCH  29  32
HETATM   32  N8  UNL     1      -5.326   3.473   1.765  1.00  0.00    -0.225 NA
HETATM   33  H15 UNL     1      -4.332   3.267   1.918  1.00  0.00     0.136 HD
HETATM   34  H16 UNL     1      -5.816   3.409   2.690  1.00  0.00     0.136 HD
ENDBRANCH  29  32
ENDBRANCH  26  29
ENDBRANCH  21  23
ENDBRANCH  17  21
TORSDOF 4
