REMARK  4 active torsions:
REMARK  status: ('A' for Active; 'I' for Inactive)
REMARK    1  A    between atoms: N1_1  and  S1_2 
REMARK    2  A    between atoms: S1_2  and  C1_5 
REMARK    3  A    between atoms: C4_8  and  N2_9 
REMARK    4  A    between atoms: N2_9  and  C5_10 
ROOT
HETATM    1  C5  UNL     1      -0.460  -0.196  -1.138  1.00  0.00     0.210 C 
HETATM    2  C6  UNL     1      -1.132   0.527   0.010  1.00  0.00     0.077 C 
HETATM    3  C7  UNL     1      -1.778  -0.485   0.932  1.00  0.00    -0.006 C 
HETATM    4  C8  UNL     1      -3.079  -0.549   1.220  1.00  0.00     0.007 C 
HETATM    5  S2  UNL     1      -4.103  -1.628   2.264  1.00  0.00    -0.086 SA
HETATM    6  C9  UNL     1      -5.176  -0.281   2.781  1.00  0.00     0.161 C 
HETATM    7  N3  UNL     1      -5.065   0.559   1.857  1.00  0.00    -0.282 NA
HETATM    8  C10 UNL     1      -4.228   0.260   0.786  1.00  0.00     0.169 C 
HETATM    9  C11 UNL     1      -4.935  -0.311  -0.421  1.00  0.00     0.206 C 
HETATM   10  N4  UNL     1      -4.072  -0.562  -1.524  1.00  0.00    -0.190 NA
HETATM   11  N5  UNL     1      -3.711   0.378  -2.321  1.00  0.00    -0.148 NA
HETATM   12  C12 UNL     1      -2.850   0.172  -3.434  1.00  0.00     0.258 C 
HETATM   13  N6  UNL     1      -2.128   0.907  -2.661  1.00  0.00    -0.234 NA
HETATM   14  C13 UNL     1      -0.814   1.349  -2.939  1.00  0.00     0.230 C 
HETATM   15  N7  UNL     1       0.017   0.755  -2.130  1.00  0.00    -0.257 NA
ENDROOT
BRANCH   1  16
HETATM   16  N2  UNL     1       0.559  -1.074  -0.676  1.00  0.00    -0.367 N 
HETATM   17  H5  UNL     1       0.385  -2.111  -0.763  1.00  0.00     0.161 HD
BRANCH  16  18
HETATM   18  C4  UNL     1       1.817  -0.796  -0.096  1.00  0.00     0.029 A 
HETATM   19  C3  UNL     1       2.699  -1.782   0.355  1.00  0.00     0.031 A 
HETATM   20  C2  UNL     1       3.922  -1.506   0.899  1.00  0.00     0.027 A 
HETATM   21  C1  UNL     1       4.356  -0.207   1.033  1.00  0.00     0.074 A 
HETATM   22  C15 UNL     1       3.533   0.805   0.607  1.00  0.00     0.027 A 
HETATM   23  C14 UNL     1       2.307   0.484   0.064  1.00  0.00     0.031 A 
BRANCH  21  24
HETATM   24  S1  UNL     1       5.925   0.090   1.734  1.00  0.00     0.239 S 
HETATM   25  O1  UNL     1       5.918   1.374   2.502  1.00  0.00    -0.206 OA
HETATM   26  O2  UNL     1       6.221  -1.027   2.707  1.00  0.00    -0.206 OA
BRANCH  24  27
HETATM   27  N1  UNL     1       7.085   0.106   0.444  1.00  0.00    -0.225 NA
HETATM   28  H1  UNL     1       8.045  -0.097   0.804  1.00  0.00     0.136 HD
HETATM   29  H2  UNL     1       6.807  -0.651  -0.238  1.00  0.00     0.136 HD
ENDBRANCH  24  27
ENDBRANCH  21  24
ENDBRANCH  16  18
ENDBRANCH   1  16
TORSDOF 4
