REMARK  8 active torsions:
REMARK  status: ('A' for Active; 'I' for Inactive)
REMARK    1  A    between atoms: C2_2  and  C3_3 
REMARK    2  A    between atoms: C3_3  and  N1_4 
REMARK    3  A    between atoms: N1_4  and  C4_5 
REMARK    4  A    between atoms: C5_7  and  N3_8 
REMARK    5  A    between atoms: C10_14  and  N5_15 
REMARK    6  A    between atoms: N5_15  and  C11_16 
REMARK    7  A    between atoms: C11_16  and  C12_17 
REMARK    8  A    between atoms: C12_17  and  O1_18 
ROOT
HETATM    1  C4  UNL     1       1.839   0.465   0.346  1.00  0.00     0.726 A 
HETATM    2  N2  UNL     1       2.258  -0.792   0.077  1.00  0.00    -0.050 NA
HETATM    3  C5  UNL     1       1.345  -1.773  -0.074  1.00  0.00     0.134 A 
HETATM    4  C6  UNL     1      -0.016  -1.576   0.028  1.00  0.00     0.055 A 
HETATM    5  C7  UNL     1      -0.901  -2.605  -0.135  1.00  0.00     0.045 A 
HETATM    6  C8  UNL     1      -2.250  -2.259  -0.004  1.00  0.00     0.091 A 
HETATM    7  C9  UNL     1      -3.212  -3.314  -0.168  1.00  0.00     0.103 C 
HETATM    8  N4  UNL     1      -3.982  -4.166  -0.305  1.00  0.00    -0.191 NA
HETATM    9  C10 UNL     1      -2.645  -0.964   0.271  1.00  0.00     0.146 A 
HETATM   10  N6  UNL     1      -1.708  -0.002   0.418  1.00  0.00    -0.209 NA
HETATM   11  C13 UNL     1      -0.395  -0.278   0.302  1.00  0.00     0.184 A 
HETATM   12  N7  UNL     1       0.519   0.690   0.452  1.00  0.00    -0.042 NA
ENDROOT
BRANCH   9  13
HETATM   13  N5  UNL     1      -4.000  -0.621   0.402  1.00  0.00    -0.371 N 
HETATM   14  H10 UNL     1      -4.744  -1.369   0.289  1.00  0.00     0.161 HD
BRANCH  13  15
HETATM   15  C11 UNL     1      -4.427   0.709   0.685  1.00  0.00     0.147 C 
BRANCH  15  16
HETATM   16  C12 UNL     1      -4.032   1.749  -0.320  1.00  0.00     0.183 C 
BRANCH  16  17
HETATM   17  O1  UNL     1      -4.524   1.510  -1.591  1.00  0.00    -0.399 OA
HETATM   18  H15 UNL     1      -5.013   2.307  -1.969  1.00  0.00     0.209 HD
ENDBRANCH  16  17
ENDBRANCH  15  16
ENDBRANCH  13  15
ENDBRANCH   9  13
BRANCH   3  19
HETATM   19  N3  UNL     1       1.891  -3.042  -0.351  1.00  0.00    -0.286 NA
HETATM   20  H7  UNL     1       2.320  -3.931  -0.051  1.00  0.00     0.125 HD
HETATM   21  H8  UNL     1       2.167  -3.458   0.584  1.00  0.00     0.125 HD
ENDBRANCH   3  19
BRANCH   1  22
HETATM   22  N1  UNL     1       2.789   1.510   0.509  1.00  0.00    -0.219 N 
HETATM   23  H6  UNL     1       2.431   2.477   0.717  1.00  0.00     0.178 HD
BRANCH  22  24
HETATM   24  C3  UNL     1       4.196   1.121   0.366  1.00  0.00     0.164 C 
BRANCH  24  25
HETATM   25  C2  UNL     1       5.096   2.277   0.553  1.00  0.00    -0.017 C 
HETATM   26  C1  UNL     1       5.992   2.862  -0.228  1.00  0.00     0.008 C 
ENDBRANCH  24  25
ENDBRANCH  22  24
ENDBRANCH   1  22
TORSDOF 8
