REMARK  3 active torsions:
REMARK  status: ('A' for Active; 'I' for Inactive)
REMARK    1  A    between atoms: N2_5  and  O2_6 
REMARK    2  A    between atoms: C6_11  and  N4_12 
REMARK    3  A    between atoms: N4_12  and  C7_13 
ROOT
HETATM    1  N1  UNL     1       1.944   0.296   0.419  1.00  0.00    -0.022 N 
HETATM    2  C1  UNL     1       1.236   0.751  -0.742  1.00  0.00     0.266 A 
HETATM    3  C2  UNL     1       1.912   1.599  -0.007  1.00  0.00     0.395 A 
HETATM    4  O1  UNL     1       2.732   1.986   1.067  1.00  0.00    -0.223 OA
HETATM    5  N2  UNL     1       3.415   1.025   1.830  1.00  0.00     0.037 NA
HETATM    6  N3  UNL     1       4.297   0.353   0.991  1.00  0.00    -0.283 N 
HETATM    7  C3  UNL     1       4.150  -1.010   0.529  1.00  0.00     0.106 C 
HETATM    8  C4  UNL     1       3.220  -1.598  -0.206  1.00  0.00     0.020 C 
HETATM    9  C5  UNL     1       1.997  -1.713  -0.994  1.00  0.00     0.029 C 
HETATM   10  C6  UNL     1       1.139  -0.672  -1.228  1.00  0.00     0.051 C 
HETATM   11  H1  UNL     1       1.551  -0.309   1.259  1.00  0.00     0.282 HD
HETATM   12  H2  UNL     1       1.564  -0.301   1.252  1.00  0.00     0.282 HD
HETATM   13  H5  UNL     1       5.098   0.960   0.723  1.00  0.00     0.184 HD
ENDROOT
BRANCH  10  14
HETATM   14  N4  UNL     1      -0.021  -0.420  -1.861  1.00  0.00    -0.366 N 
HETATM   15  H9  UNL     1       0.193  -0.342  -2.903  1.00  0.00     0.161 HD
BRANCH  14  16
HETATM   16  C7  UNL     1      -1.318  -0.293  -1.163  1.00  0.00     0.208 C 
HETATM   17  C8  UNL     1      -2.166   0.023  -2.274  1.00  0.00     0.052 C 
HETATM   18  C9  UNL     1      -2.328   1.306  -2.543  1.00  0.00     0.080 C 
HETATM   19  N5  UNL     1      -2.148   2.008  -1.488  1.00  0.00    -0.276 NA
HETATM   20  C10 UNL     1      -2.948   1.699  -0.361  1.00  0.00     0.160 C 
HETATM   21  C11 UNL     1      -3.686   1.611   0.728  1.00  0.00     0.012 C 
HETATM   22  C12 UNL     1      -4.099   0.208   0.988  1.00  0.00    -0.034 A 
HETATM   23  C13 UNL     1      -4.952  -0.802   1.511  1.00  0.00     0.050 A 
HETATM   24  C15 UNL     1      -3.367  -0.855   0.500  1.00  0.00     0.136 A 
HETATM   25  S1  UNL     1      -4.195  -2.468   0.995  1.00  0.00    -0.133 SA
HETATM   26  C14 UNL     1      -2.684  -1.852   0.046  1.00  0.00     0.058 A 
HETATM   27  N6  UNL     1      -1.476  -1.713  -0.719  1.00  0.00    -0.362 N 
HETATM   28  H16 UNL     1      -1.423  -2.718  -0.505  1.00  0.00     0.162 HD
ENDBRANCH  14  16
ENDBRANCH  10  14
BRANCH   5  29
HETATM   29  O2  UNL     1       4.100   1.728   2.742  1.00  0.00    -0.270 OA
HETATM   30  H4  UNL     1       5.074   1.628   2.679  1.00  0.00     0.241 HD
ENDBRANCH   5  29
TORSDOF 3
