REMARK  2 active torsions:
REMARK  status: ('A' for Active; 'I' for Inactive)
REMARK    1  A    between atoms: C10_14  and  O1_15 
REMARK    2  A    between atoms: C13_18  and  O2_19 
ROOT
HETATM    1  C1  UNL     1       4.872  -2.846   0.042  1.00  0.00     0.038 C 
HETATM    2  C2  UNL     1       3.543  -2.294  -0.307  1.00  0.00    -0.002 C 
HETATM    3  C3  UNL     1       2.815  -1.138  -0.293  1.00  0.00     0.022 C 
HETATM    4  C4  UNL     1       3.581   0.020   0.275  1.00  0.00     0.035 C 
HETATM    5  C5  UNL     1       2.678   0.996   0.187  1.00  0.00     0.148 A 
HETATM    6 CL1  UNL     1       4.109   1.797   0.931  1.00  0.00    -0.132 Cl
HETATM    7  C6  UNL     1       2.320   2.356   0.539  1.00  0.00     0.289 A 
HETATM    8  F1  UNL     1       2.338   3.604   1.047  1.00  0.00    -0.197 F 
HETATM    9  N1  UNL     1       1.222   2.166  -0.097  1.00  0.00    -0.224 NA
HETATM   10  C7  UNL     1       0.243   3.179  -0.194  1.00  0.00     0.401 C 
HETATM   11  N2  UNL     1      -0.830   3.855  -0.284  1.00  0.00    -0.381 NA
HETATM   12  C8  UNL     1      -2.128   3.287  -0.348  1.00  0.00     0.081 C 
HETATM   13  C9  UNL     1      -3.092   2.393  -0.388  1.00  0.00     0.053 C 
HETATM   14  C10 UNL     1      -2.977   0.965  -0.353  1.00  0.00     0.072 C 
HETATM   15  C12 UNL     1      -2.424  -0.216  -0.283  1.00  0.00     0.074 C 
HETATM   16  C13 UNL     1      -1.958  -1.575  -0.220  1.00  0.00     0.085 C 
HETATM   17  C14 UNL     1      -0.745  -2.029  -0.068  1.00  0.00     0.030 C 
HETATM   18  C15 UNL     1       0.553  -1.397   0.107  1.00  0.00     0.150 C 
HETATM   19  N3  UNL     1       1.547  -1.571  -0.873  1.00  0.00    -0.387 N 
HETATM   20  H16 UNL     1       1.640  -1.908  -1.866  1.00  0.00     0.160 HD
ENDROOT
BRANCH  16  21
HETATM   21  O2  UNL     1      -3.284  -1.811  -0.386  1.00  0.00    -0.271 OA
HETATM   22 BR1  UNL     1      -4.056  -3.513  -0.373  1.00  0.00     0.105 Br
ENDBRANCH  16  21
BRANCH  14  23
HETATM   23  O1  UNL     1      -4.113   0.167  -0.437  1.00  0.00    -0.356 OA
HETATM   24  C11 UNL     1      -5.247   0.356   0.367  1.00  0.00     0.210 C 
ENDBRANCH  14  23
TORSDOF 2
