REMARK  7 active torsions:
REMARK  status: ('A' for Active; 'I' for Inactive)
REMARK    1  A    between atoms: N2_5  and  C4_6 
REMARK    2  A    between atoms: C4_6  and  C5_7 
REMARK    3  A    between atoms: C5_7  and  O1_8 
REMARK    4  A    between atoms: C7_12  and  N5_13 
REMARK    5  A    between atoms: N5_13  and  C8_14 
REMARK    6  A    between atoms: C11_17  and  S1_18 
REMARK    7  A    between atoms: S1_18  and  N6_19 
ROOT
HETATM    1  C1  UNL     1       4.633  -2.183   0.379  1.00  0.00     0.035 C 
HETATM    2  C2  UNL     1       3.646  -1.491  -0.558  1.00  0.00     0.120 C 
HETATM    3  N1  UNL     1       4.307  -0.333  -1.071  1.00  0.00    -0.277 NA
HETATM    4  C3  UNL     1       3.988   0.891  -1.191  1.00  0.00     0.222 C 
HETATM    5  N2  UNL     1       2.782   1.605  -0.841  1.00  0.00    -0.260 N 
HETATM    6  N3  UNL     1       1.564   0.873  -0.788  1.00  0.00    -0.155 NA
HETATM    7  C6  UNL     1       1.400  -0.356  -0.348  1.00  0.00     0.158 A 
HETATM    8  N4  UNL     1      -0.006  -0.641  -0.500  1.00  0.00    -0.212 NA
HETATM    9  C7  UNL     1      -0.461  -1.812  -0.175  1.00  0.00     0.150 A 
HETATM   10  C14 UNL     1       0.403  -2.858   0.360  1.00  0.00     0.087 A 
HETATM   11  C15 UNL     1      -0.174  -4.127   0.685  1.00  0.00     0.103 C 
HETATM   12  N7  UNL     1      -0.622  -5.162   0.952  1.00  0.00    -0.191 NA
HETATM   13  C16 UNL     1       1.684  -2.561   0.504  1.00  0.00     0.014 A 
HETATM   14  C17 UNL     1       2.394  -1.283   0.194  1.00  0.00     0.108 A 
ENDROOT
BRANCH   9  15
HETATM   15  N5  UNL     1      -1.855  -2.003  -0.361  1.00  0.00    -0.340 N 
HETATM   16  H11 UNL     1      -2.124  -2.972  -0.685  1.00  0.00     0.167 HD
BRANCH  15  17
HETATM   17  C8  UNL     1      -2.850  -1.022  -0.137  1.00  0.00     0.033 A 
HETATM   18  C9  UNL     1      -2.657   0.245   0.353  1.00  0.00     0.031 A 
HETATM   19  C10 UNL     1      -3.673   1.153   0.543  1.00  0.00     0.027 A 
HETATM   20  C11 UNL     1      -4.994   0.808   0.233  1.00  0.00     0.079 A 
HETATM   21  C12 UNL     1      -5.214  -0.465  -0.263  1.00  0.00     0.027 A 
HETATM   22  C13 UNL     1      -4.164  -1.343  -0.437  1.00  0.00     0.031 A 
BRANCH  20  23
HETATM   23  S1  UNL     1      -6.197   2.041   0.521  1.00  0.00     0.256 S 
HETATM   24  O2  UNL     1      -5.902   2.827   1.741  1.00  0.00    -0.201 OA
HETATM   25  O3  UNL     1      -7.519   1.314   0.727  1.00  0.00    -0.201 OA
BRANCH  23  26
HETATM   26  N6  UNL     1      -6.395   3.084  -0.819  1.00  0.00    -0.324 N 
HETATM   27  H14 UNL     1      -5.683   2.988  -1.550  1.00  0.00     0.169 HD
HETATM   28  H15 UNL     1      -7.371   3.181  -1.120  1.00  0.00     0.169 HD
ENDBRANCH  23  26
ENDBRANCH  20  23
ENDBRANCH  15  17
ENDBRANCH   9  15
BRANCH   5  29
HETATM   29  C4  UNL     1       2.932   3.030  -0.574  1.00  0.00     0.178 C 
BRANCH  29  30
HETATM   30  C5  UNL     1       3.724   3.253   0.707  1.00  0.00     0.186 C 
BRANCH  30  31
HETATM   31  O1  UNL     1       4.991   2.708   0.642  1.00  0.00    -0.399 OA
HETATM   32  H10 UNL     1       5.032   1.775   0.971  1.00  0.00     0.209 HD
ENDBRANCH  30  31
ENDBRANCH  29  30
ENDBRANCH   5  29
TORSDOF 7
