REMARK  5 active torsions:
REMARK  status: ('A' for Active; 'I' for Inactive)
REMARK    1  A    between atoms: N1_1  and  C1_2 
REMARK    2  A    between atoms: C2_4  and  N3_5 
REMARK    3  A    between atoms: C3_6  and  C4_7 
REMARK    4  A    between atoms: C4_7  and  O1_8 
REMARK    5  A    between atoms: C9_15  and  N5_16 
ROOT
HETATM    1  C1  UNL     1       1.553  -1.404   0.835  1.00  0.00     0.155 A 
HETATM    2  N2  UNL     1       2.584  -0.794   0.293  1.00  0.00    -0.045 NA
HETATM    3  C2  UNL     1       2.771   0.095  -0.625  1.00  0.00     0.726 A 
HETATM    4  N4  UNL     1       1.642   0.576  -1.230  1.00  0.00    -0.042 NA
HETATM    5  C5  UNL     1       0.438   0.067  -0.777  1.00  0.00     0.184 A 
HETATM    6  C6  UNL     1       0.413  -0.913   0.242  1.00  0.00     0.067 A 
HETATM    7  C7  UNL     1      -1.021  -1.167   0.385  1.00  0.00    -0.012 C 
HETATM    8  C8  UNL     1      -1.375  -2.396   0.930  1.00  0.00     0.056 C 
HETATM    9  S1  UNL     1      -3.230  -2.285   0.852  1.00  0.00    -0.104 SA
HETATM   10  C9  UNL     1      -2.926  -1.333  -0.838  1.00  0.00     0.306 C 
HETATM   11  C10 UNL     1      -2.121  -0.336   0.010  1.00  0.00     0.132 C 
HETATM   12  C11 UNL     1      -3.131   0.190   1.041  1.00  0.00     0.165 A 
HETATM   13  C12 UNL     1      -4.472  -0.068   1.064  1.00  0.00     0.059 A 
HETATM   14  C13 UNL     1      -4.478   0.939  -0.161  1.00  0.00     0.254 A 
HETATM   15  N6  UNL     1      -3.087   1.249  -0.237  1.00  0.00    -0.011 N 
HETATM   16  C14 UNL     1      -2.995   2.429   0.840  1.00  0.00     0.249 C 
HETATM   17  C15 UNL     1      -2.599   1.345   1.959  1.00  0.00     0.070 C 
HETATM   18  C16 UNL     1      -1.741   0.981  -0.643  1.00  0.00     0.228 C 
HETATM   19  N7  UNL     1      -0.592   0.989  -1.227  1.00  0.00    -0.206 NA
ENDROOT
BRANCH   3  20
HETATM   20  N3  UNL     1       4.032   0.680  -0.901  1.00  0.00    -0.220 N 
HETATM   21  C3  UNL     1       5.245   1.241  -1.167  1.00  0.00     0.164 C 
HETATM   22  H3  UNL     1       3.763   1.455  -0.288  1.00  0.00     0.177 HD
BRANCH  21  23
HETATM   23  C4  UNL     1       6.361   0.393  -0.570  1.00  0.00     0.184 C 
BRANCH  23  24
HETATM   24  O1  UNL     1       7.601   0.959  -0.797  1.00  0.00    -0.399 OA
HETATM   25  H8  UNL     1       7.653   1.921  -0.473  1.00  0.00     0.209 HD
ENDBRANCH  23  24
ENDBRANCH  21  23
ENDBRANCH   3  20
BRANCH   1  26
HETATM   26  N1  UNL     1       1.336  -2.380   1.782  1.00  0.00    -0.383 N 
HETATM   27  H1  UNL     1       1.474  -3.215   1.189  1.00  0.00     0.157 HD
HETATM   28  H2  UNL     1       1.087  -2.365   2.828  1.00  0.00     0.157 HD
ENDBRANCH   1  26
BRANCH  10  29
HETATM   29  N5  UNL     1      -2.055  -2.173  -1.574  1.00  0.00     0.094 N 
HETATM   30  H11 UNL     1      -2.630  -3.002  -1.881  1.00  0.00     0.314 HD
HETATM   31  H12 UNL     1      -1.714  -1.674  -2.418  1.00  0.00     0.314 HD
ENDBRANCH  10  29
TORSDOF 5
