REMARK  8 active torsions:
REMARK  status: ('A' for Active; 'I' for Inactive)
REMARK    1  A    between atoms: C2_2  and  C3_3 
REMARK    2  A    between atoms: C4_4  and  S1_5 
REMARK    3  A    between atoms: S1_5  and  C5_6 
REMARK    4  A    between atoms: C6_8  and  C7_9 
REMARK    5  A    between atoms: C7_9  and  C8_10 
REMARK    6  A    between atoms: C8_10  and  O1_11 
REMARK    7  A    between atoms: O1_11  and  N2_12 
REMARK    8  A    between atoms: N5_26  and  O3_27 
ROOT
HETATM    1  C5  UNL     1       1.380  -0.271  -0.632  1.00  0.00     0.224 C 
HETATM    2  N1  UNL     1       0.975   0.892  -0.955  1.00  0.00    -0.205 NA
HETATM    3  C6  UNL     1      -0.094   1.647  -0.482  1.00  0.00     0.131 C 
HETATM    4  N3  UNL     1      -1.367   1.565  -0.261  1.00  0.00    -0.238 NA
HETATM    5  C9  UNL     1      -2.183   0.453  -0.489  1.00  0.00     0.035 C 
HETATM    6  C10 UNL     1      -2.478  -0.052  -1.855  1.00  0.00     0.070 C 
HETATM    7  C11 UNL     1      -2.777  -0.271   0.442  1.00  0.00    -0.049 C 
HETATM    8  C12 UNL     1      -3.646  -1.464   0.123  1.00  0.00     0.065 C 
HETATM    9  C13 UNL     1      -2.828  -2.713   0.409  1.00  0.00     0.003 C 
HETATM   10  C14 UNL     1      -1.611  -2.779   0.993  1.00  0.00     0.076 C 
HETATM   11  C15 UNL     1      -0.896  -4.030   0.874  1.00  0.00     0.102 C 
HETATM   12  N4  UNL     1      -0.315  -5.021   0.763  1.00  0.00    -0.191 NA
HETATM   13  C16 UNL     1      -0.892  -1.722   1.749  1.00  0.00     0.118 C 
HETATM   14  C17 UNL     1      -1.574  -0.856   2.532  1.00  0.00     0.019 C 
HETATM   15  C18 UNL     1      -2.596   0.059   1.899  1.00  0.00     0.066 C 
HETATM   16  O2  UNL     1       0.496  -1.841   1.472  1.00  0.00    -0.207 OA
HETATM   17  N5  UNL     1       0.850  -1.168   0.331  1.00  0.00    -0.095 N 
ENDROOT
BRANCH  17  18
HETATM   18  O3  UNL     1       0.279  -1.818  -0.729  1.00  0.00    -0.261 OA
HETATM   19  H21 UNL     1       0.829  -2.604  -0.969  1.00  0.00     0.247 HD
ENDBRANCH  17  18
BRANCH   1  20
HETATM   20  S1  UNL     1       2.809  -0.612  -1.648  1.00  0.00    -0.059 SA
BRANCH  20  21
HETATM   21  C4  UNL     1       3.522  -2.210  -1.327  1.00  0.00     0.053 C 
HETATM   22  C3  UNL     1       4.857  -2.064  -1.275  1.00  0.00     0.003 C 
BRANCH  22  23
HETATM   23  C2  UNL     1       5.398  -0.742  -1.474  1.00  0.00    -0.026 C 
HETATM   24  C1  UNL     1       6.705  -0.542  -1.433  1.00  0.00     0.031 C 
ENDBRANCH  22  23
ENDBRANCH  20  21
ENDBRANCH   1  20
BRANCH   3  25
HETATM   25  C7  UNL     1       0.513   2.974  -0.147  1.00  0.00     0.108 C 
BRANCH  25  26
HETATM   26  C8  UNL     1      -0.503   3.960   0.371  1.00  0.00     0.201 C 
BRANCH  26  27
HETATM   27  O1  UNL     1      -1.149   3.567   1.517  1.00  0.00    -0.308 OA
BRANCH  27  28
HETATM   28  N2  UNL     1      -2.035   4.526   1.890  1.00  0.00    -0.215 NA
HETATM   29  H10 UNL     1      -2.472   4.286   2.809  1.00  0.00     0.150 HD
HETATM   30  H11 UNL     1      -1.600   5.465   1.879  1.00  0.00     0.150 HD
ENDBRANCH  27  28
ENDBRANCH  26  27
ENDBRANCH  25  26
ENDBRANCH   3  25
TORSDOF 8
