REMARK  6 active torsions:
REMARK  status: ('A' for Active; 'I' for Inactive)
REMARK    1  A    between atoms: C2_2  and  N1_3 
REMARK    2  A    between atoms: C2_2  and  C12_17 
REMARK    3  A    between atoms: N1_3  and  C3_4 
REMARK    4  A    between atoms: C3_4  and  N2_5 
REMARK    5  A    between atoms: C5_9  and  C6_10 
REMARK    6  A    between atoms: C9_13  and  O1_14 
ROOT
HETATM    1  N2  UNL     1      -0.848   0.646  -0.326  1.00  0.00    -0.183 NA
HETATM    2  N3  UNL     1      -0.033   0.722  -1.445  1.00  0.00    -0.310 N 
HETATM    3  C4  UNL     1      -0.905   0.144  -2.446  1.00  0.00     0.214 C 
HETATM    4  N4  UNL     1      -1.854  -0.595  -1.919  1.00  0.00    -0.257 NA
HETATM    5  C5  UNL     1      -1.655  -0.548  -0.462  1.00  0.00     0.237 C 
HETATM    6  H8  UNL     1       0.836   0.947  -2.015  1.00  0.00     0.181 HD
ENDROOT
BRANCH   1   7
HETATM    7  C3  UNL     1      -0.011   0.596   0.858  1.00  0.00     0.232 C 
BRANCH   7   8
HETATM    8  N1  UNL     1       0.843  -0.495   0.991  1.00  0.00    -0.401 N 
HETATM    9  H5  UNL     1       0.652  -1.149   1.780  1.00  0.00     0.155 HD
BRANCH   8  10
HETATM   10  C2  UNL     1       1.858  -0.845   0.111  1.00  0.00     0.107 C 
HETATM   11  C1  UNL     1       2.410  -2.237   0.545  1.00  0.00     0.037 C 
BRANCH  10  12
HETATM   12  C12 UNL     1       3.037   0.002  -0.047  1.00  0.00    -0.036 A 
HETATM   13  C13 UNL     1       3.133   1.357  -0.260  1.00  0.00     0.010 A 
HETATM   14  C14 UNL     1       4.254   2.121  -0.398  1.00  0.00     0.019 A 
HETATM   15  C15 UNL     1       5.479   1.501  -0.322  1.00  0.00     0.011 A 
HETATM   16 BR1  UNL     1       7.078   2.515  -0.507  1.00  0.00    -0.051 Br
HETATM   17  C16 UNL     1       5.531   0.142  -0.111  1.00  0.00     0.019 A 
HETATM   18  C17 UNL     1       4.337  -0.532   0.014  1.00  0.00     0.010 A 
ENDBRANCH  10  12
ENDBRANCH   8  10
ENDBRANCH   7   8
ENDBRANCH   1   7
BRANCH   5  19
HETATM   19  C6  UNL     1      -3.015  -0.355   0.100  1.00  0.00    -0.018 A 
HETATM   20  C7  UNL     1      -3.772   0.602  -0.550  1.00  0.00     0.013 A 
HETATM   21  C8  UNL     1      -5.077   0.927  -0.169  1.00  0.00     0.037 A 
HETATM   22  C9  UNL     1      -5.625   0.244   0.919  1.00  0.00     0.065 A 
HETATM   23  C10 UNL     1      -4.861  -0.707   1.556  1.00  0.00     0.037 A 
HETATM   24  C11 UNL     1      -3.577  -1.017   1.170  1.00  0.00     0.013 A 
BRANCH  22  25
HETATM   25  O1  UNL     1      -6.911   0.596   1.257  1.00  0.00    -0.361 OA
HETATM   26  H13 UNL     1      -7.739   0.302   0.747  1.00  0.00     0.217 HD
ENDBRANCH  22  25
ENDBRANCH   5  19
TORSDOF 6
