REMARK  6 active torsions:
REMARK  status: ('A' for Active; 'I' for Inactive)
REMARK    1  A    between atoms: N1_4  and  C4_5 
REMARK    2  A    between atoms: C4_5  and  C5_6 
REMARK    3  A    between atoms: C8_9  and  O1_10 
REMARK    4  A    between atoms: C11_14  and  N3_15 
REMARK    5  A    between atoms: N3_15  and  C12_16 
REMARK    6  A    between atoms: C14_18  and  N4_19 
ROOT
HETATM    1  C1  UNL     1       0.513  -0.817   2.406  1.00  0.00     0.047 C 
HETATM    2  C2  UNL     1       0.757   0.238   1.393  1.00  0.00    -0.039 A 
HETATM    3  C3  UNL     1       2.067   0.514   1.233  1.00  0.00     0.117 A 
HETATM    4  N1  UNL     1       2.635   1.465   0.351  1.00  0.00    -0.277 N 
HETATM    5  N2  UNL     1       1.700   2.191  -0.437  1.00  0.00    -0.187 NA
HETATM    6  C10 UNL     1       0.436   1.913  -0.272  1.00  0.00     0.141 A 
HETATM    7  C11 UNL     1      -0.270   0.947   0.611  1.00  0.00     0.150 A 
ENDROOT
BRANCH   7   8
HETATM    8  N3  UNL     1      -1.139   0.160  -0.177  1.00  0.00    -0.401 N 
HETATM    9  H14 UNL     1      -0.748  -0.240  -1.030  1.00  0.00     0.154 HD
BRANCH   8  10
HETATM   10  C12 UNL     1      -2.042  -0.728   0.446  1.00  0.00     0.105 C 
HETATM   11  C13 UNL     1      -2.788  -1.441  -0.624  1.00  0.00     0.023 C 
HETATM   12  C14 UNL     1      -3.857  -0.965  -1.242  1.00  0.00     0.008 C 
HETATM   13  C15 UNL     1      -4.661   0.258  -1.178  1.00  0.00     0.053 C 
HETATM   14  C16 UNL     1      -6.071  -0.121  -0.745  1.00  0.00     0.020 C 
HETATM   15  C17 UNL     1      -4.109   1.321  -0.305  1.00  0.00    -0.020 C 
HETATM   16  C18 UNL     1      -3.392   1.218   0.810  1.00  0.00    -0.028 C 
HETATM   17  C19 UNL     1      -2.992  -0.080   1.419  1.00  0.00     0.055 C 
BRANCH  12  18
HETATM   18  N4  UNL     1      -4.493  -1.754  -2.265  1.00  0.00    -0.402 N 
HETATM   19  H17 UNL     1      -4.182  -1.342  -3.186  1.00  0.00     0.156 HD
HETATM   20  H18 UNL     1      -5.082  -2.498  -1.835  1.00  0.00     0.156 HD
ENDBRANCH  12  18
ENDBRANCH   8  10
ENDBRANCH   7   8
BRANCH   4  21
HETATM   21  C4  UNL     1       4.037   1.731   0.196  1.00  0.00     0.188 C 
BRANCH  21  22
HETATM   22  C5  UNL     1       4.803   0.637  -0.435  1.00  0.00    -0.039 A 
HETATM   23  C6  UNL     1       5.479   0.790  -1.586  1.00  0.00    -0.011 A 
HETATM   24  C7  UNL     1       6.165  -0.441  -2.018  1.00  0.00     0.092 A 
HETATM   25  C8  UNL     1       5.790  -1.389  -0.918  1.00  0.00     0.047 A 
HETATM   26  C9  UNL     1       5.017  -0.742  -0.039  1.00  0.00     0.040 A 
BRANCH  25  27
HETATM   27  O1  UNL     1       6.227  -2.706  -0.908  1.00  0.00    -0.365 OA
HETATM   28  H10 UNL     1       7.118  -2.921  -0.484  1.00  0.00     0.217 HD
ENDBRANCH  25  27
ENDBRANCH  21  22
ENDBRANCH   4  21
TORSDOF 6
