REMARK  7 active torsions:
REMARK  status: ('A' for Active; 'I' for Inactive)
REMARK    1  A    between atoms: O1_2  and  C2_3 
REMARK    2  A    between atoms: C4_5  and  N1_6 
REMARK    3  A    between atoms: N2_8  and  C6_9 
REMARK    4  A    between atoms: C6_9  and  N3_10 
REMARK    5  A    between atoms: N3_10  and  C7_11 
REMARK    6  A    between atoms: C14_20  and  O2_21 
REMARK    7  A    between atoms: O2_21  and  C15_22 
ROOT
HETATM    1  C2  UNL     1      -1.523  -1.590   0.416  1.00  0.00     0.073 A 
HETATM    2  C3  UNL     1      -0.214  -1.250   0.086  1.00  0.00     0.068 A 
HETATM    3  C4  UNL     1       0.125  -0.063  -0.542  1.00  0.00     0.069 A 
HETATM    4  C13 UNL     1      -0.885   0.823  -0.853  1.00  0.00     0.068 A 
HETATM    5  C14 UNL     1      -2.222   0.547  -0.549  1.00  0.00     0.074 A 
HETATM    6  C20 UNL     1      -2.499  -0.672   0.086  1.00  0.00     0.073 A 
ENDROOT
BRANCH   3   7
HETATM    7  N1  UNL     1       1.503  -0.060  -0.731  1.00  0.00    -0.163 N 
HETATM    8  C5  UNL     1       2.355   0.860  -0.698  1.00  0.00     0.339 A 
HETATM    9  N2  UNL     1       2.934  -0.430  -0.986  1.00  0.00     0.033 NA
BRANCH   9  10
HETATM   10  C6  UNL     1       3.806  -0.940  -0.219  1.00  0.00     0.740 C 
BRANCH  10  11
HETATM   11  N3  UNL     1       4.720  -1.202   0.812  1.00  0.00    -0.343 N 
HETATM   12  H7  UNL     1       4.268  -1.924   1.382  1.00  0.00     0.166 HD
BRANCH  11  13
HETATM   13  C7  UNL     1       5.795  -0.352   0.549  1.00  0.00     0.034 A 
HETATM   14  C8  UNL     1       6.895  -1.130   0.163  1.00  0.00     0.032 A 
HETATM   15  C9  UNL     1       8.133  -0.578  -0.155  1.00  0.00     0.046 A 
HETATM   16  C10 UNL     1       8.222   0.814  -0.067  1.00  0.00     0.138 A 
HETATM   17  F1  UNL     1       9.400   1.419  -0.360  1.00  0.00    -0.204 F 
HETATM   18  C11 UNL     1       7.114   1.533   0.315  1.00  0.00     0.074 A 
HETATM   19 CL1  UNL     1       7.294   3.278   0.401  1.00  0.00    -0.081 Cl
HETATM   20  C12 UNL     1       5.886   0.997   0.631  1.00  0.00     0.056 A 
ENDBRANCH  11  13
ENDBRANCH  10  11
ENDBRANCH   9  10
ENDBRANCH   3   7
BRANCH   1  21
HETATM   21  O1  UNL     1      -2.088  -2.682   1.024  1.00  0.00    -0.356 OA
HETATM   22  C1  UNL     1      -1.341  -3.785   1.471  1.00  0.00     0.210 C 
ENDBRANCH   1  21
BRANCH   5  23
HETATM   23  O2  UNL     1      -3.014   1.573  -0.955  1.00  0.00    -0.346 OA
BRANCH  23  24
HETATM   24  C15 UNL     1      -4.389   1.722  -0.925  1.00  0.00     0.133 C 
HETATM   25  C16 UNL     1      -4.955   2.099   0.413  1.00  0.00     0.058 C 
HETATM   26  C17 UNL     1      -6.449   2.185   0.379  1.00  0.00     0.170 C 
HETATM   27  O3  UNL     1      -7.088   1.123  -0.207  1.00  0.00    -0.391 OA
HETATM   28  C18 UNL     1      -6.250   0.088  -0.572  1.00  0.00     0.170 C 
HETATM   29  C19 UNL     1      -5.154   0.547  -1.503  1.00  0.00     0.058 C 
ENDBRANCH  23  24
ENDBRANCH   5  23
TORSDOF 7
