REMARK  6 active torsions:
REMARK  status: ('A' for Active; 'I' for Inactive)
REMARK    1  A    between atoms: C2_2  and  N1_3 
REMARK    2  A    between atoms: C2_2  and  C14_19 
REMARK    3  A    between atoms: N1_3  and  C3_4 
REMARK    4  A    between atoms: C3_4  and  C4_5 
REMARK    5  A    between atoms: C5_6  and  N2_7 
REMARK    6  A    between atoms: N2_7  and  O1_8 
ROOT
HETATM    1  C4  UNL     1       0.903  -0.592  -0.094  1.00  0.00     0.007 C 
HETATM    2  C5  UNL     1       1.241  -1.159   1.087  1.00  0.00     0.156 C 
HETATM    3  N3  UNL     1       2.657  -1.049   1.165  1.00  0.00    -0.222 NA
HETATM    4  C6  UNL     1       3.277  -2.028   0.515  1.00  0.00     0.236 C 
HETATM    5  N4  UNL     1       4.571  -1.567   0.819  1.00  0.00    -0.241 NA
HETATM    6  C7  UNL     1       5.002  -0.461   0.269  1.00  0.00     0.068 A 
HETATM    7  C8  UNL     1       6.338  -0.024   0.611  1.00  0.00     0.032 A 
HETATM    8  C9  UNL     1       6.482   1.107  -0.073  1.00  0.00     0.003 A 
HETATM    9  C10 UNL     1       5.282   1.397  -0.836  1.00  0.00     0.014 A 
HETATM   10  C11 UNL     1       4.354   0.439  -0.640  1.00  0.00    -0.007 A 
HETATM   11  C12 UNL     1       3.049   0.496  -1.290  1.00  0.00     0.014 C 
HETATM   12  C13 UNL     1       1.822   0.100  -1.037  1.00  0.00     0.013 C 
ENDROOT
BRANCH   1  13
HETATM   13  C3  UNL     1      -0.576  -0.635  -0.444  1.00  0.00     0.157 C 
BRANCH  13  14
HETATM   14  N1  UNL     1      -1.031   0.682  -0.569  1.00  0.00    -0.410 N 
HETATM   15  H5  UNL     1      -0.331   1.320  -0.927  1.00  0.00     0.154 HD
BRANCH  14  16
HETATM   16  C2  UNL     1      -2.328   0.991  -0.998  1.00  0.00     0.106 C 
HETATM   17  C1  UNL     1      -2.633   0.460  -2.401  1.00  0.00     0.037 C 
BRANCH  16  18
HETATM   18  C14 UNL     1      -3.470   0.662  -0.150  1.00  0.00    -0.036 A 
HETATM   19  C15 UNL     1      -3.862  -0.553   0.351  1.00  0.00     0.010 A 
HETATM   20  C16 UNL     1      -4.925  -0.850   1.162  1.00  0.00     0.019 A 
HETATM   21  C17 UNL     1      -5.737   0.199   1.547  1.00  0.00     0.011 A 
HETATM   22 BR1  UNL     1      -7.234  -0.081   2.664  1.00  0.00    -0.051 Br
HETATM   23  C18 UNL     1      -5.442   1.466   1.104  1.00  0.00     0.019 A 
HETATM   24  C19 UNL     1      -4.338   1.687   0.279  1.00  0.00     0.010 A 
ENDBRANCH  16  18
ENDBRANCH  14  16
ENDBRANCH  13  14
ENDBRANCH   1  13
BRANCH   2  25
HETATM   25  N2  UNL     1       0.297  -1.747   1.946  1.00  0.00    -0.251 N 
HETATM   26  H8  UNL     1       0.231  -2.745   1.650  1.00  0.00     0.196 HD
BRANCH  25  27
HETATM   27  O1  UNL     1      -0.220  -0.877   2.861  1.00  0.00    -0.288 OA
HETATM   28  H9  UNL     1       0.514  -0.483   3.396  1.00  0.00     0.244 HD
ENDBRANCH  25  27
ENDBRANCH   2  25
TORSDOF 6
