REMARK  8 active torsions:
REMARK  status: ('A' for Active; 'I' for Inactive)
REMARK    1  A    between atoms: C2_2  and  N1_3 
REMARK    2  A    between atoms: C2_2  and  C15_21 
REMARK    3  A    between atoms: N1_3  and  C3_4 
REMARK    4  A    between atoms: C6_9  and  C7_10 
REMARK    5  A    between atoms: C7_10  and  C8_11 
REMARK    6  A    between atoms: C8_11  and  C9_12 
REMARK    7  A    between atoms: C12_15  and  O1_18 
REMARK    8  A    between atoms: N4_19  and  N5_20 
ROOT
HETATM    1  C3  UNL     1       0.008  -2.119  -0.538  1.00  0.00     0.137 A 
HETATM    2  N2  UNL     1      -0.025  -3.093  -1.510  1.00  0.00    -0.224 NA
HETATM    3  C4  UNL     1       0.730  -4.161  -1.319  1.00  0.00     0.234 A 
HETATM    4  N3  UNL     1       1.540  -4.415  -0.262  1.00  0.00    -0.253 NA
HETATM    5  C5  UNL     1       1.608  -3.472   0.733  1.00  0.00     0.133 A 
HETATM    6  C6  UNL     1       0.817  -2.313   0.554  1.00  0.00     0.026 A 
ENDROOT
BRANCH   6   7
HETATM    7  C7  UNL     1       1.239  -1.434   1.651  1.00  0.00     0.028 C 
BRANCH   7   8
HETATM    8  C8  UNL     1       1.941  -0.196   1.846  1.00  0.00     0.130 A 
HETATM    9  N4  UNL     1       1.997  -0.045   0.359  1.00  0.00    -0.227 N 
HETATM   10  O1  UNL     1       1.578   1.053   1.226  1.00  0.00     0.000 OA
BRANCH   8  11
HETATM   11  C9  UNL     1       2.744   1.202   1.914  1.00  0.00     0.023 A 
HETATM   12  C10 UNL     1       3.918   0.687   2.628  1.00  0.00    -0.032 A 
HETATM   13  C11 UNL     1       4.138   1.981   2.567  1.00  0.00     0.034 A 
HETATM   14  C12 UNL     1       2.764   2.036   1.792  1.00  0.00     0.004 A 
HETATM   15  C13 UNL     1       2.901   3.510   1.674  1.00  0.00    -0.034 A 
HETATM   16  C14 UNL     1       2.124   2.519   1.388  1.00  0.00     0.034 A 
ENDBRANCH   8  11
BRANCH   9  17
HETATM   17  N5  UNL     1       2.295  -0.764  -0.888  1.00  0.00    -0.230 NA
HETATM   18  H13 UNL     1       2.652   0.023  -1.481  1.00  0.00     0.144 HD
HETATM   19  H14 UNL     1       3.032  -1.417  -0.604  1.00  0.00     0.144 HD
ENDBRANCH   9  17
ENDBRANCH   7   8
ENDBRANCH   6   7
BRANCH   1  20
HETATM   20  N1  UNL     1      -0.783  -0.953  -0.506  1.00  0.00    -0.366 N 
HETATM   21  H5  UNL     1      -0.784  -0.281   0.263  1.00  0.00     0.161 HD
BRANCH  20  22
HETATM   22  C2  UNL     1      -1.682  -0.607  -1.594  1.00  0.00     0.112 C 
HETATM   23  C1  UNL     1      -2.623  -1.768  -1.903  1.00  0.00     0.037 C 
BRANCH  22  24
HETATM   24  C15 UNL     1      -2.524   0.565  -1.246  1.00  0.00    -0.036 A 
HETATM   25  C16 UNL     1      -3.834   0.577  -1.808  1.00  0.00     0.010 A 
HETATM   26  C17 UNL     1      -4.742   1.600  -1.557  1.00  0.00     0.019 A 
HETATM   27  C18 UNL     1      -4.363   2.667  -0.717  1.00  0.00     0.011 A 
HETATM   28 BR1  UNL     1      -5.608   4.092  -0.381  1.00  0.00    -0.051 Br
HETATM   29  C19 UNL     1      -3.080   2.758  -0.100  1.00  0.00     0.019 A 
HETATM   30  C20 UNL     1      -2.370   1.654  -0.490  1.00  0.00     0.010 A 
ENDBRANCH  22  24
ENDBRANCH  20  22
ENDBRANCH   1  20
TORSDOF 8
