REMARK  7 active torsions:
REMARK  status: ('A' for Active; 'I' for Inactive)
REMARK    1  A    between atoms: C4_4  and  N1_5 
REMARK    2  A    between atoms: N1_5  and  C5_6 
REMARK    3  A    between atoms: C5_6  and  N2_7 
REMARK    4  A    between atoms: C11_14  and  N4_16 
REMARK    5  A    between atoms: N4_16  and  C13_17 
REMARK    6  A    between atoms: C13_17  and  C14_18 
REMARK    7  A    between atoms: C17_21  and  O1_22 
ROOT
HETATM    1  C1  UNL     1      -2.742  -0.051   1.563  1.00  0.00     0.018 C 
HETATM    2  C2  UNL     1      -1.395   0.362   1.078  1.00  0.00     0.064 C 
HETATM    3  C3  UNL     1      -1.535   0.510  -0.418  1.00  0.00    -0.027 C 
HETATM    4  C4  UNL     1      -1.386   1.779  -0.872  1.00  0.00     0.133 C 
HETATM    5  C6  UNL     1      -1.725  -0.575  -1.422  1.00  0.00     0.305 C 
HETATM    6  N3  UNL     1      -2.880  -1.346  -1.237  1.00  0.00     0.088 NA
HETATM    7  C7  UNL     1      -2.930  -2.616  -1.990  1.00  0.00     0.282 C 
HETATM    8  C8  UNL     1      -1.897  -3.521  -1.163  1.00  0.00     0.124 C 
HETATM    9  C9  UNL     1      -1.333  -2.559  -0.252  1.00  0.00    -0.102 C 
HETATM   10  C10 UNL     1      -0.917  -1.814   0.430  1.00  0.00    -0.064 C 
HETATM   11  C11 UNL     1      -0.382  -0.805   1.323  1.00  0.00     0.223 C 
HETATM   12  C12 UNL     1      -0.431  -1.303   2.713  1.00  0.00     0.064 C 
HETATM   13  H9  UNL     1      -3.742  -0.825  -1.497  1.00  0.00     0.316 HD
ENDROOT
BRANCH  11  14
HETATM   14  N4  UNL     1       0.907  -0.414   0.901  1.00  0.00     0.109 N 
HETATM   15  H17 UNL     1       0.877  -0.168  -0.136  1.00  0.00     0.318 HD
BRANCH  14  16
HETATM   16  C13 UNL     1       1.447   0.750   1.544  1.00  0.00     0.310 C 
BRANCH  16  17
HETATM   17  C14 UNL     1       2.837   0.956   1.006  1.00  0.00    -0.030 A 
HETATM   18  C15 UNL     1       3.866   0.319   1.712  1.00  0.00     0.011 A 
HETATM   19  C16 UNL     1       5.180   0.437   1.309  1.00  0.00     0.037 A 
HETATM   20  C17 UNL     1       5.443   1.208   0.184  1.00  0.00     0.065 A 
HETATM   21  C18 UNL     1       4.420   1.829  -0.501  1.00  0.00     0.037 A 
HETATM   22  C19 UNL     1       3.089   1.725  -0.115  1.00  0.00     0.011 A 
BRANCH  20  23
HETATM   23  O1  UNL     1       6.779   1.287  -0.168  1.00  0.00    -0.361 OA
HETATM   24  H22 UNL     1       7.392   2.068   0.024  1.00  0.00     0.217 HD
ENDBRANCH  20  23
ENDBRANCH  16  17
ENDBRANCH  14  16
ENDBRANCH  11  14
BRANCH   4  25
HETATM   25  N1  UNL     1      -1.469   2.220  -2.243  1.00  0.00    -0.200 NA
BRANCH  25  26
HETATM   26  C5  UNL     1      -2.652   2.524  -2.662  1.00  0.00     0.092 C 
BRANCH  26  27
HETATM   27  N2  UNL     1      -3.764   3.126  -2.917  1.00  0.00    -0.241 NA
HETATM   28  H6  UNL     1      -4.075   3.921  -2.335  1.00  0.00     0.199 HD
ENDBRANCH  26  27
ENDBRANCH  25  26
ENDBRANCH   4  25
TORSDOF 7
