REMARK  7 active torsions:
REMARK  status: ('A' for Active; 'I' for Inactive)
REMARK    1  A    between atoms: O1_2  and  C2_3 
REMARK    2  A    between atoms: C4_5  and  O2_6 
REMARK    3  A    between atoms: O2_6  and  C5_7 
REMARK    4  A    between atoms: C12_17  and  N3_18 
REMARK    5  A    between atoms: N3_18  and  C13_19 
REMARK    6  A    between atoms: C13_19  and  C14_20 
REMARK    7  A    between atoms: C16_22  and  C17_24 
ROOT
HETATM    1  C2  UNL     1      -0.548   2.908   1.156  1.00  0.00     0.085 A 
HETATM    2  C3  UNL     1      -1.683   2.894   0.510  1.00  0.00     0.044 A 
HETATM    3  C4  UNL     1      -1.985   1.511   0.814  1.00  0.00     0.192 A 
HETATM    4  C10 UNL     1      -0.696   1.529   1.546  1.00  0.00     0.192 A 
HETATM    5  N1  UNL     1      -0.859   1.193   2.914  1.00  0.00    -0.254 NA
HETATM    6  C11 UNL     1      -0.085   0.223   3.217  1.00  0.00     0.230 A 
HETATM    7  N2  UNL     1       0.677  -0.184   2.064  1.00  0.00    -0.226 NA
HETATM    8  C12 UNL     1       0.334   0.570   1.072  1.00  0.00     0.145 A 
ENDROOT
BRANCH   1   9
HETATM    9  O1  UNL     1       0.608   3.571   1.590  1.00  0.00    -0.357 OA
HETATM   10  C1  UNL     1       1.566   4.015   0.619  1.00  0.00     0.209 C 
ENDBRANCH   1   9
BRANCH   3  11
HETATM   11  O2  UNL     1      -1.912   0.611  -0.249  1.00  0.00    -0.373 OA
BRANCH  11  12
HETATM   12  C5  UNL     1      -2.924  -0.325  -0.227  1.00  0.00     0.126 C 
HETATM   13  C6  UNL     1      -2.309  -1.710  -0.136  1.00  0.00     0.058 C 
HETATM   14  C7  UNL     1      -3.463  -2.684   0.105  1.00  0.00     0.170 C 
HETATM   15  O3  UNL     1      -4.686  -2.097  -0.190  1.00  0.00    -0.391 OA
HETATM   16  C8  UNL     1      -4.707  -1.477  -1.438  1.00  0.00     0.170 C 
HETATM   17  C9  UNL     1      -3.758  -0.302  -1.514  1.00  0.00     0.058 C 
ENDBRANCH  11  12
ENDBRANCH   3  11
BRANCH   8  18
HETATM   18  N3  UNL     1       0.843   0.508  -0.256  1.00  0.00    -0.352 N 
HETATM   19  H16 UNL     1       0.367   0.946  -1.072  1.00  0.00     0.166 HD
BRANCH  18  20
HETATM   20  C13 UNL     1       2.066  -0.178  -0.546  1.00  0.00     0.100 C 
BRANCH  20  21
HETATM   21  C14 UNL     1       3.283  -0.639  -0.507  1.00  0.00     0.199 A 
HETATM   22  C15 UNL     1       4.484  -0.594   0.275  1.00  0.00     0.047 A 
HETATM   23  C16 UNL     1       5.247  -1.389  -0.449  1.00  0.00     0.066 A 
HETATM   24  F1  UNL     1       4.258  -1.604  -1.355  1.00  0.00    -0.360 F 
BRANCH  23  25
HETATM   25  C17 UNL     1       6.399  -2.164  -0.920  1.00  0.00     0.180 C 
HETATM   26 CL1  UNL     1       6.003  -3.873  -0.998  1.00  0.00    -0.123 Cl
ENDBRANCH  23  25
ENDBRANCH  20  21
ENDBRANCH  18  20
ENDBRANCH   8  18
TORSDOF 7
