REMARK  7 active torsions:
REMARK  status: ('A' for Active; 'I' for Inactive)
REMARK    1  A    between atoms: O1_2  and  C2_3 
REMARK    2  A    between atoms: C5_6  and  C6_7 
REMARK    3  A    between atoms: C6_7  and  C17_19 
REMARK    4  A    between atoms: C7_8  and  C8_9 
REMARK    5  A    between atoms: C8_9  and  N1_10 
REMARK    6  A    between atoms: N1_10  and  C10_12 
REMARK    7  A    between atoms: C17_19  and  N2_20 
ROOT
HETATM    1  C6  UNL     1       1.308   0.890   1.204  1.00  0.00    -0.023 C 
HETATM    2  C7  UNL     1       0.157   0.800   0.564  1.00  0.00     0.002 C 
ENDROOT
BRANCH   1   3
HETATM    3  C5  UNL     1       2.547   0.393   0.628  1.00  0.00    -0.028 A 
HETATM    4  C4  UNL     1       2.651  -0.198  -0.610  1.00  0.00     0.014 A 
HETATM    5  C3  UNL     1       3.831  -0.667  -1.144  1.00  0.00     0.037 A 
HETATM    6  C2  UNL     1       4.993  -0.562  -0.438  1.00  0.00     0.068 A 
HETATM    7  C19 UNL     1       4.921   0.028   0.813  1.00  0.00     0.037 A 
HETATM    8  C18 UNL     1       3.730   0.490   1.326  1.00  0.00     0.014 A 
BRANCH   6   9
HETATM    9  O1  UNL     1       6.229  -0.997  -0.875  1.00  0.00    -0.356 OA
HETATM   10  C1  UNL     1       6.484  -1.615  -2.111  1.00  0.00     0.210 C 
ENDBRANCH   6   9
ENDBRANCH   1   3
BRANCH   1  11
HETATM   11  C17 UNL     1       1.364   1.513   2.559  1.00  0.00     0.305 C 
BRANCH  11  12
HETATM   12  N2  UNL     1       2.216   2.663   2.594  1.00  0.00     0.082 N 
HETATM   13  H21 UNL     1       2.583   2.970   1.689  1.00  0.00     0.313 HD
HETATM   14  H22 UNL     1       1.815   3.375   3.209  1.00  0.00     0.313 HD
ENDBRANCH  11  12
ENDBRANCH   1  11
BRANCH   2  15
HETATM   15  C8  UNL     1      -1.205   1.212   0.911  1.00  0.00     0.150 C 
BRANCH  15  16
HETATM   16  N1  UNL     1      -2.103   0.045   0.923  1.00  0.00    -0.382 N 
HETATM   17  C9  UNL     1      -1.900  -0.938   1.967  1.00  0.00     0.150 C 
BRANCH  16  18
HETATM   18  C10 UNL     1      -3.163  -0.241   0.015  1.00  0.00     0.030 A 
HETATM   19  C11 UNL     1      -3.958  -1.363   0.115  1.00  0.00     0.030 A 
HETATM   20  C12 UNL     1      -4.972  -1.610  -0.781  1.00  0.00     0.009 A 
HETATM   21  C13 UNL     1      -5.262  -0.766  -1.829  1.00  0.00    -0.062 A 
HETATM   22  C14 UNL     1      -6.375  -1.128  -2.734  1.00  0.00     0.048 C 
HETATM   23  C15 UNL     1      -4.482   0.362  -1.950  1.00  0.00     0.009 A 
HETATM   24  C16 UNL     1      -3.471   0.591  -1.042  1.00  0.00     0.030 A 
ENDBRANCH  16  18
ENDBRANCH  15  16
ENDBRANCH   2  15
TORSDOF 7
