REMARK  8 active torsions:
REMARK  status: ('A' for Active; 'I' for Inactive)
REMARK    1  A    between atoms: C2_2  and  C3_3 
REMARK    2  A    between atoms: C3_3  and  O1_4 
REMARK    3  A    between atoms: C4_5  and  C5_6 
REMARK    4  A    between atoms: C6_7  and  C7_8 
REMARK    5  A    between atoms: C10_11  and  N1_12 
REMARK    6  A    between atoms: N1_12  and  C11_13 
REMARK    7  A    between atoms: C11_13  and  C13_15 
REMARK    8  A    between atoms: C16_18  and  C17_19 
ROOT
HETATM    1  C7  UNL     1       1.192  -0.633  -1.785  1.00  0.00     0.054 C 
HETATM    2  C8  UNL     1       1.901  -0.555  -0.681  1.00  0.00     0.012 C 
HETATM    3  C9  UNL     1       2.264  -1.533   0.381  1.00  0.00     0.107 C 
HETATM    4  C10 UNL     1       1.082  -2.373   0.709  1.00  0.00     0.105 C 
HETATM    5  N2  UNL     1       0.169  -2.946   0.010  1.00  0.00    -0.229 NA
HETATM    6  C20 UNL     1       0.136  -2.854  -1.430  1.00  0.00     0.235 C 
HETATM    7  N3  UNL     1       0.573  -1.868  -2.175  1.00  0.00    -0.242 NA
ENDROOT
BRANCH   4   8
HETATM    8  N1  UNL     1       0.890  -2.618   2.114  1.00  0.00    -0.370 N 
HETATM    9  H13 UNL     1       1.714  -2.377   2.740  1.00  0.00     0.161 HD
BRANCH   8  10
HETATM   10  C11 UNL     1      -0.342  -3.152   2.612  1.00  0.00     0.112 C 
HETATM   11  C12 UNL     1      -0.637  -4.500   2.015  1.00  0.00     0.037 C 
BRANCH  10  12
HETATM   12  C13 UNL     1      -1.485  -2.211   2.543  1.00  0.00    -0.036 A 
HETATM   13  C14 UNL     1      -2.776  -2.436   2.116  1.00  0.00     0.010 A 
HETATM   14  C15 UNL     1      -3.693  -1.405   2.135  1.00  0.00     0.017 A 
HETATM   15  C16 UNL     1      -3.376  -0.134   2.569  1.00  0.00     0.047 A 
HETATM   16  C18 UNL     1      -2.081   0.084   2.996  1.00  0.00     0.017 A 
HETATM   17  C19 UNL     1      -1.138  -0.932   2.987  1.00  0.00     0.010 A 
BRANCH  15  18
HETATM   18  C17 UNL     1      -4.433   0.917   2.554  1.00  0.00     0.417 C 
HETATM   19  F1  UNL     1      -4.049   2.038   3.232  1.00  0.00    -0.166 F 
HETATM   20  F2  UNL     1      -4.756   1.132   1.230  1.00  0.00    -0.166 F 
HETATM   21  F3  UNL     1      -5.576   0.368   3.144  1.00  0.00    -0.166 F 
ENDBRANCH  15  18
ENDBRANCH  10  12
ENDBRANCH   8  10
ENDBRANCH   4   8
BRANCH   1  22
HETATM   22  C6  UNL     1       0.960   0.447  -2.688  1.00  0.00     0.031 C 
HETATM   23  C5  UNL     1       1.352   1.682  -2.662  1.00  0.00     0.005 C 
BRANCH  23  24
HETATM   24  C4  UNL     1       1.133   2.799  -3.564  1.00  0.00     0.032 C 
HETATM   25  C3  UNL     1       1.546   4.025  -3.500  1.00  0.00     0.043 C 
BRANCH  25  26
HETATM   26  C2  UNL     1       2.336   4.963  -2.689  1.00  0.00     0.060 C 
HETATM   27  C1  UNL     1       2.911   4.346  -1.426  1.00  0.00     0.012 C 
ENDBRANCH  25  26
BRANCH  25  28
HETATM   28  O1  UNL     1       1.126   4.842  -4.576  1.00  0.00    -0.365 OA
HETATM   29  H6  UNL     1       0.140   5.068  -4.558  1.00  0.00     0.217 HD
ENDBRANCH  25  28
ENDBRANCH  23  24
ENDBRANCH   1  22
TORSDOF 8
