REMARK  3 active torsions:
REMARK  status: ('A' for Active; 'I' for Inactive)
REMARK    1  A    between atoms: C5_5  and  C6_6 
REMARK    2  A    between atoms: C14_21  and  C15_22 
REMARK    3  A    between atoms: C18_25  and  O1_26 
ROOT
HETATM    1  C1  UNL     1       0.205  -3.880  -0.382  1.00  0.00     0.047 C 
HETATM    2  C2  UNL     1      -0.703  -2.753  -0.243  1.00  0.00    -0.033 C 
HETATM    3  C3  UNL     1      -1.853  -2.690   0.416  1.00  0.00    -0.010 C 
HETATM    4  C4  UNL     1      -2.500  -1.380   0.340  1.00  0.00     0.058 C 
HETATM    5  C5  UNL     1      -3.521  -0.613   0.663  1.00  0.00     0.034 C 
HETATM    6  C7  UNL     1      -3.279   0.732   0.182  1.00  0.00     0.008 C 
HETATM    7  C8  UNL     1      -2.634   1.717  -0.399  1.00  0.00    -0.026 C 
HETATM    8  C9  UNL     1      -2.045   2.898  -1.008  1.00  0.00     0.032 C 
HETATM    9  C10 UNL     1      -0.798   3.306  -0.281  1.00  0.00     0.041 C 
HETATM   10  P1  UNL     1       0.543   2.086  -0.123  1.00  0.00    -0.076 P 
HETATM   11  C11 UNL     1       0.661   0.876  -1.485  1.00  0.00     0.074 C 
HETATM   12  N1  UNL     1      -0.044   0.838  -2.607  1.00  0.00    -0.244 NA
HETATM   13  C12 UNL     1      -0.779  -0.377  -2.946  1.00  0.00     0.230 C 
HETATM   14  N2  UNL     1      -0.812  -1.574  -2.361  1.00  0.00    -0.243 NA
HETATM   15  C13 UNL     1      -0.188  -1.633  -1.011  1.00  0.00     0.373 C 
HETATM   16  N3  UNL     1       1.218  -1.507  -1.072  1.00  0.00     0.127 N 
HETATM   17  C14 UNL     1       1.715  -0.170  -1.236  1.00  0.00     0.308 C 
HETATM   18  H12 UNL     1       0.326   1.317   1.096  1.00  0.00     0.064 HD
HETATM   19  H15 UNL     1       1.600  -2.187  -1.765  1.00  0.00     0.320 HD
ENDROOT
BRANCH  17  20
HETATM   20  C15 UNL     1       2.697   0.223  -0.210  1.00  0.00    -0.019 A 
HETATM   21  C16 UNL     1       3.872   0.921  -0.516  1.00  0.00     0.012 A 
HETATM   22  C17 UNL     1       4.817   1.303   0.415  1.00  0.00     0.037 A 
HETATM   23  C18 UNL     1       4.615   0.988   1.742  1.00  0.00     0.065 A 
HETATM   24  C19 UNL     1       3.486   0.307   2.103  1.00  0.00     0.037 A 
HETATM   25  C20 UNL     1       2.583  -0.047   1.137  1.00  0.00     0.012 A 
BRANCH  23  26
HETATM   26  O1  UNL     1       5.546   1.361   2.682  1.00  0.00    -0.361 OA
HETATM   27  H19 UNL     1       6.516   1.499   2.465  1.00  0.00     0.217 HD
ENDBRANCH  23  26
ENDBRANCH  17  20
BRANCH   5  28
HETATM   28  C6  UNL     1      -4.839  -0.459   1.359  1.00  0.00     0.414 C 
HETATM   29  F1  UNL     1      -5.225  -1.634   1.907  1.00  0.00    -0.166 F 
HETATM   30  F2  UNL     1      -4.823   0.493   2.337  1.00  0.00    -0.166 F 
HETATM   31  F3  UNL     1      -5.771  -0.136   0.387  1.00  0.00    -0.166 F 
ENDBRANCH   5  28
TORSDOF 3
