REMARK  3 active torsions:
REMARK  status: ('A' for Active; 'I' for Inactive)
REMARK    1  A    between atoms: O1_1  and  C1_2 
REMARK    2  A    between atoms: C4_5  and  C5_6 
REMARK    3  A    between atoms: C12_15  and  C13_16 
ROOT
HETATM    1  C5  UNL     1       1.167   0.144   1.087  1.00  0.00     0.001 C 
HETATM    2  C6  UNL     1       0.770  -0.763   1.998  1.00  0.00     0.017 C 
HETATM    3  C7  UNL     1      -0.653  -0.336   2.271  1.00  0.00     0.136 C 
HETATM    4  C8  UNL     1      -0.449   1.156   2.381  1.00  0.00     0.035 C 
HETATM    5  C9  UNL     1       0.380   1.369   1.342  1.00  0.00     0.067 C 
HETATM    6  N1  UNL     1       0.287   2.669   0.776  1.00  0.00    -0.244 NA
HETATM    7  C10 UNL     1      -0.528   3.015  -0.156  1.00  0.00     0.208 C 
HETATM    8  N2  UNL     1      -1.505   2.253  -0.846  1.00  0.00    -0.349 N 
HETATM    9  C11 UNL     1      -1.997   0.954  -0.539  1.00  0.00     0.061 C 
HETATM   10  C12 UNL     1      -2.381   0.495   0.673  1.00  0.00     0.102 C 
HETATM   11  N3  UNL     1      -1.495  -0.552   1.140  1.00  0.00    -0.336 N 
HETATM   12  C14 UNL     1      -1.336  -1.894   0.557  1.00  0.00     0.276 C 
HETATM   13  F3  UNL     1      -1.361  -2.889   1.477  1.00  0.00    -0.226 F 
HETATM   14  C15 UNL     1      -2.302  -2.107  -0.585  1.00  0.00     0.086 C 
HETATM   15  C16 UNL     1      -1.967  -1.222  -1.760  1.00  0.00    -0.020 C 
HETATM   16  C17 UNL     1      -2.036   0.128  -1.778  1.00  0.00     0.028 C 
HETATM   17  H8  UNL     1      -1.954   2.626  -1.681  1.00  0.00     0.166 HD
ENDROOT
BRANCH   1  18
HETATM   18  C4  UNL     1       2.177   0.016   0.023  1.00  0.00    -0.024 A 
HETATM   19  C3  UNL     1       2.567   0.969  -0.895  1.00  0.00     0.015 A 
HETATM   20  C2  UNL     1       3.535   0.669  -1.826  1.00  0.00     0.037 A 
HETATM   21  C1  UNL     1       4.159  -0.559  -1.903  1.00  0.00     0.065 A 
HETATM   22  C19 UNL     1       3.796  -1.536  -1.001  1.00  0.00     0.037 A 
HETATM   23  C18 UNL     1       2.825  -1.222  -0.073  1.00  0.00     0.015 A 
BRANCH  21  24
HETATM   24  O1  UNL     1       5.135  -0.845  -2.849  1.00  0.00    -0.361 OA
HETATM   25  H1  UNL     1       6.078  -0.501  -2.739  1.00  0.00     0.217 HD
ENDBRANCH  21  24
ENDBRANCH   1  18
BRANCH  10  26
HETATM   26  C13 UNL     1      -3.474   0.802   1.616  1.00  0.00     0.405 C 
HETATM   27  F1  UNL     1      -4.261  -0.336   1.824  1.00  0.00    -0.207 F 
HETATM   28  F2  UNL     1      -4.271   1.826   1.204  1.00  0.00    -0.207 F 
ENDBRANCH  10  26
TORSDOF 3
