REMARK  6 active torsions:
REMARK  status: ('A' for Active; 'I' for Inactive)
REMARK    1  A    between atoms: C2_2  and  C3_3 
REMARK    2  A    between atoms: C3_3  and  C4_4 
REMARK    3  A    between atoms: C3_3  and  C7_10 
REMARK    4  A    between atoms: C5_5  and  C6_6 
REMARK    5  A    between atoms: C8_12  and  N2_13 
REMARK    6  A    between atoms: C14_19  and  O1_20 
ROOT
HETATM    1  C7  UNL     1      -0.631  -0.461  -0.631  1.00  0.00     0.060 A 
HETATM    2  N1  UNL     1      -0.542  -0.536  -1.940  1.00  0.00    -0.251 NA
HETATM    3  C8  UNL     1       0.756  -0.332  -2.469  1.00  0.00     0.390 A 
HETATM    4  C9  UNL     1       1.581  -0.087  -1.272  1.00  0.00     0.072 A 
HETATM    5  C10 UNL     1       0.754  -0.171  -0.261  1.00  0.00     0.022 A 
HETATM    6  C11 UNL     1       1.032  -0.054   1.192  1.00  0.00    -0.045 C 
HETATM    7  C12 UNL     1      -0.148   0.406   1.951  1.00  0.00     0.049 C 
HETATM    8  C13 UNL     1       2.160  -0.286   1.902  1.00  0.00     0.044 C 
HETATM    9  C14 UNL     1       3.517  -0.723   1.590  1.00  0.00     0.064 C 
HETATM   10  C15 UNL     1       4.209  -0.428   0.506  1.00  0.00     0.029 C 
HETATM   11  C16 UNL     1       4.157   0.303  -0.755  1.00  0.00     0.149 C 
HETATM   12  N3  UNL     1       2.954   0.152  -1.527  1.00  0.00    -0.386 N 
HETATM   13  H18 UNL     1       3.169   0.248  -2.563  1.00  0.00     0.159 HD
ENDROOT
BRANCH   1  14
HETATM   14  C3  UNL     1      -1.807  -0.613   0.252  1.00  0.00     0.117 C 
BRANCH  14  15
HETATM   15  C2  UNL     1      -2.809  -1.255  -0.769  1.00  0.00     0.019 C 
HETATM   16  C1  UNL     1      -4.137  -1.477  -0.119  1.00  0.00     0.006 C 
ENDBRANCH  14  15
BRANCH  14  17
HETATM   17  C4  UNL     1      -2.605   0.579   0.496  1.00  0.00    -0.087 C 
HETATM   18  C5  UNL     1      -3.262   1.591   0.715  1.00  0.00     0.009 C 
BRANCH  18  19
HETATM   19  C6  UNL     1      -4.054   2.790   0.999  1.00  0.00     0.459 C 
HETATM   20  F1  UNL     1      -3.176   3.857   0.991  1.00  0.00    -0.159 F 
HETATM   21  F2  UNL     1      -4.564   2.696   2.271  1.00  0.00    -0.159 F 
HETATM   22  F3  UNL     1      -5.016   2.890   0.029  1.00  0.00    -0.159 F 
ENDBRANCH  18  19
ENDBRANCH  14  17
ENDBRANCH   1  14
BRANCH   3  23
HETATM   23  N2  UNL     1       0.843   0.740  -3.435  1.00  0.00     0.109 N 
HETATM   24  H8  UNL     1       1.648   0.495  -4.057  1.00  0.00     0.316 HD
HETATM   25  H9  UNL     1       1.047   1.662  -3.018  1.00  0.00     0.316 HD
ENDBRANCH   3  23
BRANCH   9  26
HETATM   26  O1  UNL     1       4.055  -1.522   2.587  1.00  0.00    -0.361 OA
HETATM   27  H14 UNL     1       4.677  -1.122   3.277  1.00  0.00     0.217 HD
ENDBRANCH   9  26
TORSDOF 6
