REMARK  4 active torsions:
REMARK  status: ('A' for Active; 'I' for Inactive)
REMARK    1  A    between atoms: C2_2  and  N1_3 
REMARK    2  A    between atoms: C2_2  and  C14_19 
REMARK    3  A    between atoms: N1_3  and  C3_4 
REMARK    4  A    between atoms: C10_14  and  O1_15 
ROOT
HETATM    1  C3  UNL     1      -0.431  -0.658   0.903  1.00  0.00     0.139 A 
HETATM    2  N2  UNL     1      -0.489  -1.624   1.835  1.00  0.00    -0.224 NA
HETATM    3  C4  UNL     1       0.668  -2.041   2.378  1.00  0.00     0.237 A 
HETATM    4  N3  UNL     1       1.904  -1.564   2.062  1.00  0.00    -0.223 NA
HETATM    5  C5  UNL     1       2.022  -0.590   1.130  1.00  0.00     0.145 A 
HETATM    6  C6  UNL     1       0.836  -0.162   0.573  1.00  0.00     0.058 A 
HETATM    7  C7  UNL     1       1.179   0.824  -0.344  1.00  0.00     0.044 A 
HETATM    8  C8  UNL     1       2.564   0.978  -0.328  1.00  0.00     0.018 A 
HETATM    9  N4  UNL     1       3.029   0.110   0.571  1.00  0.00    -0.332 N 
HETATM   10  C9  UNL     1       4.413  -0.103   0.944  1.00  0.00     0.166 C 
HETATM   11  C10 UNL     1       5.198  -0.492  -0.249  1.00  0.00     0.159 C 
HETATM   12  C11 UNL     1       5.378   0.534  -1.268  1.00  0.00     0.002 C 
HETATM   13  C12 UNL     1       4.584   1.524  -1.652  1.00  0.00    -0.022 C 
HETATM   14  C13 UNL     1       3.235   1.973  -1.214  1.00  0.00     0.084 C 
ENDROOT
BRANCH   1  15
HETATM   15  N1  UNL     1      -1.597  -0.125   0.245  1.00  0.00    -0.366 N 
HETATM   16  H5  UNL     1      -1.459   0.612  -0.456  1.00  0.00     0.161 HD
BRANCH  15  17
HETATM   17  C2  UNL     1      -2.858  -0.700   0.653  1.00  0.00     0.115 C 
HETATM   18  C1  UNL     1      -3.030  -0.466   2.132  1.00  0.00     0.037 C 
BRANCH  17  19
HETATM   19  C14 UNL     1      -4.018  -0.262  -0.121  1.00  0.00     0.003 A 
HETATM   20  C15 UNL     1      -5.054  -1.150  -0.430  1.00  0.00     0.012 A 
HETATM   21  C16 UNL     1      -6.185  -0.838  -1.153  1.00  0.00     0.001 A 
HETATM   22  C17 UNL     1      -6.319   0.455  -1.615  1.00  0.00     0.003 A 
HETATM   23  C18 UNL     1      -5.349   1.378  -1.354  1.00  0.00     0.043 A 
HETATM   24  C19 UNL     1      -4.240   1.003  -0.624  1.00  0.00     0.124 A 
HETATM   25  F1  UNL     1      -3.302   1.949  -0.383  1.00  0.00    -0.205 F 
ENDBRANCH  17  19
ENDBRANCH  15  17
ENDBRANCH   1  15
BRANCH  11  26
HETATM   26  O1  UNL     1       6.476  -0.914   0.181  1.00  0.00    -0.390 OA
HETATM   27  H11 UNL     1       7.012  -0.944  -0.657  1.00  0.00     0.210 HD
ENDBRANCH  11  26
TORSDOF 4
