REMARK  3 active torsions:
REMARK  status: ('A' for Active; 'I' for Inactive)
REMARK    1  A    between atoms: C2_2  and  C3_3 
REMARK    2  A    between atoms: N1_7  and  C7_8 
REMARK    3  A    between atoms: C7_8  and  C8_9 
ROOT
HETATM    1  C3  UNL     1      -3.630   0.019  -0.036  1.00  0.00     0.023 C 
HETATM    2  C4  UNL     1      -2.861   0.599   0.906  1.00  0.00     0.004 C 
HETATM    3  C5  UNL     1      -1.700   1.464   0.684  1.00  0.00     0.050 C 
HETATM    4  C6  UNL     1      -0.360   0.971   1.113  1.00  0.00     0.141 C 
HETATM    5  N1  UNL     1       0.091  -0.151   0.384  1.00  0.00    -0.344 N 
HETATM    6  N2  UNL     1      -0.517  -0.269  -0.871  1.00  0.00    -0.241 NA
HETATM    7  C15 UNL     1      -1.485  -1.350  -0.723  1.00  0.00     0.130 C 
HETATM    8  C16 UNL     1      -2.643  -1.111  -1.660  1.00  0.00     0.136 C 
HETATM    9  N3  UNL     1      -3.216   0.226  -1.380  1.00  0.00    -0.389 N 
HETATM   10  H17 UNL     1       0.142  -0.570  -1.628  1.00  0.00     0.146 HD
HETATM   11  H22 UNL     1      -3.548   1.205  -1.426  1.00  0.00     0.159 HD
ENDROOT
BRANCH   5  12
HETATM   12  C7  UNL     1       1.315  -0.751   0.603  1.00  0.00     0.171 C 
BRANCH  12  13
HETATM   13  C8  UNL     1       2.546  -0.008   0.242  1.00  0.00    -0.055 C 
HETATM   14  C9  UNL     1       3.264  -0.660  -0.692  1.00  0.00     0.005 C 
HETATM   15  C10 UNL     1       4.520  -0.372  -1.374  1.00  0.00     0.000 C 
HETATM   16  C11 UNL     1       5.453   0.460  -0.909  1.00  0.00     0.003 C 
HETATM   17  C12 UNL     1       5.469   1.253   0.323  1.00  0.00     0.038 C 
HETATM   18  C13 UNL     1       4.348   1.533   0.980  1.00  0.00     0.098 C 
HETATM   19  F1  UNL     1       4.710   2.283   2.077  1.00  0.00    -0.211 F 
HETATM   20  C14 UNL     1       2.896   1.285   0.874  1.00  0.00     0.106 C 
ENDBRANCH  12  13
ENDBRANCH   5  12
BRANCH   1  21
HETATM   21  C2  UNL     1      -4.756  -0.806   0.284  1.00  0.00     0.018 C 
HETATM   22  C1  UNL     1      -5.522  -1.376  -0.612  1.00  0.00     0.013 C 
ENDBRANCH   1  21
TORSDOF 3
