REMARK  6 active torsions:
REMARK  status: ('A' for Active; 'I' for Inactive)
REMARK    1  A    between atoms: C2_2  and  N1_3 
REMARK    2  A    between atoms: C2_2  and  C14_19 
REMARK    3  A    between atoms: N1_3  and  C3_4 
REMARK    4  A    between atoms: C7_10  and  C8_11 
REMARK    5  A    between atoms: C11_14  and  O1_15 
REMARK    6  A    between atoms: C17_22  and  C18_23 
ROOT
HETATM    1  C3  UNL     1      -0.303   0.435  -0.369  1.00  0.00     0.157 A 
HETATM    2  N2  UNL     1      -1.232   1.286  -0.733  1.00  0.00    -0.224 NA
HETATM    3  C4  UNL     1      -0.608   2.333  -1.488  1.00  0.00     0.232 A 
HETATM    4  N3  UNL     1       0.662   2.131  -1.583  1.00  0.00    -0.239 NA
HETATM    5  C5  UNL     1       0.961   0.927  -0.891  1.00  0.00     0.208 A 
HETATM    6  C6  UNL     1       1.848  -0.034  -1.567  1.00  0.00     0.066 A 
HETATM    7  C7  UNL     1       2.854   0.034  -0.693  1.00  0.00     0.041 A 
HETATM    8  N4  UNL     1       2.069   0.976   0.034  1.00  0.00    -0.352 N 
HETATM    9  H13 UNL     1       2.214   1.525   0.923  1.00  0.00     0.163 HD
ENDROOT
BRANCH   1  10
HETATM   10  N1  UNL     1      -0.566  -0.738   0.401  1.00  0.00    -0.366 N 
HETATM   11  H5  UNL     1       0.025  -1.594   0.176  1.00  0.00     0.161 HD
BRANCH  10  12
HETATM   12  C2  UNL     1      -1.607  -0.713   1.436  1.00  0.00     0.112 C 
HETATM   13  C1  UNL     1      -1.297   0.326   2.485  1.00  0.00     0.037 C 
BRANCH  12  14
HETATM   14  C14 UNL     1      -2.965  -0.609   0.894  1.00  0.00    -0.036 A 
HETATM   15  C15 UNL     1      -3.870   0.268   1.448  1.00  0.00     0.010 A 
HETATM   16  C16 UNL     1      -5.153   0.369   0.939  1.00  0.00     0.017 A 
HETATM   17  C17 UNL     1      -5.455  -0.459  -0.146  1.00  0.00     0.047 A 
HETATM   18  C19 UNL     1      -4.545  -1.345  -0.707  1.00  0.00     0.017 A 
HETATM   19  C20 UNL     1      -3.272  -1.424  -0.178  1.00  0.00     0.010 A 
BRANCH  17  20
HETATM   20  C18 UNL     1      -6.867  -0.289  -0.639  1.00  0.00     0.417 C 
HETATM   21  F1  UNL     1      -6.894   0.741  -1.585  1.00  0.00    -0.166 F 
HETATM   22  F2  UNL     1      -7.725  -0.000   0.403  1.00  0.00    -0.166 F 
HETATM   23  F3  UNL     1      -7.330  -1.428  -1.269  1.00  0.00    -0.166 F 
ENDBRANCH  17  20
ENDBRANCH  12  14
ENDBRANCH  10  12
ENDBRANCH   1  10
BRANCH   7  24
HETATM   24  C8  UNL     1       4.170  -0.583  -0.549  1.00  0.00    -0.010 A 
HETATM   25  C9  UNL     1       4.578  -1.489  -1.518  1.00  0.00     0.016 A 
HETATM   26  C10 UNL     1       5.831  -2.063  -1.363  1.00  0.00     0.037 A 
HETATM   27  C11 UNL     1       6.647  -1.756  -0.297  1.00  0.00     0.065 A 
HETATM   28  C12 UNL     1       6.162  -0.849   0.612  1.00  0.00     0.037 A 
HETATM   29  C13 UNL     1       4.943  -0.236   0.538  1.00  0.00     0.016 A 
BRANCH  27  30
HETATM   30  O1  UNL     1       7.909  -2.290  -0.079  1.00  0.00    -0.361 OA
HETATM   31  H10 UNL     1       8.756  -1.821  -0.354  1.00  0.00     0.217 HD
ENDBRANCH  27  30
ENDBRANCH   7  24
TORSDOF 6
