REMARK  7 active torsions:
REMARK  status: ('A' for Active; 'I' for Inactive)
REMARK    1  A    between atoms: C6_7  and  C7_8 
REMARK    2  A    between atoms: C7_8  and  C16_21 
REMARK    3  A    between atoms: C11_14  and  N3_15 
REMARK    4  A    between atoms: N3_15  and  C12_16 
REMARK    5  A    between atoms: C16_21  and  C17_22 
REMARK    6  A    between atoms: C16_21  and  O3_24 
REMARK    7  A    between atoms: C17_22  and  O2_23 
ROOT
HETATM    1  C7  UNL     1      -0.389   0.207  -0.051  1.00  0.00    -0.033 C 
HETATM    2  C8  UNL     1      -0.045   0.509   1.239  1.00  0.00     0.013 A 
HETATM    3  C9  UNL     1      -1.025   1.203   2.096  1.00  0.00     0.193 A 
HETATM    4  N1  UNL     1      -0.511   1.425   3.403  1.00  0.00    -0.278 NA
HETATM    5  C10 UNL     1       0.578   1.156   3.910  1.00  0.00     0.229 A 
HETATM    6  N2  UNL     1       1.518   0.514   3.102  1.00  0.00    -0.225 NA
HETATM    7  C11 UNL     1       1.217   0.234   1.898  1.00  0.00     0.133 A 
ENDROOT
BRANCH   1   8
HETATM    8  C6  UNL     1      -1.726   0.634  -0.416  1.00  0.00     0.031 C 
HETATM    9  C2  UNL     1      -2.752  -0.300  -0.850  1.00  0.00    -0.001 C 
HETATM   10  C1  UNL     1      -2.996  -1.523  -1.267  1.00  0.00     0.014 C 
HETATM   11  C3  UNL     1      -4.101   0.402  -0.826  1.00  0.00     0.178 C 
HETATM   12  O1  UNL     1      -3.865   1.683  -0.353  1.00  0.00    -0.390 OA
HETATM   13  C4  UNL     1      -3.078   2.481  -1.168  1.00  0.00     0.168 C 
HETATM   14  C5  UNL     1      -1.766   1.724  -1.522  1.00  0.00     0.036 C 
ENDBRANCH   1   8
BRANCH   1  15
HETATM   15  C16 UNL     1       0.186  -0.467  -1.175  1.00  0.00     0.174 C 
BRANCH  15  16
HETATM   16  C17 UNL     1       0.444  -1.968  -1.017  1.00  0.00     0.200 C 
BRANCH  16  17
HETATM   17  O2  UNL     1       1.237  -2.418  -2.103  1.00  0.00    -0.398 OA
HETATM   18  H21 UNL     1       1.610  -3.309  -1.815  1.00  0.00     0.209 HD
ENDBRANCH  16  17
ENDBRANCH  15  16
BRANCH  15  19
HETATM   19  O3  UNL     1      -0.512  -0.407  -2.393  1.00  0.00    -0.384 OA
HETATM   20  C18 UNL     1       0.373   0.097  -3.352  1.00  0.00     0.202 C 
ENDBRANCH  15  19
ENDBRANCH   1  15
BRANCH   7  21
HETATM   21  N3  UNL     1       2.265  -0.386   1.187  1.00  0.00    -0.364 N 
HETATM   22  H13 UNL     1       2.291  -0.220   0.188  1.00  0.00     0.162 HD
BRANCH  21  23
HETATM   23  C12 UNL     1       3.292  -1.236   1.819  1.00  0.00     0.131 A 
HETATM   24  C13 UNL     1       4.087  -0.437   2.795  1.00  0.00     0.059 A 
HETATM   25  C14 UNL     1       5.226  -0.736   1.953  1.00  0.00    -0.003 A 
HETATM   26  C15 UNL     1       4.524  -1.430   1.107  1.00  0.00     0.031 A 
HETATM   27 CL1  UNL     1       4.772  -2.342  -0.390  1.00  0.00    -0.087 Cl
ENDBRANCH  21  23
ENDBRANCH   7  21
TORSDOF 7
