REMARK  9 active torsions:
REMARK  status: ('A' for Active; 'I' for Inactive)
REMARK    1  A    between atoms: N1_2  and  O1_3 
REMARK    2  A    between atoms: O1_3  and  C2_4 
REMARK    3  A    between atoms: C2_4  and  C3_5 
REMARK    4  A    between atoms: C3_5  and  C4_6 
REMARK    5  A    between atoms: C4_6  and  C5_7 
REMARK    6  A    between atoms: C6_8  and  C7_9 
REMARK    7  A    between atoms: C10_14  and  N4_15 
REMARK    8  A    between atoms: N4_15  and  C11_16 
REMARK    9  A    between atoms: C11_16  and  C12_17 
ROOT
HETATM    1  C7  UNL     1      -0.583  -1.581   1.466  1.00  0.00     0.027 A 
HETATM    2  C8  UNL     1      -0.321  -2.548   2.403  1.00  0.00     0.133 A 
HETATM    3  N2  UNL     1      -1.260  -3.013   3.274  1.00  0.00    -0.253 NA
HETATM    4  C9  UNL     1      -2.516  -2.525   3.246  1.00  0.00     0.234 A 
HETATM    5  N3  UNL     1      -2.779  -1.581   2.334  1.00  0.00    -0.224 NA
HETATM    6  C10 UNL     1      -1.871  -1.111   1.470  1.00  0.00     0.136 A 
ENDROOT
BRANCH   6   7
HETATM    7  N4  UNL     1      -2.230  -0.106   0.530  1.00  0.00    -0.370 N 
HETATM    8  H15 UNL     1      -1.741   0.395  -0.204  1.00  0.00     0.161 HD
BRANCH   7   9
HETATM    9  C11 UNL     1      -3.598   0.356   0.573  1.00  0.00     0.163 C 
BRANCH   9  10
HETATM   10  C12 UNL     1      -3.935   1.395  -0.416  1.00  0.00    -0.002 A 
HETATM   11  C13 UNL     1      -4.654   1.167  -1.564  1.00  0.00     0.012 A 
HETATM   12  C14 UNL     1      -4.893   2.241  -2.399  1.00  0.00     0.001 A 
HETATM   13  C15 UNL     1      -4.434   3.515  -2.111  1.00  0.00     0.003 A 
HETATM   14  C16 UNL     1      -3.703   3.743  -0.944  1.00  0.00     0.043 A 
HETATM   15  C17 UNL     1      -3.472   2.662  -0.120  1.00  0.00     0.124 A 
HETATM   16  F1  UNL     1      -2.753   2.974   0.994  1.00  0.00    -0.205 F 
ENDBRANCH   9  10
ENDBRANCH   7   9
ENDBRANCH   6   7
BRANCH   1  17
HETATM   17  C6  UNL     1       0.394  -1.080   0.537  1.00  0.00     0.013 C 
HETATM   18  C5  UNL     1       1.660  -1.361   0.321  1.00  0.00    -0.026 C 
BRANCH  18  19
HETATM   19  C4  UNL     1       2.829  -2.165   0.698  1.00  0.00     0.029 C 
BRANCH  19  20
HETATM   20  C3  UNL     1       4.008  -1.323   1.149  1.00  0.00     0.032 C 
BRANCH  20  21
HETATM   21  C2  UNL     1       4.501  -0.375   0.096  1.00  0.00     0.194 C 
BRANCH  21  22
HETATM   22  O1  UNL     1       4.913  -1.027  -1.043  1.00  0.00    -0.306 OA
BRANCH  22  23
HETATM   23  N1  UNL     1       5.394  -0.238  -2.016  1.00  0.00    -0.210 NA
HETATM   24  C1  UNL     1       4.931   1.133  -1.900  1.00  0.00     0.140 C 
HETATM   25  H4  UNL     1       5.143  -0.581  -2.970  1.00  0.00     0.153 HD
ENDBRANCH  22  23
ENDBRANCH  21  22
ENDBRANCH  20  21
ENDBRANCH  19  20
ENDBRANCH  18  19
ENDBRANCH   1  17
TORSDOF 9
