REMARK  8 active torsions:
REMARK  status: ('A' for Active; 'I' for Inactive)
REMARK    1  A    between atoms: O1_2  and  C2_3 
REMARK    2  A    between atoms: C4_5  and  O2_6 
REMARK    3  A    between atoms: O2_6  and  C5_7 
REMARK    4  A    between atoms: C11_14  and  N1_15 
REMARK    5  A    between atoms: N1_15  and  C12_16 
REMARK    6  A    between atoms: C12_16  and  C15_20 
REMARK    7  A    between atoms: C13_17  and  C14_18 
REMARK    8  A    between atoms: C15_20  and  C16_21 
ROOT
HETATM    1  C2  UNL     1      -3.076   2.557   0.407  1.00  0.00     0.073 A 
HETATM    2  C3  UNL     1      -2.682   1.251   0.210  1.00  0.00     0.074 A 
HETATM    3  C4  UNL     1      -1.388   0.776   0.221  1.00  0.00     0.088 A 
HETATM    4  C10 UNL     1      -0.453   1.767   0.459  1.00  0.00     0.072 A 
HETATM    5  C11 UNL     1       0.880   1.474   0.505  1.00  0.00     0.144 A 
HETATM    6  N2  UNL     1       1.802   2.419   0.734  1.00  0.00    -0.223 NA
HETATM    7  C17 UNL     1       1.494   3.707   0.934  1.00  0.00     0.236 A 
HETATM    8  N3  UNL     1       0.189   4.011   0.892  1.00  0.00    -0.241 NA
HETATM    9  C18 UNL     1      -0.762   3.094   0.665  1.00  0.00     0.077 A 
HETATM   10  C19 UNL     1      -2.072   3.500   0.641  1.00  0.00     0.069 A 
ENDROOT
BRANCH   5  11
HETATM   11  N1  UNL     1       1.417   0.178   0.320  1.00  0.00    -0.344 N 
HETATM   12  H14 UNL     1       1.284  -0.830   0.130  1.00  0.00     0.167 HD
BRANCH  11  13
HETATM   13  C12 UNL     1       2.813  -0.127   0.379  1.00  0.00     0.010 C 
HETATM   14  C13 UNL     1       3.427  -0.464   1.530  1.00  0.00     0.013 C 
BRANCH  14  15
HETATM   15  C14 UNL     1       4.777  -0.829   1.972  1.00  0.00     0.143 C 
HETATM   16 CL1  UNL     1       4.659  -2.476   2.675  1.00  0.00    -0.126 Cl
ENDBRANCH  14  15
BRANCH  13  17
HETATM   17  C15 UNL     1       3.661  -0.077  -0.866  1.00  0.00     0.088 C 
BRANCH  17  18
HETATM   18  C16 UNL     1       3.138  -1.058  -1.894  1.00  0.00     0.228 C 
HETATM   19  F1  UNL     1       3.179  -2.326  -1.368  1.00  0.00    -0.255 F 
ENDBRANCH  17  18
ENDBRANCH  13  17
ENDBRANCH  11  13
ENDBRANCH   5  11
BRANCH   3  20
HETATM   20  O2  UNL     1      -0.962  -0.508   0.031  1.00  0.00    -0.345 OA
BRANCH  20  21
HETATM   21  C5  UNL     1      -1.789  -1.603  -0.216  1.00  0.00     0.133 C 
HETATM   22  C6  UNL     1      -1.532  -2.178  -1.617  1.00  0.00     0.058 C 
HETATM   23  C7  UNL     1      -0.459  -3.206  -1.473  1.00  0.00     0.170 C 
HETATM   24  O3  UNL     1      -0.960  -4.360  -0.886  1.00  0.00    -0.391 OA
HETATM   25  C8  UNL     1      -1.796  -4.100   0.185  1.00  0.00     0.170 C 
HETATM   26  C9  UNL     1      -1.580  -2.728   0.775  1.00  0.00     0.058 C 
ENDBRANCH  20  21
ENDBRANCH   3  20
BRANCH   1  27
HETATM   27  O1  UNL     1      -4.406   2.929   0.376  1.00  0.00    -0.356 OA
HETATM   28  C1  UNL     1      -4.730   4.281   0.585  1.00  0.00     0.210 C 
ENDBRANCH   1  27
TORSDOF 8
