REMARK  3 active torsions:
REMARK  status: ('A' for Active; 'I' for Inactive)
REMARK    1  A    between atoms: C2_2  and  O1_3 
REMARK    2  A    between atoms: O1_3  and  C3_4 
REMARK    3  A    between atoms: C8_9  and  C9_10 
ROOT
HETATM    1  C3  UNL     1      -2.496   1.093   0.019  1.00  0.00     0.068 C 
HETATM    2  C4  UNL     1      -1.375   1.773  -0.301  1.00  0.00     0.037 C 
HETATM    3  C5  UNL     1      -0.163   1.127  -0.863  1.00  0.00     0.008 C 
HETATM    4  C6  UNL     1       0.330  -0.118  -0.688  1.00  0.00    -0.043 C 
HETATM    5  C7  UNL     1       1.569  -0.195  -1.503  1.00  0.00     0.051 C 
HETATM    6  C8  UNL     1       2.829  -0.458  -0.771  1.00  0.00     0.064 C 
HETATM    7  C14 UNL     1       3.027  -1.862  -0.330  1.00  0.00     0.100 C 
HETATM    8  N1  UNL     1       2.317  -2.771  -0.887  1.00  0.00    -0.258 NA
HETATM    9  C15 UNL     1       2.330  -4.147  -0.637  1.00  0.00     0.228 C 
HETATM   10  N2  UNL     1       1.045  -4.433  -0.620  1.00  0.00    -0.253 NA
HETATM   11  C16 UNL     1       0.080  -3.335  -0.846  1.00  0.00     0.420 C 
HETATM   12  N3  UNL     1       0.373  -2.371   0.139  1.00  0.00     0.114 N 
HETATM   13  C17 UNL     1      -0.307  -1.150   0.177  1.00  0.00     0.274 C 
HETATM   14  C18 UNL     1      -1.768  -1.229  -0.025  1.00  0.00     0.016 C 
HETATM   15  C19 UNL     1      -2.764  -0.362  -0.106  1.00  0.00     0.035 C 
HETATM   16  H20 UNL     1       0.360  -2.845   1.069  1.00  0.00     0.319 HD
ENDROOT
BRANCH   6  17
HETATM   17  C9  UNL     1       3.161   0.531   0.277  1.00  0.00    -0.043 A 
HETATM   18  C10 UNL     1       3.594   0.519   1.531  1.00  0.00     0.009 A 
HETATM   19  C11 UNL     1       3.555   1.978   1.545  1.00  0.00     0.008 A 
HETATM   20  C12 UNL     1       3.116   1.987   0.275  1.00  0.00    -0.055 A 
HETATM   21  C13 UNL     1       2.785   3.154  -0.586  1.00  0.00     0.049 C 
ENDBRANCH   6  17
BRANCH   1  22
HETATM   22  O1  UNL     1      -3.556   1.844   0.539  1.00  0.00    -0.352 OA
BRANCH  22  23
HETATM   23  C2  UNL     1      -4.832   1.265   0.612  1.00  0.00     0.171 C 
HETATM   24  C1  UNL     1      -5.850   2.202   1.191  1.00  0.00     0.034 C 
ENDBRANCH  22  23
ENDBRANCH   1  22
TORSDOF 3
