REMARK  7 active torsions:
REMARK  status: ('A' for Active; 'I' for Inactive)
REMARK    1  A    between atoms: C5_5  and  C6_6 
REMARK    2  A    between atoms: C9_9  and  N1_10 
REMARK    3  A    between atoms: N2_12  and  C11_13 
REMARK    4  A    between atoms: C11_13  and  C12_14 
REMARK    5  A    between atoms: C12_14  and  N3_15 
REMARK    6  A    between atoms: N3_15  and  C13_16 
REMARK    7  A    between atoms: C13_16  and  C15_18 
ROOT
HETATM    1  N1  UNL     1       0.227   0.140  -1.460  1.00  0.00    -0.241 N 
HETATM    2  C10 UNL     1      -0.490   1.147  -1.808  1.00  0.00     0.212 A 
HETATM    3  N2  UNL     1      -1.175  -0.076  -1.466  1.00  0.00    -0.110 NA
ENDROOT
BRANCH   1   4
HETATM    4  C9  UNL     1       1.649   0.262  -1.424  1.00  0.00     0.127 A 
HETATM    5  C8  UNL     1       2.394   0.729  -2.413  1.00  0.00     0.079 A 
HETATM    6  C7  UNL     1       3.571   0.512  -1.592  1.00  0.00     0.038 A 
HETATM    7  C6  UNL     1       4.865   0.667  -1.662  1.00  0.00     0.043 C 
HETATM    8  N4  UNL     1       2.744   0.018  -0.556  1.00  0.00    -0.341 N 
HETATM    9  H22 UNL     1       2.496  -0.372   0.368  1.00  0.00     0.167 HD
BRANCH   7  10
HETATM   10  C5  UNL     1       6.025   0.458  -0.867  1.00  0.00    -0.011 A 
HETATM   11  C4  UNL     1       7.215   0.792  -1.399  1.00  0.00     0.015 A 
HETATM   12  C3  UNL     1       8.467   0.632  -0.706  1.00  0.00     0.025 A 
HETATM   13  C2  UNL     1       8.544   0.145   0.507  1.00  0.00     0.005 A 
HETATM   14  C1  UNL     1       9.846  -0.010   1.199  1.00  0.00     0.068 C 
HETATM   15  N5  UNL     1       7.378  -0.245   1.179  1.00  0.00    -0.363 N 
HETATM   16  C22 UNL     1       6.170  -0.072   0.468  1.00  0.00     0.020 A 
HETATM   17  H25 UNL     1       7.406  -0.631   2.132  1.00  0.00     0.165 HD
HETATM   18  C23 UNL     1       5.075  -0.429   1.087  1.00  0.00     0.064 C 
ENDBRANCH   7  10
ENDBRANCH   1   4
BRANCH   3  19
HETATM   19  C11 UNL     1      -2.467  -0.098  -1.529  1.00  0.00    -0.025 C 
BRANCH  19  20
HETATM   20  C12 UNL     1      -3.721   0.055  -1.844  1.00  0.00     0.155 C 
BRANCH  20  21
HETATM   21  N3  UNL     1      -4.459   0.700  -0.823  1.00  0.00    -0.384 N 
HETATM   22  H10 UNL     1      -4.518   1.569  -1.449  1.00  0.00     0.160 HD
BRANCH  21  23
HETATM   23  C13 UNL     1      -5.086   0.801   0.450  1.00  0.00     0.111 C 
HETATM   24  C14 UNL     1      -4.008   0.591   1.520  1.00  0.00     0.037 C 
BRANCH  23  25
HETATM   25  C15 UNL     1      -6.268  -0.029   0.653  1.00  0.00    -0.030 A 
HETATM   26  C16 UNL     1      -7.299   0.603   1.362  1.00  0.00     0.010 A 
HETATM   27  C17 UNL     1      -8.533   0.061   1.699  1.00  0.00     0.001 A 
HETATM   28  C18 UNL     1      -8.792  -1.224   1.308  1.00  0.00     0.001 A 
HETATM   29  C19 UNL     1      -7.800  -1.892   0.600  1.00  0.00     0.007 A 
HETATM   30  C20 UNL     1      -6.587  -1.293   0.295  1.00  0.00    -0.054 A 
HETATM   31  C21 UNL     1      -5.574  -2.050  -0.441  1.00  0.00     0.049 C 
ENDBRANCH  23  25
ENDBRANCH  21  23
ENDBRANCH  20  21
ENDBRANCH  19  20
ENDBRANCH   3  19
TORSDOF 7
