REMARK  8 active torsions:
REMARK  status: ('A' for Active; 'I' for Inactive)
REMARK    1  A    between atoms: C7_7  and  C8_8 
REMARK    2  A    between atoms: C8_8  and  N1_10 
REMARK    3  A    between atoms: N1_10  and  C10_11 
REMARK    4  A    between atoms: C12_13  and  N2_14 
REMARK    5  A    between atoms: N2_14  and  C13_15 
REMARK    6  A    between atoms: C15_17  and  C16_18 
REMARK    7  A    between atoms: C16_18  and  C17_19 
REMARK    8  A    between atoms: C17_19  and  O1_20 
ROOT
HETATM    1  C10 UNL     1       0.010  -0.522   0.324  1.00  0.00     0.129 A 
HETATM    2  C11 UNL     1       1.136  -0.998  -0.302  1.00  0.00     0.100 A 
HETATM    3  C12 UNL     1       2.075  -0.145  -0.805  1.00  0.00     0.133 A 
HETATM    4  N3  UNL     1       1.921   1.176  -0.701  1.00  0.00    -0.224 NA
HETATM    5  C18 UNL     1       0.839   1.666  -0.099  1.00  0.00     0.237 A 
HETATM    6  N4  UNL     1      -0.097   0.825   0.403  1.00  0.00    -0.225 NA
ENDROOT
BRANCH   1   7
HETATM    7  N1  UNL     1      -0.999  -1.379   0.865  1.00  0.00    -0.366 N 
HETATM    8  H12 UNL     1      -0.841  -2.406   0.762  1.00  0.00     0.161 HD
BRANCH   7   9
HETATM    9  C8  UNL     1      -2.148  -0.768   1.505  1.00  0.00     0.113 C 
HETATM   10  C9  UNL     1      -2.941  -1.761   2.308  1.00  0.00     0.037 C 
BRANCH   9  11
HETATM   11  C7  UNL     1      -2.932   0.107   0.628  1.00  0.00    -0.030 A 
HETATM   12  C2  UNL     1      -3.250  -0.202  -0.699  1.00  0.00    -0.054 A 
HETATM   13  C1  UNL     1      -2.783  -1.468  -1.263  1.00  0.00     0.049 C 
HETATM   14  C3  UNL     1      -4.006   0.702  -1.456  1.00  0.00     0.007 A 
HETATM   15  C4  UNL     1      -4.449   1.885  -0.946  1.00  0.00     0.001 A 
HETATM   16  C5  UNL     1      -4.171   2.240   0.336  1.00  0.00     0.001 A 
HETATM   17  C6  UNL     1      -3.427   1.338   1.067  1.00  0.00     0.010 A 
ENDBRANCH   9  11
ENDBRANCH   7   9
ENDBRANCH   1   7
BRANCH   3  18
HETATM   18  N2  UNL     1       3.206  -0.682  -1.435  1.00  0.00    -0.339 N 
HETATM   19  H14 UNL     1       3.373  -1.706  -1.542  1.00  0.00     0.167 HD
BRANCH  18  20
HETATM   20  C13 UNL     1       4.297   0.004  -2.024  1.00  0.00     0.057 A 
HETATM   21  C14 UNL     1       5.025   0.579  -2.943  1.00  0.00     0.018 A 
HETATM   22  C15 UNL     1       5.608   0.615  -1.766  1.00  0.00     0.007 A 
BRANCH  22  23
HETATM   23  C16 UNL     1       6.720   0.993  -0.913  1.00  0.00     0.038 C 
BRANCH  23  24
HETATM   24  C17 UNL     1       6.645   0.669   0.374  1.00  0.00     0.132 C 
BRANCH  24  25
HETATM   25  O1  UNL     1       5.471  -0.011   0.747  1.00  0.00    -0.373 OA
HETATM   26  H17 UNL     1       4.952   0.189   1.573  1.00  0.00     0.216 HD
ENDBRANCH  24  25
ENDBRANCH  23  24
ENDBRANCH  22  23
ENDBRANCH  18  20
ENDBRANCH   3  18
TORSDOF 8
