REMARK  6 active torsions:
REMARK  status: ('A' for Active; 'I' for Inactive)
REMARK    1  A    between atoms: C2_4  and  C3_5 
REMARK    2  A    between atoms: C3_5  and  C4_6 
REMARK    3  A    between atoms: C5_7  and  C6_8 
REMARK    4  A    between atoms: C10_13  and  N2_14 
REMARK    5  A    between atoms: N2_14  and  C11_15 
REMARK    6  A    between atoms: C11_15  and  C12_16 
ROOT
HETATM    1  C1  UNL     1      -1.457  -3.689  -2.214  1.00  0.00     0.188 C 
HETATM    2  N1  UNL     1      -1.264  -2.395  -1.562  1.00  0.00    -0.238 N 
HETATM    3  O1  UNL     1      -2.254  -1.427  -1.641  1.00  0.00    -0.238 OA
HETATM    4  C2  UNL     1      -2.050  -0.203  -1.013  1.00  0.00     0.081 A 
HETATM    5  C8  UNL     1      -0.930   0.011  -0.361  1.00  0.00     0.054 A 
HETATM    6  C9  UNL     1       0.097  -0.984  -0.275  1.00  0.00     0.060 A 
HETATM    7  C10 UNL     1       1.263  -0.730   0.417  1.00  0.00     0.139 A 
HETATM    8  N3  UNL     1       2.162  -1.716   0.443  1.00  0.00    -0.224 NA
HETATM    9  C18 UNL     1       2.054  -2.916  -0.127  1.00  0.00     0.237 A 
HETATM   10  N4  UNL     1       0.916  -3.154  -0.799  1.00  0.00    -0.222 NA
HETATM   11  C19 UNL     1      -0.015  -2.219  -0.862  1.00  0.00     0.165 A 
ENDROOT
BRANCH   7  12
HETATM   12  N2  UNL     1       1.552   0.473   1.086  1.00  0.00    -0.370 N 
HETATM   13  H11 UNL     1       0.772   1.159   0.998  1.00  0.00     0.161 HD
BRANCH  12  14
HETATM   14  C11 UNL     1       2.568   1.133   1.876  1.00  0.00     0.163 C 
BRANCH  14  15
HETATM   15  C12 UNL     1       3.821   1.342   1.106  1.00  0.00    -0.002 A 
HETATM   16  C13 UNL     1       3.997   2.577   0.482  1.00  0.00     0.012 A 
HETATM   17  C14 UNL     1       5.064   2.965  -0.305  1.00  0.00     0.001 A 
HETATM   18  C15 UNL     1       6.047   2.023  -0.480  1.00  0.00     0.003 A 
HETATM   19  C16 UNL     1       5.960   0.788   0.094  1.00  0.00     0.043 A 
HETATM   20  C17 UNL     1       4.855   0.467   0.875  1.00  0.00     0.124 A 
HETATM   21  F1  UNL     1       4.794  -0.743   1.460  1.00  0.00    -0.205 F 
ENDBRANCH  14  15
ENDBRANCH  12  14
ENDBRANCH   7  12
BRANCH   4  22
HETATM   22  C3  UNL     1      -3.178   0.756  -1.165  1.00  0.00     0.094 C 
BRANCH  22  23
HETATM   23  C4  UNL     1      -4.440   0.228  -0.592  1.00  0.00    -0.020 C 
HETATM   24  C5  UNL     1      -5.107   0.813   0.378  1.00  0.00    -0.003 C 
BRANCH  24  25
HETATM   25  C6  UNL     1      -6.336   0.426   1.035  1.00  0.00     0.011 C 
HETATM   26  C7  UNL     1      -6.943   1.077   2.009  1.00  0.00     0.084 C 
HETATM   27 CL1  UNL     1      -6.149   2.558   2.534  1.00  0.00    -0.097 Cl
ENDBRANCH  24  25
ENDBRANCH  22  23
ENDBRANCH   4  22
TORSDOF 6
