REMARK  0 active torsions:
REMARK  status: ('A' for Active; 'I' for Inactive)
ROOT
HETATM    1  F1  UNL     1       3.451  -1.929   0.771  1.00  0.00    -0.209 F 
HETATM    2  C1  UNL     1       2.319  -1.792  -0.016  1.00  0.00     0.111 C 
HETATM    3  C2  UNL     1       1.026  -2.022   0.169  1.00  0.00     0.039 C 
HETATM    4  C3  UNL     1      -0.257  -1.941  -0.511  1.00  0.00     0.003 C 
HETATM    5  C4  UNL     1      -0.635  -1.584  -1.705  1.00  0.00     0.002 C 
HETATM    6  C5  UNL     1      -2.021  -1.618  -2.000  1.00  0.00     0.019 C 
HETATM    7  C6  UNL     1      -3.256  -1.809  -1.723  1.00  0.00     0.114 C 
HETATM    8  N1  UNL     1      -3.338  -2.221  -0.338  1.00  0.00    -0.272 N 
HETATM    9  O1  UNL     1      -3.534  -1.523   0.807  1.00  0.00    -0.243 OA
HETATM   10  C7  UNL     1      -2.834  -0.435   1.281  1.00  0.00     0.073 C 
HETATM   11  C8  UNL     1      -1.924  -0.639   2.251  1.00  0.00     0.012 C 
HETATM   12  C9  UNL     1      -0.731   0.201   2.582  1.00  0.00     0.064 C 
HETATM   13  C10 UNL     1      -0.307   0.925   1.326  1.00  0.00    -0.075 C 
HETATM   14  C11 UNL     1       0.989   1.085   1.131  1.00  0.00     0.020 C 
HETATM   15  C12 UNL     1       1.854   1.683   0.125  1.00  0.00     0.027 A 
HETATM   16  C13 UNL     1       1.481   3.012   0.049  1.00  0.00     0.133 A 
HETATM   17  N2  UNL     1       2.062   3.912  -0.811  1.00  0.00    -0.253 NA
HETATM   18  C14 UNL     1       3.042   3.472  -1.616  1.00  0.00     0.234 A 
HETATM   19  N3  UNL     1       3.376   2.202  -1.520  1.00  0.00    -0.224 NA
HETATM   20  C15 UNL     1       2.851   1.273  -0.704  1.00  0.00     0.137 A 
HETATM   21  N4  UNL     1       3.558   0.046  -0.984  1.00  0.00    -0.368 N 
HETATM   22  C16 UNL     1       2.913  -1.238  -1.236  1.00  0.00     0.191 C 
HETATM   23  C17 UNL     1      -1.428   1.364   0.482  1.00  0.00     0.041 C 
HETATM   24  C18 UNL     1      -2.791   1.023   1.009  1.00  0.00     0.071 C 
HETATM   25  H6  UNL     1      -3.335  -2.894   0.473  1.00  0.00     0.193 HD
HETATM   26  H13 UNL     1       4.608   0.024  -1.007  1.00  0.00     0.161 HD
ENDROOT
TORSDOF 0
