REMARK  0 active torsions:
REMARK  status: ('A' for Active; 'I' for Inactive)
ROOT
HETATM    1  C1  UNL     1      -4.065   1.377   0.091  1.00  0.00     0.069 C 
HETATM    2  C2  UNL     1      -2.734   0.925   0.639  1.00  0.00     0.016 C 
HETATM    3  C3  UNL     1      -1.720   1.758   0.960  1.00  0.00    -0.001 C 
HETATM    4  C4  UNL     1      -0.383   1.502   1.493  1.00  0.00     0.035 C 
HETATM    5  C5  UNL     1       0.703   2.051   0.649  1.00  0.00     0.003 C 
HETATM    6  C6  UNL     1       1.765   2.078  -0.112  1.00  0.00     0.027 C 
HETATM    7  C7  UNL     1       2.927   1.852  -0.915  1.00  0.00    -0.082 C 
HETATM    8  C8  UNL     1       3.281   3.220  -1.306  1.00  0.00     0.043 C 
HETATM    9  C9  UNL     1       3.664   0.804  -1.332  1.00  0.00    -0.019 C 
HETATM   10  C10 UNL     1       3.841  -0.675  -1.314  1.00  0.00     0.066 C 
HETATM   11  C11 UNL     1       2.592  -1.202  -0.654  1.00  0.00    -0.055 A 
HETATM   12  C12 UNL     1       1.536  -1.132  -1.579  1.00  0.00     0.008 A 
HETATM   13  C13 UNL     1       0.252  -1.498  -1.234  1.00  0.00     0.012 A 
HETATM   14  C14 UNL     1       0.141  -1.922   0.073  1.00  0.00    -0.029 A 
HETATM   15  C15 UNL     1       1.155  -2.004   0.993  1.00  0.00     0.012 A 
HETATM   16  C16 UNL     1       2.430  -1.636   0.638  1.00  0.00     0.008 A 
HETATM   17  C17 UNL     1      -1.229  -2.226   0.463  1.00  0.00    -0.035 C 
HETATM   18  C18 UNL     1      -2.222  -2.490  -0.373  1.00  0.00     0.003 C 
HETATM   19  C19 UNL     1      -3.152  -1.315  -0.503  1.00  0.00     0.171 C 
HETATM   20  N1  UNL     1      -2.935  -0.506   0.692  1.00  0.00    -0.314 N 
HETATM   21  N2  UNL     1      -2.949  -1.290   1.860  1.00  0.00    -0.234 NA
HETATM   22  C20 UNL     1      -1.876  -2.275   1.811  1.00  0.00     0.149 C 
HETATM   23  H22 UNL     1      -3.871  -1.711   2.072  1.00  0.00     0.147 HD
ENDROOT
TORSDOF 0
