REMARK  7 active torsions:
REMARK  status: ('A' for Active; 'I' for Inactive)
REMARK    1  A    between atoms: C2_2  and  C3_3 
REMARK    2  A    between atoms: C2_2  and  N1_10 
REMARK    3  A    between atoms: C3_3  and  C4_4 
REMARK    4  A    between atoms: N1_10  and  C10_11 
REMARK    5  A    between atoms: C14_17  and  C15_18 
REMARK    6  A    between atoms: C15_18  and  C16_19 
REMARK    7  A    between atoms: C19_22  and  O1_23 
ROOT
HETATM    1  C10 UNL     1       0.795   0.279  -0.640  1.00  0.00     0.139 A 
HETATM    2  N2  UNL     1       1.922   0.118  -1.358  1.00  0.00    -0.224 NA
HETATM    3  C11 UNL     1       2.001  -0.526  -2.528  1.00  0.00     0.235 A 
HETATM    4  N3  UNL     1       0.858  -1.047  -3.011  1.00  0.00    -0.244 NA
HETATM    5  C12 UNL     1      -0.306  -0.935  -2.364  1.00  0.00     0.069 A 
HETATM    6  C13 UNL     1      -0.340  -0.265  -1.166  1.00  0.00     0.062 A 
HETATM    7  C14 UNL     1      -1.679  -0.276  -0.655  1.00  0.00     0.045 A 
HETATM    8  N4  UNL     1      -2.460  -0.986  -1.601  1.00  0.00    -0.383 N 
HETATM    9  C22 UNL     1      -1.665  -1.414  -2.707  1.00  0.00     0.180 A 
HETATM   10  H20 UNL     1      -3.443  -1.297  -1.728  1.00  0.00     0.160 HD
ENDROOT
BRANCH   1  11
HETATM   11  N1  UNL     1       0.871   1.012   0.576  1.00  0.00    -0.369 N 
HETATM   12  H12 UNL     1       0.077   1.208   1.176  1.00  0.00     0.161 HD
BRANCH  11  13
HETATM   13  C2  UNL     1       2.106   1.558   1.096  1.00  0.00     0.083 C 
HETATM   14  C1  UNL     1       2.893   2.345   0.069  1.00  0.00     0.032 C 
BRANCH  13  15
HETATM   15  C3  UNL     1       2.900   0.601   1.907  1.00  0.00     0.063 C 
BRANCH  15  16
HETATM   16  C4  UNL     1       3.604  -0.467   1.182  1.00  0.00    -0.056 A 
HETATM   17  C5  UNL     1       4.860  -0.093   0.727  1.00  0.00     0.007 A 
HETATM   18  C6  UNL     1       5.700  -0.950   0.041  1.00  0.00     0.001 A 
HETATM   19  C7  UNL     1       5.278  -2.244  -0.209  1.00  0.00     0.000 A 
HETATM   20  C8  UNL     1       4.029  -2.634   0.237  1.00  0.00     0.001 A 
HETATM   21  C9  UNL     1       3.199  -1.769   0.921  1.00  0.00     0.007 A 
ENDBRANCH  15  16
ENDBRANCH  13  15
ENDBRANCH  11  13
ENDBRANCH   1  11
BRANCH   7  22
HETATM   22  C15 UNL     1      -2.223   0.189   0.447  1.00  0.00     0.041 C 
BRANCH  22  23
HETATM   23  C16 UNL     1      -3.644   0.060   0.755  1.00  0.00    -0.034 A 
HETATM   24  C17 UNL     1      -4.382   0.497  -0.349  1.00  0.00     0.014 A 
HETATM   25  C18 UNL     1      -5.780   0.466  -0.356  1.00  0.00     0.037 A 
HETATM   26  C19 UNL     1      -6.449  -0.011   0.761  1.00  0.00     0.065 A 
HETATM   27  C20 UNL     1      -5.737  -0.445   1.858  1.00  0.00     0.037 A 
HETATM   28  C21 UNL     1      -4.359  -0.406   1.846  1.00  0.00     0.014 A 
BRANCH  26  29
HETATM   29  O1  UNL     1      -7.827  -0.105   0.908  1.00  0.00    -0.361 OA
HETATM   30  H17 UNL     1      -8.316   0.407   1.637  1.00  0.00     0.217 HD
ENDBRANCH  26  29
ENDBRANCH  22  23
ENDBRANCH   7  22
TORSDOF 7
