REMARK  8 active torsions:
REMARK  status: ('A' for Active; 'I' for Inactive)
REMARK    1  A    between atoms: C2_2  and  C3_4 
REMARK    2  A    between atoms: C3_4  and  C4_5 
REMARK    3  A    between atoms: C4_5  and  C5_6 
REMARK    4  A    between atoms: C5_6  and  C6_7 
REMARK    5  A    between atoms: C6_7  and  C7_8 
REMARK    6  A    between atoms: C7_8  and  N1_10 
REMARK    7  A    between atoms: N1_10  and  C9_11 
REMARK    8  A    between atoms: C12_18  and  C13_19 
ROOT
HETATM    1  C9  UNL     1       0.967  -0.278  -0.909  1.00  0.00     0.106 C 
HETATM    2  N2  UNL     1       0.828  -0.631   0.324  1.00  0.00    -0.217 NA
HETATM    3  C10 UNL     1       1.908  -1.073   1.099  1.00  0.00     0.166 A 
HETATM    4  N3  UNL     1       1.847  -2.141   2.074  1.00  0.00    -0.241 NA
HETATM    5  C11 UNL     1       3.041  -1.350   1.739  1.00  0.00     0.278 A 
HETATM    6  N4  UNL     1       3.996  -2.204   1.007  1.00  0.00    -0.167 NA
HETATM    7  O1  UNL     1       4.052  -1.818  -0.316  1.00  0.00    -0.262 OA
HETATM    8  C12 UNL     1       4.558  -0.566  -0.647  1.00  0.00     0.089 C 
HETATM    9  C15 UNL     1       3.393  -0.457  -1.207  1.00  0.00     0.019 C 
HETATM   10  C16 UNL     1       2.148  -0.208  -1.863  1.00  0.00     0.108 C 
HETATM   11  H13 UNL     1       4.965  -2.106   1.358  1.00  0.00     0.157 HD
ENDROOT
BRANCH   1  12
HETATM   12  N1  UNL     1      -0.303   0.130  -1.463  1.00  0.00    -0.370 N 
HETATM   13  H11 UNL     1      -0.306   0.316  -2.514  1.00  0.00     0.161 HD
BRANCH  12  14
HETATM   14  C7  UNL     1      -1.517   0.292  -0.688  1.00  0.00     0.101 C 
HETATM   15  C8  UNL     1      -1.419   1.384   0.324  1.00  0.00     0.036 C 
BRANCH  14  16
HETATM   16  C6  UNL     1      -1.951  -0.968  -0.026  1.00  0.00    -0.002 C 
BRANCH  16  17
HETATM   17  C5  UNL     1      -3.183  -1.075   0.449  1.00  0.00    -0.002 C 
BRANCH  17  18
HETATM   18  C4  UNL     1      -4.133   0.013   0.342  1.00  0.00     0.002 C 
BRANCH  18  19
HETATM   19  C3  UNL     1      -5.336  -0.181   0.843  1.00  0.00     0.036 C 
BRANCH  19  20
HETATM   20  C2  UNL     1      -6.297   0.905   0.740  1.00  0.00     0.077 A 
HETATM   21  C1  UNL     1      -7.227   1.831   0.692  1.00  0.00     0.250 A 
HETATM   22  F1  UNL     1      -5.942   2.093   0.140  1.00  0.00    -0.367 F 
ENDBRANCH  19  20
ENDBRANCH  18  19
ENDBRANCH  17  18
ENDBRANCH  16  17
ENDBRANCH  14  16
ENDBRANCH  12  14
ENDBRANCH   1  12
BRANCH   8  23
HETATM   23  C13 UNL     1       5.856  -0.091  -0.287  1.00  0.00     0.045 C 
HETATM   24  C14 UNL     1       6.366   1.078  -0.580  1.00  0.00     0.059 C 
HETATM   25 BR1  UNL     1       5.599   2.497  -1.543  1.00  0.00    -0.064 Br
ENDBRANCH   8  23
TORSDOF 8
