REMARK  7 active torsions:
REMARK  status: ('A' for Active; 'I' for Inactive)
REMARK    1  A    between atoms: C2_2  and  N1_3 
REMARK    2  A    between atoms: C2_2  and  C15_19 
REMARK    3  A    between atoms: N1_3  and  C3_4 
REMARK    4  A    between atoms: C5_8  and  N4_9 
REMARK    5  A    between atoms: N4_9  and  C6_10 
REMARK    6  A    between atoms: C7_11  and  C8_12 
REMARK    7  A    between atoms: C18_22  and  O1_23 
ROOT
HETATM    1  C3  UNL     1       1.296  -1.223   1.395  1.00  0.00     0.277 A 
HETATM    2  N2  UNL     1       1.833  -0.260   2.310  1.00  0.00    -0.249 NA
HETATM    3  C4  UNL     1       0.861   0.440   2.775  1.00  0.00     0.232 A 
HETATM    4  N3  UNL     1      -0.376   0.026   2.234  1.00  0.00    -0.225 NA
HETATM    5  C5  UNL     1      -0.173  -0.963   1.405  1.00  0.00     0.149 A 
ENDROOT
BRANCH   1   6
HETATM    6  N1  UNL     1       1.758  -1.047   0.027  1.00  0.00    -0.361 N 
HETATM    7  H3  UNL     1       1.240  -0.790  -0.842  1.00  0.00     0.162 HD
BRANCH   6   8
HETATM    8  C2  UNL     1       3.156  -1.260  -0.163  1.00  0.00     0.030 C 
HETATM    9  C1  UNL     1       3.402  -2.555  -0.103  1.00  0.00     0.043 C 
BRANCH   8  10
HETATM   10  C15 UNL     1       4.148  -0.214  -0.387  1.00  0.00    -0.010 A 
HETATM   11  C16 UNL     1       3.913   1.139  -0.453  1.00  0.00     0.016 A 
HETATM   12  C17 UNL     1       4.929   2.018  -0.669  1.00  0.00     0.037 A 
HETATM   13  C18 UNL     1       6.238   1.570  -0.828  1.00  0.00     0.065 A 
HETATM   14  C19 UNL     1       6.492   0.210  -0.764  1.00  0.00     0.037 A 
HETATM   15  C20 UNL     1       5.443  -0.662  -0.544  1.00  0.00     0.016 A 
BRANCH  13  16
HETATM   16  O1  UNL     1       7.321   2.416  -1.050  1.00  0.00    -0.361 OA
HETATM   17  H18 UNL     1       8.223   2.286  -0.609  1.00  0.00     0.217 HD
ENDBRANCH  13  16
ENDBRANCH   8  10
ENDBRANCH   6   8
ENDBRANCH   1   6
BRANCH   5  18
HETATM   18  N4  UNL     1      -1.223  -1.630   0.672  1.00  0.00    -0.351 N 
HETATM   19  H6  UNL     1      -0.869  -2.574   0.327  1.00  0.00     0.166 HD
BRANCH  18  20
HETATM   20  C6  UNL     1      -2.522  -1.024   0.486  1.00  0.00     0.090 C 
HETATM   21  C7  UNL     1      -2.972  -0.252  -0.487  1.00  0.00     0.029 C 
BRANCH  21  22
HETATM   22  C8  UNL     1      -4.224   0.419  -0.806  1.00  0.00    -0.029 A 
HETATM   23  C9  UNL     1      -4.245   1.149  -1.975  1.00  0.00     0.012 A 
HETATM   24  C10 UNL     1      -5.379   1.808  -2.347  1.00  0.00     0.001 A 
HETATM   25  C11 UNL     1      -6.462   1.697  -1.504  1.00  0.00     0.001 A 
HETATM   26  C12 UNL     1      -6.511   0.995  -0.339  1.00  0.00     0.007 A 
HETATM   27  C13 UNL     1      -5.330   0.332   0.010  1.00  0.00    -0.052 A 
HETATM   28  C14 UNL     1      -5.308  -0.453   1.265  1.00  0.00     0.049 C 
ENDBRANCH  21  22
ENDBRANCH  18  20
ENDBRANCH   5  18
TORSDOF 7
