REMARK  6 active torsions:
REMARK  status: ('A' for Active; 'I' for Inactive)
REMARK    1  A    between atoms: C2_2  and  C3_3 
REMARK    2  A    between atoms: C2_2  and  N2_8 
REMARK    3  A    between atoms: N2_8  and  C6_9 
REMARK    4  A    between atoms: C10_15  and  O1_16 
REMARK    5  A    between atoms: C13_19  and  O2_20 
REMARK    6  A    between atoms: O2_20  and  C14_21 
ROOT
HETATM    1  C3  UNL     1       3.522   1.516   1.748  1.00  0.00     0.064 C 
HETATM    2  C4  UNL     1       2.675   1.577   2.726  1.00  0.00     0.116 C 
HETATM    3 CL1  UNL     1       1.010   1.115   2.649  1.00  0.00    -0.072 Cl
HETATM    4  C5  UNL     1       3.351   2.085   3.874  1.00  0.00     0.112 C 
HETATM    5  N1  UNL     1       3.919   2.500   4.819  1.00  0.00    -0.190 NA
ENDROOT
BRANCH   1   6
HETATM    6  C2  UNL     1       3.531   1.114   0.372  1.00  0.00     0.026 C 
HETATM    7  C1  UNL     1       3.682   0.795  -0.849  1.00  0.00     0.043 C 
BRANCH   6   8
HETATM    8  N2  UNL     1       2.138   0.722   0.128  1.00  0.00    -0.341 N 
HETATM    9  H4  UNL     1       1.984  -0.190   0.652  1.00  0.00     0.167 HD
BRANCH   8  10
HETATM   10  C6  UNL     1       1.295   1.571  -0.692  1.00  0.00     0.144 A 
HETATM   11  N3  UNL     1       1.922   2.700  -1.081  1.00  0.00    -0.223 NA
HETATM   12  C7  UNL     1       1.368   3.609  -1.874  1.00  0.00     0.236 A 
HETATM   13  N4  UNL     1       0.132   3.379  -2.298  1.00  0.00    -0.241 NA
HETATM   14  C8  UNL     1      -0.555   2.288  -1.960  1.00  0.00     0.077 A 
HETATM   15  C9  UNL     1      -1.832   2.026  -2.394  1.00  0.00     0.069 A 
HETATM   16  C19 UNL     1       0.022   1.341  -1.129  1.00  0.00     0.072 A 
HETATM   17  C10 UNL     1      -2.528   0.899  -2.048  1.00  0.00     0.073 A 
HETATM   18  C12 UNL     1      -1.855   0.009  -1.204  1.00  0.00     0.074 A 
HETATM   19  C13 UNL     1      -0.564   0.177  -0.707  1.00  0.00     0.088 A 
BRANCH  17  20
HETATM   20  O1  UNL     1      -3.785   0.519  -2.408  1.00  0.00    -0.356 OA
HETATM   21  C11 UNL     1      -4.671   1.215  -3.242  1.00  0.00     0.210 C 
ENDBRANCH  17  20
BRANCH  19  22
HETATM   22  O2  UNL     1       0.016  -0.728   0.110  1.00  0.00    -0.345 OA
BRANCH  22  23
HETATM   23  C14 UNL     1      -0.437  -1.935   0.595  1.00  0.00     0.133 C 
HETATM   24  C15 UNL     1      -1.136  -1.781   1.950  1.00  0.00     0.058 C 
HETATM   25  C16 UNL     1      -2.024  -2.995   2.115  1.00  0.00     0.170 C 
HETATM   26  O3  UNL     1      -1.428  -4.136   1.571  1.00  0.00    -0.391 OA
HETATM   27  C17 UNL     1      -0.044  -4.062   1.704  1.00  0.00     0.170 C 
HETATM   28  C18 UNL     1       0.577  -3.032   0.758  1.00  0.00     0.058 C 
ENDBRANCH  22  23
ENDBRANCH  19  22
ENDBRANCH   8  10
ENDBRANCH   6   8
ENDBRANCH   1   6
TORSDOF 6
