REMARK  7 active torsions:
REMARK  status: ('A' for Active; 'I' for Inactive)
REMARK    1  A    between atoms: C2_2  and  C3_3 
REMARK    2  A    between atoms: C2_2  and  N1_9 
REMARK    3  A    between atoms: C4_4  and  C5_5 
REMARK    4  A    between atoms: C6_6  and  C7_7 
REMARK    5  A    between atoms: N1_9  and  C8_10 
REMARK    6  A    between atoms: C12_17  and  C13_18 
REMARK    7  A    between atoms: C16_21  and  O1_22 
ROOT
HETATM    1  C8  UNL     1      -0.899   0.465  -0.875  1.00  0.00     0.165 A 
HETATM    2  N2  UNL     1      -1.658   1.485  -0.531  1.00  0.00    -0.218 NA
HETATM    3  C9  UNL     1      -1.030   2.545   0.245  1.00  0.00     0.238 A 
HETATM    4  N3  UNL     1       0.141   2.807   0.736  1.00  0.00    -0.218 NA
HETATM    5  C10 UNL     1       1.271   1.926   0.578  1.00  0.00     0.169 A 
HETATM    6  S1  UNL     1       0.909   0.450  -0.351  1.00  0.00    -0.055 SA
HETATM    7  C11 UNL     1       2.409  -0.325  -0.341  1.00  0.00     0.080 A 
HETATM    8  C12 UNL     1       3.197   0.489   0.345  1.00  0.00     0.050 A 
HETATM    9  N4  UNL     1       2.627   1.685   0.843  1.00  0.00    -0.334 N 
HETATM   10  H19 UNL     1       3.114   2.422   1.397  1.00  0.00     0.168 HD
ENDROOT
BRANCH   1  11
HETATM   11  N1  UNL     1      -1.172  -0.717  -1.614  1.00  0.00    -0.362 N 
HETATM   12  H11 UNL     1      -0.459  -1.449  -1.808  1.00  0.00     0.162 HD
BRANCH  11  13
HETATM   13  C2  UNL     1      -2.563  -0.749  -2.048  1.00  0.00     0.102 C 
HETATM   14  C1  UNL     1      -2.909   0.415  -2.926  1.00  0.00     0.036 C 
BRANCH  13  15
HETATM   15  C3  UNL     1      -3.491  -0.989  -0.942  1.00  0.00    -0.002 C 
HETATM   16  C4  UNL     1      -4.609  -0.354  -0.629  1.00  0.00    -0.002 C 
BRANCH  16  17
HETATM   17  C5  UNL     1      -5.370  -0.786   0.537  1.00  0.00    -0.002 C 
HETATM   18  C6  UNL     1      -6.490  -0.160   0.863  1.00  0.00     0.004 C 
BRANCH  18  19
HETATM   19  C7  UNL     1      -7.288  -0.582   2.051  1.00  0.00     0.249 C 
HETATM   20  F1  UNL     1      -8.545  -0.953   1.650  1.00  0.00    -0.251 F 
ENDBRANCH  18  19
ENDBRANCH  16  17
ENDBRANCH  13  15
ENDBRANCH  11  13
ENDBRANCH   1  11
BRANCH   8  21
HETATM   21  C13 UNL     1       4.595   0.160   0.573  1.00  0.00    -0.009 A 
HETATM   22  C14 UNL     1       5.153  -0.996   0.094  1.00  0.00     0.016 A 
HETATM   23  C15 UNL     1       6.481  -1.292   0.320  1.00  0.00     0.037 A 
HETATM   24  C16 UNL     1       7.320  -0.459   1.031  1.00  0.00     0.065 A 
HETATM   25  C17 UNL     1       6.794   0.708   1.526  1.00  0.00     0.037 A 
HETATM   26  C18 UNL     1       5.462   0.966   1.278  1.00  0.00     0.016 A 
BRANCH  24  27
HETATM   27  O1  UNL     1       8.651  -0.793   1.237  1.00  0.00    -0.361 OA
HETATM   28  H16 UNL     1       9.423  -0.182   0.992  1.00  0.00     0.217 HD
ENDBRANCH  24  27
ENDBRANCH   8  21
TORSDOF 7
