REMARK  10 active torsions:
REMARK  status: ('A' for Active; 'I' for Inactive)
REMARK    1  A    between atoms: N1_3  and  C3_4 
REMARK    2  A    between atoms: C3_4  and  C4_5 
REMARK    3  A    between atoms: N3_14  and  N4_15 
REMARK    4  A    between atoms: N4_15  and  C12_16 
REMARK    5  A    between atoms: C12_16  and  C13_17 
REMARK    6  A    between atoms: C13_17  and  C14_18 
REMARK    7  A    between atoms: C14_18  and  C15_19 
REMARK    8  A    between atoms: C15_19  and  S1_20 
REMARK    9  A    between atoms: S1_20  and  C16_21 
REMARK   10  A    between atoms: C17_22  and  C18_23 
ROOT
HETATM    1  C1  UNL     1      -2.891   1.782   0.343  1.00  0.00     0.068 C 
HETATM    2  C2  UNL     1      -1.810   0.827  -0.085  1.00  0.00     0.338 C 
HETATM    3  N1  UNL     1      -2.266  -0.164  -1.037  1.00  0.00     0.135 N 
HETATM    4  C10 UNL     1      -1.112  -0.669  -1.761  1.00  0.00     0.424 C 
HETATM    5  N2  UNL     1      -0.689   0.372  -2.679  1.00  0.00    -0.253 NA
HETATM    6  C11 UNL     1      -0.514   1.541  -2.110  1.00  0.00     0.219 C 
HETATM    7  N3  UNL     1      -0.760   1.621  -0.699  1.00  0.00    -0.274 N 
ENDROOT
BRANCH   7   8
HETATM    8  N4  UNL     1      -0.026   2.440   0.129  1.00  0.00    -0.235 NA
HETATM    9  H15 UNL     1       0.048   2.108   1.107  1.00  0.00     0.146 HD
BRANCH   8  10
HETATM   10  C12 UNL     1       1.278   2.797  -0.331  1.00  0.00     0.111 C 
BRANCH  10  11
HETATM   11  C13 UNL     1       2.141   1.563  -0.532  1.00  0.00     0.017 C 
BRANCH  11  12
HETATM   12  C14 UNL     1       2.306   0.791   0.741  1.00  0.00     0.012 C 
BRANCH  12  13
HETATM   13  C15 UNL     1       3.162  -0.443   0.566  1.00  0.00     0.078 C 
BRANCH  13  14
HETATM   14  S1  UNL     1       4.827  -0.024  -0.007  1.00  0.00    -0.142 SA
BRANCH  14  15
HETATM   15  C16 UNL     1       5.763  -1.535  -0.184  1.00  0.00     0.043 C 
HETATM   16  C17 UNL     1       7.095  -1.446  -0.005  1.00  0.00     0.011 C 
BRANCH  16  17
HETATM   17  C18 UNL     1       8.126  -2.522  -0.087  1.00  0.00     0.250 C 
HETATM   18  F1  UNL     1       7.492  -3.719  -0.394  1.00  0.00    -0.251 F 
ENDBRANCH  16  17
ENDBRANCH  14  15
ENDBRANCH  13  14
ENDBRANCH  12  13
ENDBRANCH  11  12
ENDBRANCH  10  11
ENDBRANCH   8  10
ENDBRANCH   7   8
BRANCH   3  19
HETATM   19  C3  UNL     1      -2.865  -1.320  -0.406  1.00  0.00     0.316 C 
BRANCH  19  20
HETATM   20  C4  UNL     1      -4.033  -1.046   0.423  1.00  0.00    -0.030 A 
HETATM   21  C5  UNL     1      -5.297  -1.075  -0.175  1.00  0.00     0.009 A 
HETATM   22  C6  UNL     1      -6.487  -0.834   0.495  1.00  0.00     0.001 A 
HETATM   23  C7  UNL     1      -6.425  -0.547   1.838  1.00  0.00     0.000 A 
HETATM   24  C8  UNL     1      -5.198  -0.505   2.484  1.00  0.00     0.001 A 
HETATM   25  C9  UNL     1      -4.025  -0.749   1.792  1.00  0.00     0.009 A 
ENDBRANCH  19  20
ENDBRANCH   3  19
TORSDOF 10
