REMARK  6 active torsions:
REMARK  status: ('A' for Active; 'I' for Inactive)
REMARK    1  A    between atoms: C2_2  and  N1_3 
REMARK    2  A    between atoms: C2_2  and  C13_18 
REMARK    3  A    between atoms: N1_3  and  C3_4 
REMARK    4  A    between atoms: C5_6  and  N2_7 
REMARK    5  A    between atoms: N2_7  and  C6_8 
REMARK    6  A    between atoms: C11_13  and  O1_14 
ROOT
HETATM    1  C3  UNL     1      -0.571   0.399  -0.386  1.00  0.00     0.129 A 
HETATM    2  C4  UNL     1       0.510   0.190   0.440  1.00  0.00     0.100 A 
HETATM    3  C5  UNL     1       1.725   0.665   0.014  1.00  0.00     0.132 A 
HETATM    4  N3  UNL     1       1.839   1.301  -1.158  1.00  0.00    -0.224 NA
HETATM    5  C12 UNL     1       0.795   1.518  -1.988  1.00  0.00     0.237 A 
HETATM    6  N4  UNL     1      -0.377   1.045  -1.545  1.00  0.00    -0.225 NA
ENDROOT
BRANCH   1   7
HETATM    7  N1  UNL     1      -1.839  -0.087   0.064  1.00  0.00    -0.366 N 
HETATM    8  H5  UNL     1      -1.957  -0.597   0.939  1.00  0.00     0.161 HD
BRANCH   7   9
HETATM    9  C2  UNL     1      -2.925   0.225  -0.862  1.00  0.00     0.112 C 
HETATM   10  C1  UNL     1      -2.921   1.742  -1.007  1.00  0.00     0.037 C 
BRANCH   9  11
HETATM   11  C13 UNL     1      -4.230  -0.285  -0.442  1.00  0.00    -0.033 A 
HETATM   12  C14 UNL     1      -4.577  -0.136   0.886  1.00  0.00     0.009 A 
HETATM   13  C15 UNL     1      -5.825  -0.616   1.299  1.00  0.00     0.004 A 
HETATM   14  C16 UNL     1      -6.637  -1.211   0.361  1.00  0.00     0.042 A 
HETATM   15  C17 UNL     1      -6.297  -1.364  -0.966  1.00  0.00     0.117 A 
HETATM   16  F1  UNL     1      -7.080  -1.942  -1.894  1.00  0.00    -0.206 F 
HETATM   17  C18 UNL     1      -5.048  -0.882  -1.382  1.00  0.00     0.051 A 
ENDBRANCH   9  11
ENDBRANCH   7   9
ENDBRANCH   1   7
BRANCH   3  18
HETATM   18  N2  UNL     1       3.014   0.609   0.606  1.00  0.00    -0.343 N 
HETATM   19  H7  UNL     1       3.120   1.237   1.426  1.00  0.00     0.167 HD
BRANCH  18  20
HETATM   20  C6  UNL     1       4.141  -0.173   0.223  1.00  0.00     0.027 A 
HETATM   21  C7  UNL     1       4.600  -1.002  -0.783  1.00  0.00     0.022 A 
HETATM   22  C8  UNL     1       5.410  -0.738   0.315  1.00  0.00     0.068 A 
HETATM   23  C9  UNL     1       5.950  -1.689   1.264  1.00  0.00    -0.005 A 
HETATM   24  C11 UNL     1       6.705  -0.016   0.333  1.00  0.00     0.163 A 
HETATM   25  C10 UNL     1       7.103  -1.062   1.291  1.00  0.00     0.004 A 
BRANCH  24  26
HETATM   26  O1  UNL     1       6.681   1.277   0.855  1.00  0.00    -0.390 OA
HETATM   27  H12 UNL     1       6.090   1.895   0.390  1.00  0.00     0.210 HD
ENDBRANCH  24  26
ENDBRANCH  18  20
ENDBRANCH   3  18
TORSDOF 6
