REMARK  4 active torsions:
REMARK  status: ('A' for Active; 'I' for Inactive)
REMARK    1  A    between atoms: C7_8  and  C8_9 
REMARK    2  A    between atoms: C8_9  and  N2_10 
REMARK    3  A    between atoms: N2_10  and  C9_11 
REMARK    4  A    between atoms: C9_11  and  C11_13 
ROOT
HETATM    1  C8  UNL     1      -0.139  -0.286  -0.854  1.00  0.00     0.325 C 
ENDROOT
BRANCH   1   2
HETATM    2  C7  UNL     1      -1.068   0.354   0.160  1.00  0.00     0.043 C 
HETATM    3  N1  UNL     1      -0.609   0.736   1.278  1.00  0.00    -0.292 NA
HETATM    4  C6  UNL     1      -1.319   1.353   2.345  1.00  0.00     0.176 C 
HETATM    5  C5  UNL     1      -2.771   1.229   2.252  1.00  0.00     0.003 C 
HETATM    6  C4  UNL     1      -3.270   0.868   1.105  1.00  0.00    -0.050 C 
HETATM    7  C3  UNL     1      -4.643   0.643   0.645  1.00  0.00     0.010 C 
HETATM    8  C17 UNL     1      -2.500   0.564  -0.133  1.00  0.00     0.071 C 
HETATM    9  C2  UNL     1      -4.685  -0.245  -0.369  1.00  0.00    -0.082 C 
HETATM   10  C1  UNL     1      -5.922  -0.705  -1.077  1.00  0.00     0.043 C 
HETATM   11  C18 UNL     1      -3.247  -0.650  -0.619  1.00  0.00     0.049 C 
ENDBRANCH   1   2
BRANCH   1  12
HETATM   12  N2  UNL     1       1.156  -0.255  -0.292  1.00  0.00     0.097 N 
HETATM   13  H10 UNL     1       1.183  -0.953   0.489  1.00  0.00     0.317 HD
BRANCH  12  14
HETATM   14  C9  UNL     1       2.269  -0.570  -1.151  1.00  0.00     0.253 C 
HETATM   15  C10 UNL     1       2.407   0.466  -2.250  1.00  0.00     0.048 C 
BRANCH  14  16
HETATM   16  C11 UNL     1       3.472  -0.400  -0.274  1.00  0.00     0.013 A 
HETATM   17  C12 UNL     1       3.406   0.119   1.011  1.00  0.00     0.012 A 
HETATM   18  C13 UNL     1       4.523   0.256   1.826  1.00  0.00     0.001 A 
HETATM   19  C14 UNL     1       5.733  -0.150   1.308  1.00  0.00     0.003 A 
HETATM   20  C15 UNL     1       5.829  -0.677   0.015  1.00  0.00     0.043 A 
HETATM   21  C16 UNL     1       4.688  -0.803  -0.782  1.00  0.00     0.124 A 
HETATM   22  F1  UNL     1       4.848  -1.311  -2.015  1.00  0.00    -0.205 F 
ENDBRANCH  14  16
ENDBRANCH  12  14
ENDBRANCH   1  12
TORSDOF 4
