REMARK  6 active torsions:
REMARK  status: ('A' for Active; 'I' for Inactive)
REMARK    1  A    between atoms: C3_3  and  O1_4 
REMARK    2  A    between atoms: C3_3  and  C4_5 
REMARK    3  A    between atoms: C5_6  and  C6_7 
REMARK    4  A    between atoms: C9_10  and  N1_11 
REMARK    5  A    between atoms: N1_11  and  C10_12 
REMARK    6  A    between atoms: C10_12  and  C12_14 
ROOT
HETATM    1  C6  UNL     1       2.883   0.338  -0.639  1.00  0.00    -0.005 A 
HETATM    2  C7  UNL     1       1.687   0.762  -1.072  1.00  0.00     0.031 A 
HETATM    3  C8  UNL     1       0.963  -0.072  -0.147  1.00  0.00     0.040 A 
HETATM    4  C9  UNL     1      -0.289  -0.460   0.306  1.00  0.00     0.138 A 
HETATM    5  N2  UNL     1      -0.271  -1.380   1.307  1.00  0.00    -0.224 NA
HETATM    6  C19 UNL     1       0.913  -1.826   1.764  1.00  0.00     0.236 A 
HETATM    7  N3  UNL     1       2.093  -1.415   1.289  1.00  0.00    -0.240 NA
HETATM    8  C20 UNL     1       2.179  -0.520   0.312  1.00  0.00     0.082 A 
ENDROOT
BRANCH   4   9
HETATM    9  N1  UNL     1      -1.482   0.076  -0.250  1.00  0.00    -0.366 N 
HETATM   10  H9  UNL     1      -1.393   0.767  -1.004  1.00  0.00     0.161 HD
BRANCH   9  11
HETATM   11  C10 UNL     1      -2.715  -0.419   0.319  1.00  0.00     0.112 C 
HETATM   12  C11 UNL     1      -2.792  -1.914   0.125  1.00  0.00     0.037 C 
BRANCH  11  13
HETATM   13  C12 UNL     1      -3.907   0.290  -0.166  1.00  0.00    -0.035 A 
HETATM   14  C13 UNL     1      -3.978   0.526  -1.525  1.00  0.00     0.009 A 
HETATM   15  C14 UNL     1      -5.064   1.189  -2.075  1.00  0.00     0.001 A 
HETATM   16  C15 UNL     1      -6.100   1.627  -1.278  1.00  0.00     0.007 A 
HETATM   17  C16 UNL     1      -6.049   1.400   0.092  1.00  0.00    -0.061 A 
HETATM   18  C17 UNL     1      -7.064   1.796   1.104  1.00  0.00     0.048 C 
HETATM   19  C18 UNL     1      -4.948   0.732   0.628  1.00  0.00     0.016 A 
ENDBRANCH  11  13
ENDBRANCH   9  11
ENDBRANCH   4   9
BRANCH   1  20
HETATM   20  C5  UNL     1       4.232   0.680  -1.043  1.00  0.00     0.016 C 
HETATM   21  C4  UNL     1       5.364   0.243  -0.594  1.00  0.00     0.037 C 
BRANCH  21  22
HETATM   22  C3  UNL     1       6.172  -0.572   0.273  1.00  0.00     0.061 C 
HETATM   23  C2  UNL     1       7.384  -0.924   0.627  1.00  0.00     0.005 C 
HETATM   24  C1  UNL     1       8.509  -0.287  -0.093  1.00  0.00     0.038 C 
BRANCH  22  25
HETATM   25  O1  UNL     1       5.087  -1.128   0.904  1.00  0.00    -0.361 OA
HETATM   26  H5  UNL     1       4.909  -1.034   1.889  1.00  0.00     0.217 HD
ENDBRANCH  22  25
ENDBRANCH  21  22
ENDBRANCH   1  20
TORSDOF 6
