REMARK  4 active torsions:
REMARK  status: ('A' for Active; 'I' for Inactive)
REMARK    1  A    between atoms: C2_3  and  C3_4 
REMARK    2  A    between atoms: C3_4  and  N1_5 
REMARK    3  A    between atoms: N1_5  and  C4_6 
REMARK    4  A    between atoms: C7_11  and  C8_12 
ROOT
HETATM    1  C4  UNL     1       0.180  -0.270   1.063  1.00  0.00     0.137 A 
HETATM    2  N2  UNL     1       1.071  -1.007   1.731  1.00  0.00    -0.224 NA
HETATM    3  C5  UNL     1       0.819  -2.223   2.185  1.00  0.00     0.234 A 
HETATM    4  N3  UNL     1      -0.406  -2.690   1.933  1.00  0.00    -0.253 NA
HETATM    5  C6  UNL     1      -1.331  -1.983   1.268  1.00  0.00     0.134 A 
HETATM    6  C7  UNL     1      -1.086  -0.689   0.779  1.00  0.00     0.033 A 
ENDROOT
BRANCH   1   7
HETATM    7  N1  UNL     1       0.546   0.993   0.536  1.00  0.00    -0.370 N 
HETATM    8  H3  UNL     1       0.132   1.721  -0.061  1.00  0.00     0.161 HD
BRANCH   7   9
HETATM    9  C3  UNL     1       1.878   1.463   0.832  1.00  0.00     0.159 C 
BRANCH   9  10
HETATM   10  C2  UNL     1       2.944   0.707   0.084  1.00  0.00    -0.020 A 
HETATM   11  C1  UNL     1       3.758   1.364  -0.755  1.00  0.00     0.120 A 
HETATM   12  F1  UNL     1       3.766   2.702  -1.054  1.00  0.00    -0.206 F 
HETATM   13  C16 UNL     1       4.744   0.553  -1.420  1.00  0.00     0.039 A 
HETATM   14  C15 UNL     1       4.539  -0.672  -0.976  1.00  0.00    -0.019 A 
HETATM   15  C14 UNL     1       3.396  -0.698   0.006  1.00  0.00     0.066 A 
ENDBRANCH   9  10
ENDBRANCH   7   9
ENDBRANCH   1   7
BRANCH   6  16
HETATM   16  C8  UNL     1      -2.255  -0.092   0.222  1.00  0.00    -0.043 C 
HETATM   17  C9  UNL     1      -2.571   1.165   0.029  1.00  0.00    -0.015 C 
HETATM   18  C10 UNL     1      -3.851   1.604  -0.580  1.00  0.00     0.054 C 
HETATM   19  C11 UNL     1      -3.906   0.884  -1.907  1.00  0.00    -0.027 C 
HETATM   20  C12 UNL     1      -3.659  -0.402  -1.701  1.00  0.00    -0.026 C 
HETATM   21  C13 UNL     1      -3.387  -0.899  -0.301  1.00  0.00     0.066 C 
ENDBRANCH   6  16
TORSDOF 4
