REMARK  7 active torsions:
REMARK  status: ('A' for Active; 'I' for Inactive)
REMARK    1  A    between atoms: C2_2  and  C4_4 
REMARK    2  A    between atoms: N1_9  and  C8_10 
REMARK    3  A    between atoms: C8_10  and  C9_11 
REMARK    4  A    between atoms: C9_11  and  C10_12 
REMARK    5  A    between atoms: C10_12  and  C11_13 
REMARK    6  A    between atoms: C11_13  and  C12_14 
REMARK    7  A    between atoms: C12_14  and  S1_15 
ROOT
HETATM    1  C4  UNL     1      -3.401   0.000  -1.474  1.00  0.00     0.135 C 
HETATM    2  C5  UNL     1      -2.993   1.048  -0.732  1.00  0.00     0.094 C 
HETATM    3  O1  UNL     1      -1.643   0.797  -1.125  1.00  0.00    -0.373 OA
HETATM    4  C6  UNL     1      -0.740   1.820  -1.430  1.00  0.00     0.189 C 
HETATM    5  C7  UNL     1       0.666   1.448  -1.374  1.00  0.00     0.145 C 
HETATM    6  N1  UNL     1       1.297   0.977  -0.206  1.00  0.00    -0.393 N 
HETATM    7  C15 UNL     1       0.731   0.118   0.705  1.00  0.00     0.271 C 
HETATM    8  N2  UNL     1      -0.523   0.550   1.324  1.00  0.00    -0.243 N 
HETATM    9  C16 UNL     1      -0.880  -0.088   2.438  1.00  0.00     0.252 A 
HETATM   10  N3  UNL     1      -1.807   0.881   2.102  1.00  0.00    -0.167 N 
HETATM   11  N4  UNL     1      -2.998   1.092   2.495  1.00  0.00    -0.178 NA
HETATM   12  C17 UNL     1      -3.695   2.269   1.879  1.00  0.00     0.190 C 
HETATM   13  C18 UNL     1      -5.144   1.987   1.647  1.00  0.00     0.048 C 
HETATM   14  S2  UNL     1      -2.748   2.490   0.336  1.00  0.00    -0.108 SA
ENDROOT
BRANCH   6  15
HETATM   15  C8  UNL     1       2.721   0.835  -0.440  1.00  0.00     0.122 C 
BRANCH  15  16
HETATM   16  C9  UNL     1       3.556   0.320   0.636  1.00  0.00     0.046 C 
BRANCH  16  17
HETATM   17  C10 UNL     1       3.376  -1.065   1.083  1.00  0.00    -0.025 C 
BRANCH  17  18
HETATM   18  C11 UNL     1       4.348  -1.961   1.028  1.00  0.00     0.003 C 
BRANCH  18  19
HETATM   19  C12 UNL     1       5.713  -1.919   0.580  1.00  0.00     0.042 C 
BRANCH  19  20
HETATM   20  S1  UNL     1       7.200  -2.647   0.342  1.00  0.00    -0.148 SA
HETATM   21  C13 UNL     1       8.784  -3.315   0.053  1.00  0.00     0.049 A 
HETATM   22  C14 UNL     1       8.813  -2.578   1.173  1.00  0.00     0.049 A 
ENDBRANCH  19  20
ENDBRANCH  18  19
ENDBRANCH  17  18
ENDBRANCH  16  17
ENDBRANCH  15  16
ENDBRANCH   6  15
BRANCH   1  23
HETATM   23  C2  UNL     1      -4.676  -0.600  -1.746  1.00  0.00    -0.028 C 
HETATM   24  C1  UNL     1      -3.886  -1.416  -2.484  1.00  0.00     0.011 C 
HETATM   25  C3  UNL     1      -6.147  -0.944  -1.796  1.00  0.00     0.016 C 
ENDBRANCH   1  23
TORSDOF 7
