REMARK  5 active torsions:
REMARK  status: ('A' for Active; 'I' for Inactive)
REMARK    1  A    between atoms: B1_2  and  C2_3 
REMARK    2  A    between atoms: C4_5  and  O1_6 
REMARK    3  A    between atoms: O1_6  and  C5_7 
REMARK    4  A    between atoms: C11_14  and  N1_15 
REMARK    5  A    between atoms: N1_15  and  C12_16 
ROOT
HETATM    1  C2  UNL     1      -0.321   3.576  -0.238  1.00  0.00    -0.098 A 
HETATM    2  C3  UNL     1       0.365   2.357  -0.172  1.00  0.00     0.032 A 
HETATM    3  C4  UNL     1      -0.164   1.135  -0.638  1.00  0.00     0.085 A 
HETATM    4  C10 UNL     1      -1.425   1.243  -1.167  1.00  0.00     0.072 A 
HETATM    5  C11 UNL     1      -1.935   0.064  -1.620  1.00  0.00     0.144 A 
HETATM    6  N2  UNL     1      -3.157  -0.002  -2.172  1.00  0.00    -0.223 NA
HETATM    7  C18 UNL     1      -3.884   1.141  -2.272  1.00  0.00     0.236 A 
HETATM    8  N3  UNL     1      -3.403   2.341  -1.826  1.00  0.00    -0.241 NA
HETATM    9  C19 UNL     1      -2.161   2.391  -1.269  1.00  0.00     0.074 A 
HETATM   10  C20 UNL     1      -1.578   3.542  -0.794  1.00  0.00     0.027 A 
ENDROOT
BRANCH   5  11
HETATM   11  N1  UNL     1      -1.286  -1.197  -1.557  1.00  0.00    -0.340 N 
HETATM   12  H15 UNL     1      -0.579  -1.562  -2.234  1.00  0.00     0.167 HD
BRANCH  11  13
HETATM   13  C12 UNL     1      -1.654  -2.033  -0.446  1.00  0.00     0.035 A 
HETATM   14  C13 UNL     1      -1.205  -3.354  -0.382  1.00  0.00     0.032 A 
HETATM   15  C14 UNL     1      -1.503  -4.206   0.628  1.00  0.00     0.046 A 
HETATM   16  C15 UNL     1      -2.282  -3.802   1.665  1.00  0.00     0.138 A 
HETATM   17  F1  UNL     1      -2.551  -4.687   2.652  1.00  0.00    -0.204 F 
HETATM   18  C16 UNL     1      -2.756  -2.483   1.641  1.00  0.00     0.074 A 
HETATM   19 CL1  UNL     1      -3.747  -1.993   2.985  1.00  0.00    -0.081 Cl
HETATM   20  C17 UNL     1      -2.435  -1.631   0.594  1.00  0.00     0.056 A 
ENDBRANCH  11  13
ENDBRANCH   5  11
BRANCH   3  21
HETATM   21  O1  UNL     1       0.667   0.194  -0.457  1.00  0.00    -0.345 OA
BRANCH  21  22
HETATM   22  C5  UNL     1       1.523  -0.777  -0.271  1.00  0.00     0.133 C 
HETATM   23  C6  UNL     1       2.899  -0.607  -0.920  1.00  0.00     0.058 C 
HETATM   24  C7  UNL     1       3.734  -1.786  -0.467  1.00  0.00     0.170 C 
HETATM   25  O2  UNL     1       4.011  -1.541   0.893  1.00  0.00    -0.391 OA
HETATM   26  C8  UNL     1       2.848  -1.898   1.565  1.00  0.00     0.170 C 
HETATM   27  C9  UNL     1       1.707  -0.996   1.239  1.00  0.00     0.058 C 
ENDBRANCH  21  22
ENDBRANCH   3  21
BRANCH   1  28
HETATM   28  B1  UNL     1       0.255   4.938   0.277  1.00  0.00     0.190 B 
HETATM   29  C1  UNL     1       1.584   4.970   1.147  1.00  0.00    -0.053 C 
HETATM   30  H4  UNL     1      -0.499   5.845   0.466  1.00  0.00    -0.021 HD
ENDBRANCH   1  28
TORSDOF 5
