REMARK  6 active torsions:
REMARK  status: ('A' for Active; 'I' for Inactive)
REMARK    1  A    between atoms: C2_2  and  C3_3 
REMARK    2  A    between atoms: N3_10  and  C7_11 
REMARK    3  A    between atoms: C7_11  and  B1_12 
REMARK    4  A    between atoms: B1_12  and  C8_13 
REMARK    5  A    between atoms: C8_13  and  C9_14 
REMARK    6  A    between atoms: C10_15  and  N4_16 
ROOT
HETATM    1  B1  UNL     1       0.293   0.253  -0.301  1.00  0.00     0.182 B 
HETATM    2  H13 UNL     1       0.387  -0.062   0.833  1.00  0.00    -0.025 HD
ENDROOT
BRANCH   1   3
HETATM    3  C7  UNL     1      -1.092   0.546  -1.003  1.00  0.00     0.066 C 
BRANCH   3   4
HETATM    4  N3  UNL     1      -2.171  -0.291  -0.499  1.00  0.00    -0.374 N 
HETATM    5  C3  UNL     1      -3.364   0.244   0.126  1.00  0.00     0.124 C 
HETATM    6  C4  UNL     1      -4.532  -0.359  -0.574  1.00  0.00     0.109 C 
HETATM    7  N1  UNL     1      -5.263  -1.400  -0.689  1.00  0.00    -0.292 NA
HETATM    8  C5  UNL     1      -5.306  -2.687  -0.099  1.00  0.00     0.247 C 
HETATM    9  S1  UNL     1      -3.757  -3.293   0.549  1.00  0.00    -0.006 SA
HETATM   10  N2  UNL     1      -2.347  -2.835  -0.396  1.00  0.00    -0.210 NA
HETATM   11  C6  UNL     1      -1.842  -1.669  -0.729  1.00  0.00     0.213 C 
BRANCH   5  12
HETATM   12  C2  UNL     1      -3.397   1.743   0.106  1.00  0.00     0.026 C 
HETATM   13  C1  UNL     1      -4.624   2.309   0.773  1.00  0.00     0.007 C 
ENDBRANCH   5  12
ENDBRANCH   3   4
ENDBRANCH   1   3
BRANCH   1  14
HETATM   14  C8  UNL     1       1.614   0.702  -1.057  1.00  0.00    -0.016 C 
BRANCH  14  15
HETATM   15  C9  UNL     1       2.795   0.098  -0.382  1.00  0.00    -0.062 A 
HETATM   16  C10 UNL     1       3.733   0.858   0.129  1.00  0.00     0.033 A 
HETATM   17  C11 UNL     1       4.854   0.187   0.770  1.00  0.00    -0.039 A 
HETATM   18  C12 UNL     1       5.990   0.914   1.392  1.00  0.00     0.050 C 
HETATM   19  C13 UNL     1       4.804  -1.118   0.767  1.00  0.00    -0.018 A 
HETATM   20  C14 UNL     1       3.814  -2.084   0.231  1.00  0.00     0.032 A 
HETATM   21  C15 UNL     1       2.672  -1.378  -0.420  1.00  0.00     0.039 A 
BRANCH  16  22
HETATM   22  N4  UNL     1       3.689   2.271   0.075  1.00  0.00    -0.399 N 
HETATM   23  H16 UNL     1       3.513   2.710   1.016  1.00  0.00     0.156 HD
HETATM   24  H17 UNL     1       3.764   3.113  -0.555  1.00  0.00     0.156 HD
ENDBRANCH  16  22
ENDBRANCH  14  15
ENDBRANCH   1  14
TORSDOF 6
