REMARK  8 active torsions:
REMARK  status: ('A' for Active; 'I' for Inactive)
REMARK    1  A    between atoms: C2_2  and  S1_23 
REMARK    2  A    between atoms: C3_3  and  C4_4 
REMARK    3  A    between atoms: C10_10  and  C11_11 
REMARK    4  A    between atoms: C11_11  and  C12_12 
REMARK    5  A    between atoms: C14_14  and  O1_15 
REMARK    6  A    between atoms: S1_23  and  C19_24 
REMARK    7  A    between atoms: C19_24  and  C20_25 
REMARK    8  A    between atoms: C20_25  and  N4_27 
ROOT
HETATM    1  C4  UNL     1       1.602  -0.501   0.900  1.00  0.00     0.028 C 
HETATM    2  C5  UNL     1       0.938  -0.669  -0.249  1.00  0.00     0.041 C 
HETATM    3  C6  UNL     1      -0.548  -0.564  -0.131  1.00  0.00     0.118 C 
HETATM    4  C7  UNL     1      -1.098  -0.384  -1.492  1.00  0.00     0.049 C 
HETATM    5  C8  UNL     1      -2.305  -0.069  -1.239  1.00  0.00     0.179 A 
HETATM    6  C9  UNL     1      -3.735   0.307  -1.034  1.00  0.00     0.317 A 
HETATM    7  C10 UNL     1      -4.311   0.460  -2.257  1.00  0.00     0.157 A 
HETATM    8  N1  UNL     1      -3.023   0.117  -2.497  1.00  0.00     0.004 N 
HETATM    9  N2  UNL     1      -0.238  -0.613  -2.585  1.00  0.00    -0.352 N 
HETATM   10  C18 UNL     1       1.146  -0.867  -2.573  1.00  0.00     0.207 C 
HETATM   11  N3  UNL     1       1.710  -0.893  -1.415  1.00  0.00    -0.248 NA
HETATM   12  H14 UNL     1      -3.015   0.108  -3.597  1.00  0.00     0.294 HD
HETATM   13  H15 UNL     1      -0.736  -0.587  -3.494  1.00  0.00     0.166 HD
ENDROOT
BRANCH   1  14
HETATM   14  C3  UNL     1       3.075  -0.585   0.914  1.00  0.00     0.017 C 
HETATM   15  C2  UNL     1       3.778  -0.413   2.035  1.00  0.00    -0.014 C 
HETATM   16  C1  UNL     1       3.079  -0.126   3.307  1.00  0.00     0.057 C 
BRANCH  15  17
HETATM   17  S1  UNL     1       5.280  -0.597   1.813  1.00  0.00    -0.055 SA
BRANCH  17  18
HETATM   18  C19 UNL     1       6.541  -0.730   1.633  1.00  0.00    -0.072 C 
BRANCH  18  19
HETATM   19  C20 UNL     1       7.945  -0.877   1.445  1.00  0.00     0.291 C 
HETATM   20  C21 UNL     1       8.382  -0.133   0.194  1.00  0.00     0.056 C 
BRANCH  19  21
HETATM   21  N4  UNL     1       8.663  -0.377   2.611  1.00  0.00     0.093 N 
HETATM   22  H21 UNL     1       9.031   0.578   2.332  1.00  0.00     0.314 HD
HETATM   23  H22 UNL     1       7.943  -0.163   3.337  1.00  0.00     0.314 HD
ENDBRANCH  19  21
ENDBRANCH  18  19
ENDBRANCH  17  18
ENDBRANCH  15  17
ENDBRANCH   1  14
BRANCH   7  24
HETATM   24  C11 UNL     1      -5.718   0.818  -2.326  1.00  0.00     0.040 C 
BRANCH  24  25
HETATM   25  C12 UNL     1      -6.193   0.919  -1.231  1.00  0.00    -0.059 A 
HETATM   26  C13 UNL     1      -6.946   1.084   0.224  1.00  0.00     0.102 A 
HETATM   27  C14 UNL     1      -8.353   1.409   0.939  1.00  0.00     0.132 A 
HETATM   28  C16 UNL     1      -8.053   1.353  -1.068  1.00  0.00    -0.055 A 
HETATM   29  C15 UNL     1      -8.198   1.381  -0.175  1.00  0.00    -0.023 A 
HETATM   30  C17 UNL     1      -7.822   1.308  -2.302  1.00  0.00     0.071 A 
BRANCH  27  31
HETATM   31  O1  UNL     1      -7.564   1.215   2.084  1.00  0.00    -0.380 OA
HETATM   32  H11 UNL     1      -8.012   1.237   2.972  1.00  0.00     0.211 HD
ENDBRANCH  27  31
ENDBRANCH  24  25
ENDBRANCH   7  24
TORSDOF 8
