REMARK  3 active torsions:
REMARK  status: ('A' for Active; 'I' for Inactive)
REMARK    1  A    between atoms: O1_1  and  C1_2 
REMARK    2  A    between atoms: C8_9  and  C9_10 
REMARK    3  A    between atoms: C9_10  and  C10_11 
ROOT
HETATM    1  C1  UNL     1      -5.417   0.055  -0.046  1.00  0.00     0.061 A 
HETATM    2  C2  UNL     1      -5.316  -0.528  -1.223  1.00  0.00     0.036 A 
HETATM    3  C3  UNL     1      -3.976  -0.632  -1.758  1.00  0.00     0.032 A 
HETATM    4  C4  UNL     1      -2.884  -0.195  -1.162  1.00  0.00     0.032 A 
HETATM    5  C5  UNL     1      -1.445  -0.112  -1.353  1.00  0.00     0.036 A 
HETATM    6  C6  UNL     1      -0.814   0.480  -0.303  1.00  0.00    -0.037 A 
HETATM    7  C7  UNL     1       0.687   0.573  -0.512  1.00  0.00     0.043 C 
HETATM    8  C8  UNL     1       1.398  -0.614  -0.063  1.00  0.00    -0.002 C 
HETATM    9  C15 UNL     1       0.676  -1.943  -0.233  1.00  0.00     0.051 C 
HETATM   10  C16 UNL     1      -0.591  -2.012   0.554  1.00  0.00     0.086 C 
HETATM   11  N1  UNL     1      -0.311  -1.153   1.434  1.00  0.00    -0.274 NA
HETATM   12  C17 UNL     1      -1.128  -0.771   2.473  1.00  0.00     0.438 C 
HETATM   13  N2  UNL     1      -1.754   0.191   1.978  1.00  0.00    -0.398 NA
HETATM   14  C18 UNL     1      -1.783   0.863   0.737  1.00  0.00     0.202 A 
HETATM   15  N3  UNL     1      -3.056   0.414   0.108  1.00  0.00    -0.351 N 
HETATM   16  C19 UNL     1      -4.338   0.618   0.797  1.00  0.00     0.189 A 
ENDROOT
BRANCH   8  17
HETATM   17  C9  UNL     1       2.784  -0.750  -0.593  1.00  0.00     0.040 C 
BRANCH  17  18
HETATM   18  C10 UNL     1       3.775   0.293  -0.310  1.00  0.00    -0.070 A 
HETATM   19  C11 UNL     1       4.764  -0.210   0.441  1.00  0.00     0.004 A 
HETATM   20  C12 UNL     1       5.959   0.418   0.973  1.00  0.00     0.007 A 
HETATM   21  C13 UNL     1       6.177   1.690   0.718  1.00  0.00     0.045 A 
HETATM   22  S1  UNL     1       5.099   2.714  -0.246  1.00  0.00    -0.137 SA
HETATM   23  C14 UNL     1       3.742   1.673  -0.843  1.00  0.00     0.112 A 
ENDBRANCH  17  18
ENDBRANCH   8  17
BRANCH   1  24
HETATM   24  O1  UNL     1      -6.648   0.212   0.567  1.00  0.00    -0.363 OA
HETATM   25  H1  UNL     1      -7.110   1.092   0.649  1.00  0.00     0.217 HD
ENDBRANCH   1  24
TORSDOF 3
