REMARK  4 active torsions:
REMARK  status: ('A' for Active; 'I' for Inactive)
REMARK    1  A    between atoms: C2_2  and  O1_3 
REMARK    2  A    between atoms: C9_10  and  N1_11 
REMARK    3  A    between atoms: C11_13  and  C12_14 
REMARK    4  A    between atoms: C12_14  and  C13_15 
ROOT
HETATM    1  C1  UNL     1       4.806  -1.370  -1.284  1.00  0.00     0.076 C 
HETATM    2  C2  UNL     1       3.471  -0.785  -1.140  1.00  0.00     0.048 C 
HETATM    3  C3  UNL     1       3.291   0.310  -0.405  1.00  0.00    -0.000 C 
HETATM    4  C4  UNL     1       4.351   1.019   0.307  1.00  0.00     0.013 C 
HETATM    5  C5  UNL     1       3.802   1.806   1.237  1.00  0.00     0.010 C 
HETATM    6  C6  UNL     1       2.340   1.639   1.169  1.00  0.00    -0.032 C 
HETATM    7  C7  UNL     1       1.278   1.873   1.931  1.00  0.00    -0.010 C 
HETATM    8  C8  UNL     1      -0.115   1.554   1.499  1.00  0.00     0.105 C 
HETATM    9  C9  UNL     1      -0.143   0.340   0.676  1.00  0.00     0.103 C 
HETATM   10  N3  UNL     1       0.880   0.143  -0.081  1.00  0.00    -0.262 NA
HETATM   11  C17 UNL     1       2.011   1.029  -0.154  1.00  0.00     0.178 C 
ENDROOT
BRANCH   9  12
HETATM   12  N1  UNL     1      -1.253  -0.550   0.734  1.00  0.00    -0.339 N 
HETATM   13  C10 UNL     1      -2.581   0.006   1.034  1.00  0.00     0.163 C 
HETATM   14  C11 UNL     1      -3.525  -0.314  -0.073  1.00  0.00    -0.035 C 
HETATM   15  C14 UNL     1      -3.209  -1.376  -0.794  1.00  0.00     0.142 C 
HETATM   16  O2  UNL     1      -2.108  -2.204  -0.625  1.00  0.00    -0.338 OA
HETATM   17  C15 UNL     1      -1.314  -1.978   0.541  1.00  0.00     0.225 C 
HETATM   18  C16 UNL     1       0.039  -2.631   0.418  1.00  0.00     0.063 C 
BRANCH  14  19
HETATM   19  C12 UNL     1      -4.735   0.500  -0.350  1.00  0.00     0.083 C 
BRANCH  19  20
HETATM   20  C13 UNL     1      -4.241   1.882  -0.646  1.00  0.00     0.084 C 
HETATM   21  N2  UNL     1      -4.844   2.503  -1.616  1.00  0.00    -0.316 NA
HETATM   22  H15 UNL     1      -5.611   1.975  -2.088  1.00  0.00     0.185 HD
ENDBRANCH  19  20
ENDBRANCH  14  19
ENDBRANCH   9  12
BRANCH   2  23
HETATM   23  O1  UNL     1       2.354  -1.359  -1.767  1.00  0.00    -0.365 OA
HETATM   24  H4  UNL     1       2.309  -2.331  -2.043  1.00  0.00     0.217 HD
ENDBRANCH   2  23
TORSDOF 4
