REMARK  6 active torsions:
REMARK  status: ('A' for Active; 'I' for Inactive)
REMARK    1  A    between atoms: C2_2  and  C3_3 
REMARK    2  A    between atoms: N1_5  and  C6_8 
REMARK    3  A    between atoms: N2_7  and  C6_8 
REMARK    4  A    between atoms: C8_11  and  C9_12 
REMARK    5  A    between atoms: C8_11  and  C15_19 
REMARK    6  A    between atoms: C12_15  and  O1_16 
ROOT
HETATM    1  C3  UNL     1       1.791   0.169   1.230  1.00  0.00     0.172 A 
HETATM    2  C4  UNL     1       1.794   1.300   0.447  1.00  0.00     0.463 A 
HETATM    3  N1  UNL     1       2.076   2.532  -0.180  1.00  0.00     0.251 N 
HETATM    4  C5  UNL     1       3.201   3.213   0.266  1.00  0.00     0.543 A 
HETATM    5  N2  UNL     1       2.060   2.573  -0.221  1.00  0.00     0.251 N 
HETATM    6  C6  UNL     1       1.695   1.322   0.349  1.00  0.00     0.464 A 
HETATM    7  N3  UNL     1       1.020   0.699  -1.048  1.00  0.00    -0.323 N 
HETATM    8  C7  UNL     1       1.582   0.563  -2.380  1.00  0.00     0.151 C 
HETATM    9  C8  UNL     1      -0.313   0.414  -0.344  1.00  0.00     0.162 C 
HETATM   10  N4  UNL     1       0.097   1.548   0.611  1.00  0.00    -0.328 N 
HETATM   11  H17 UNL     1      -0.552   2.237   1.121  1.00  0.00     0.160 HD
ENDROOT
BRANCH   9  12
HETATM   12  C9  UNL     1      -0.347  -0.861   0.270  1.00  0.00    -0.005 A 
HETATM   13  C10 UNL     1      -0.870  -1.026   1.527  1.00  0.00     0.014 A 
HETATM   14  C11 UNL     1      -0.934  -2.226   2.162  1.00  0.00     0.037 A 
HETATM   15  C12 UNL     1      -0.445  -3.355   1.508  1.00  0.00     0.065 A 
HETATM   16  C13 UNL     1       0.086  -3.214   0.241  1.00  0.00     0.037 A 
HETATM   17  C14 UNL     1       0.143  -1.989  -0.387  1.00  0.00     0.014 A 
BRANCH  15  18
HETATM   18  O1  UNL     1      -0.444  -4.644   2.027  1.00  0.00    -0.361 OA
HETATM   19  H10 UNL     1      -1.209  -5.252   1.722  1.00  0.00     0.217 HD
ENDBRANCH  15  18
ENDBRANCH   9  12
BRANCH   9  20
HETATM   20  C15 UNL     1      -1.436   0.910  -1.114  1.00  0.00    -0.002 A 
HETATM   21  C16 UNL     1      -2.659   0.609  -0.544  1.00  0.00     0.012 A 
HETATM   22  C17 UNL     1      -3.831   1.049  -1.188  1.00  0.00     0.004 A 
HETATM   23  C18 UNL     1      -3.823   1.769  -2.364  1.00  0.00     0.042 A 
HETATM   24  C19 UNL     1      -2.596   2.059  -2.915  1.00  0.00     0.117 A 
HETATM   25  F1  UNL     1      -2.557   2.759  -4.062  1.00  0.00    -0.206 F 
HETATM   26  C20 UNL     1      -1.458   1.628  -2.284  1.00  0.00     0.054 A 
ENDBRANCH   9  20
BRANCH   1  27
HETATM   27  C2  UNL     1       2.844  -0.203   2.213  1.00  0.00    -0.013 C 
HETATM   28  C1  UNL     1       2.311  -1.309   2.583  1.00  0.00     0.008 C 
ENDBRANCH   1  27
TORSDOF 6
