REMARK  2 active torsions:
REMARK  status: ('A' for Active; 'I' for Inactive)
REMARK    1  A    between atoms: C6_6  and  C7_7 
REMARK    2  A    between atoms: C11_11  and  O1_12 
ROOT
HETATM    1  C7  UNL     1       0.040   0.140   0.890  1.00  0.00     0.136 C 
HETATM    2  C8  UNL     1       0.204  -1.300   0.601  1.00  0.00     0.058 C 
HETATM    3  C9  UNL     1       0.222  -2.168   1.795  1.00  0.00    -0.022 C 
HETATM    4  C10 UNL     1      -0.782  -2.969   2.126  1.00  0.00     0.032 C 
HETATM    5  C11 UNL     1      -2.111  -3.419   1.769  1.00  0.00     0.062 C 
HETATM    6  C12 UNL     1      -2.914  -3.014   0.737  1.00  0.00     0.019 C 
HETATM    7  C13 UNL     1      -3.343  -2.242  -0.483  1.00  0.00     0.047 C 
HETATM    8  C14 UNL     1      -2.982  -1.330  -1.344  1.00  0.00     0.014 C 
HETATM    9  C15 UNL     1      -2.044  -0.343  -1.913  1.00  0.00     0.056 A 
HETATM   10  C16 UNL     1      -2.170  -0.292  -3.278  1.00  0.00     0.049 A 
HETATM   11  C17 UNL     1      -1.247   0.611  -3.720  1.00  0.00     0.043 A 
HETATM   12  C18 UNL     1      -0.600   1.070  -2.603  1.00  0.00     0.161 A 
HETATM   13  N1  UNL     1      -1.105   0.467  -1.474  1.00  0.00    -0.241 N 
HETATM   14  N2  UNL     1      -0.482   0.864  -0.267  1.00  0.00    -0.318 N 
HETATM   15  N3  UNL     1       0.345   1.999  -3.132  1.00  0.00    -0.238 NA
HETATM   16  C19 UNL     1       0.327   2.133  -4.385  1.00  0.00     0.151 A 
HETATM   17  C20 UNL     1      -0.699   1.258  -4.923  1.00  0.00     0.079 A 
HETATM   18  N4  UNL     1      -1.032   1.103  -6.158  1.00  0.00    -0.298 NA
HETATM   19  H17 UNL     1      -0.328   1.892  -0.036  1.00  0.00     0.181 HD
HETATM   20  H19 UNL     1      -0.574   1.617  -6.942  1.00  0.00     0.187 HD
ENDROOT
BRANCH   1  21
HETATM   21  C6  UNL     1       1.056   0.832   1.659  1.00  0.00    -0.033 A 
HETATM   22  C5  UNL     1       1.069   0.888   3.048  1.00  0.00     0.009 A 
HETATM   23  C4  UNL     1       2.078   1.575   3.688  1.00  0.00     0.001 A 
HETATM   24  C3  UNL     1       3.074   2.204   2.960  1.00  0.00     0.007 A 
HETATM   25  C2  UNL     1       3.106   2.178   1.595  1.00  0.00    -0.061 A 
HETATM   26  C1  UNL     1       4.184   2.862   0.864  1.00  0.00     0.048 C 
HETATM   27  C21 UNL     1       2.088   1.488   1.005  1.00  0.00     0.016 A 
ENDBRANCH   1  21
BRANCH   5  28
HETATM   28  O1  UNL     1      -2.766  -4.394   2.500  1.00  0.00    -0.361 OA
HETATM   29  H12 UNL     1      -2.637  -5.374   2.254  1.00  0.00     0.217 HD
ENDBRANCH   5  28
TORSDOF 2
