REMARK  2 active torsions:
REMARK  status: ('A' for Active; 'I' for Inactive)
REMARK    1  A    between atoms: C2_2  and  C3_3 
REMARK    2  A    between atoms: C2_2  and  N1_7 
ROOT
HETATM    1  N1  UNL     1       1.756  -0.059   0.526  1.00  0.00    -0.334 N 
HETATM    2  C7  UNL     1       2.682  -1.173   0.499  1.00  0.00     0.204 A 
HETATM    3  N2  UNL     1       2.315  -2.410   0.387  1.00  0.00    -0.280 NA
HETATM    4  C8  UNL     1       0.923  -2.796   0.277  1.00  0.00     0.188 A 
HETATM    5  C9  UNL     1       0.022  -1.612   0.311  1.00  0.00    -0.018 A 
HETATM    6  C10 UNL     1       0.346  -0.353   0.422  1.00  0.00     0.043 A 
HETATM    7  C11 UNL     1      -0.129   1.019   0.497  1.00  0.00     0.232 C 
HETATM    8  O1  UNL     1      -1.527   1.185   0.452  1.00  0.00    -0.347 OA
HETATM    9  C12 UNL     1      -2.716   0.606   0.154  1.00  0.00     0.072 C 
HETATM   10  C13 UNL     1      -3.088  -0.647  -0.005  1.00  0.00     0.038 C 
HETATM   11  C14 UNL     1      -4.512  -0.910  -0.335  1.00  0.00     0.086 C 
HETATM   12  C15 UNL     1      -4.892   0.049  -1.416  1.00  0.00    -0.024 C 
HETATM   13  C16 UNL     1      -4.517   1.309  -1.249  1.00  0.00    -0.024 C 
HETATM   14  C17 UNL     1      -3.762   1.642  -0.011  1.00  0.00     0.093 C 
HETATM   15  N3  UNL     1      -2.415  -1.875   0.067  1.00  0.00    -0.387 N 
HETATM   16  C18 UNL     1      -1.144  -2.494   0.175  1.00  0.00     0.157 C 
HETATM   17  H19 UNL     1      -3.084  -2.682   0.027  1.00  0.00     0.159 HD
ENDROOT
BRANCH   1  18
HETATM   18  C2  UNL     1       2.505   1.150   0.653  1.00  0.00     0.119 C 
HETATM   19  C1  UNL     1       3.387   1.158   1.891  1.00  0.00     0.038 C 
BRANCH  18  20
HETATM   20  C3  UNL     1       3.407   1.411  -0.526  1.00  0.00    -0.035 A 
HETATM   21  C4  UNL     1       3.518   2.326  -1.507  1.00  0.00     0.009 A 
HETATM   22  C5  UNL     1       4.666   1.692  -2.092  1.00  0.00     0.001 A 
HETATM   23  C6  UNL     1       4.573   0.784  -1.136  1.00  0.00     0.009 A 
ENDBRANCH  18  20
ENDBRANCH   1  18
TORSDOF 2
