REMARK  5 active torsions:
REMARK  status: ('A' for Active; 'I' for Inactive)
REMARK    1  A    between atoms: O1_1  and  C1_2 
REMARK    2  A    between atoms: C4_5  and  N1_6 
REMARK    3  A    between atoms: C7_11  and  N4_12 
REMARK    4  A    between atoms: N4_12  and  C8_13 
REMARK    5  A    between atoms: C8_13  and  C9_14 
ROOT
HETATM    1  N1  UNL     1      -2.492  -0.984   0.537  1.00  0.00    -0.338 N 
HETATM    2  C5  UNL     1      -2.366  -1.132   1.963  1.00  0.00     0.211 C 
HETATM    3  N2  UNL     1      -1.408  -1.439   2.808  1.00  0.00    -0.237 NA
HETATM    4  C6  UNL     1      -0.012  -1.768   2.615  1.00  0.00     0.236 C 
HETATM    5  N3  UNL     1       0.772  -1.503   1.598  1.00  0.00    -0.225 NA
HETATM    6  C7  UNL     1       0.654  -0.839   0.327  1.00  0.00     0.122 C 
HETATM    7  C15 UNL     1      -0.336  -0.833  -0.575  1.00  0.00     0.043 C 
HETATM    8  C16 UNL     1      -1.637  -1.563  -0.469  1.00  0.00     0.161 C 
ENDROOT
BRANCH   6   9
HETATM    9  N4  UNL     1       1.764  -0.025  -0.110  1.00  0.00    -0.371 N 
HETATM   10  H6  UNL     1       1.516   0.886  -0.525  1.00  0.00     0.161 HD
BRANCH   9  11
HETATM   11  C8  UNL     1       2.969  -0.756   0.175  1.00  0.00     0.160 C 
BRANCH  11  12
HETATM   12  C9  UNL     1       4.208  -0.014  -0.234  1.00  0.00    -0.041 A 
HETATM   13  C10 UNL     1       4.803   0.834   0.701  1.00  0.00     0.009 A 
HETATM   14  C11 UNL     1       5.958   1.537   0.346  1.00  0.00     0.001 A 
HETATM   15  C12 UNL     1       6.528   1.417  -0.907  1.00  0.00     0.000 A 
HETATM   16  C13 UNL     1       5.916   0.574  -1.804  1.00  0.00     0.001 A 
HETATM   17  C14 UNL     1       4.774  -0.138  -1.491  1.00  0.00     0.009 A 
ENDBRANCH  11  12
ENDBRANCH   9  11
ENDBRANCH   6   9
BRANCH   1  18
HETATM   18  C4  UNL     1      -3.577  -0.194   0.087  1.00  0.00     0.035 A 
HETATM   19  C3  UNL     1      -3.425   0.358  -1.166  1.00  0.00     0.032 A 
HETATM   20  C2  UNL     1      -4.422   1.150  -1.744  1.00  0.00     0.039 A 
HETATM   21  C1  UNL     1      -5.617   1.409  -1.062  1.00  0.00     0.065 A 
HETATM   22  C18 UNL     1      -5.779   0.861   0.193  1.00  0.00     0.039 A 
HETATM   23  C17 UNL     1      -4.759   0.091   0.703  1.00  0.00     0.032 A 
BRANCH  21  24
HETATM   24  O1  UNL     1      -6.641   2.187  -1.584  1.00  0.00    -0.361 OA
HETATM   25  H1  UNL     1      -7.084   2.914  -1.026  1.00  0.00     0.217 HD
ENDBRANCH  21  24
ENDBRANCH   1  18
TORSDOF 5
