REMARK  5 active torsions:
REMARK  status: ('A' for Active; 'I' for Inactive)
REMARK    1  A    between atoms: N1_8  and  N2_9 
REMARK    2  A    between atoms: N2_9  and  C7_10 
REMARK    3  A    between atoms: N3_11  and  C8_12 
REMARK    4  A    between atoms: C8_12  and  C9_13 
REMARK    5  A    between atoms: C9_13  and  C10_14 
ROOT
HETATM    1  N2  UNL     1      -1.483   0.436  -0.822  1.00  0.00    -0.296 N 
HETATM    2  H9  UNL     1      -2.061   0.889  -1.593  1.00  0.00     0.187 HD
ENDROOT
BRANCH   1   3
HETATM    3  N1  UNL     1      -2.372  -0.199  -0.007  1.00  0.00    -0.316 N 
HETATM    4  C6  UNL     1      -3.589   0.476   0.276  1.00  0.00     0.137 C 
HETATM    5  C3  UNL     1      -4.591  -0.633   0.561  1.00  0.00     0.168 C 
HETATM    6  C5  UNL     1      -4.259   1.111  -0.909  1.00  0.00     0.056 C 
HETATM    7  C2  UNL     1      -4.229  -1.117   1.912  1.00  0.00     0.004 C 
HETATM    8  O1  UNL     1      -5.779   0.028   0.491  1.00  0.00    -0.380 OA
HETATM    9  C1  UNL     1      -2.920  -1.178   2.109  1.00  0.00    -0.007 C 
HETATM   10  C16 UNL     1      -1.864  -0.825   1.153  1.00  0.00     0.170 C 
HETATM   11  C4  UNL     1      -5.711   1.010  -0.479  1.00  0.00     0.170 C 
ENDBRANCH   1   3
BRANCH   1  12
HETATM   12  C7  UNL     1      -0.060   0.529  -0.741  1.00  0.00     0.216 C 
HETATM   13  N3  UNL     1       0.453  -0.406  -0.051  1.00  0.00    -0.283 NA
BRANCH  13  14
HETATM   14  C8  UNL     1       1.872  -0.556   0.195  1.00  0.00     0.154 C 
BRANCH  14  15
HETATM   15  C9  UNL     1       2.706   0.268  -0.759  1.00  0.00     0.060 C 
BRANCH  15  16
HETATM   16  C10 UNL     1       4.157   0.106  -0.496  1.00  0.00    -0.057 A 
HETATM   17  C11 UNL     1       4.818   0.937   0.384  1.00  0.00     0.007 A 
HETATM   18  C12 UNL     1       6.186   0.784   0.631  1.00  0.00     0.001 A 
HETATM   19  C13 UNL     1       6.800  -0.243  -0.063  1.00  0.00     0.000 A 
HETATM   20  C14 UNL     1       6.165  -1.084  -0.945  1.00  0.00     0.001 A 
HETATM   21  C15 UNL     1       4.802  -0.902  -1.167  1.00  0.00     0.007 A 
ENDBRANCH  15  16
ENDBRANCH  14  15
ENDBRANCH  13  14
ENDBRANCH   1  12
TORSDOF 5
