REMARK  3 active torsions:
REMARK  status: ('A' for Active; 'I' for Inactive)
REMARK    1  A    between atoms: C6_6  and  N1_7 
REMARK    2  A    between atoms: C9_13  and  C10_14 
REMARK    3  A    between atoms: C10_14  and  C11_15 
ROOT
HETATM    1  C1  UNL     1      -3.150  -2.987  -0.231  1.00  0.00     0.015 C 
HETATM    2  C2  UNL     1      -2.413  -1.729   0.059  1.00  0.00    -0.028 C 
HETATM    3  C3  UNL     1      -3.225  -1.000  -0.781  1.00  0.00     0.062 C 
HETATM    4  C4  UNL     1      -3.333   0.429  -1.206  1.00  0.00    -0.018 C 
HETATM    5  C5  UNL     1      -3.071   1.759  -1.289  1.00  0.00     0.063 C 
HETATM    6  C6  UNL     1      -1.988   2.477  -0.513  1.00  0.00     0.432 A 
HETATM    7  N2  UNL     1      -2.217   2.128   0.919  1.00  0.00     0.203 N 
HETATM    8  C7  UNL     1      -1.334   0.999   1.163  1.00  0.00     0.468 A 
HETATM    9  N3  UNL     1      -1.606   2.004   0.264  1.00  0.00     0.248 N 
HETATM   10  C8  UNL     1      -0.688   1.757  -0.644  1.00  0.00     0.332 A 
HETATM   11  N4  UNL     1       0.392   1.108  -1.260  1.00  0.00    -0.225 NA
HETATM   12  C9  UNL     1       0.711   0.025  -0.348  1.00  0.00     0.052 A 
HETATM   13  C17 UNL     1      -0.294   0.336   0.599  1.00  0.00     0.042 A 
HETATM   14  C18 UNL     1      -0.206  -1.010   1.257  1.00  0.00     0.010 C 
HETATM   15  C19 UNL     1      -1.210  -1.858   0.937  1.00  0.00    -0.021 C 
HETATM   16  H9  UNL     1      -2.707   2.269   1.902  1.00  0.00     0.326 HD
ENDROOT
BRANCH  12  17
HETATM   17  C10 UNL     1       1.751  -0.968  -0.446  1.00  0.00     0.098 C 
BRANCH  17  18
HETATM   18  C11 UNL     1       2.984  -0.714   0.328  1.00  0.00    -0.052 A 
HETATM   19  C12 UNL     1       3.440  -1.225   1.517  1.00  0.00     0.007 A 
HETATM   20  C13 UNL     1       4.617  -0.889   2.139  1.00  0.00     0.001 A 
HETATM   21  C14 UNL     1       5.402   0.045   1.506  1.00  0.00     0.000 A 
HETATM   22  C15 UNL     1       5.068   0.648   0.296  1.00  0.00     0.001 A 
HETATM   23  C16 UNL     1       3.863   0.228  -0.229  1.00  0.00     0.007 A 
ENDBRANCH  17  18
ENDBRANCH  12  17
BRANCH   6  24
HETATM   24  N1  UNL     1      -1.926   3.842  -0.804  1.00  0.00    -0.269 NA
HETATM   25  H7  UNL     1      -2.461   4.122  -1.658  1.00  0.00     0.123 HD
HETATM   26  H8  UNL     1      -2.254   4.378   0.049  1.00  0.00     0.123 HD
ENDBRANCH   6  24
TORSDOF 3
