REMARK  6 active torsions:
REMARK  status: ('A' for Active; 'I' for Inactive)
REMARK    1  A    between atoms: N1_2  and  C2_3 
REMARK    2  A    between atoms: C3_4  and  C4_5 
REMARK    3  A    between atoms: C7_8  and  O1_9 
REMARK    4  A    between atoms: C12_17  and  C13_18 
REMARK    5  A    between atoms: C13_18  and  C14_19 
REMARK    6  A    between atoms: C14_19  and  C15_20 
ROOT
HETATM    1  C2  UNL     1      -1.647  -0.125   0.327  1.00  0.00     0.037 C 
HETATM    2  C3  UNL     1      -2.723  -0.492  -0.353  1.00  0.00     0.062 C 
HETATM    3  N2  UNL     1      -2.981  -0.860  -1.740  1.00  0.00    -0.370 N 
HETATM    4  C10 UNL     1      -1.939  -1.677  -2.389  1.00  0.00     0.272 C 
HETATM    5  N3  UNL     1      -0.756  -0.908  -2.174  1.00  0.00    -0.263 NA
HETATM    6  C11 UNL     1      -0.579   0.197  -2.853  1.00  0.00     0.228 C 
HETATM    7  N4  UNL     1       0.595   0.155  -2.038  1.00  0.00    -0.251 NA
HETATM    8  C12 UNL     1       0.578   0.155  -0.733  1.00  0.00     0.019 C 
HETATM    9  C22 UNL     1      -0.249   0.189   0.526  1.00  0.00     0.113 C 
HETATM   10  H10 UNL     1      -3.824  -0.595  -2.304  1.00  0.00     0.161 HD
ENDROOT
BRANCH   8  11
HETATM   11  C13 UNL     1       2.026   0.111  -0.364  1.00  0.00     0.059 C 
BRANCH  11  12
HETATM   12  C14 UNL     1       2.974   0.022  -1.503  1.00  0.00     0.044 C 
BRANCH  12  13
HETATM   13  C15 UNL     1       4.370  -0.013  -0.942  1.00  0.00    -0.057 A 
HETATM   14  C16 UNL     1       5.076  -1.137  -0.586  1.00  0.00     0.007 A 
HETATM   15  C17 UNL     1       6.344  -0.935  -0.092  1.00  0.00     0.001 A 
HETATM   16  C18 UNL     1       6.953   0.310   0.071  1.00  0.00     0.007 A 
HETATM   17  C19 UNL     1       6.211   1.417  -0.300  1.00  0.00    -0.061 A 
HETATM   18  C20 UNL     1       6.840   2.742  -0.131  1.00  0.00     0.048 C 
HETATM   19  C21 UNL     1       4.942   1.240  -0.796  1.00  0.00     0.013 A 
ENDBRANCH  12  13
ENDBRANCH  11  12
ENDBRANCH   8  11
BRANCH   1  20
HETATM   20  N1  UNL     1      -2.079   0.113   1.707  1.00  0.00    -0.395 N 
HETATM   21  C1  UNL     1      -1.680   1.095   2.714  1.00  0.00     0.146 C 
HETATM   22  H4  UNL     1      -2.805  -0.530   2.167  1.00  0.00     0.159 HD
ENDBRANCH   1  20
BRANCH   2  23
HETATM   23  C4  UNL     1      -4.062  -0.609   0.195  1.00  0.00    -0.008 A 
HETATM   24  C5  UNL     1      -4.941  -1.629  -0.000  1.00  0.00     0.016 A 
HETATM   25  C6  UNL     1      -6.215  -1.893   0.427  1.00  0.00     0.037 A 
HETATM   26  C7  UNL     1      -6.716  -0.871   1.256  1.00  0.00     0.065 A 
HETATM   27  C8  UNL     1      -5.944   0.235   1.550  1.00  0.00     0.037 A 
HETATM   28  C9  UNL     1      -4.673   0.358   1.040  1.00  0.00     0.016 A 
BRANCH  26  29
HETATM   29  O1  UNL     1      -8.006  -1.089   1.719  1.00  0.00    -0.361 OA
HETATM   30  H7  UNL     1      -8.454  -0.478   2.402  1.00  0.00     0.217 HD
ENDBRANCH  26  29
ENDBRANCH   2  23
TORSDOF 6
