REMARK  5 active torsions:
REMARK  status: ('A' for Active; 'I' for Inactive)
REMARK    1  A    between atoms: C3_3  and  C4_4 
REMARK    2  A    between atoms: C4_4  and  C5_5 
REMARK    3  A    between atoms: C5_5  and  N1_6 
REMARK    4  A    between atoms: C8_10  and  C9_11 
REMARK    5  A    between atoms: C9_11  and  C10_12 
ROOT
HETATM    1  C5  UNL     1       2.072  -0.129   0.491  1.00  0.00     0.417 A 
HETATM    2  N2  UNL     1       1.756  -0.623  -0.885  1.00  0.00     0.205 N 
HETATM    3  C6  UNL     1       0.401  -1.038  -0.749  1.00  0.00     0.383 A 
HETATM    4  C7  UNL     1      -0.921  -1.451  -0.646  1.00  0.00     0.097 A 
HETATM    5  C8  UNL     1      -1.459  -1.273   0.622  1.00  0.00     0.040 A 
HETATM    6  N3  UNL     1      -0.576  -0.730   1.499  1.00  0.00    -0.242 NA
HETATM    7  C16 UNL     1       0.713  -0.396   1.156  1.00  0.00     0.402 A 
HETATM    8  N4  UNL     1       1.328  -0.497   0.066  1.00  0.00     0.243 N 
HETATM    9  H10 UNL     1       1.848  -0.906  -1.998  1.00  0.00     0.331 HD
ENDROOT
BRANCH   1  10
HETATM   10  C4  UNL     1       2.422   1.330   0.511  1.00  0.00     0.120 C 
BRANCH  10  11
HETATM   11  C3  UNL     1       3.698   1.472  -0.226  1.00  0.00    -0.025 C 
HETATM   12  C2  UNL     1       4.567   0.698  -0.863  1.00  0.00    -0.035 C 
HETATM   13  C1  UNL     1       5.835   1.136  -1.549  1.00  0.00     0.036 C 
ENDBRANCH  10  11
ENDBRANCH   1  10
BRANCH   1  14
HETATM   14  N1  UNL     1       3.068  -0.961   1.114  1.00  0.00    -0.274 NA
HETATM   15  H8  UNL     1       3.895  -0.404   1.342  1.00  0.00     0.122 HD
HETATM   16  H9  UNL     1       3.267  -1.781   0.523  1.00  0.00     0.122 HD
ENDBRANCH   1  14
BRANCH   5  17
HETATM   17  C9  UNL     1      -2.832  -1.736   0.599  1.00  0.00     0.097 C 
BRANCH  17  18
HETATM   18  C10 UNL     1      -3.801  -0.707   0.150  1.00  0.00    -0.052 A 
HETATM   19  C11 UNL     1      -4.399   0.138   1.059  1.00  0.00     0.007 A 
HETATM   20  C12 UNL     1      -5.298   1.087   0.609  1.00  0.00     0.001 A 
HETATM   21  C13 UNL     1      -5.625   1.222  -0.733  1.00  0.00     0.000 A 
HETATM   22  C14 UNL     1      -4.996   0.347  -1.607  1.00  0.00     0.001 A 
HETATM   23  C15 UNL     1      -4.091  -0.617  -1.206  1.00  0.00     0.007 A 
ENDBRANCH  17  18
ENDBRANCH   5  17
TORSDOF 5
