REMARK  1 active torsions:
REMARK  status: ('A' for Active; 'I' for Inactive)
REMARK    1  A    between atoms: C8_9  and  C9_10 
ROOT
HETATM    1  C1  UNL     1       4.282  -2.243   1.999  1.00  0.00     0.068 C 
HETATM    2  C2  UNL     1       3.434  -1.420   1.170  1.00  0.00     0.003 C 
HETATM    3  C3  UNL     1       3.454  -0.582   0.155  1.00  0.00     0.010 C 
HETATM    4  C4  UNL     1       2.673   0.268  -0.703  1.00  0.00     0.009 A 
HETATM    5  O1  UNL     1       1.674  -0.100   0.126  1.00  0.00     0.000 OA
HETATM    6  C5  UNL     1       1.606   0.857  -1.156  1.00  0.00     0.010 A 
HETATM    7  C6  UNL     1       0.110   1.164  -1.156  1.00  0.00     0.051 C 
HETATM    8  C7  UNL     1      -0.691   0.120  -0.491  1.00  0.00     0.017 C 
HETATM    9  C8  UNL     1      -1.871   0.615  -0.161  1.00  0.00     0.050 C 
HETATM   10  N1  UNL     1      -2.839  -0.212   0.537  1.00  0.00    -0.371 N 
HETATM   11  C14 UNL     1      -2.762  -1.625   0.768  1.00  0.00     0.273 C 
HETATM   12  N2  UNL     1      -1.439  -2.065   0.363  1.00  0.00    -0.251 NA
HETATM   13  C15 UNL     1      -0.553  -1.326  -0.173  1.00  0.00     0.155 C 
HETATM   14  N3  UNL     1       0.281  -2.463  -0.242  1.00  0.00    -0.224 NA
HETATM   15  C16 UNL     1       1.315  -2.502   0.567  1.00  0.00     0.209 C 
HETATM   16  N4  UNL     1       2.096  -1.841   1.619  1.00  0.00    -0.355 N 
HETATM   17  H5  UNL     1       1.441   0.364   1.027  1.00  0.00     0.000 HD
HETATM   18  H12 UNL     1      -3.758   0.047   1.001  1.00  0.00     0.161 HD
HETATM   19  H16 UNL     1       1.520  -1.826   2.480  1.00  0.00     0.166 HD
ENDROOT
BRANCH   9  20
HETATM   20  C9  UNL     1      -2.480   1.912  -0.335  1.00  0.00     0.002 C 
HETATM   21  C10 UNL     1      -3.677   2.372   0.036  1.00  0.00    -0.013 C 
HETATM   22  C11 UNL     1      -4.368   2.791  -1.013  1.00  0.00     0.013 C 
HETATM   23  C12 UNL     1      -3.312   3.777  -1.356  1.00  0.00     0.002 C 
HETATM   24  C13 UNL     1      -2.137   3.225  -0.928  1.00  0.00     0.014 C 
ENDBRANCH   9  20
TORSDOF 1
