REMARK  3 active torsions:
REMARK  status: ('A' for Active; 'I' for Inactive)
REMARK    1  A    between atoms: N1_2  and  C2_3 
REMARK    2  A    between atoms: C2_3  and  N4_16 
REMARK    3  A    between atoms: C8_11  and  O1_12 
ROOT
HETATM    1  C2  UNL     1      -0.723  -0.590   0.607  1.00  0.00     0.152 C 
HETATM    2  C3  UNL     1       0.568  -0.307   0.512  1.00  0.00     0.117 C 
HETATM    3  N2  UNL     1       1.628  -0.468   1.479  1.00  0.00    -0.242 NA
HETATM    4  C4  UNL     1       2.587   0.372   1.238  1.00  0.00     0.204 C 
HETATM    5  N3  UNL     1       2.233   1.159   0.085  1.00  0.00    -0.363 N 
HETATM    6  C5  UNL     1       1.303   0.258  -0.612  1.00  0.00     0.117 C 
HETATM    7  C6  UNL     1       2.167  -0.731  -1.312  1.00  0.00     0.030 C 
HETATM    8  C7  UNL     1       3.030  -0.095  -2.087  1.00  0.00     0.009 C 
HETATM    9  C8  UNL     1       2.598   0.916  -2.823  1.00  0.00     0.079 C 
HETATM   10  C10 UNL     1       1.184   1.290  -2.729  1.00  0.00     0.036 C 
HETATM   11  C11 UNL     1       0.509   0.966  -1.619  1.00  0.00     0.018 C 
HETATM   12  H4  UNL     1       2.700   2.106   0.046  1.00  0.00     0.162 HD
ENDROOT
BRANCH   1  13
HETATM   13  N1  UNL     1      -1.668  -0.379  -0.435  1.00  0.00    -0.252 NA
HETATM   14  C1  UNL     1      -1.900  -1.322  -1.304  1.00  0.00     0.151 C 
ENDBRANCH   1  13
BRANCH   1  15
HETATM   15  N4  UNL     1      -1.267  -1.145   1.799  1.00  0.00    -0.362 N 
HETATM   16  C12 UNL     1      -0.992  -0.293   2.943  1.00  0.00     0.146 C 
HETATM   17  C13 UNL     1      -1.428   1.130   2.658  1.00  0.00     0.169 C 
HETATM   18  N5  UNL     1      -2.694   1.056   1.952  1.00  0.00    -0.283 NA
HETATM   19  C14 UNL     1      -3.695   0.321   2.085  1.00  0.00     0.116 C 
HETATM   20  C15 UNL     1      -3.874  -0.810   1.472  1.00  0.00     0.126 C 
HETATM   21  F1  UNL     1      -4.694  -0.265   0.527  1.00  0.00    -0.208 F 
HETATM   22  C16 UNL     1      -3.460  -2.233   1.578  1.00  0.00     0.092 C 
HETATM   23  C17 UNL     1      -1.975  -2.424   1.653  1.00  0.00     0.131 C 
ENDBRANCH   1  15
BRANCH   9  24
HETATM   24  O1  UNL     1       3.527   1.539  -3.624  1.00  0.00    -0.355 OA
HETATM   25  C9  UNL     1       4.245   2.635  -3.087  1.00  0.00     0.210 C 
ENDBRANCH   9  24
TORSDOF 3
