REMARK  6 active torsions:
REMARK  status: ('A' for Active; 'I' for Inactive)
REMARK    1  A    between atoms: C5_5  and  C6_6 
REMARK    2  A    between atoms: C6_6  and  N1_8 
REMARK    3  A    between atoms: N1_8  and  C8_9 
REMARK    4  A    between atoms: C10_11  and  N2_12 
REMARK    5  A    between atoms: N2_12  and  C11_13 
REMARK    6  A    between atoms: C11_13  and  C12_14 
ROOT
HETATM    1  C8  UNL     1      -0.619   0.626   0.602  1.00  0.00     0.133 A 
HETATM    2  C9  UNL     1       0.761   0.531   0.411  1.00  0.00     0.100 A 
HETATM    3  C10 UNL     1       1.542  -0.298   1.191  1.00  0.00     0.128 A 
HETATM    4  N3  UNL     1       0.974  -1.038   2.160  1.00  0.00    -0.225 NA
HETATM    5  C18 UNL     1      -0.346  -0.942   2.339  1.00  0.00     0.237 A 
HETATM    6  N4  UNL     1      -1.120  -0.141   1.589  1.00  0.00    -0.224 NA
ENDROOT
BRANCH   1   7
HETATM    7  N1  UNL     1      -1.402   1.495  -0.235  1.00  0.00    -0.342 N 
HETATM    8  H8  UNL     1      -1.491   2.537  -0.060  1.00  0.00     0.167 HD
BRANCH   7   9
HETATM    9  C6  UNL     1      -1.914   0.572  -1.220  1.00  0.00     0.025 C 
HETATM   10  C7  UNL     1      -1.091   0.281  -2.207  1.00  0.00     0.043 C 
BRANCH   9  11
HETATM   11  C5  UNL     1      -3.260   0.030  -1.080  1.00  0.00     0.040 C 
HETATM   12  C4  UNL     1      -4.270   0.130  -0.240  1.00  0.00    -0.030 A 
HETATM   13  C3  UNL     1      -5.537  -0.612  -0.439  1.00  0.00     0.043 A 
HETATM   14  C19 UNL     1      -4.142   0.997   0.923  1.00  0.00     0.036 A 
HETATM   15  C2  UNL     1      -6.428  -0.378   0.510  1.00  0.00     0.049 A 
HETATM   16  C1  UNL     1      -7.719  -1.116   0.331  1.00  0.00     0.076 C 
HETATM   17  O1  UNL     1      -6.279   0.453   1.607  1.00  0.00    -0.327 OA
HETATM   18  C20 UNL     1      -5.096   1.154   1.805  1.00  0.00     0.143 A 
ENDBRANCH   9  11
ENDBRANCH   7   9
ENDBRANCH   1   7
BRANCH   3  19
HETATM   19  N2  UNL     1       2.950  -0.366   0.976  1.00  0.00    -0.370 N 
HETATM   20  H10 UNL     1       3.521  -1.001   1.575  1.00  0.00     0.161 HD
BRANCH  19  21
HETATM   21  C11 UNL     1       3.598   0.427  -0.053  1.00  0.00     0.160 C 
BRANCH  21  22
HETATM   22  C12 UNL     1       5.075   0.143  -0.020  1.00  0.00    -0.040 A 
HETATM   23  C13 UNL     1       5.972   0.865   0.747  1.00  0.00     0.012 A 
HETATM   24  C14 UNL     1       7.310   0.542   0.731  1.00  0.00     0.043 A 
HETATM   25  C15 UNL     1       7.743  -0.518  -0.065  1.00  0.00     0.116 A 
HETATM   26  F1  UNL     1       9.047  -0.845  -0.089  1.00  0.00    -0.206 F 
HETATM   27  C16 UNL     1       6.836  -1.235  -0.831  1.00  0.00     0.043 A 
HETATM   28  C17 UNL     1       5.477  -0.903  -0.811  1.00  0.00     0.012 A 
ENDBRANCH  21  22
ENDBRANCH  19  21
ENDBRANCH   3  19
TORSDOF 6
