REMARK  5 active torsions:
REMARK  status: ('A' for Active; 'I' for Inactive)
REMARK    1  A    between atoms: C9_10  and  N1_11 
REMARK    2  A    between atoms: N1_11  and  C10_12 
REMARK    3  A    between atoms: C10_12  and  C11_13 
REMARK    4  A    between atoms: C18_22  and  N3_23 
REMARK    5  A    between atoms: C19_25  and  N5_26 
ROOT
HETATM    1  C1  UNL     1      -4.601   1.595   2.339  1.00  0.00     0.046 C 
HETATM    2  C2  UNL     1      -4.240   0.317   1.673  1.00  0.00    -0.051 A 
HETATM    3  C3  UNL     1      -4.730  -0.898   1.853  1.00  0.00     0.006 A 
HETATM    4  C4  UNL     1      -3.998  -1.753   0.928  1.00  0.00     0.010 A 
HETATM    5  C5  UNL     1      -3.097  -1.055   0.221  1.00  0.00     0.005 A 
HETATM    6  C6  UNL     1      -3.152   0.376   0.630  1.00  0.00     0.183 A 
HETATM    7  O1  UNL     1      -2.001   0.663   1.315  1.00  0.00    -0.371 OA
HETATM    8  C7  UNL     1      -0.902   0.975   0.553  1.00  0.00     0.230 C 
HETATM    9  C8  UNL     1      -0.497  -0.025  -0.442  1.00  0.00     0.085 A 
HETATM   10  C9  UNL     1       0.771   0.329  -0.891  1.00  0.00     0.148 A 
HETATM   11  N2  UNL     1       1.387  -0.441  -1.795  1.00  0.00    -0.238 NA
HETATM   12  C17 UNL     1       0.861  -1.569  -2.327  1.00  0.00     0.169 A 
HETATM   13  C18 UNL     1      -0.418  -1.920  -1.873  1.00  0.00     0.142 A 
HETATM   14  N4  UNL     1      -1.026  -1.130  -0.958  1.00  0.00    -0.294 N 
HETATM   15  C19 UNL     1      -2.289  -1.765  -0.763  1.00  0.00     0.357 C 
ENDROOT
BRANCH  10  16
HETATM   16  N1  UNL     1       1.563   1.449  -0.565  1.00  0.00    -0.369 N 
HETATM   17  H9  UNL     1       1.024   2.041   0.084  1.00  0.00     0.161 HD
BRANCH  16  18
HETATM   18  C10 UNL     1       2.833   2.076  -0.814  1.00  0.00     0.163 C 
BRANCH  18  19
HETATM   19  C11 UNL     1       4.007   1.329  -0.316  1.00  0.00    -0.002 A 
HETATM   20  C12 UNL     1       4.454   1.778   0.937  1.00  0.00     0.012 A 
HETATM   21  C13 UNL     1       5.512   1.234   1.630  1.00  0.00     0.001 A 
HETATM   22  C14 UNL     1       6.202   0.175   1.087  1.00  0.00     0.003 A 
HETATM   23  C15 UNL     1       5.801  -0.296  -0.137  1.00  0.00     0.043 A 
HETATM   24  C16 UNL     1       4.744   0.274  -0.791  1.00  0.00     0.124 A 
HETATM   25  F1  UNL     1       4.353  -0.161  -2.008  1.00  0.00    -0.205 F 
ENDBRANCH  18  19
ENDBRANCH  16  18
ENDBRANCH  10  16
BRANCH  13  26
HETATM   26  N3  UNL     1      -0.787  -2.992  -2.436  1.00  0.00    -0.282 NA
HETATM   27  H17 UNL     1      -1.652  -3.532  -2.344  1.00  0.00     0.188 HD
ENDBRANCH  13  26
BRANCH  15  28
HETATM   28  N5  UNL     1      -3.073  -1.731  -2.018  1.00  0.00     0.106 N 
HETATM   29  H19 UNL     1      -3.106  -0.706  -2.279  1.00  0.00     0.316 HD
HETATM   30  H20 UNL     1      -4.055  -1.973  -1.752  1.00  0.00     0.316 HD
ENDBRANCH  15  28
TORSDOF 5
