REMARK  3 active torsions:
REMARK  status: ('A' for Active; 'I' for Inactive)
REMARK    1  A    between atoms: C2_2  and  P1_3 
REMARK    2  A    between atoms: P1_3  and  C3_4 
REMARK    3  A    between atoms: C3_4  and  C4_5 
ROOT
HETATM    1  C4  UNL     1       2.030  -0.786  -0.332  1.00  0.00     0.028 C 
HETATM    2  C5  UNL     1       1.676  -1.540   0.690  1.00  0.00     0.036 C 
HETATM    3  C6  UNL     1       0.451  -1.107   1.266  1.00  0.00    -0.022 C 
HETATM    4  C7  UNL     1      -0.336  -1.128   2.358  1.00  0.00     0.091 C 
HETATM    5  N1  UNL     1      -1.611  -0.491   2.517  1.00  0.00    -0.398 N 
HETATM    6  C8  UNL     1      -2.871   0.134   2.673  1.00  0.00     0.120 C 
HETATM    7  C9  UNL     1      -3.771   0.143   1.449  1.00  0.00     0.000 C 
HETATM    8  C10 UNL     1      -4.707   0.079   0.471  1.00  0.00     0.093 A 
HETATM    9  C11 UNL     1      -5.160   0.278  -0.966  1.00  0.00     0.178 A 
HETATM   10  C12 UNL     1      -3.935   0.612  -0.959  1.00  0.00     0.118 A 
HETATM   11  F1  UNL     1      -4.927   0.528  -1.850  1.00  0.00    -0.384 F 
HETATM   12  C13 UNL     1      -2.592   0.673  -1.298  1.00  0.00     0.013 C 
HETATM   13  C14 UNL     1      -1.665   0.234  -2.062  1.00  0.00    -0.012 C 
HETATM   14  C15 UNL     1      -0.428  -0.086  -2.782  1.00  0.00     0.137 C 
HETATM   15  N2  UNL     1       0.732   0.497  -2.079  1.00  0.00    -0.234 NA
HETATM   16  N3  UNL     1       0.837  -0.178  -0.814  1.00  0.00    -0.312 N 
HETATM   17  C16 UNL     1      -0.233  -0.358   0.132  1.00  0.00     0.183 C 
HETATM   18  H9  UNL     1      -0.956   0.353   2.597  1.00  0.00     0.158 HD
HETATM   19  H19 UNL     1       0.636   1.525  -1.936  1.00  0.00     0.147 HD
ENDROOT
BRANCH   1  20
HETATM   20  C3  UNL     1       3.446  -0.721  -0.760  1.00  0.00     0.093 C 
BRANCH  20  21
HETATM   21  P1  UNL     1       4.101   1.035  -0.593  1.00  0.00    -0.101 P 
HETATM   22  H4  UNL     1       4.383   1.612  -1.881  1.00  0.00     0.062 HD
BRANCH  21  23
HETATM   23  C2  UNL     1       5.699   0.982   0.364  1.00  0.00    -0.006 C 
HETATM   24  C1  UNL     1       7.035   0.876   0.381  1.00  0.00     0.012 C 
ENDBRANCH  21  23
ENDBRANCH  20  21
ENDBRANCH   1  20
TORSDOF 3
