REMARK  8 active torsions:
REMARK  status: ('A' for Active; 'I' for Inactive)
REMARK    1  A    between atoms: C3_4  and  C4_6 
REMARK    2  A    between atoms: C4_6  and  C5_7 
REMARK    3  A    between atoms: C5_7  and  N1_8 
REMARK    4  A    between atoms: N1_8  and  C6_9 
REMARK    5  A    between atoms: C8_13  and  N4_14 
REMARK    6  A    between atoms: N4_14  and  C9_15 
REMARK    7  A    between atoms: C9_15  and  C10_16 
REMARK    8  A    between atoms: C13_19  and  O1_20 
ROOT
HETATM    1  C6  UNL     1       2.124   0.178   0.291  1.00  0.00     0.134 A 
HETATM    2  N2  UNL     1       2.123   1.389  -0.269  1.00  0.00    -0.224 NA
HETATM    3  C7  UNL     1       1.061   2.111  -0.606  1.00  0.00     0.237 A 
HETATM    4  N3  UNL     1      -0.116   1.525  -0.338  1.00  0.00    -0.224 NA
HETATM    5  C8  UNL     1      -0.194   0.312   0.223  1.00  0.00     0.134 A 
HETATM    6  C16 UNL     1       0.915  -0.426   0.567  1.00  0.00     0.029 A 
HETATM    7  C17 UNL     1       0.969  -1.758   1.174  1.00  0.00     0.056 C 
ENDROOT
BRANCH   5   8
HETATM    8  N4  UNL     1      -1.460  -0.270   0.500  1.00  0.00    -0.370 N 
HETATM    9  H8  UNL     1      -1.638  -1.191   0.938  1.00  0.00     0.161 HD
BRANCH   8  10
HETATM   10  C9  UNL     1      -2.653   0.481   0.147  1.00  0.00     0.160 C 
BRANCH  10  11
HETATM   11  C10 UNL     1      -3.874  -0.256   0.496  1.00  0.00    -0.040 A 
HETATM   12  C11 UNL     1      -4.547  -1.133  -0.329  1.00  0.00     0.011 A 
HETATM   13  C12 UNL     1      -5.686  -1.776   0.096  1.00  0.00     0.037 A 
HETATM   14  C13 UNL     1      -6.151  -1.526   1.377  1.00  0.00     0.065 A 
HETATM   15  C14 UNL     1      -5.502  -0.660   2.217  1.00  0.00     0.037 A 
HETATM   16  C15 UNL     1      -4.377  -0.033   1.778  1.00  0.00     0.011 A 
BRANCH  14  17
HETATM   17  O1  UNL     1      -7.289  -2.191   1.754  1.00  0.00    -0.361 OA
HETATM   18  H13 UNL     1      -8.222  -2.022   1.393  1.00  0.00     0.217 HD
ENDBRANCH  14  17
ENDBRANCH  10  11
ENDBRANCH   8  10
ENDBRANCH   5   8
BRANCH   1  19
HETATM   19  N1  UNL     1       3.432  -0.289   0.547  1.00  0.00    -0.374 N 
HETATM   20  H6  UNL     1       3.379  -1.209   1.020  1.00  0.00     0.161 HD
BRANCH  19  21
HETATM   21  C5  UNL     1       4.780   0.130   0.350  1.00  0.00     0.128 C 
BRANCH  21  22
HETATM   22  C4  UNL     1       5.166   0.080  -1.100  1.00  0.00     0.086 C 
BRANCH  22  23
HETATM   23  C3  UNL     1       4.406   0.926  -2.007  1.00  0.00     0.060 A 
HETATM   24  C2  UNL     1       5.066   1.868  -2.712  1.00  0.00     0.054 A 
HETATM   25  C1  UNL     1       4.409   2.736  -3.620  1.00  0.00    -0.005 A 
HETATM   26  B1  UNL     1       3.570   3.830  -4.747  1.00  0.00     0.172 B 
HETATM   27  F1  UNL     1       3.677   1.697  -2.844  1.00  0.00    -0.353 F 
ENDBRANCH  22  23
ENDBRANCH  21  22
ENDBRANCH  19  21
ENDBRANCH   1  19
TORSDOF 8
