REMARK  4 active torsions:
REMARK  status: ('A' for Active; 'I' for Inactive)
REMARK    1  A    between atoms: C3_4  and  C4_5 
REMARK    2  A    between atoms: C4_5  and  N1_6 
REMARK    3  A    between atoms: N1_6  and  C5_7 
REMARK    4  A    between atoms: C12_15  and  O1_16 
ROOT
HETATM    1  B1  UNL     1      -4.367   4.169   1.950  1.00  0.00     0.195 B 
HETATM    2  C1  UNL     1      -5.021   2.495   1.562  1.00  0.00    -0.236 C 
HETATM    3  C2  UNL     1      -5.503   1.204   1.252  1.00  0.00     0.031 C 
HETATM    4  C3  UNL     1      -4.908   0.327   0.508  1.00  0.00    -0.001 C 
ENDROOT
BRANCH   4   5
HETATM    5  C4  UNL     1      -3.725   0.018  -0.314  1.00  0.00     0.149 C 
BRANCH   5   6
HETATM    6  N1  UNL     1      -2.778   1.149  -0.336  1.00  0.00    -0.371 N 
HETATM    7  H5  UNL     1      -3.065   2.014   0.218  1.00  0.00     0.161 HD
BRANCH   6   8
HETATM    8  C5  UNL     1      -1.635   0.899  -1.107  1.00  0.00     0.124 C 
HETATM    9  C6  UNL     1      -1.036   0.521  -0.008  1.00  0.00     0.050 C 
HETATM   10  C7  UNL     1      -0.711   0.191   1.353  1.00  0.00     0.005 C 
HETATM   11  C8  UNL     1       0.207  -0.248   2.186  1.00  0.00     0.012 C 
HETATM   12  C9  UNL     1       1.532  -0.611   1.742  1.00  0.00    -0.028 C 
HETATM   13  C10 UNL     1       1.877  -1.643   2.531  1.00  0.00     0.061 C 
HETATM   14  C14 UNL     1       2.258   0.053   0.669  1.00  0.00     0.044 C 
HETATM   15  S1  UNL     1       3.254  -2.783   2.309  1.00  0.00    -0.110 SA
HETATM   16  C11 UNL     1       4.495  -2.022   1.276  1.00  0.00     0.088 C 
HETATM   17  C12 UNL     1       4.315  -1.245   0.199  1.00  0.00     0.098 C 
HETATM   18  C13 UNL     1       3.170  -0.422  -0.177  1.00  0.00     0.067 C 
HETATM   19  N2  UNL     1       3.248  -0.247  -1.609  1.00  0.00    -0.349 N 
HETATM   20  C15 UNL     1       1.990  -0.512  -2.236  1.00  0.00     0.208 C 
HETATM   21  H13 UNL     1       4.180   0.039  -1.986  1.00  0.00     0.167 HD
HETATM   22  N3  UNL     1       1.399   0.625  -2.158  1.00  0.00    -0.237 NA
HETATM   23  C16 UNL     1       0.081   0.829  -2.673  1.00  0.00     0.236 C 
HETATM   24  N4  UNL     1      -1.158   0.955  -2.410  1.00  0.00    -0.225 NA
BRANCH  17  25
HETATM   25  O1  UNL     1       5.398  -1.242  -0.673  1.00  0.00    -0.358 OA
HETATM   26  H11 UNL     1       6.215  -0.700  -0.390  1.00  0.00     0.217 HD
ENDBRANCH  17  25
ENDBRANCH   6   8
ENDBRANCH   5   6
ENDBRANCH   4   5
TORSDOF 4
