REMARK  4 active torsions:
REMARK  status: ('A' for Active; 'I' for Inactive)
REMARK    1  A    between atoms: O1_1  and  C1_2 
REMARK    2  A    between atoms: C4_5  and  C5_6 
REMARK    3  A    between atoms: N2_13  and  C10_14 
REMARK    4  A    between atoms: C10_14  and  C11_15 
ROOT
HETATM    1  C5  UNL     1       0.931  -0.590   0.312  1.00  0.00     0.042 C 
HETATM    2  C6  UNL     1      -0.195   0.082   0.492  1.00  0.00     0.036 C 
HETATM    3  C7  UNL     1      -1.262  -0.898   0.577  1.00  0.00     0.179 C 
HETATM    4  C8  UNL     1      -0.702  -2.120  -0.015  1.00  0.00     0.131 C 
HETATM    5  N1  UNL     1      -1.229  -3.167  -0.615  1.00  0.00    -0.242 NA
HETATM    6  C9  UNL     1      -2.637  -3.198  -0.796  1.00  0.00     0.153 C 
HETATM    7  P1  UNL     1      -3.575  -1.904  -0.290  1.00  0.00     0.078 P 
HETATM    8  N2  UNL     1      -2.600  -0.587   0.424  1.00  0.00    -0.358 N 
HETATM    9  N3  UNL     1       0.742  -1.996   0.002  1.00  0.00    -0.342 N 
HETATM   10  H10 UNL     1       1.512  -2.681  -0.154  1.00  0.00     0.167 HD
ENDROOT
BRANCH   1  11
HETATM   11  C4  UNL     1       2.280   0.020   0.195  1.00  0.00    -0.009 A 
HETATM   12  C3  UNL     1       2.448   1.387   0.271  1.00  0.00     0.016 A 
HETATM   13  C2  UNL     1       3.666   2.001   0.170  1.00  0.00     0.037 A 
HETATM   14  C1  UNL     1       4.790   1.246  -0.015  1.00  0.00     0.065 A 
HETATM   15  C14 UNL     1       4.664  -0.124  -0.096  1.00  0.00     0.037 A 
HETATM   16  C13 UNL     1       3.424  -0.721   0.008  1.00  0.00     0.016 A 
BRANCH  14  17
HETATM   17  O1  UNL     1       6.024   1.889  -0.116  1.00  0.00    -0.361 OA
HETATM   18  H1  UNL     1       6.211   2.653   0.552  1.00  0.00     0.217 HD
ENDBRANCH  14  17
ENDBRANCH   1  11
BRANCH   8  19
HETATM   19  C10 UNL     1      -2.921   0.734  -0.047  1.00  0.00     0.194 C 
BRANCH  19  20
HETATM   20  C11 UNL     1      -4.405   0.836  -0.132  1.00  0.00     0.118 C 
HETATM   21  F1  UNL     1      -5.066  -0.034  -0.962  1.00  0.00    -0.209 F 
HETATM   22  C12 UNL     1      -5.165   1.718   0.540  1.00  0.00     0.095 C 
HETATM   23 BR1  UNL     1      -7.011   2.182   0.725  1.00  0.00    -0.061 Br
ENDBRANCH  19  20
ENDBRANCH   8  19
TORSDOF 4
