REMARK  1 active torsions:
REMARK  status: ('A' for Active; 'I' for Inactive)
REMARK    1  A    between atoms: O1_1  and  C1_2 
ROOT
HETATM    1  C1  UNL     1      -5.542  -0.030  -0.221  1.00  0.00     0.065 A 
HETATM    2  C2  UNL     1      -5.039   1.143   0.031  1.00  0.00     0.029 A 
HETATM    3  C3  UNL     1      -3.668   1.558   0.313  1.00  0.00     0.160 A 
HETATM    4  N1  UNL     1      -2.722   0.461   0.268  1.00  0.00    -0.331 N 
HETATM    5  C4  UNL     1      -3.332  -0.784   0.005  1.00  0.00     0.020 A 
HETATM    6  C5  UNL     1      -4.580  -1.122  -0.232  1.00  0.00     0.061 A 
HETATM    7  C6  UNL     1      -2.229  -1.809   0.080  1.00  0.00     0.100 C 
HETATM    8  C7  UNL     1      -1.036  -1.012   0.198  1.00  0.00    -0.006 C 
HETATM    9  C8  UNL     1       0.040  -1.728   0.104  1.00  0.00     0.012 C 
HETATM   10  C9  UNL     1       0.795  -2.920  -0.055  1.00  0.00     0.017 C 
HETATM   11  C10 UNL     1       2.074  -3.187  -0.094  1.00  0.00     0.083 C 
HETATM   12  N2  UNL     1       3.097  -2.221   0.026  1.00  0.00    -0.395 N 
HETATM   13  C11 UNL     1       3.549  -1.070   0.735  1.00  0.00     0.146 C 
HETATM   14  C12 UNL     1       4.863  -0.577   0.182  1.00  0.00    -0.011 C 
HETATM   15  C13 UNL     1       4.912   0.663  -0.355  1.00  0.00    -0.023 C 
HETATM   16  C14 UNL     1       3.577   1.342  -0.294  1.00  0.00     0.022 C 
HETATM   17  C15 UNL     1       3.263   2.592  -0.745  1.00  0.00     0.020 C 
HETATM   18  C16 UNL     1       1.909   3.153  -0.630  1.00  0.00     0.156 C 
HETATM   19  N3  UNL     1       0.884   2.408  -0.043  1.00  0.00    -0.282 NA
HETATM   20  C17 UNL     1       0.702   1.563   0.827  1.00  0.00     0.229 C 
HETATM   21  N4  UNL     1      -0.679   1.456   0.659  1.00  0.00    -0.224 NA
HETATM   22  C18 UNL     1      -1.312   0.385   0.403  1.00  0.00     0.138 C 
HETATM   23  H11 UNL     1       3.744  -2.551  -0.756  1.00  0.00     0.159 HD
ENDROOT
BRANCH   1  24
HETATM   24  O1  UNL     1      -6.883  -0.231  -0.464  1.00  0.00    -0.361 OA
HETATM   25  H1  UNL     1      -7.518   0.525  -0.346  1.00  0.00     0.217 HD
ENDBRANCH   1  24
TORSDOF 1
