REMARK  6 active torsions:
REMARK  status: ('A' for Active; 'I' for Inactive)
REMARK    1  A    between atoms: O1_1  and  C1_2 
REMARK    2  A    between atoms: C7_9  and  C8_10 
REMARK    3  A    between atoms: C8_10  and  C9_11 
REMARK    4  A    between atoms: C9_11  and  C10_12 
REMARK    5  A    between atoms: C10_12  and  C11_13 
REMARK    6  A    between atoms: N2_21  and  C18_22 
ROOT
HETATM    1  C1  UNL     1       3.994  -0.504  -3.613  1.00  0.00     0.065 A 
HETATM    2  C2  UNL     1       2.745  -0.293  -3.831  1.00  0.00     0.029 A 
HETATM    3  C3  UNL     1       1.573   0.215  -3.204  1.00  0.00     0.155 A 
HETATM    4  N1  UNL     1       1.946   0.622  -1.798  1.00  0.00    -0.355 N 
HETATM    5  C4  UNL     1       3.315   0.391  -1.600  1.00  0.00     0.025 A 
HETATM    6  C5  UNL     1       3.748   0.880  -0.270  1.00  0.00     0.061 A 
HETATM    7  C6  UNL     1       2.303   1.164  -0.352  1.00  0.00     0.073 A 
HETATM    8  C7  UNL     1       0.852   0.362   0.483  1.00  0.00     0.060 A 
HETATM    9  C17 UNL     1       1.420   1.339  -0.401  1.00  0.00     0.118 A 
HETATM   10  N2  UNL     1       2.144   1.947   0.597  1.00  0.00    -0.265 NA
HETATM   11  C18 UNL     1       3.530   1.707   0.726  1.00  0.00     0.106 A 
HETATM   12  C19 UNL     1       4.408  -0.096  -2.255  1.00  0.00     0.062 A 
ENDROOT
BRANCH   8  13
HETATM   13  C8  UNL     1      -0.730   0.462   0.572  1.00  0.00    -0.013 C 
BRANCH  13  14
HETATM   14  C9  UNL     1      -0.770  -0.502   1.435  1.00  0.00     0.023 C 
BRANCH  14  15
HETATM   15  C10 UNL     1      -1.588  -1.344   2.276  1.00  0.00     0.047 C 
BRANCH  15  16
HETATM   16  C11 UNL     1      -3.025  -0.957   2.369  1.00  0.00    -0.019 A 
HETATM   17  C12 UNL     1      -4.133  -1.476   1.745  1.00  0.00     0.010 A 
HETATM   18  C13 UNL     1      -5.360  -0.938   1.971  1.00  0.00     0.001 A 
HETATM   19  C14 UNL     1      -5.610   0.119   2.796  1.00  0.00     0.003 A 
HETATM   20  C15 UNL     1      -4.524   0.698   3.464  1.00  0.00     0.043 A 
HETATM   21  C16 UNL     1      -3.298   0.136   3.214  1.00  0.00     0.122 A 
HETATM   22  F1  UNL     1      -2.267   0.736   3.876  1.00  0.00    -0.206 F 
ENDBRANCH  15  16
ENDBRANCH  14  15
ENDBRANCH  13  14
ENDBRANCH   8  13
BRANCH   1  23
HETATM   23  O1  UNL     1       5.038  -1.012  -4.327  1.00  0.00    -0.361 OA
HETATM   24  H1  UNL     1       5.652  -0.331  -4.803  1.00  0.00     0.217 HD
ENDBRANCH   1  23
TORSDOF 6
