REMARK  6 active torsions:
REMARK  status: ('A' for Active; 'I' for Inactive)
REMARK    1  A    between atoms: C5_7  and  N3_8 
REMARK    2  A    between atoms: N3_8  and  C6_9 
REMARK    3  A    between atoms: C6_9  and  C7_10 
REMARK    4  A    between atoms: C15_19  and  N4_20 
REMARK    5  A    between atoms: N4_20  and  C16_21 
REMARK    6  A    between atoms: C17_22  and  O1_23 
ROOT
HETATM    1  C1  UNL     1       3.215   2.197  -1.487  1.00  0.00     0.040 C 
HETATM    2  C2  UNL     1       2.702   1.029  -1.103  1.00  0.00     0.025 C 
HETATM    3  N1  UNL     1       2.543  -0.263  -1.623  1.00  0.00    -0.346 N 
HETATM    4  C3  UNL     1       1.709  -1.081  -0.847  1.00  0.00     0.109 C 
HETATM    5  N2  UNL     1       1.123  -2.217  -0.939  1.00  0.00    -0.270 NA
HETATM    6  C4  UNL     1       0.317  -2.662   0.199  1.00  0.00     0.207 C 
HETATM    7  C5  UNL     1      -0.550  -1.481   0.544  1.00  0.00     0.022 C 
HETATM    8  C13 UNL     1       0.027  -0.295   0.662  1.00  0.00     0.014 C 
HETATM    9  C14 UNL     1       1.502  -0.315   0.421  1.00  0.00     0.108 C 
HETATM   10  C15 UNL     1       2.119   1.020   0.276  1.00  0.00     0.145 C 
HETATM   11  H3  UNL     1       3.041  -0.513  -2.506  1.00  0.00     0.167 HD
ENDROOT
BRANCH   7  12
HETATM   12  N3  UNL     1      -1.896  -1.843   0.697  1.00  0.00    -0.388 N 
HETATM   13  H6  UNL     1      -1.792  -2.151   1.717  1.00  0.00     0.159 HD
BRANCH  12  14
HETATM   14  C6  UNL     1      -3.272  -2.021   0.292  1.00  0.00     0.161 C 
BRANCH  14  15
HETATM   15  C7  UNL     1      -3.962  -0.744   0.030  1.00  0.00    -0.002 A 
HETATM   16  C8  UNL     1      -3.777   0.471   0.642  1.00  0.00     0.012 A 
HETATM   17  C9  UNL     1      -4.483   1.615   0.331  1.00  0.00     0.001 A 
HETATM   18  C10 UNL     1      -5.444   1.540  -0.659  1.00  0.00     0.003 A 
HETATM   19  C11 UNL     1      -5.658   0.319  -1.300  1.00  0.00     0.043 A 
HETATM   20  C12 UNL     1      -4.935  -0.783  -0.962  1.00  0.00     0.124 A 
HETATM   21  F1  UNL     1      -5.240  -1.908  -1.667  1.00  0.00    -0.205 F 
ENDBRANCH  14  15
ENDBRANCH  12  14
ENDBRANCH   7  12
BRANCH  10  22
HETATM   22  N4  UNL     1       3.293   1.056   1.165  1.00  0.00    -0.386 N 
HETATM   23  H16 UNL     1       3.474   0.328   1.902  1.00  0.00     0.159 HD
BRANCH  22  24
HETATM   24  C16 UNL     1       4.403   1.922   1.329  1.00  0.00     0.107 C 
HETATM   25  C17 UNL     1       5.461   1.449   0.645  1.00  0.00     0.147 C 
BRANCH  25  26
HETATM   26  O1  UNL     1       5.615   0.320  -0.146  1.00  0.00    -0.371 OA
HETATM   27  H19 UNL     1       5.640  -0.606   0.210  1.00  0.00     0.216 HD
ENDBRANCH  25  26
ENDBRANCH  22  24
ENDBRANCH  10  22
TORSDOF 6
