REMARK  4 active torsions:
REMARK  status: ('A' for Active; 'I' for Inactive)
REMARK    1  A    between atoms: C2_2  and  C3_3 
REMARK    2  A    between atoms: C3_3  and  C4_4 
REMARK    3  A    between atoms: C5_5  and  C6_6 
REMARK    4  A    between atoms: C6_6  and  O1_7 
ROOT
HETATM    1  C1  UNL     1       1.698  -1.561  -1.061  1.00  0.00     0.042 C 
HETATM    2  C2  UNL     1       1.174  -1.026   0.252  1.00  0.00     0.063 C 
HETATM    3  C7  UNL     1       0.325   0.188  -0.146  1.00  0.00     0.152 C 
HETATM    4  N1  UNL     1      -0.300   0.837   0.954  1.00  0.00    -0.391 N 
HETATM    5  C8  UNL     1      -1.533   1.405   0.390  1.00  0.00     0.005 C 
HETATM    6  C9  UNL     1      -2.241   1.541   1.547  1.00  0.00     0.024 C 
HETATM    7  C10 UNL     1      -3.705   1.233   1.758  1.00  0.00     0.002 C 
HETATM    8  C11 UNL     1      -4.511   0.334   1.091  1.00  0.00     0.002 C 
HETATM    9  C12 UNL     1      -4.125  -0.600  -0.021  1.00  0.00     0.025 C 
HETATM   10  C13 UNL     1      -3.154  -0.529  -0.974  1.00  0.00     0.010 C 
HETATM   11  C14 UNL     1      -2.607   0.611  -1.749  1.00  0.00     0.063 C 
HETATM   12  C15 UNL     1      -1.851   1.660  -1.036  1.00  0.00     0.062 C 
HETATM   13  N2  UNL     1      -2.773  -1.952  -1.034  1.00  0.00    -0.353 N 
HETATM   14  C16 UNL     1      -1.383  -2.397  -0.940  1.00  0.00     0.229 C 
HETATM   15  N3  UNL     1      -0.920  -1.973   0.150  1.00  0.00    -0.174 NA
HETATM   16  N4  UNL     1       0.269  -2.045   0.797  1.00  0.00    -0.301 N 
HETATM   17  H13 UNL     1      -0.115   0.993   1.956  1.00  0.00     0.159 HD
HETATM   18  H22 UNL     1      -3.696  -2.471  -1.150  1.00  0.00     0.166 HD
HETATM   19  H24 UNL     1       0.465  -2.736   1.560  1.00  0.00     0.183 HD
ENDROOT
BRANCH   2  20
HETATM   20  C3  UNL     1       2.267  -0.625   1.132  1.00  0.00     0.060 C 
BRANCH  20  21
HETATM   21  C4  UNL     1       3.074   0.439   0.474  1.00  0.00    -0.026 C 
HETATM   22  C5  UNL     1       4.386   0.313   0.191  1.00  0.00    -0.005 C 
BRANCH  22  23
HETATM   23  C6  UNL     1       5.410   1.193  -0.444  1.00  0.00     0.191 C 
BRANCH  23  24
HETATM   24  O1  UNL     1       4.774   2.382  -0.786  1.00  0.00    -0.397 OA
HETATM   25  H10 UNL     1       4.450   2.848   0.046  1.00  0.00     0.209 HD
ENDBRANCH  23  24
ENDBRANCH  22  23
ENDBRANCH  20  21
ENDBRANCH   2  20
TORSDOF 4
