REMARK  5 active torsions:
REMARK  status: ('A' for Active; 'I' for Inactive)
REMARK    1  A    between atoms: C2_2  and  C3_3 
REMARK    2  A    between atoms: C3_3  and  N1_4 
REMARK    3  A    between atoms: C3_3  and  C16_21 
REMARK    4  A    between atoms: N1_4  and  C4_5 
REMARK    5  A    between atoms: C11_15  and  O1_16 
ROOT
HETATM    1  C4  UNL     1      -0.571  -0.719  -0.621  1.00  0.00     0.105 C 
HETATM    2  N2  UNL     1      -1.056   0.359  -1.219  1.00  0.00    -0.229 NA
HETATM    3  C5  UNL     1      -0.466   0.799  -2.463  1.00  0.00     0.230 C 
HETATM    4  N3  UNL     1       0.666   0.975  -1.966  1.00  0.00    -0.263 NA
HETATM    5  C6  UNL     1       1.917   1.403  -2.444  1.00  0.00     0.272 C 
HETATM    6  N4  UNL     1       2.851   0.269  -2.460  1.00  0.00    -0.371 N 
HETATM    7  C7  UNL     1       2.784  -0.125  -1.074  1.00  0.00     0.036 C 
HETATM    8  C8  UNL     1       3.857   0.307  -0.221  1.00  0.00    -0.010 A 
HETATM    9  C9  UNL     1       3.983   0.041   1.121  1.00  0.00     0.016 A 
HETATM   10  C10 UNL     1       5.022   0.465   1.923  1.00  0.00     0.037 A 
HETATM   11  C11 UNL     1       6.024   1.208   1.387  1.00  0.00     0.065 A 
HETATM   12  C12 UNL     1       5.955   1.509   0.044  1.00  0.00     0.037 A 
HETATM   13  C13 UNL     1       4.911   1.069  -0.711  1.00  0.00     0.016 A 
HETATM   14  C14 UNL     1       1.793  -0.850  -0.583  1.00  0.00     0.011 C 
HETATM   15  C15 UNL     1       0.602  -1.396  -1.272  1.00  0.00     0.107 C 
HETATM   16  H11 UNL     1       3.532  -0.453  -2.773  1.00  0.00     0.161 HD
ENDROOT
BRANCH   1  17
HETATM   17  N1  UNL     1      -1.209  -1.065   0.580  1.00  0.00    -0.369 N 
HETATM   18  H7  UNL     1      -0.500  -1.325   1.339  1.00  0.00     0.161 HD
BRANCH  17  19
HETATM   19  C3  UNL     1      -2.604  -1.104   0.832  1.00  0.00     0.115 C 
BRANCH  19  20
HETATM   20  C2  UNL     1      -2.838  -1.386   2.300  1.00  0.00     0.025 C 
HETATM   21  C1  UNL     1      -4.312  -1.443   2.638  1.00  0.00     0.007 C 
ENDBRANCH  19  20
BRANCH  19  22
HETATM   22  C16 UNL     1      -3.450  -0.085   0.244  1.00  0.00    -0.036 A 
HETATM   23  C17 UNL     1      -3.812  -0.002  -1.084  1.00  0.00     0.009 A 
HETATM   24  C18 UNL     1      -4.603   0.983  -1.634  1.00  0.00     0.001 A 
HETATM   25  C19 UNL     1      -5.083   1.972  -0.825  1.00  0.00     0.000 A 
HETATM   26  C20 UNL     1      -4.763   1.954   0.517  1.00  0.00     0.001 A 
HETATM   27  C21 UNL     1      -3.967   0.944   1.015  1.00  0.00     0.009 A 
ENDBRANCH  19  22
ENDBRANCH  17  19
ENDBRANCH   1  17
BRANCH  11  28
HETATM   28  O1  UNL     1       7.086   1.659   2.139  1.00  0.00    -0.361 OA
HETATM   29  H14 UNL     1       7.136   1.414   3.110  1.00  0.00     0.217 HD
ENDBRANCH  11  28
TORSDOF 5
