REMARK  7 active torsions:
REMARK  status: ('A' for Active; 'I' for Inactive)
REMARK    1  A    between atoms: C2_2  and  N1_3 
REMARK    2  A    between atoms: C2_2  and  C16_22 
REMARK    3  A    between atoms: N1_3  and  C3_4 
REMARK    4  A    between atoms: C8_12  and  N4_13 
REMARK    5  A    between atoms: C8_12  and  C9_14 
REMARK    6  A    between atoms: C9_14  and  C10_15 
REMARK    7  A    between atoms: C13_18  and  O1_19 
ROOT
HETATM    1  C3  UNL     1      -0.988   0.416  -0.699  1.00  0.00     0.138 A 
HETATM    2  N2  UNL     1      -0.736   0.491   0.611  1.00  0.00    -0.224 NA
HETATM    3  C4  UNL     1       0.371   0.000   1.148  1.00  0.00     0.235 A 
HETATM    4  N3  UNL     1       1.228  -0.576   0.310  1.00  0.00    -0.242 NA
HETATM    5  C5  UNL     1       1.028  -0.679  -1.012  1.00  0.00     0.093 A 
HETATM    6  C6  UNL     1      -0.101  -0.178  -1.559  1.00  0.00     0.038 A 
HETATM    7  C7  UNL     1      -0.238  -0.336  -3.023  1.00  0.00     0.032 A 
HETATM    8  P1  UNL     1       1.279  -1.214  -3.598  1.00  0.00    -0.010 P 
HETATM    9  C8  UNL     1       2.037  -1.330  -1.829  1.00  0.00     0.232 A 
ENDROOT
BRANCH   9  10
HETATM   10  N4  UNL     1       2.297  -2.703  -1.475  1.00  0.00     0.099 N 
HETATM   11  H8  UNL     1       2.207  -2.751  -0.422  1.00  0.00     0.314 HD
HETATM   12  H9  UNL     1       1.695  -3.384  -1.954  1.00  0.00     0.314 HD
ENDBRANCH   9  10
BRANCH   9  13
HETATM   13  C9  UNL     1       3.300  -0.527  -2.009  1.00  0.00     0.092 C 
BRANCH  13  14
HETATM   14  C10 UNL     1       3.982  -0.221  -0.727  1.00  0.00    -0.055 A 
HETATM   15  C11 UNL     1       3.735   0.906   0.029  1.00  0.00     0.010 A 
HETATM   16  C12 UNL     1       4.425   1.100   1.211  1.00  0.00     0.037 A 
HETATM   17  C13 UNL     1       5.367   0.188   1.664  1.00  0.00     0.065 A 
HETATM   18  C14 UNL     1       5.642  -0.950   0.935  1.00  0.00     0.037 A 
HETATM   19  C15 UNL     1       4.925  -1.113  -0.255  1.00  0.00     0.010 A 
BRANCH  17  20
HETATM   20  O1  UNL     1       6.089   0.341   2.850  1.00  0.00    -0.361 OA
HETATM   21  H14 UNL     1       7.091   0.427   2.839  1.00  0.00     0.217 HD
ENDBRANCH  17  20
ENDBRANCH  13  14
ENDBRANCH   9  13
BRANCH   1  22
HETATM   22  N1  UNL     1      -2.205   1.000  -1.215  1.00  0.00    -0.366 N 
HETATM   23  H5  UNL     1      -2.380   0.966  -2.252  1.00  0.00     0.161 HD
BRANCH  22  24
HETATM   24  C2  UNL     1      -3.138   1.604  -0.326  1.00  0.00     0.112 C 
HETATM   25  C1  UNL     1      -2.540   2.490   0.727  1.00  0.00     0.037 C 
BRANCH  24  26
HETATM   26  C16 UNL     1      -4.063   0.610   0.234  1.00  0.00    -0.036 A 
HETATM   27  C17 UNL     1      -5.392   1.033   0.399  1.00  0.00     0.009 A 
HETATM   28  C18 UNL     1      -6.439   0.285   0.891  1.00  0.00     0.001 A 
HETATM   29  C19 UNL     1      -6.186  -1.006   1.265  1.00  0.00     0.000 A 
HETATM   30  C20 UNL     1      -4.911  -1.483   1.131  1.00  0.00     0.001 A 
HETATM   31  C21 UNL     1      -3.910  -0.693   0.635  1.00  0.00     0.009 A 
ENDBRANCH  24  26
ENDBRANCH  22  24
ENDBRANCH   1  22
TORSDOF 7
