REMARK  1 active torsions:
REMARK  status: ('A' for Active; 'I' for Inactive)
REMARK    1  A    between atoms: C11_15  and  O1_16 
ROOT
HETATM    1  C1  UNL     1      -4.267   2.062  -1.514  1.00  0.00     0.021 C 
HETATM    2  C2  UNL     1      -3.142   1.752  -1.149  1.00  0.00    -0.042 C 
HETATM    3  C3  UNL     1      -1.790   1.389  -0.733  1.00  0.00     0.154 C 
HETATM    4  N1  UNL     1      -1.173   2.355  -0.142  1.00  0.00    -0.333 N 
HETATM    5  C4  UNL     1      -1.796   3.626   0.048  1.00  0.00     0.177 A 
HETATM    6  N2  UNL     1      -0.653   4.116   0.508  1.00  0.00    -0.305 NA
HETATM    7  B1  UNL     1       0.478   2.588   0.398  1.00  0.00     0.551 B 
HETATM    8  N3  UNL     1       2.002   2.877  -0.269  1.00  0.00    -0.257 NA
HETATM    9  C5  UNL     1       2.803   1.623  -0.308  1.00  0.00     0.099 C 
HETATM   10  C6  UNL     1       3.237   1.321   1.104  1.00  0.00     0.013 C 
HETATM   11  C7  UNL     1       3.273   0.691   2.269  1.00  0.00     0.021 C 
HETATM   12  C8  UNL     1       2.829  -0.361   3.210  1.00  0.00    -0.024 C 
HETATM   13  C9  UNL     1       2.021  -1.419   3.496  1.00  0.00    -0.022 C 
HETATM   14  C10 UNL     1       1.384  -1.323   2.195  1.00  0.00     0.056 C 
HETATM   15  C11 UNL     1       0.439  -1.893   1.473  1.00  0.00     0.097 C 
HETATM   16  C12 UNL     1      -0.667  -2.778   1.014  1.00  0.00     0.047 C 
HETATM   17  C13 UNL     1      -1.881  -2.015   0.535  1.00  0.00     0.060 C 
HETATM   18  C14 UNL     1      -1.517  -1.235  -0.663  1.00  0.00     0.014 A 
HETATM   19  C15 UNL     1      -1.182  -2.158  -1.522  1.00  0.00     0.025 A 
HETATM   20  C16 UNL     1      -0.724  -1.902  -2.901  1.00  0.00    -0.001 A 
HETATM   21  C17 UNL     1      -0.639  -0.649  -3.307  1.00  0.00    -0.007 A 
HETATM   22  C18 UNL     1      -0.988   0.526  -2.425  1.00  0.00     0.158 A 
HETATM   23  N4  UNL     1      -1.458   0.071  -1.147  1.00  0.00    -0.327 N 
ENDROOT
BRANCH  15  24
HETATM   24  O1  UNL     1       0.571  -1.094   0.335  1.00  0.00    -0.386 OA
HETATM   25  H10 UNL     1       1.311  -1.368  -0.328  1.00  0.00     0.210 HD
ENDBRANCH  15  24
TORSDOF 1
