REMARK  1 active torsions:
REMARK  status: ('A' for Active; 'I' for Inactive)
REMARK    1  A    between atoms: C12_16  and  O1_17 
ROOT
HETATM    1  C1  UNL     1       3.611   1.809  -1.343  1.00  0.00     0.037 C 
HETATM    2  C2  UNL     1       2.910   1.603  -0.014  1.00  0.00     0.112 C 
HETATM    3  N1  UNL     1       2.643   0.283   0.310  1.00  0.00    -0.369 N 
HETATM    4  C3  UNL     1       2.685  -1.045   0.590  1.00  0.00     0.112 C 
HETATM    5  N2  UNL     1       3.911  -1.317   0.311  1.00  0.00    -0.255 NA
HETATM    6  C4  UNL     1       4.271  -2.780   0.525  1.00  0.00     0.301 C 
HETATM    7  N3  UNL     1       3.210  -3.433  -0.303  1.00  0.00    -0.254 NA
HETATM    8  C5  UNL     1       1.960  -3.168  -0.099  1.00  0.00     0.116 C 
HETATM    9  N4  UNL     1       0.647  -3.465  -0.560  1.00  0.00    -0.343 N 
HETATM   10  C6  UNL     1      -0.122  -2.512   0.129  1.00  0.00     0.041 C 
HETATM   11  C7  UNL     1       0.433  -1.696   0.948  1.00  0.00     0.023 C 
HETATM   12  C8  UNL     1       1.829  -2.197   1.052  1.00  0.00     0.149 C 
HETATM   13  C9  UNL     1      -1.487  -2.183  -0.086  1.00  0.00    -0.009 A 
HETATM   14  C10 UNL     1      -2.508  -3.067  -0.151  1.00  0.00     0.016 A 
HETATM   15  C11 UNL     1      -3.708  -2.440  -0.418  1.00  0.00     0.038 A 
HETATM   16  C12 UNL     1      -3.848  -1.071  -0.598  1.00  0.00     0.076 A 
HETATM   17  C13 UNL     1      -2.818  -0.168  -0.535  1.00  0.00     0.008 A 
HETATM   18  C14 UNL     1      -1.617  -0.784  -0.268  1.00  0.00     0.029 A 
HETATM   19  C15 UNL     1      -2.686   1.246  -0.685  1.00  0.00    -0.023 C 
HETATM   20  C16 UNL     1      -3.598   1.516   0.305  1.00  0.00     0.012 C 
HETATM   21  C17 UNL     1      -2.912   2.076   1.348  1.00  0.00     0.001 C 
HETATM   22  C18 UNL     1      -1.720   2.760   1.298  1.00  0.00     0.000 C 
HETATM   23  C19 UNL     1      -0.363   2.728   1.486  1.00  0.00     0.001 C 
HETATM   24  C20 UNL     1       0.752   2.125   0.944  1.00  0.00     0.009 C 
HETATM   25  C21 UNL     1       1.528   2.253  -0.221  1.00  0.00    -0.036 C 
HETATM   26  C22 UNL     1       0.638   2.896  -1.037  1.00  0.00     0.009 C 
HETATM   27  C23 UNL     1      -0.502   2.217  -1.488  1.00  0.00     0.002 C 
HETATM   28  C24 UNL     1      -1.863   1.919  -1.563  1.00  0.00     0.012 C 
HETATM   29  H5  UNL     1       1.628   0.138   0.486  1.00  0.00     0.161 HD
HETATM   30  H8  UNL     1       0.380  -4.180  -1.209  1.00  0.00     0.167 HD
ENDROOT
BRANCH  16  31
HETATM   31  O1  UNL     1      -5.025  -0.402  -0.867  1.00  0.00    -0.360 OA
HETATM   32  H13 UNL     1      -5.842  -0.650  -0.341  1.00  0.00     0.217 HD
ENDBRANCH  16  31
TORSDOF 1
