REMARK  3 active torsions:
REMARK  status: ('A' for Active; 'I' for Inactive)
REMARK    1  A    between atoms: C1_2  and  N2_3 
REMARK    2  A    between atoms: N2_3  and  C2_4 
REMARK    3  A    between atoms: C3_5  and  C4_6 
ROOT
HETATM    1  C2  UNL     1      -1.109   1.426  -0.191  1.00  0.00     0.036 C 
HETATM    2  C3  UNL     1      -0.681   0.224   0.162  1.00  0.00    -0.036 C 
HETATM    3  C13 UNL     1      -1.850  -0.720   0.391  1.00  0.00     0.054 A 
HETATM    4  C14 UNL     1      -1.481  -2.086   0.780  1.00  0.00     0.041 A 
HETATM    5  C15 UNL     1      -2.244  -3.066  -0.059  1.00  0.00    -0.026 A 
HETATM    6  C16 UNL     1      -3.151  -2.980  -0.999  1.00  0.00    -0.003 A 
HETATM    7  C17 UNL     1      -3.502  -1.605  -1.311  1.00  0.00     0.007 A 
HETATM    8  C18 UNL     1      -2.879  -0.622  -0.643  1.00  0.00    -0.050 A 
HETATM    9  C19 UNL     1      -3.326   0.723  -0.996  1.00  0.00     0.010 C 
HETATM   10  C20 UNL     1      -2.443   1.718  -0.771  1.00  0.00     0.030 C 
ENDROOT
BRANCH   2  11
HETATM   11  C4  UNL     1       0.753   0.063   0.444  1.00  0.00     0.053 C 
HETATM   12  C5  UNL     1       1.396   1.142   1.189  1.00  0.00     0.000 C 
HETATM   13  C6  UNL     1       2.519   1.066   1.902  1.00  0.00     0.080 C 
HETATM   14  N3  UNL     1       3.360  -0.098   2.102  1.00  0.00    -0.395 N 
HETATM   15  C7  UNL     1       3.507  -1.255   1.199  1.00  0.00     0.153 C 
HETATM   16  H7  UNL     1       3.946  -0.162   2.973  1.00  0.00     0.159 HD
HETATM   17  C8  UNL     1       2.984  -0.797  -0.134  1.00  0.00    -0.054 A 
HETATM   18  C9  UNL     1       3.712  -0.382  -1.180  1.00  0.00     0.005 A 
HETATM   19  C12 UNL     1       1.552  -0.732  -0.507  1.00  0.00     0.050 A 
HETATM   20  C10 UNL     1       2.810  -0.030  -2.269  1.00  0.00    -0.003 A 
HETATM   21  C11 UNL     1       1.547  -0.224  -1.902  1.00  0.00    -0.017 A 
ENDBRANCH   2  11
BRANCH   1  22
HETATM   22  N2  UNL     1      -0.414   2.662  -0.342  1.00  0.00    -0.351 N 
HETATM   23  H3  UNL     1       0.481   2.815  -0.877  1.00  0.00     0.166 HD
BRANCH  22  24
HETATM   24  C1  UNL     1      -0.894   3.894   0.247  1.00  0.00     0.197 C 
HETATM   25  N1  UNL     1      -1.936   3.888   1.001  1.00  0.00    -0.295 NA
HETATM   26  H1  UNL     1      -2.516   3.089   1.264  1.00  0.00     0.187 HD
ENDBRANCH  22  24
ENDBRANCH   1  22
TORSDOF 3
