REMARK  3 active torsions:
REMARK  status: ('A' for Active; 'I' for Inactive)
REMARK    1  A    between atoms: C10_10  and  N1_11 
REMARK    2  A    between atoms: N1_11  and  C11_12 
REMARK    3  A    between atoms: C13_14  and  C14_15 
ROOT
HETATM    1  C1  UNL     1      -5.862   2.320  -0.073  1.00  0.00     0.037 C 
HETATM    2  C2  UNL     1      -4.549   1.680  -0.042  1.00  0.00    -0.017 C 
HETATM    3  C3  UNL     1      -4.051   0.483  -0.297  1.00  0.00    -0.011 C 
HETATM    4  C4  UNL     1      -4.999  -0.538  -0.732  1.00  0.00     0.013 C 
HETATM    5  C5  UNL     1      -4.930  -1.878  -0.823  1.00  0.00     0.002 C 
HETATM    6  C6  UNL     1      -3.867  -2.862  -0.521  1.00  0.00     0.012 C 
HETATM    7  C7  UNL     1      -2.568  -2.903  -0.547  1.00  0.00    -0.025 C 
HETATM    8  C8  UNL     1      -1.775  -2.072   0.055  1.00  0.00     0.030 C 
HETATM    9  C9  UNL     1      -1.715  -0.617   0.058  1.00  0.00     0.040 A 
HETATM   10  C10 UNL     1      -0.389  -0.321   0.258  1.00  0.00     0.141 A 
HETATM   11  N2  UNL     1       0.018   0.959   0.316  1.00  0.00    -0.224 NA
HETATM   12  C20 UNL     1      -0.862   1.964   0.180  1.00  0.00     0.236 A 
HETATM   13  N3  UNL     1      -2.157   1.680  -0.015  1.00  0.00    -0.240 NA
HETATM   14  C21 UNL     1      -2.606   0.424  -0.080  1.00  0.00     0.082 A 
ENDROOT
BRANCH  10  15
HETATM   15  N1  UNL     1       0.621  -1.300   0.406  1.00  0.00    -0.344 N 
HETATM   16  H9  UNL     1       0.965  -2.271   0.447  1.00  0.00     0.167 HD
BRANCH  15  17
HETATM   17  C11 UNL     1       1.989  -0.957   0.627  1.00  0.00     0.007 C 
HETATM   18  C12 UNL     1       2.896  -0.995   1.805  1.00  0.00     0.068 C 
HETATM   19  C13 UNL     1       2.587  -0.492  -0.486  1.00  0.00     0.033 C 
BRANCH  19  20
HETATM   20  C14 UNL     1       3.973  -0.058  -0.596  1.00  0.00    -0.042 C 
HETATM   21  C15 UNL     1       4.910  -0.978  -0.511  1.00  0.00    -0.019 C 
HETATM   22  C16 UNL     1       6.004  -0.751   0.135  1.00  0.00     0.012 C 
HETATM   23  C17 UNL     1       6.294   0.549   0.687  1.00  0.00    -0.003 C 
HETATM   24  C18 UNL     1       5.595   1.573   0.236  1.00  0.00    -0.022 C 
HETATM   25  C19 UNL     1       4.582   1.278  -0.795  1.00  0.00     0.066 C 
ENDBRANCH  19  20
ENDBRANCH  15  17
ENDBRANCH  10  15
TORSDOF 3
