REMARK  5 active torsions:
REMARK  status: ('A' for Active; 'I' for Inactive)
REMARK    1  A    between atoms: C2_2  and  C3_3 
REMARK    2  A    between atoms: C2_2  and  N1_11 
REMARK    3  A    between atoms: N1_11  and  C10_12 
REMARK    4  A    between atoms: C12_14  and  C13_15 
REMARK    5  A    between atoms: C19_21  and  N2_22 
ROOT
HETATM    1  C10 UNL     1       0.258  -1.465  -0.446  1.00  0.00     0.131 A 
HETATM    2  C11 UNL     1      -0.404  -0.386   0.050  1.00  0.00     0.079 A 
HETATM    3  C12 UNL     1      -1.665   0.004  -0.341  1.00  0.00     0.052 A 
HETATM    4  N3  UNL     1      -2.202  -0.790  -1.278  1.00  0.00    -0.245 NA
HETATM    5  C24 UNL     1      -1.587  -1.865  -1.799  1.00  0.00     0.235 A 
HETATM    6  N4  UNL     1      -0.343  -2.238  -1.404  1.00  0.00    -0.224 NA
ENDROOT
BRANCH   3   7
HETATM    7  C13 UNL     1      -2.487   1.154   0.188  1.00  0.00     0.032 A 
HETATM    8  C14 UNL     1      -1.862   2.455  -0.149  1.00  0.00     0.027 C 
HETATM    9  C15 UNL     1      -2.519   1.003   1.694  1.00  0.00     0.047 A 
HETATM   10  C16 UNL     1      -3.832   0.639   2.232  1.00  0.00    -0.024 A 
HETATM   11  C17 UNL     1      -5.029   0.482   1.700  1.00  0.00     0.010 A 
HETATM   12  C18 UNL     1      -5.083   0.713   0.269  1.00  0.00    -0.003 A 
HETATM   13  C19 UNL     1      -6.247   0.638  -0.440  1.00  0.00     0.036 A 
HETATM   14  C23 UNL     1      -3.866   1.056  -0.329  1.00  0.00    -0.031 A 
HETATM   15  C20 UNL     1      -6.307   0.899  -1.805  1.00  0.00     0.030 A 
HETATM   16  C21 UNL     1      -5.102   1.232  -2.364  1.00  0.00     0.003 A 
HETATM   17  C22 UNL     1      -3.881   1.328  -1.711  1.00  0.00     0.009 A 
BRANCH  13  18
HETATM   18  N2  UNL     1      -7.427   0.279   0.253  1.00  0.00    -0.398 N 
HETATM   19  H19 UNL     1      -7.895   0.806   1.035  1.00  0.00     0.156 HD
HETATM   20  H20 UNL     1      -8.114  -0.530   0.193  1.00  0.00     0.156 HD
ENDBRANCH  13  18
ENDBRANCH   3   7
BRANCH   1  21
HETATM   21  N1  UNL     1       1.505  -1.739   0.074  1.00  0.00    -0.344 N 
HETATM   22  H10 UNL     1       1.225  -2.255   0.960  1.00  0.00     0.167 HD
BRANCH  21  23
HETATM   23  C2  UNL     1       2.882  -1.640  -0.015  1.00  0.00     0.011 C 
HETATM   24  C1  UNL     1       2.810  -2.624  -0.956  1.00  0.00     0.039 C 
BRANCH  23  25
HETATM   25  C3  UNL     1       4.270  -1.541  -0.107  1.00  0.00     0.082 C 
HETATM   26  C4  UNL     1       5.219  -0.816   0.465  1.00  0.00    -0.046 C 
HETATM   27  C5  UNL     1       5.774   0.173   1.334  1.00  0.00     0.006 C 
HETATM   28  C9  UNL     1       6.300  -1.474  -0.399  1.00  0.00     0.032 C 
HETATM   29  C6  UNL     1       6.791   0.985   1.458  1.00  0.00     0.000 C 
HETATM   30  C7  UNL     1       7.813   1.014   0.426  1.00  0.00     0.202 C 
HETATM   31  O1  UNL     1       8.285  -0.191  -0.027  1.00  0.00    -0.359 OA
HETATM   32  C8  UNL     1       7.625  -1.271  -0.667  1.00  0.00     0.135 C 
ENDBRANCH  23  25
ENDBRANCH  21  23
ENDBRANCH   1  21
TORSDOF 5
