REMARK  1 active torsions:
REMARK  status: ('A' for Active; 'I' for Inactive)
REMARK    1  A    between atoms: C2_2  and  C3_3 
ROOT
HETATM    1  C3  UNL     1       2.566  -0.027   1.790  1.00  0.00     0.144 A 
HETATM    2  C4  UNL     1       3.996  -0.475   1.998  1.00  0.00     0.003 A 
HETATM    3  C5  UNL     1       4.691  -0.994   1.011  1.00  0.00     0.000 A 
HETATM    4  C6  UNL     1       4.128  -1.170  -0.326  1.00  0.00     0.026 A 
HETATM    5  C7  UNL     1       2.890  -0.831  -0.631  1.00  0.00     0.026 A 
HETATM    6  C8  UNL     1       2.469  -1.059  -2.018  1.00  0.00     0.104 C 
HETATM    7  C9  UNL     1       0.993  -0.963  -2.077  1.00  0.00     0.097 C 
HETATM    8  N1  UNL     1       0.541  -2.041  -1.637  1.00  0.00    -0.258 NA
HETATM    9  C10 UNL     1      -0.801  -2.430  -1.494  1.00  0.00     0.234 C 
HETATM   10  N2  UNL     1      -1.918  -1.998  -1.066  1.00  0.00    -0.226 NA
HETATM   11  C11 UNL     1      -2.146  -0.743  -0.504  1.00  0.00     0.154 C 
HETATM   12  C12 UNL     1      -1.696   0.330   0.086  1.00  0.00     0.127 C 
HETATM   13  C13 UNL     1      -0.321   0.103   0.221  1.00  0.00    -0.022 C 
HETATM   14  C14 UNL     1       0.829  -0.103   0.322  1.00  0.00     0.021 C 
HETATM   15  N3  UNL     1       2.150  -0.334   0.462  1.00  0.00    -0.298 N 
HETATM   16  N4  UNL     1      -2.109   1.653   0.610  1.00  0.00    -0.368 N 
HETATM   17  C15 UNL     1      -3.553   1.380   0.478  1.00  0.00     0.048 A 
HETATM   18  C16 UNL     1      -3.750   0.861   1.728  1.00  0.00    -0.014 A 
HETATM   19  C17 UNL     1      -4.299   0.078   0.759  1.00  0.00     0.053 A 
HETATM   20  C18 UNL     1      -3.957   0.835  -0.334  1.00  0.00     0.020 A 
HETATM   21  C19 UNL     1      -3.901   1.119  -1.678  1.00  0.00    -0.031 A 
HETATM   22  C20 UNL     1      -3.310   1.977  -0.785  1.00  0.00     0.051 A 
HETATM   23  O1  UNL     1      -4.546  -0.378  -0.932  1.00  0.00     0.000 OA
HETATM   24  N5  UNL     1      -3.408  -1.352  -0.961  1.00  0.00    -0.202 NA
HETATM   25  H12 UNL     1      -1.338   2.282   0.878  1.00  0.00     0.161 HD
HETATM   26  H17 UNL     1      -4.430  -1.465  -1.255  1.00  0.00     0.149 HD
ENDROOT
BRANCH   1  27
HETATM   27  C2  UNL     1       2.518   1.410   2.105  1.00  0.00    -0.007 C 
HETATM   28  C1  UNL     1       2.883   2.132   3.131  1.00  0.00     0.009 C 
ENDBRANCH   1  27
TORSDOF 1
