REMARK  6 active torsions:
REMARK  status: ('A' for Active; 'I' for Inactive)
REMARK    1  A    between atoms: N1_1  and  C1_2 
REMARK    2  A    between atoms: C3_4  and  N2_5 
REMARK    3  A    between atoms: N2_5  and  C4_6 
REMARK    4  A    between atoms: C6_10  and  C7_11 
REMARK    5  A    between atoms: C9_13  and  C10_14 
REMARK    6  A    between atoms: C13_17  and  O1_18 
ROOT
HETATM    1  N2  UNL     1      -0.595   0.699  -0.624  1.00  0.00    -0.405 N 
HETATM    2  H5  UNL     1      -0.547   0.550   0.411  1.00  0.00     0.154 HD
ENDROOT
BRANCH   1   3
HETATM    3  C3  UNL     1      -1.899   0.795  -1.148  1.00  0.00     0.136 C 
HETATM    4  C2  UNL     1      -2.377  -0.424  -1.760  1.00  0.00     0.031 C 
HETATM    5  C1  UNL     1      -3.185  -1.473  -1.583  1.00  0.00     0.024 C 
HETATM    6  C22 UNL     1      -3.954  -1.612  -0.344  1.00  0.00     0.029 C 
HETATM    7  C21 UNL     1      -4.243  -0.747   0.620  1.00  0.00     0.014 C 
HETATM    8  C20 UNL     1      -3.801   0.634   0.603  1.00  0.00    -0.028 A 
HETATM    9  C15 UNL     1      -2.851   1.330  -0.105  1.00  0.00    -0.022 A 
HETATM   10  C19 UNL     1      -4.576   1.313   1.559  1.00  0.00     0.012 A 
HETATM   11  C16 UNL     1      -2.591   2.693   0.057  1.00  0.00     0.010 A 
HETATM   12  C17 UNL     1      -3.395   3.256   1.011  1.00  0.00     0.001 A 
HETATM   13  C18 UNL     1      -4.361   2.650   1.761  1.00  0.00     0.001 A 
BRANCH   5  14
HETATM   14  N1  UNL     1      -3.385  -2.532  -2.500  1.00  0.00    -0.399 N 
HETATM   15  H1  UNL     1      -3.248  -2.139  -3.486  1.00  0.00     0.156 HD
HETATM   16  H2  UNL     1      -3.622  -3.480  -2.129  1.00  0.00     0.156 HD
ENDBRANCH   5  14
ENDBRANCH   1   3
BRANCH   1  17
HETATM   17  C4  UNL     1       0.429   0.021  -1.367  1.00  0.00     0.092 A 
HETATM   18  C5  UNL     1       0.359  -1.447  -1.220  1.00  0.00     0.022 A 
HETATM   19  N3  UNL     1       1.167  -0.341  -1.001  1.00  0.00     0.000 N 
HETATM   20  N4  UNL     1       2.440  -0.214  -0.092  1.00  0.00     0.000 N 
HETATM   21  C6  UNL     1       2.076   1.041  -0.837  1.00  0.00     0.008 A 
HETATM   22  C7  UNL     1       1.782  -0.009  -0.615  1.00  0.00    -0.000 A 
HETATM   23  C9  UNL     1       2.847  -1.630   0.746  1.00  0.00    -0.029 A 
HETATM   24  C8  UNL     1       2.368  -0.975   0.164  1.00  0.00     0.044 A 
BRANCH  23  25
HETATM   25  C10 UNL     1       4.272  -1.599   1.146  1.00  0.00     0.039 A 
HETATM   26  C11 UNL     1       5.191  -1.385   0.034  1.00  0.00    -0.015 A 
HETATM   27  C12 UNL     1       5.896  -0.287   0.231  1.00  0.00     0.033 A 
HETATM   28  C13 UNL     1       5.482   0.314   1.527  1.00  0.00     0.062 A 
HETATM   29  C14 UNL     1       4.521  -0.475   2.057  1.00  0.00     0.018 A 
BRANCH  28  30
HETATM   30  O1  UNL     1       6.236   1.488   1.735  1.00  0.00    -0.361 OA
HETATM   31  H13 UNL     1       6.422   1.790   2.699  1.00  0.00     0.217 HD
ENDBRANCH  28  30
ENDBRANCH  23  25
ENDBRANCH   1  17
TORSDOF 6
