REMARK  9 active torsions:
REMARK  status: ('A' for Active; 'I' for Inactive)
REMARK    1  A    between atoms: O1_2  and  C2_3 
REMARK    2  A    between atoms: C4_5  and  C5_6 
REMARK    3  A    between atoms: C5_6  and  C6_7 
REMARK    4  A    between atoms: C7_8  and  C8_9 
REMARK    5  A    between atoms: C8_9  and  C9_10 
REMARK    6  A    between atoms: C9_10  and  C10_11 
REMARK    7  A    between atoms: C10_11  and  N1_13 
REMARK    8  A    between atoms: N1_13  and  N2_14 
REMARK    9  A    between atoms: C14_17  and  N3_18 
ROOT
HETATM    1  N1  UNL     1      -2.064  -0.226  -1.219  1.00  0.00    -0.329 N 
HETATM    2  H20 UNL     1      -1.897  -1.207  -1.522  1.00  0.00     0.180 HD
ENDROOT
BRANCH   1   3
HETATM    3  C10 UNL     1      -0.866   0.493  -1.060  1.00  0.00     0.096 C 
HETATM    4  C11 UNL     1      -0.938   1.979  -1.257  1.00  0.00     0.034 C 
BRANCH   3   5
HETATM    5  C9  UNL     1      -0.130   0.072   0.165  1.00  0.00     0.030 C 
BRANCH   5   6
HETATM    6  C8  UNL     1       1.314   0.521   0.194  1.00  0.00     0.029 C 
BRANCH   6   7
HETATM    7  C7  UNL     1       1.864   0.008   1.478  1.00  0.00    -0.030 C 
HETATM    8  C6  UNL     1       2.872  -0.827   1.687  1.00  0.00    -0.027 C 
BRANCH   8   9
HETATM    9  C5  UNL     1       3.704  -1.456   0.635  1.00  0.00     0.056 C 
BRANCH   9  10
HETATM   10  C4  UNL     1       5.148  -1.078   0.787  1.00  0.00     0.009 C 
HETATM   11  C2  UNL     1       6.167  -0.474   0.152  1.00  0.00     0.038 C 
HETATM   12  C3  UNL     1       5.913   0.074  -1.224  1.00  0.00     0.076 C 
BRANCH  11  13
HETATM   13  O1  UNL     1       7.482  -0.246   0.546  1.00  0.00    -0.361 OA
HETATM   14  C1  UNL     1       7.926   0.867   1.268  1.00  0.00     0.209 C 
ENDBRANCH  11  13
ENDBRANCH   9  10
ENDBRANCH   8   9
ENDBRANCH   6   7
ENDBRANCH   5   6
ENDBRANCH   3   5
ENDBRANCH   1   3
BRANCH   1  15
HETATM   15  N2  UNL     1      -3.068  -0.073  -0.269  1.00  0.00    -0.287 N 
HETATM   16  C12 UNL     1      -4.317  -0.548  -0.838  1.00  0.00     0.063 A 
HETATM   17  C13 UNL     1      -5.117  -1.075  -1.786  1.00  0.00     0.061 A 
HETATM   18  C16 UNL     1      -5.340  -0.359   0.216  1.00  0.00    -0.007 A 
HETATM   19  C14 UNL     1      -6.517  -1.221  -1.409  1.00  0.00     0.028 A 
HETATM   20  C15 UNL     1      -6.676  -0.784  -0.172  1.00  0.00     0.042 A 
HETATM   21  C17 UNL     1      -4.740   0.165   1.266  1.00  0.00     0.013 A 
HETATM   22  C18 UNL     1      -3.279   0.400   1.089  1.00  0.00     0.127 A 
HETATM   23  C19 UNL     1      -3.107   1.905   1.220  1.00  0.00     0.039 C 
BRANCH  19  24
HETATM   24  N3  UNL     1      -7.493  -1.754  -2.279  1.00  0.00    -0.399 N 
HETATM   25  H22 UNL     1      -8.029  -1.177  -2.981  1.00  0.00     0.156 HD
HETATM   26  H23 UNL     1      -7.621  -2.793  -2.145  1.00  0.00     0.156 HD
ENDBRANCH  19  24
ENDBRANCH   1  15
TORSDOF 9
