REMARK  2 active torsions:
REMARK  status: ('A' for Active; 'I' for Inactive)
REMARK    1  A    between atoms: N1_8  and  C8_9 
REMARK    2  A    between atoms: C11_12  and  O1_13 
ROOT
HETATM    1  C1  UNL     1      -3.817   2.305  -0.089  1.00  0.00     0.061 C 
HETATM    2  C2  UNL     1      -3.004   1.319   0.257  1.00  0.00     0.023 C 
HETATM    3  C3  UNL     1      -1.623   1.633   0.621  1.00  0.00     0.106 A 
HETATM    4  C4  UNL     1      -1.764   2.000   2.086  1.00  0.00    -0.010 A 
HETATM    5  C5  UNL     1      -1.061   1.258   2.931  1.00  0.00    -0.001 A 
HETATM    6  C6  UNL     1      -0.362   0.294   2.042  1.00  0.00     0.026 A 
HETATM    7  C7  UNL     1      -0.675   0.504   0.741  1.00  0.00     0.027 A 
HETATM    8  N1  UNL     1       0.106  -0.491   0.003  1.00  0.00    -0.332 N 
HETATM    9  C16 UNL     1      -0.381  -1.664  -0.741  1.00  0.00     0.253 C 
HETATM   10  N2  UNL     1      -1.361  -2.435   0.060  1.00  0.00    -0.360 N 
HETATM   11  C17 UNL     1      -2.683  -1.861   0.258  1.00  0.00     0.122 C 
HETATM   12  N3  UNL     1      -3.322  -2.297  -0.742  1.00  0.00    -0.225 NA
HETATM   13  C18 UNL     1      -4.402  -1.513  -1.326  1.00  0.00     0.257 C 
HETATM   14  N4  UNL     1      -4.691  -0.330  -0.779  1.00  0.00    -0.165 NA
HETATM   15  N5  UNL     1      -3.732   0.114   0.179  1.00  0.00    -0.269 N 
HETATM   16  C19 UNL     1      -3.549  -0.995   1.137  1.00  0.00     0.229 C 
HETATM   17  H18 UNL     1      -1.395  -3.346   0.572  1.00  0.00     0.162 HD
ENDROOT
BRANCH   8  18
HETATM   18  C8  UNL     1       1.544  -0.357  -0.088  1.00  0.00     0.042 A 
HETATM   19  C9  UNL     1       2.571  -0.577   0.794  1.00  0.00     0.033 A 
HETATM   20  C10 UNL     1       3.887  -0.396   0.463  1.00  0.00     0.039 A 
HETATM   21  C11 UNL     1       4.260   0.024  -0.794  1.00  0.00     0.068 A 
HETATM   22  C13 UNL     1       3.229   0.244  -1.678  1.00  0.00     0.045 A 
HETATM   23  C14 UNL     1       1.872   0.067  -1.365  1.00  0.00    -0.032 A 
HETATM   24  C15 UNL     1       0.912   0.375  -2.488  1.00  0.00     0.050 C 
BRANCH  21  25
HETATM   25  O1  UNL     1       5.592   0.204  -1.118  1.00  0.00    -0.356 OA
HETATM   26  C12 UNL     1       6.598  -0.040  -0.162  1.00  0.00     0.210 C 
ENDBRANCH  21  25
ENDBRANCH   8  18
TORSDOF 2
