REMARK  5 active torsions:
REMARK  status: ('A' for Active; 'I' for Inactive)
REMARK    1  A    between atoms: C2_2  and  C3_3 
REMARK    2  A    between atoms: C4_4  and  C5_5 
REMARK    3  A    between atoms: C5_5  and  C6_6 
REMARK    4  A    between atoms: C6_6  and  N1_8 
REMARK    5  A    between atoms: C11_14  and  O1_15 
ROOT
HETATM    1  N1  UNL     1      -0.921   1.094   0.852  1.00  0.00    -0.265 N 
HETATM    2  N2  UNL     1      -0.907   1.589  -0.493  1.00  0.00    -0.167 NA
HETATM    3  C8  UNL     1       0.116   1.424  -1.251  1.00  0.00     0.230 C 
HETATM    4  N3  UNL     1       1.347   1.112  -1.859  1.00  0.00    -0.349 N 
HETATM    5  C9  UNL     1       2.227   0.006  -1.884  1.00  0.00     0.046 A 
HETATM    6  C10 UNL     1       2.921  -0.190  -3.058  1.00  0.00     0.067 A 
HETATM    7  C11 UNL     1       3.822  -1.256  -3.152  1.00  0.00     0.070 A 
HETATM    8  C13 UNL     1       4.038  -2.138  -2.070  1.00  0.00     0.038 A 
HETATM    9  C14 UNL     1       3.359  -1.965  -0.888  1.00  0.00     0.017 A 
HETATM   10  C15 UNL     1       2.500  -0.915  -0.861  1.00  0.00    -0.003 A 
HETATM   11  C16 UNL     1       1.773  -0.731   0.367  1.00  0.00    -0.040 C 
HETATM   12  C17 UNL     1       0.544  -0.532  -0.012  1.00  0.00     0.039 C 
HETATM   13  C18 UNL     1       0.378   0.458   1.067  1.00  0.00     0.050 C 
HETATM   14  C19 UNL     1       1.350   0.755   1.946  1.00  0.00     0.009 C 
HETATM   15  C20 UNL     1       2.039  -0.638   1.814  1.00  0.00     0.069 C 
HETATM   16  H13 UNL     1       1.653   1.956  -2.435  1.00  0.00     0.167 HD
ENDROOT
BRANCH   1  17
HETATM   17  C6  UNL     1      -1.809   1.083   1.950  1.00  0.00     0.110 C 
HETATM   18  C7  UNL     1      -1.222   1.475   3.275  1.00  0.00     0.034 C 
BRANCH  17  19
HETATM   19  C5  UNL     1      -3.160   1.725   1.710  1.00  0.00     0.054 C 
BRANCH  19  20
HETATM   20  C4  UNL     1      -4.087   1.272   2.776  1.00  0.00    -0.025 C 
HETATM   21  C3  UNL     1      -5.184   0.607   2.449  1.00  0.00    -0.005 C 
BRANCH  21  22
HETATM   22  C2  UNL     1      -5.437   0.349   1.051  1.00  0.00    -0.011 C 
HETATM   23  C1  UNL     1      -6.502  -0.316   0.676  1.00  0.00     0.011 C 
ENDBRANCH  21  22
ENDBRANCH  19  20
ENDBRANCH  17  19
ENDBRANCH   1  17
BRANCH   7  24
HETATM   24  O1  UNL     1       4.486  -1.409  -4.339  1.00  0.00    -0.356 OA
HETATM   25  C12 UNL     1       5.428  -2.395  -4.659  1.00  0.00     0.210 C 
ENDBRANCH   7  24
TORSDOF 5
