REMARK  3 active torsions:
REMARK  status: ('A' for Active; 'I' for Inactive)
REMARK    1  A    between atoms: C2_2  and  N1_3 
REMARK    2  A    between atoms: C2_2  and  C14_17 
REMARK    3  A    between atoms: N1_3  and  C3_4 
ROOT
HETATM    1  N1  UNL     1      -0.488  -0.588   0.638  1.00  0.00     0.104 N 
HETATM    2  H5  UNL     1      -0.584  -0.490   1.646  1.00  0.00     0.317 HD
ENDROOT
BRANCH   1   3
HETATM    3  C2  UNL     1       0.632  -1.375   0.237  1.00  0.00     0.251 C 
HETATM    4  C1  UNL     1       0.572  -2.648   1.103  1.00  0.00     0.048 C 
BRANCH   3   5
HETATM    5  C14 UNL     1       1.877  -0.679   0.593  1.00  0.00    -0.015 A 
HETATM    6  C15 UNL     1       1.983   0.239   1.616  1.00  0.00     0.010 A 
HETATM    7  C16 UNL     1       3.131   0.902   1.976  1.00  0.00     0.002 A 
HETATM    8  C17 UNL     1       4.288   0.646   1.270  1.00  0.00     0.012 A 
HETATM    9  C18 UNL     1       4.274  -0.258   0.232  1.00  0.00    -0.025 A 
HETATM   10  C19 UNL     1       5.429  -0.517  -0.474  1.00  0.00     0.012 A 
HETATM   11  C23 UNL     1       3.082  -0.882  -0.067  1.00  0.00    -0.018 A 
HETATM   12  C20 UNL     1       5.447  -1.414  -1.514  1.00  0.00     0.001 A 
HETATM   13  C21 UNL     1       4.285  -2.052  -1.839  1.00  0.00     0.001 A 
HETATM   14  C22 UNL     1       3.143  -1.775  -1.117  1.00  0.00     0.013 A 
ENDBRANCH   3   5
ENDBRANCH   1   3
BRANCH   1  15
HETATM   15  C3  UNL     1      -0.657   0.540  -0.031  1.00  0.00     0.309 C 
HETATM   16  C4  UNL     1      -0.990   0.631  -1.525  1.00  0.00     0.157 C 
HETATM   17  N2  UNL     1      -1.699   1.797  -1.644  1.00  0.00    -0.097 NA
HETATM   18  N3  UNL     1      -2.082   2.546  -0.470  1.00  0.00     0.064 N 
HETATM   19  C5  UNL     1      -2.142   2.763   0.914  1.00  0.00     0.302 A 
HETATM   20  C13 UNL     1      -3.483   3.079  -0.576  1.00  0.00     0.308 C 
HETATM   21  C6  UNL     1      -1.589   1.625   0.416  1.00  0.00     0.250 A 
HETATM   22  C12 UNL     1      -4.192   1.654  -0.239  1.00  0.00    -0.021 A 
HETATM   23  C7  UNL     1      -2.941   0.937  -0.255  1.00  0.00    -0.007 A 
HETATM   24  C11 UNL     1      -5.483   1.392  -0.355  1.00  0.00     0.009 A 
HETATM   25  C8  UNL     1      -3.222  -0.502  -0.492  1.00  0.00     0.010 A 
HETATM   26  C9  UNL     1      -4.533  -0.870  -0.629  1.00  0.00     0.001 A 
HETATM   27  C10 UNL     1      -5.558   0.038  -0.557  1.00  0.00     0.001 A 
ENDBRANCH   1  15
TORSDOF 3
