REMARK  6 active torsions:
REMARK  status: ('A' for Active; 'I' for Inactive)
REMARK    1  A    between atoms: O1_2  and  C2_3 
REMARK    2  A    between atoms: C4_5  and  O2_6 
REMARK    3  A    between atoms: O2_6  and  C5_7 
REMARK       I    between atoms: N1_10  and  C8_11 
REMARK    4  A    between atoms: C13_17  and  N2_18 
REMARK    5  A    between atoms: N2_18  and  S1_19 
REMARK    6  A    between atoms: S1_19  and  C14_20 
ROOT
HETATM    1  C2  UNL     1      -0.078   3.827   0.876  1.00  0.00     0.073 A 
HETATM    2  C3  UNL     1       0.472   2.565   0.825  1.00  0.00     0.074 A 
HETATM    3  C4  UNL     1       0.020   1.496   0.087  1.00  0.00     0.088 A 
HETATM    4  C12 UNL     1      -1.121   1.792  -0.669  1.00  0.00     0.073 A 
HETATM    5  C13 UNL     1      -1.691   0.794  -1.448  1.00  0.00     0.150 A 
HETATM    6  N3  UNL     1      -2.787   1.095  -2.151  1.00  0.00    -0.223 NA
HETATM    7  C20 UNL     1      -3.352   2.314  -2.132  1.00  0.00     0.236 A 
HETATM    8  N4  UNL     1      -2.816   3.295  -1.382  1.00  0.00    -0.241 NA
HETATM    9  C21 UNL     1      -1.714   3.067  -0.648  1.00  0.00     0.077 A 
HETATM   10  C22 UNL     1      -1.184   4.058   0.121  1.00  0.00     0.069 A 
ENDROOT
BRANCH   5  11
HETATM   11  N2  UNL     1      -1.190  -0.529  -1.543  1.00  0.00    -0.310 N 
HETATM   12  H17 UNL     1      -0.583  -0.984  -2.270  1.00  0.00     0.176 HD
BRANCH  11  13
HETATM   13  S1  UNL     1      -1.931  -1.108  -0.057  1.00  0.00    -0.013 SA
BRANCH  13  14
HETATM   14  C14 UNL     1      -3.403  -2.021  -0.451  1.00  0.00     0.023 A 
HETATM   15  C15 UNL     1      -4.000  -2.361  -1.645  1.00  0.00     0.023 A 
HETATM   16  C16 UNL     1      -5.173  -3.085  -1.602  1.00  0.00     0.045 A 
HETATM   17  C17 UNL     1      -5.780  -3.486  -0.457  1.00  0.00     0.138 A 
HETATM   18  F1  UNL     1      -6.931  -4.193  -0.517  1.00  0.00    -0.204 F 
HETATM   19  C18 UNL     1      -5.195  -3.153   0.765  1.00  0.00     0.073 A 
HETATM   20 CL1  UNL     1      -6.038  -3.702   2.189  1.00  0.00    -0.081 Cl
HETATM   21  C19 UNL     1      -4.005  -2.419   0.742  1.00  0.00     0.047 A 
ENDBRANCH  13  14
ENDBRANCH  11  13
ENDBRANCH   5  11
BRANCH   3  22
HETATM   22  O2  UNL     1       0.578   0.231   0.038  1.00  0.00    -0.345 OA
BRANCH  22  23
HETATM   23  C5  UNL     1       1.686  -0.169   0.814  1.00  0.00     0.132 C 
HETATM   24  C6  UNL     1       1.646  -1.540   1.329  1.00  0.00     0.052 C 
HETATM   25  C7  UNL     1       2.696  -2.514   0.981  1.00  0.00     0.128 C 
HETATM   26  N1  UNL     1       3.842  -1.907   0.381  1.00  0.00    -0.352 N 
HETATM   27  C8  UNL     1       4.693  -2.709  -0.444  1.00  0.00     0.215 C 
HETATM   28  C10 UNL     1       4.170  -0.508   0.581  1.00  0.00     0.128 C 
HETATM   29  C9  UNL     1       5.916  -2.205  -1.123  1.00  0.00     0.117 C 
HETATM   30  O3  UNL     1       4.149  -3.867  -0.425  1.00  0.00    -0.274 OA
HETATM   31  C11 UNL     1       2.960   0.267   0.138  1.00  0.00     0.052 C 
ENDBRANCH  22  23
ENDBRANCH   3  22
BRANCH   1  32
HETATM   32  O1  UNL     1       0.510   4.796   1.683  1.00  0.00    -0.356 OA
HETATM   33  C1  UNL     1      -0.004   6.102   1.775  1.00  0.00     0.210 C 
ENDBRANCH   1  32
TORSDOF 6
