REMARK  2 active torsions:
REMARK  status: ('A' for Active; 'I' for Inactive)
REMARK    1  A    between atoms: C4_4  and  O1_5 
REMARK    2  A    between atoms: C6_8  and  C7_9 
ROOT
HETATM    1  C1  UNL     1      -2.704   2.760  -1.208  1.00  0.00     0.010 C 
HETATM    2  C2  UNL     1      -2.644   1.607  -0.277  1.00  0.00    -0.008 C 
HETATM    3  C3  UNL     1      -1.312   1.272   0.302  1.00  0.00     0.070 C 
HETATM    4  C4  UNL     1      -0.590   2.327   1.009  1.00  0.00     0.058 C 
HETATM    5  C5  UNL     1       0.731   2.406   0.958  1.00  0.00     0.116 C 
HETATM    6  N1  UNL     1       1.751   1.640   0.325  1.00  0.00    -0.377 N 
HETATM    7  C6  UNL     1       1.785   0.387  -0.370  1.00  0.00     0.185 C 
HETATM    8  N2  UNL     1       1.106  -0.618   0.416  1.00  0.00    -0.292 NA
HETATM    9  C13 UNL     1       0.466  -1.621  -0.178  1.00  0.00     0.210 C 
HETATM   10  C14 UNL     1       0.435  -1.732  -1.628  1.00  0.00     0.025 C 
HETATM   11  C15 UNL     1      -0.648  -1.295  -2.256  1.00  0.00    -0.024 C 
HETATM   12  C16 UNL     1      -1.711  -1.982  -1.853  1.00  0.00     0.024 C 
HETATM   13  C17 UNL     1      -2.176  -1.903  -0.475  1.00  0.00    -0.029 A 
HETATM   14  C18 UNL     1      -1.992  -2.926   0.473  1.00  0.00     0.012 A 
HETATM   15  C19 UNL     1      -2.451  -2.932   1.779  1.00  0.00     0.001 A 
HETATM   16  C20 UNL     1      -3.158  -1.819   2.182  1.00  0.00     0.001 A 
HETATM   17  C21 UNL     1      -3.363  -0.791   1.286  1.00  0.00     0.008 A 
HETATM   18  C22 UNL     1      -2.908  -0.779  -0.016  1.00  0.00    -0.048 A 
HETATM   19  C23 UNL     1      -3.127   0.312  -0.976  1.00  0.00     0.044 C 
HETATM   20  H9  UNL     1       2.690   2.142   0.401  1.00  0.00     0.160 HD
ENDROOT
BRANCH   7  21
HETATM   21  C7  UNL     1       3.194  -0.049  -0.552  1.00  0.00    -0.022 A 
HETATM   22  C8  UNL     1       3.908   0.123   0.635  1.00  0.00     0.010 A 
HETATM   23  C9  UNL     1       5.259  -0.216   0.717  1.00  0.00     0.001 A 
HETATM   24  C10 UNL     1       5.882  -0.728  -0.401  1.00  0.00     0.000 A 
HETATM   25  C11 UNL     1       5.167  -0.894  -1.569  1.00  0.00     0.001 A 
HETATM   26  C12 UNL     1       3.836  -0.561  -1.657  1.00  0.00     0.010 A 
ENDBRANCH   7  21
BRANCH   4  27
HETATM   27  O1  UNL     1      -1.461   3.134   1.667  1.00  0.00    -0.364 OA
HETATM   28  H7  UNL     1      -1.228   4.061   2.004  1.00  0.00     0.217 HD
ENDBRANCH   4  27
TORSDOF 2
