REMARK  3 active torsions:
REMARK  status: ('A' for Active; 'I' for Inactive)
REMARK    1  A    between atoms: C2_2  and  C3_3 
REMARK    2  A    between atoms: C3_3  and  C4_4 
REMARK    3  A    between atoms: C3_3  and  C9_10 
ROOT
HETATM    1  C9  UNL     1      -0.589  -0.139  -1.366  1.00  0.00     0.062 A 
HETATM    2  N1  UNL     1      -0.655  -0.868  -2.492  1.00  0.00    -0.244 NA
HETATM    3  C10 UNL     1       0.268  -1.665  -3.013  1.00  0.00     0.235 A 
HETATM    4  N2  UNL     1       1.485  -1.848  -2.415  1.00  0.00    -0.223 NA
HETATM    5  C11 UNL     1       1.598  -1.145  -1.293  1.00  0.00     0.143 A 
HETATM    6  C12 UNL     1       0.594  -0.278  -0.725  1.00  0.00     0.035 A 
HETATM    7  C13 UNL     1       0.655   0.575   0.532  1.00  0.00     0.014 C 
HETATM    8  C14 UNL     1       1.569   1.078   1.468  1.00  0.00    -0.013 C 
HETATM    9  C15 UNL     1       2.931   0.785   1.542  1.00  0.00     0.059 C 
HETATM   10  C16 UNL     1       4.226   0.668   2.062  1.00  0.00     0.010 C 
HETATM   11  C17 UNL     1       5.209   0.701   1.037  1.00  0.00     0.141 C 
HETATM   12  O1  UNL     1       4.723  -0.149  -0.045  1.00  0.00    -0.306 OA
HETATM   13  C18 UNL     1       3.477  -0.790   0.345  1.00  0.00     0.145 C 
HETATM   14  C19 UNL     1       2.824  -0.748   1.545  1.00  0.00     0.042 C 
HETATM   15  N3  UNL     1       2.991  -1.470  -0.823  1.00  0.00    -0.321 N 
HETATM   16  H16 UNL     1       3.640  -2.069  -1.258  1.00  0.00     0.169 HD
ENDROOT
BRANCH   1  17
HETATM   17  C3  UNL     1      -1.556   0.742  -0.761  1.00  0.00     0.093 C 
BRANCH  17  18
HETATM   18  C2  UNL     1      -2.539   0.996  -1.904  1.00  0.00    -0.021 C 
HETATM   19  C1  UNL     1      -2.914   2.158  -2.407  1.00  0.00     0.008 C 
ENDBRANCH  17  18
BRANCH  17  20
HETATM   20  C4  UNL     1      -2.534   0.153   0.202  1.00  0.00    -0.050 C 
HETATM   21  C5  UNL     1      -3.049   0.661   1.400  1.00  0.00    -0.008 C 
HETATM   22  C6  UNL     1      -3.927  -0.020   2.177  1.00  0.00    -0.086 C 
HETATM   23  B1  UNL     1      -5.213  -0.811   1.418  1.00  0.00     0.177 B 
HETATM   24  C7  UNL     1      -3.685  -2.150   0.073  1.00  0.00    -0.036 C 
HETATM   25  C8  UNL     1      -2.897  -1.067  -0.242  1.00  0.00    -0.024 C 
ENDBRANCH  17  20
ENDBRANCH   1  17
TORSDOF 3
