REMARK  4 active torsions:
REMARK  status: ('A' for Active; 'I' for Inactive)
REMARK    1  A    between atoms: C3_4  and  C4_5 
REMARK    2  A    between atoms: C4_5  and  N1_6 
REMARK    3  A    between atoms: N1_6  and  C5_7 
REMARK    4  A    between atoms: C12_18  and  N6_19 
ROOT
HETATM    1  C5  UNL     1       0.680  -0.019   0.347  1.00  0.00     0.130 C 
HETATM    2  N2  UNL     1       1.400  -0.576  -0.581  1.00  0.00    -0.226 NA
HETATM    3  C6  UNL     1       1.390  -1.791  -1.276  1.00  0.00     0.236 C 
HETATM    4  N3  UNL     1       0.913  -2.945  -0.963  1.00  0.00    -0.233 NA
HETATM    5  C7  UNL     1       0.233  -3.473   0.139  1.00  0.00     0.256 C 
HETATM    6  N4  UNL     1      -0.473  -2.958   1.061  1.00  0.00    -0.169 NA
HETATM    7  N5  UNL     1      -0.872  -1.653   1.371  1.00  0.00    -0.283 N 
HETATM    8  C8  UNL     1      -2.086  -1.425   2.182  1.00  0.00     0.185 C 
HETATM    9  C9  UNL     1      -2.771  -0.434   1.281  1.00  0.00    -0.030 A 
HETATM   10  C10 UNL     1      -4.118  -0.214   1.083  1.00  0.00     0.011 A 
HETATM   11  C11 UNL     1      -4.459   0.780   0.180  1.00  0.00     0.024 A 
HETATM   12  C12 UNL     1      -3.472   1.480  -0.458  1.00  0.00     0.006 A 
HETATM   13  C13 UNL     1      -2.114   1.264  -0.264  1.00  0.00     0.033 A 
HETATM   14  C14 UNL     1      -1.761   0.276   0.634  1.00  0.00    -0.017 A 
HETATM   15  C15 UNL     1      -0.478  -0.304   1.159  1.00  0.00     0.207 C 
ENDROOT
BRANCH   1  16
HETATM   16  N1  UNL     1       1.232   1.283   0.636  1.00  0.00    -0.373 N 
HETATM   17  H7  UNL     1       0.534   2.022   0.958  1.00  0.00     0.161 HD
BRANCH  16  18
HETATM   18  C4  UNL     1       2.643   1.582   0.501  1.00  0.00     0.149 C 
BRANCH  18  19
HETATM   19  C3  UNL     1       3.139   1.576  -0.885  1.00  0.00     0.011 C 
HETATM   20  C2  UNL     1       4.108   0.734  -1.231  1.00  0.00     0.005 C 
HETATM   21  C1  UNL     1       4.737  -0.219  -0.297  1.00  0.00     0.061 C 
HETATM   22 CL1  UNL     1       4.679   0.755  -2.908  1.00  0.00    -0.090 Cl
ENDBRANCH  18  19
ENDBRANCH  16  18
ENDBRANCH   1  16
BRANCH  12  23
HETATM   23  N6  UNL     1      -3.858   2.496  -1.382  1.00  0.00    -0.303 NA
HETATM   24  H14 UNL     1      -4.188   2.709  -2.347  1.00  0.00     0.124 HD
HETATM   25  H15 UNL     1      -4.152   2.261  -2.356  1.00  0.00     0.124 HD
ENDBRANCH  12  23
TORSDOF 4
