REMARK  6 active torsions:
REMARK  status: ('A' for Active; 'I' for Inactive)
REMARK    1  A    between atoms: N1_2  and  C2_3 
REMARK    2  A    between atoms: C3_4  and  N2_5 
REMARK    3  A    between atoms: N2_5  and  C4_6 
REMARK    4  A    between atoms: C6_8  and  C7_9 
REMARK    5  A    between atoms: C7_9  and  C9_11 
REMARK    6  A    between atoms: C18_21  and  N4_22 
ROOT
HETATM    1  C4  UNL     1      -0.245  -0.485  -0.020  1.00  0.00     0.031 A 
HETATM    2  C5  UNL     1       1.006  -0.635  -0.417  1.00  0.00     0.054 A 
HETATM    3  C6  UNL     1       1.889  -0.962   0.685  1.00  0.00     0.039 A 
HETATM    4  N3  UNL     1       1.142  -1.002   1.740  1.00  0.00    -0.287 NA
HETATM    5  C15 UNL     1      -0.239  -0.719   1.442  1.00  0.00     0.206 A 
ENDROOT
BRANCH   1   6
HETATM    6  N2  UNL     1      -1.373  -0.164  -0.823  1.00  0.00    -0.360 N 
HETATM    7  H5  UNL     1      -1.221   0.362  -1.695  1.00  0.00     0.165 HD
BRANCH   6   8
HETATM    8  C3  UNL     1      -2.699  -0.543  -0.465  1.00  0.00     0.034 C 
HETATM    9  C2  UNL     1      -3.492   0.364   0.128  1.00  0.00     0.060 C 
HETATM   10  C18 UNL     1      -4.827  -0.274   0.403  1.00  0.00     0.269 C 
HETATM   11  C17 UNL     1      -4.415  -1.728   0.535  1.00  0.00     0.048 C 
HETATM   12  C16 UNL     1      -3.433  -1.829  -0.627  1.00  0.00     0.062 C 
BRANCH   9  13
HETATM   13  N1  UNL     1      -3.183   1.708   0.465  1.00  0.00    -0.394 N 
HETATM   14  C1  UNL     1      -3.065   2.898  -0.373  1.00  0.00     0.146 C 
HETATM   15  H4  UNL     1      -2.987   2.011   1.461  1.00  0.00     0.159 HD
ENDBRANCH   9  13
BRANCH  10  16
HETATM   16  N4  UNL     1      -5.626  -0.193  -0.802  1.00  0.00     0.088 N 
HETATM   17  H23 UNL     1      -5.983  -1.123  -1.111  1.00  0.00     0.313 HD
HETATM   18  H24 UNL     1      -5.084   0.232  -1.589  1.00  0.00     0.313 HD
ENDBRANCH  10  16
ENDBRANCH   6   8
ENDBRANCH   1   6
BRANCH   3  19
HETATM   19  C7  UNL     1       3.375  -1.215   0.700  1.00  0.00     0.066 C 
HETATM   20  C8  UNL     1       3.619  -2.374  -0.236  1.00  0.00     0.021 C 
BRANCH  19  21
HETATM   21  C9  UNL     1       4.021   0.031   0.214  1.00  0.00    -0.049 A 
HETATM   22  C10 UNL     1       4.065   0.549  -1.060  1.00  0.00     0.008 A 
HETATM   23  C11 UNL     1       4.705   1.727  -1.334  1.00  0.00     0.001 A 
HETATM   24  C12 UNL     1       5.345   2.475  -0.368  1.00  0.00     0.000 A 
HETATM   25  C13 UNL     1       5.330   2.003   0.918  1.00  0.00     0.001 A 
HETATM   26  C14 UNL     1       4.682   0.819   1.166  1.00  0.00     0.008 A 
ENDBRANCH  19  21
ENDBRANCH   3  19
TORSDOF 6
