REMARK  7 active torsions:
REMARK  status: ('A' for Active; 'I' for Inactive)
REMARK    1  A    between atoms: C2_2  and  C3_3 
REMARK    2  A    between atoms: C4_4  and  C5_5 
REMARK    3  A    between atoms: C5_5  and  C7_7 
REMARK    4  A    between atoms: C7_7  and  N1_8 
REMARK    5  A    between atoms: C10_12  and  N2_13 
REMARK    6  A    between atoms: N2_13  and  C11_14 
REMARK    7  A    between atoms: C11_14  and  C13_16 
ROOT
HETATM    1  N1  UNL     1      -3.055   0.434   0.578  1.00  0.00     0.111 N 
HETATM    2  C8  UNL     1      -2.528  -0.906   0.372  1.00  0.00     0.279 C 
HETATM    3  C9  UNL     1      -1.232  -0.769  -0.414  1.00  0.00     0.069 C 
HETATM    4  P1  UNL     1       0.055  -1.989   0.070  1.00  0.00    -0.054 P 
HETATM    5  C10 UNL     1       1.357  -0.951   0.942  1.00  0.00     0.124 C 
HETATM    6  N3  UNL     1       1.257  -0.069   1.905  1.00  0.00    -0.225 NA
HETATM    7  C19 UNL     1      -0.060   0.202   2.435  1.00  0.00     0.231 C 
HETATM    8  N4  UNL     1      -0.935   0.578   1.626  1.00  0.00    -0.253 NA
HETATM    9  C20 UNL     1      -2.298   0.924   1.811  1.00  0.00     0.422 C 
HETATM   10  H14 UNL     1      -0.405  -3.041   0.924  1.00  0.00     0.065 HD
ENDROOT
BRANCH   5  11
HETATM   11  N2  UNL     1       2.730  -1.087   0.543  1.00  0.00    -0.366 N 
HETATM   12  H15 UNL     1       3.074  -2.038   0.203  1.00  0.00     0.161 HD
BRANCH  11  13
HETATM   13  C11 UNL     1       3.689  -0.045   0.560  1.00  0.00     0.112 C 
HETATM   14  C12 UNL     1       3.987   0.617   1.853  1.00  0.00     0.037 C 
BRANCH  13  15
HETATM   15  C13 UNL     1       4.973  -0.442  -0.095  1.00  0.00    -0.036 A 
HETATM   16  C14 UNL     1       4.967  -0.937  -1.411  1.00  0.00     0.009 A 
HETATM   17  C15 UNL     1       6.182  -1.292  -1.937  1.00  0.00     0.001 A 
HETATM   18  C16 UNL     1       7.404  -1.225  -1.326  1.00  0.00     0.000 A 
HETATM   19  C17 UNL     1       7.393  -0.747  -0.050  1.00  0.00     0.001 A 
HETATM   20  C18 UNL     1       6.214  -0.367   0.545  1.00  0.00     0.009 A 
ENDBRANCH  13  15
ENDBRANCH  11  13
ENDBRANCH   5  11
BRANCH   1  21
HETATM   21  C7  UNL     1      -4.431   0.544   0.911  1.00  0.00     0.308 C 
BRANCH  21  22
HETATM   22  C5  UNL     1      -5.327   0.135  -0.211  1.00  0.00    -0.055 C 
HETATM   23  C6  UNL     1      -6.104  -0.869   0.236  1.00  0.00     0.040 C 
BRANCH  22  24
HETATM   24  C4  UNL     1      -5.498   0.616  -1.608  1.00  0.00    -0.021 C 
HETATM   25  C3  UNL     1      -4.559   1.585  -1.652  1.00  0.00    -0.002 C 
BRANCH  25  26
HETATM   26  C2  UNL     1      -4.017   2.548  -2.563  1.00  0.00    -0.006 C 
HETATM   27  C1  UNL     1      -3.219   2.917  -1.527  1.00  0.00     0.038 C 
ENDBRANCH  25  26
ENDBRANCH  22  24
ENDBRANCH  21  22
ENDBRANCH   1  21
TORSDOF 7
