REMARK  5 active torsions:
REMARK  status: ('A' for Active; 'I' for Inactive)
REMARK    1  A    between atoms: C2_3  and  N2_4 
REMARK    2  A    between atoms: C2_3  and  C10_12 
REMARK    3  A    between atoms: N2_4  and  C3_5 
REMARK    4  A    between atoms: C3_5  and  C4_6 
REMARK    5  A    between atoms: C12_16  and  C13_17 
ROOT
HETATM    1  C10 UNL     1       0.212  -0.911   0.423  1.00  0.00     0.005 C 
HETATM    2  C11 UNL     1       0.544  -0.895   1.704  1.00  0.00     0.112 C 
HETATM    3  N3  UNL     1       1.805  -0.406   2.125  1.00  0.00    -0.331 N 
HETATM    4  N4  UNL     1       2.564   0.369   1.207  1.00  0.00    -0.232 NA
HETATM    5  C12 UNL     1       2.546  -0.422  -0.025  1.00  0.00     0.113 C 
HETATM    6  C19 UNL     1       1.154  -0.417  -0.613  1.00  0.00     0.070 C 
HETATM    7  H13 UNL     1       2.174  -0.603   3.079  1.00  0.00     0.179 HD
HETATM    8  H14 UNL     1       1.970   1.206   1.000  1.00  0.00     0.147 HD
ENDROOT
BRANCH   1   9
HETATM    9  C2  UNL     1      -1.118  -1.432   0.031  1.00  0.00     0.126 C 
HETATM   10  N1  UNL     1      -1.701  -1.563  -1.097  1.00  0.00    -0.277 NA
HETATM   11  C1  UNL     1      -1.258  -1.237  -2.400  1.00  0.00     0.179 C 
BRANCH   9  12
HETATM   12  N2  UNL     1      -2.003  -1.919   1.057  1.00  0.00    -0.370 N 
HETATM   13  H4  UNL     1      -1.597  -2.413   1.896  1.00  0.00     0.161 HD
BRANCH  12  14
HETATM   14  C3  UNL     1      -3.462  -1.750   0.984  1.00  0.00     0.160 C 
BRANCH  14  15
HETATM   15  C4  UNL     1      -3.870  -0.340   0.972  1.00  0.00    -0.041 A 
HETATM   16  C5  UNL     1      -4.070   0.256   2.225  1.00  0.00     0.009 A 
HETATM   17  C6  UNL     1      -4.453   1.550   2.381  1.00  0.00     0.001 A 
HETATM   18  C7  UNL     1      -4.668   2.359   1.286  1.00  0.00     0.000 A 
HETATM   19  C8  UNL     1      -4.479   1.802   0.037  1.00  0.00     0.001 A 
HETATM   20  C9  UNL     1      -4.094   0.497  -0.093  1.00  0.00     0.009 A 
ENDBRANCH  14  15
ENDBRANCH  12  14
ENDBRANCH   9  12
ENDBRANCH   1   9
BRANCH   5  21
HETATM   21  C13 UNL     1       3.542   0.206  -0.922  1.00  0.00    -0.039 A 
HETATM   22  C14 UNL     1       4.739   0.518  -0.289  1.00  0.00     0.009 A 
HETATM   23  C15 UNL     1       5.771   1.116  -1.011  1.00  0.00     0.001 A 
HETATM   24  C16 UNL     1       5.635   1.411  -2.359  1.00  0.00     0.000 A 
HETATM   25  C17 UNL     1       4.434   1.087  -2.953  1.00  0.00     0.001 A 
HETATM   26  C18 UNL     1       3.397   0.497  -2.268  1.00  0.00     0.009 A 
ENDBRANCH   5  21
TORSDOF 5
