REMARK  4 active torsions:
REMARK  status: ('A' for Active; 'I' for Inactive)
REMARK    1  A    between atoms: C2_2  and  C3_3 
REMARK    2  A    between atoms: C4_4  and  C5_5 
REMARK    3  A    between atoms: C5_5  and  C6_6 
REMARK    4  A    between atoms: C12_15  and  C13_16 
ROOT
HETATM    1  C6  UNL     1       1.716  -0.378   0.657  1.00  0.00     0.039 A 
HETATM    2  C7  UNL     1       1.208  -1.342   1.499  1.00  0.00     0.040 A 
HETATM    3  C8  UNL     1       0.362  -2.024   0.697  1.00  0.00    -0.018 A 
HETATM    4  C9  UNL     1       0.337  -1.535  -0.589  1.00  0.00     0.129 A 
HETATM    5  N1  UNL     1       1.209  -0.473  -0.573  1.00  0.00    -0.251 N 
HETATM    6  N2  UNL     1       1.138   0.181  -1.839  1.00  0.00    -0.168 NA
HETATM    7  C10 UNL     1      -0.093   0.355  -2.397  1.00  0.00     0.825 C 
HETATM    8  N3  UNL     1      -1.304  -0.102  -1.744  1.00  0.00     0.054 NA
HETATM    9  C11 UNL     1      -2.374  -0.529  -2.399  1.00  0.00     0.265 C 
HETATM   10  C12 UNL     1      -3.281  -0.874  -1.241  1.00  0.00     0.144 C 
HETATM   11  N4  UNL     1      -2.838  -2.128  -0.596  1.00  0.00    -0.401 N 
HETATM   12  C19 UNL     1      -1.967  -3.026   0.091  1.00  0.00     0.127 C 
HETATM   13  C20 UNL     1      -0.720  -3.055   0.620  1.00  0.00     0.013 C 
HETATM   14  H18 UNL     1      -3.539  -2.951  -0.572  1.00  0.00     0.154 HD
ENDROOT
BRANCH  10  15
HETATM   15  C13 UNL     1      -3.445   0.239  -0.300  1.00  0.00    -0.034 A 
HETATM   16  C14 UNL     1      -2.591   0.649   0.691  1.00  0.00     0.009 A 
HETATM   17  C15 UNL     1      -2.833   1.713   1.533  1.00  0.00     0.001 A 
HETATM   18  C16 UNL     1      -3.997   2.439   1.406  1.00  0.00     0.000 A 
HETATM   19  C17 UNL     1      -4.922   2.108   0.440  1.00  0.00     0.001 A 
HETATM   20  C18 UNL     1      -4.602   1.032  -0.360  1.00  0.00     0.009 A 
ENDBRANCH  10  15
BRANCH   1  21
HETATM   21  C5  UNL     1       2.703   0.647   1.056  1.00  0.00     0.086 C 
BRANCH  21  22
HETATM   22  C4  UNL     1       4.103   0.253   0.878  1.00  0.00    -0.021 C 
HETATM   23  C3  UNL     1       4.888   0.957   0.078  1.00  0.00    -0.008 C 
BRANCH  23  24
HETATM   24  C2  UNL     1       6.309   0.750  -0.248  1.00  0.00    -0.027 C 
HETATM   25  C1  UNL     1       7.076   1.469  -1.053  1.00  0.00     0.031 C 
ENDBRANCH  23  24
ENDBRANCH  21  22
ENDBRANCH   1  21
TORSDOF 4
