REMARK  4 active torsions:
REMARK  status: ('A' for Active; 'I' for Inactive)
REMARK    1  A    between atoms: C7_7  and  C8_8 
REMARK    2  A    between atoms: C11_13  and  N3_14 
REMARK    3  A    between atoms: N3_14  and  C12_15 
REMARK    4  A    between atoms: C12_15  and  C13_16 
ROOT
HETATM    1  C8  UNL     1      -0.582   1.446  -0.533  1.00  0.00     0.029 A 
HETATM    2  C9  UNL     1      -0.667   2.581  -1.352  1.00  0.00     0.133 A 
HETATM    3  N1  UNL     1       0.275   2.927  -2.248  1.00  0.00    -0.253 NA
HETATM    4  C10 UNL     1       1.356   2.135  -2.356  1.00  0.00     0.234 A 
HETATM    5  N2  UNL     1       1.480   1.038  -1.591  1.00  0.00    -0.224 NA
HETATM    6  C11 UNL     1       0.550   0.677  -0.691  1.00  0.00     0.137 A 
ENDROOT
BRANCH   1   7
HETATM    7  C7  UNL     1      -1.589   1.094   0.431  1.00  0.00     0.042 C 
HETATM    8  C6  UNL     1      -2.372   0.064   0.699  1.00  0.00     0.013 C 
HETATM    9  C5  UNL     1      -2.368  -1.187  -0.110  1.00  0.00     0.084 C 
HETATM   10  N4  UNL     1      -3.181   0.355   1.849  1.00  0.00    -0.368 N 
HETATM   11  C4  UNL     1      -3.690  -1.595  -0.588  1.00  0.00    -0.021 C 
HETATM   12  C3  UNL     1      -4.975  -1.649  -0.340  1.00  0.00    -0.003 C 
HETATM   13  C2  UNL     1      -5.555  -1.129   0.904  1.00  0.00     0.013 C 
HETATM   14  C1  UNL     1      -5.396  -0.750   2.112  1.00  0.00    -0.009 C 
HETATM   15  C19 UNL     1      -4.344  -0.114   2.508  1.00  0.00     0.100 C 
HETATM   16  H17 UNL     1      -2.791   1.175   2.369  1.00  0.00     0.165 HD
ENDBRANCH   1   7
BRANCH   6  17
HETATM   17  N3  UNL     1       0.899  -0.468   0.043  1.00  0.00    -0.370 N 
HETATM   18  H9  UNL     1       0.218  -0.706   0.792  1.00  0.00     0.161 HD
BRANCH  17  19
HETATM   19  C12 UNL     1       2.000  -1.372   0.008  1.00  0.00     0.160 C 
BRANCH  19  20
HETATM   20  C13 UNL     1       3.306  -0.710   0.285  1.00  0.00    -0.041 A 
HETATM   21  C14 UNL     1       4.212  -0.175  -0.605  1.00  0.00     0.009 A 
HETATM   22  C15 UNL     1       5.374   0.407  -0.141  1.00  0.00     0.001 A 
HETATM   23  C16 UNL     1       5.702   0.492   1.196  1.00  0.00     0.000 A 
HETATM   24  C17 UNL     1       4.816  -0.034   2.112  1.00  0.00     0.001 A 
HETATM   25  C18 UNL     1       3.656  -0.614   1.637  1.00  0.00     0.009 A 
ENDBRANCH  19  20
ENDBRANCH  17  19
ENDBRANCH   6  17
TORSDOF 4
