REMARK  6 active torsions:
REMARK  status: ('A' for Active; 'I' for Inactive)
REMARK    1  A    between atoms: O1_2  and  C2_3 
REMARK    2  A    between atoms: C4_5  and  O2_6 
REMARK    3  A    between atoms: O2_6  and  C5_7 
REMARK    4  A    between atoms: N1_10  and  C8_11 
REMARK    5  A    between atoms: C13_17  and  N2_18 
REMARK    6  A    between atoms: N2_18  and  C14_19 
ROOT
HETATM    1  C2  UNL     1      -0.919   3.762   1.036  1.00  0.00     0.073 A 
HETATM    2  C3  UNL     1      -0.174   2.622   0.788  1.00  0.00     0.074 A 
HETATM    3  C4  UNL     1      -0.644   1.384   0.398  1.00  0.00     0.088 A 
HETATM    4  C12 UNL     1      -2.007   1.305   0.249  1.00  0.00     0.072 A 
HETATM    5  C13 UNL     1      -2.595   0.126  -0.136  1.00  0.00     0.144 A 
HETATM    6  N3  UNL     1      -3.928   0.089  -0.271  1.00  0.00    -0.223 NA
HETATM    7  C20 UNL     1      -4.735   1.136  -0.055  1.00  0.00     0.236 A 
HETATM    8  N4  UNL     1      -4.157   2.292   0.323  1.00  0.00    -0.241 NA
HETATM    9  C21 UNL     1      -2.817   2.398   0.478  1.00  0.00     0.077 A 
HETATM   10  C22 UNL     1      -2.298   3.615   0.866  1.00  0.00     0.069 A 
ENDROOT
BRANCH   3  11
HETATM   11  O2  UNL     1       0.176   0.313   0.175  1.00  0.00    -0.345 OA
BRANCH  11  12
HETATM   12  C5  UNL     1       1.553   0.216   0.264  1.00  0.00     0.132 C 
HETATM   13  C6  UNL     1       1.907  -0.816   1.337  1.00  0.00     0.052 C 
HETATM   14  C7  UNL     1       3.047  -1.702   0.906  1.00  0.00     0.126 C 
HETATM   15  N1  UNL     1       4.099  -0.991   0.226  1.00  0.00    -0.375 N 
HETATM   16  C10 UNL     1       3.690  -0.121  -0.855  1.00  0.00     0.126 C 
HETATM   17  C11 UNL     1       2.194  -0.278  -1.022  1.00  0.00     0.052 C 
BRANCH  15  18
HETATM   18  C8  UNL     1       5.487  -1.132   0.597  1.00  0.00     0.071 C 
HETATM   19  C9  UNL     1       6.614  -0.424  -0.070  1.00  0.00     0.081 C 
HETATM   20  S1  UNL     1       5.837  -2.139   1.832  1.00  0.00    -0.066 SA
ENDBRANCH  15  18
ENDBRANCH  11  12
ENDBRANCH   3  11
BRANCH   1  21
HETATM   21  O1  UNL     1      -0.307   4.943   1.423  1.00  0.00    -0.356 OA
HETATM   22  C1  UNL     1      -1.119   6.073   1.662  1.00  0.00     0.210 C 
ENDBRANCH   1  21
BRANCH   5  23
HETATM   23  N2  UNL     1      -1.880  -1.063  -0.426  1.00  0.00    -0.340 N 
HETATM   24  H17 UNL     1      -0.906  -1.402  -0.494  1.00  0.00     0.167 HD
BRANCH  23  25
HETATM   25  C14 UNL     1      -2.552  -2.290  -0.747  1.00  0.00     0.035 A 
HETATM   26  C15 UNL     1      -2.173  -3.272  -1.658  1.00  0.00     0.032 A 
HETATM   27  C16 UNL     1      -2.889  -4.424  -1.870  1.00  0.00     0.046 A 
HETATM   28  C17 UNL     1      -4.047  -4.661  -1.167  1.00  0.00     0.138 A 
HETATM   29  F1  UNL     1      -4.676  -5.816  -1.447  1.00  0.00    -0.204 F 
HETATM   30  C18 UNL     1      -4.448  -3.705  -0.256  1.00  0.00     0.074 A 
HETATM   31 CL1  UNL     1      -5.949  -4.140   0.573  1.00  0.00    -0.081 Cl
HETATM   32  C19 UNL     1      -3.727  -2.561  -0.053  1.00  0.00     0.056 A 
ENDBRANCH  23  25
ENDBRANCH   5  23
TORSDOF 6
