REMARK  5 active torsions:
REMARK  status: ('A' for Active; 'I' for Inactive)
REMARK    1  A    between atoms: N1_1  and  C1_2 
REMARK    2  A    between atoms: C2_3  and  C3_4 
REMARK    3  A    between atoms: C3_4  and  C4_5 
REMARK    4  A    between atoms: N2_10  and  C9_11 
REMARK    5  A    between atoms: C11_14  and  C12_15 
ROOT
HETATM    1  C4  UNL     1      -2.693   0.632  -0.498  1.00  0.00     0.017 A 
HETATM    2  C5  UNL     1      -3.837   1.192  -0.857  1.00  0.00     0.025 A 
HETATM    3  C6  UNL     1      -3.965   1.932  -2.107  1.00  0.00    -0.001 A 
HETATM    4  C7  UNL     1      -2.871   2.004  -2.846  1.00  0.00    -0.007 A 
HETATM    5  C8  UNL     1      -1.520   1.441  -2.597  1.00  0.00     0.157 A 
HETATM    6  N2  UNL     1      -1.546   0.740  -1.332  1.00  0.00    -0.335 N 
ENDROOT
BRANCH   6   7
HETATM    7  C9  UNL     1      -0.282   0.167  -1.014  1.00  0.00     0.110 A 
HETATM    8  N3  UNL     1       0.099  -1.028  -1.389  1.00  0.00    -0.246 NA
HETATM    9  C10 UNL     1       1.402  -1.276  -0.903  1.00  0.00     0.128 A 
HETATM   10  C11 UNL     1       1.872  -0.237  -0.206  1.00  0.00    -0.007 A 
HETATM   11  C17 UNL     1       0.820   0.788  -0.219  1.00  0.00     0.121 A 
BRANCH  10  12
HETATM   12  C12 UNL     1       3.173  -0.188   0.416  1.00  0.00     0.036 A 
HETATM   13  C13 UNL     1       3.570   0.868   1.086  1.00  0.00     0.029 A 
HETATM   14  C14 UNL     1       4.878   0.958   1.731  1.00  0.00    -0.000 A 
HETATM   15  C15 UNL     1       5.703  -0.090   1.627  1.00  0.00    -0.007 A 
HETATM   16  C16 UNL     1       5.410  -1.355   0.909  1.00  0.00     0.147 A 
HETATM   17  N4  UNL     1       4.079  -1.258   0.340  1.00  0.00    -0.386 N 
HETATM   18  H18 UNL     1       3.837  -2.147  -0.182  1.00  0.00     0.160 HD
ENDBRANCH  10  12
ENDBRANCH   6   7
BRANCH   1  19
HETATM   19  C3  UNL     1      -2.528  -0.124   0.759  1.00  0.00     0.085 C 
BRANCH  19  20
HETATM   20  C2  UNL     1      -3.756  -0.189   1.562  1.00  0.00    -0.004 C 
HETATM   21  C1  UNL     1      -4.259  -1.386   1.827  1.00  0.00     0.076 C 
BRANCH  21  22
HETATM   22  N1  UNL     1      -3.592  -2.537   1.326  1.00  0.00    -0.408 N 
HETATM   23  H1  UNL     1      -3.275  -3.377   1.853  1.00  0.00     0.155 HD
HETATM   24  H2  UNL     1      -3.115  -3.300   0.814  1.00  0.00     0.155 HD
ENDBRANCH  21  22
ENDBRANCH  19  20
ENDBRANCH   1  19
TORSDOF 5
