REMARK  2 active torsions:
REMARK  status: ('A' for Active; 'I' for Inactive)
REMARK    1  A    between atoms: N1_1  and  C1_2 
REMARK    2  A    between atoms: C6_9  and  C7_10 
ROOT
HETATM    1  C1  UNL     1       2.624  -2.071   0.133  1.00  0.00     0.136 A 
HETATM    2  N2  UNL     1       3.956  -2.092   0.202  1.00  0.00    -0.224 NA
HETATM    3  C2  UNL     1       4.691  -0.969   0.104  1.00  0.00     0.237 A 
HETATM    4  N3  UNL     1       4.192   0.293  -0.072  1.00  0.00    -0.223 NA
HETATM    5  C3  UNL     1       2.828   0.338  -0.146  1.00  0.00     0.143 A 
HETATM    6  C4  UNL     1       2.027  -0.826  -0.047  1.00  0.00     0.056 A 
HETATM    7  C5  UNL     1       0.545  -0.786  -0.154  1.00  0.00     0.028 C 
HETATM    8  C6  UNL     1      -0.395   0.106   0.202  1.00  0.00    -0.033 C 
HETATM    9  C13 UNL     1       0.035   1.300   0.912  1.00  0.00     0.092 A 
HETATM   10  C14 UNL     1      -0.955   2.288   1.281  1.00  0.00    -0.011 A 
HETATM   11  C15 UNL     1      -0.553   3.507   0.865  1.00  0.00    -0.001 A 
HETATM   12  C16 UNL     1       0.759   3.390   0.189  1.00  0.00     0.026 A 
HETATM   13  C17 UNL     1       1.107   2.099   0.221  1.00  0.00     0.023 A 
HETATM   14  N4  UNL     1       2.387   1.708  -0.329  1.00  0.00    -0.343 N 
HETATM   15  H14 UNL     1       3.006   2.348  -0.836  1.00  0.00     0.167 HD
ENDROOT
BRANCH   8  16
HETATM   16  C7  UNL     1      -1.714  -0.353  -0.144  1.00  0.00    -0.029 A 
HETATM   17  C8  UNL     1      -1.961  -1.646  -0.483  1.00  0.00     0.012 A 
HETATM   18  C9  UNL     1      -3.190  -2.114  -0.872  1.00  0.00     0.001 A 
HETATM   19  C10 UNL     1      -4.306  -1.271  -0.950  1.00  0.00     0.000 A 
HETATM   20  C11 UNL     1      -4.112   0.060  -0.614  1.00  0.00     0.001 A 
HETATM   21  C12 UNL     1      -2.841   0.432  -0.237  1.00  0.00     0.012 A 
ENDBRANCH   8  16
BRANCH   1  22
HETATM   22  N1  UNL     1       1.690  -3.124   0.212  1.00  0.00    -0.383 N 
HETATM   23  H1  UNL     1       1.238  -3.512   1.091  1.00  0.00     0.157 HD
HETATM   24  H2  UNL     1       1.546  -3.432  -0.780  1.00  0.00     0.157 HD
ENDBRANCH   1  22
TORSDOF 2
