REMARK  5 active torsions:
REMARK  status: ('A' for Active; 'I' for Inactive)
REMARK    1  A    between atoms: C2_2  and  N1_3 
REMARK    2  A    between atoms: C2_2  and  C13_18 
REMARK    3  A    between atoms: N1_3  and  C3_4 
REMARK    4  A    between atoms: C5_9  and  N4_10 
REMARK    5  A    between atoms: N4_10  and  C6_11 
ROOT
HETATM    1  C3  UNL     1       0.683  -0.076   0.823  1.00  0.00     0.237 A 
HETATM    2  S1  UNL     1       1.740  -0.852   2.055  1.00  0.00     0.005 SA
HETATM    3  N2  UNL     1       0.915  -2.236   2.710  1.00  0.00    -0.207 NA
HETATM    4  C4  UNL     1      -0.249  -2.571   2.321  1.00  0.00     0.243 A 
HETATM    5  N3  UNL     1      -1.013  -1.892   1.334  1.00  0.00    -0.225 NA
HETATM    6  C5  UNL     1      -0.576  -0.841   0.729  1.00  0.00     0.136 A 
ENDROOT
BRANCH   1   7
HETATM    7  N1  UNL     1       1.341   0.006  -0.470  1.00  0.00    -0.369 N 
HETATM    8  H3  UNL     1       1.215  -0.300  -1.451  1.00  0.00     0.161 HD
BRANCH   7   9
HETATM    9  C2  UNL     1       2.565   0.731  -0.458  1.00  0.00     0.030 C 
HETATM   10  C1  UNL     1       2.422   2.005  -0.163  1.00  0.00     0.043 C 
BRANCH   9  11
HETATM   11  C13 UNL     1       3.887   0.183  -0.734  1.00  0.00    -0.011 A 
HETATM   12  C14 UNL     1       4.932   1.078  -0.664  1.00  0.00     0.013 A 
HETATM   13  C15 UNL     1       6.192   0.552  -0.928  1.00  0.00     0.001 A 
HETATM   14  C16 UNL     1       6.389  -0.778  -1.240  1.00  0.00     0.000 A 
HETATM   15  C17 UNL     1       5.323  -1.651  -1.303  1.00  0.00     0.001 A 
HETATM   16  C18 UNL     1       4.062  -1.144  -1.043  1.00  0.00     0.013 A 
ENDBRANCH   9  11
ENDBRANCH   7   9
ENDBRANCH   1   7
BRANCH   6  17
HETATM   17  N4  UNL     1      -1.498  -0.323  -0.218  1.00  0.00    -0.368 N 
HETATM   18  H6  UNL     1      -1.194   0.290  -1.024  1.00  0.00     0.161 HD
BRANCH  17  19
HETATM   19  C6  UNL     1      -2.939  -0.611  -0.131  1.00  0.00     0.109 C 
HETATM   20  C7  UNL     1      -3.413  -0.094   1.154  1.00  0.00    -0.005 C 
HETATM   21  C8  UNL     1      -4.193   0.872   1.678  1.00  0.00    -0.025 C 
HETATM   22  C9  UNL     1      -4.899   1.843   0.786  1.00  0.00     0.053 C 
HETATM   23  C10 UNL     1      -5.687   1.037  -0.220  1.00  0.00    -0.027 C 
HETATM   24  C11 UNL     1      -5.088   0.224  -1.083  1.00  0.00    -0.028 C 
HETATM   25  C12 UNL     1      -3.667  -0.136  -1.340  1.00  0.00     0.056 C 
ENDBRANCH  17  19
ENDBRANCH   6  17
TORSDOF 5
