REMARK  2 active torsions:
REMARK  status: ('A' for Active; 'I' for Inactive)
REMARK    1  A    between atoms: O1_2  and  C2_3 
REMARK    2  A    between atoms: C10_13  and  C11_14 
ROOT
HETATM    1  C2  UNL     1       0.817   1.373  -0.002  1.00  0.00     0.080 A 
HETATM    2  C3  UNL     1       2.013   1.391   0.683  1.00  0.00     0.070 A 
HETATM    3  C4  UNL     1       2.587   0.226   1.148  1.00  0.00     0.075 A 
HETATM    4  N1  UNL     1       3.760   0.222   1.824  1.00  0.00    -0.241 NA
HETATM    5  C5  UNL     1       4.274  -0.940   2.254  1.00  0.00     0.233 A 
HETATM    6  N2  UNL     1       3.683  -2.146   2.054  1.00  0.00    -0.253 NA
HETATM    7  C6  UNL     1       2.512  -2.183   1.385  1.00  0.00     0.134 A 
HETATM    8  C7  UNL     1       1.985  -0.988   0.943  1.00  0.00     0.044 A 
HETATM    9  C8  UNL     1       0.782  -1.005   0.253  1.00  0.00     0.092 A 
HETATM   10  C9  UNL     1       0.182   0.148  -0.226  1.00  0.00     0.021 A 
HETATM   11  C10 UNL     1      -1.098   0.343  -0.984  1.00  0.00     0.093 C 
HETATM   12  C13 UNL     1      -1.390  -0.921  -1.718  1.00  0.00     0.019 C 
HETATM   13  C14 UNL     1      -1.983  -2.023  -0.913  1.00  0.00     0.028 C 
HETATM   14  C15 UNL     1      -1.091  -2.722   0.036  1.00  0.00     0.175 C 
HETATM   15  O3  UNL     1       0.236  -2.283   0.087  1.00  0.00    -0.349 OA
ENDROOT
BRANCH  11  16
HETATM   16  C11 UNL     1      -2.194   0.776  -0.079  1.00  0.00     0.131 C 
HETATM   17  C12 UNL     1      -3.523   1.006  -0.706  1.00  0.00     0.091 C 
HETATM   18  O2  UNL     1      -2.019   0.939   1.129  1.00  0.00    -0.298 OA
ENDBRANCH  11  16
BRANCH   1  19
HETATM   19  O1  UNL     1       0.185   2.506  -0.497  1.00  0.00    -0.355 OA
HETATM   20  C1  UNL     1       0.758   3.811  -0.319  1.00  0.00     0.210 C 
ENDBRANCH   1  19
TORSDOF 2
