REMARK  3 active torsions:
REMARK  status: ('A' for Active; 'I' for Inactive)
REMARK    1  A    between atoms: C10_12  and  C11_13 
REMARK    2  A    between atoms: C12_14  and  N3_15 
REMARK    3  A    between atoms: C13_16  and  O1_18 
ROOT
HETATM    1  C1  UNL     1      -4.298  -2.018  -0.095  1.00  0.00     0.044 C 
HETATM    2  C2  UNL     1      -3.288  -0.905  -0.383  1.00  0.00    -0.075 C 
HETATM    3  C3  UNL     1      -3.651   0.010  -1.204  1.00  0.00     0.004 C 
HETATM    4  C4  UNL     1      -3.937   1.088  -2.104  1.00  0.00     0.017 C 
HETATM    5  C5  UNL     1      -3.022   2.068  -2.391  1.00  0.00     0.090 C 
HETATM    6  N1  UNL     1      -1.853   1.813  -1.690  1.00  0.00    -0.349 N 
HETATM    7  C6  UNL     1      -0.990   2.285  -0.753  1.00  0.00     0.156 C 
HETATM    8  N2  UNL     1      -0.340   3.089  -1.582  1.00  0.00    -0.266 NA
HETATM    9  C7  UNL     1       1.106   3.291  -1.176  1.00  0.00     0.189 C 
HETATM   10  C8  UNL     1       1.237   2.272  -0.050  1.00  0.00    -0.038 C 
HETATM   11  C9  UNL     1       1.814   1.062  -0.196  1.00  0.00    -0.005 C 
HETATM   12  C10 UNL     1       2.160  -0.161   0.510  1.00  0.00     0.087 C 
HETATM   13  C13 UNL     1       1.469  -1.445   0.103  1.00  0.00     0.136 C 
HETATM   14  C14 UNL     1       2.262  -2.529   0.914  1.00  0.00     0.071 C 
HETATM   15  N4  UNL     1       0.189  -1.679   0.651  1.00  0.00    -0.379 N 
HETATM   16  C15 UNL     1      -0.272  -0.815   1.647  1.00  0.00     0.153 C 
HETATM   17  C16 UNL     1      -1.228   0.022   0.772  1.00  0.00     0.156 C 
HETATM   18  O2  UNL     1      -1.481   1.244   1.256  1.00  0.00    -0.340 OA
HETATM   19  C17 UNL     1      -0.559   2.195   0.667  1.00  0.00     0.115 C 
HETATM   20  C18 UNL     1       0.496   2.942   1.063  1.00  0.00     0.049 C 
HETATM   21  C19 UNL     1      -2.107  -1.083   0.422  1.00  0.00     0.063 C 
HETATM   22  C20 UNL     1      -0.958  -1.951  -0.186  1.00  0.00     0.131 C 
HETATM   23  H7  UNL     1      -1.602   0.862  -2.150  1.00  0.00     0.167 HD
ENDROOT
BRANCH  12  24
HETATM   24  C11 UNL     1       3.617  -0.375   0.154  1.00  0.00    -0.002 C 
HETATM   25  C12 UNL     1       4.598  -0.340   1.004  1.00  0.00     0.051 C 
BRANCH  25  26
HETATM   26  N3  UNL     1       4.305  -0.087   2.365  1.00  0.00    -0.312 NA
HETATM   27  H14 UNL     1       4.206   0.336   3.306  1.00  0.00     0.123 HD
HETATM   28  H15 UNL     1       4.593   0.844   2.709  1.00  0.00     0.123 HD
ENDBRANCH  25  26
ENDBRANCH  12  24
BRANCH  13  29
HETATM   29  O1  UNL     1       1.701  -1.761  -1.203  1.00  0.00    -0.370 OA
HETATM   30  H19 UNL     1       2.159  -2.613  -1.381  1.00  0.00     0.212 HD
ENDBRANCH  13  29
TORSDOF 3
