REMARK  4 active torsions:
REMARK  status: ('A' for Active; 'I' for Inactive)
REMARK    1  A    between atoms: C7_7  and  C8_8 
REMARK    2  A    between atoms: C10_12  and  N3_13 
REMARK    3  A    between atoms: N3_13  and  C11_14 
REMARK    4  A    between atoms: C11_14  and  C13_16 
ROOT
HETATM    1  C8  UNL     1      -0.316  -1.596   0.737  1.00  0.00     0.203 A 
HETATM    2  N1  UNL     1      -0.063  -2.963   0.370  1.00  0.00    -0.266 NA
HETATM    3  C9  UNL     1       1.197  -3.096   0.195  1.00  0.00     0.230 A 
HETATM    4  N2  UNL     1       1.895  -1.878   0.418  1.00  0.00    -0.227 NA
HETATM    5  C10 UNL     1       1.030  -0.976   0.739  1.00  0.00     0.130 A 
ENDROOT
BRANCH   1   6
HETATM    6  C7  UNL     1      -1.149  -0.925  -0.308  1.00  0.00     0.037 C 
HETATM    7  C6  UNL     1      -2.279  -0.281  -0.259  1.00  0.00     0.026 C 
HETATM    8  C5  UNL     1      -2.957  -0.122   1.016  1.00  0.00     0.029 C 
HETATM    9  N4  UNL     1      -2.718   0.200  -1.521  1.00  0.00    -0.386 N 
HETATM   10  C4  UNL     1      -4.276   0.068   1.175  1.00  0.00     0.002 C 
HETATM   11  C3  UNL     1      -5.338   0.163   0.180  1.00  0.00     0.004 C 
HETATM   12  C2  UNL     1      -5.101   0.532  -1.072  1.00  0.00    -0.066 C 
HETATM   13  C1  UNL     1      -6.403   0.526  -1.829  1.00  0.00     0.045 C 
HETATM   14  C19 UNL     1      -3.908   0.930  -1.863  1.00  0.00     0.153 C 
HETATM   15  H20 UNL     1      -2.064  -0.013  -2.333  1.00  0.00     0.160 HD
ENDBRANCH   1   6
BRANCH   5  16
HETATM   16  N3  UNL     1       1.384   0.367   1.032  1.00  0.00    -0.368 N 
HETATM   17  H10 UNL     1       0.665   1.124   0.836  1.00  0.00     0.161 HD
BRANCH  16  18
HETATM   18  C11 UNL     1       2.699   0.619   1.579  1.00  0.00     0.112 C 
HETATM   19  C12 UNL     1       2.821   2.114   1.798  1.00  0.00     0.037 C 
BRANCH  18  20
HETATM   20  C13 UNL     1       3.792   0.103   0.752  1.00  0.00    -0.036 A 
HETATM   21  C14 UNL     1       3.695   0.350  -0.610  1.00  0.00     0.009 A 
HETATM   22  C15 UNL     1       4.677  -0.098  -1.463  1.00  0.00     0.001 A 
HETATM   23  C16 UNL     1       5.789  -0.805  -0.999  1.00  0.00     0.000 A 
HETATM   24  C17 UNL     1       5.889  -1.051   0.344  1.00  0.00     0.001 A 
HETATM   25  C18 UNL     1       4.904  -0.601   1.197  1.00  0.00     0.009 A 
ENDBRANCH  18  20
ENDBRANCH  16  18
ENDBRANCH   5  16
TORSDOF 4
