REMARK  5 active torsions:
REMARK  status: ('A' for Active; 'I' for Inactive)
REMARK    1  A    between atoms: C2_2  and  C3_3 
REMARK    2  A    between atoms: C8_9  and  C9_10 
REMARK    3  A    between atoms: C12_14  and  N2_15 
REMARK    4  A    between atoms: N2_15  and  C13_16 
REMARK    5  A    between atoms: C13_16  and  C15_18 
ROOT
HETATM    1  C9  UNL     1      -0.641   0.022   0.362  1.00  0.00     0.007 A 
HETATM    2  C10 UNL     1      -0.741   0.771   1.443  1.00  0.00     0.010 A 
HETATM    3  C11 UNL     1       0.561   0.943   2.138  1.00  0.00     0.179 A 
HETATM    4  N1  UNL     1       1.445   0.174   1.292  1.00  0.00    -0.269 NA
HETATM    5  C12 UNL     1       0.772  -0.326   0.321  1.00  0.00     0.129 A 
ENDROOT
BRANCH   5   6
HETATM    6  N2  UNL     1       1.405  -1.132  -0.665  1.00  0.00    -0.366 N 
HETATM    7  H12 UNL     1       0.840  -1.348  -1.540  1.00  0.00     0.161 HD
BRANCH   6   8
HETATM    8  C13 UNL     1       2.766  -1.635  -0.477  1.00  0.00     0.112 C 
HETATM    9  C14 UNL     1       2.783  -2.491   0.765  1.00  0.00     0.037 C 
BRANCH   8  10
HETATM   10  C15 UNL     1       3.730  -0.516  -0.397  1.00  0.00    -0.036 A 
HETATM   11  C16 UNL     1       3.660   0.523  -1.285  1.00  0.00     0.009 A 
HETATM   12  C17 UNL     1       4.583   1.549  -1.174  1.00  0.00     0.001 A 
HETATM   13  C18 UNL     1       5.541   1.480  -0.165  1.00  0.00     0.000 A 
HETATM   14  C19 UNL     1       5.611   0.427   0.734  1.00  0.00     0.001 A 
HETATM   15  C20 UNL     1       4.673  -0.582   0.594  1.00  0.00     0.009 A 
ENDBRANCH   8  10
ENDBRANCH   6   8
ENDBRANCH   5   6
BRANCH   1  16
HETATM   16  C8  UNL     1      -1.644  -0.397  -0.600  1.00  0.00     0.022 C 
HETATM   17  C7  UNL     1      -2.927  -0.091  -0.578  1.00  0.00    -0.031 C 
HETATM   18  C3  UNL     1      -4.043   0.604   0.082  1.00  0.00     0.062 C 
HETATM   19  C6  UNL     1      -3.887  -0.574  -1.633  1.00  0.00     0.223 C 
HETATM   20  C4  UNL     1      -5.069  -0.473   0.286  1.00  0.00    -0.015 C 
HETATM   21  C5  UNL     1      -4.953  -1.207  -0.812  1.00  0.00     0.011 C 
HETATM   22  F1  UNL     1      -3.284  -1.496  -2.473  1.00  0.00    -0.240 F 
BRANCH  18  23
HETATM   23  C2  UNL     1      -4.600   1.702  -0.765  1.00  0.00    -0.024 C 
HETATM   24  C1  UNL     1      -5.716   2.142  -1.382  1.00  0.00     0.008 C 
ENDBRANCH  18  23
ENDBRANCH   1  16
TORSDOF 5
