REMARK  3 active torsions:
REMARK  status: ('A' for Active; 'I' for Inactive)
REMARK    1  A    between atoms: N1_2  and  C2_3 
REMARK    2  A    between atoms: N2_5  and  C4_6 
REMARK    3  A    between atoms: C8_11  and  C9_12 
ROOT
HETATM    1  C4  UNL     1       0.523  -0.068   0.839  1.00  0.00     0.116 A 
HETATM    2  N3  UNL     1       0.252  -1.225   0.330  1.00  0.00    -0.217 NA
HETATM    3  C5  UNL     1      -1.126  -1.541   0.551  1.00  0.00     0.131 A 
HETATM    4  C6  UNL     1      -1.737  -0.550   1.221  1.00  0.00    -0.000 A 
HETATM    5  C7  UNL     1      -0.712   0.498   1.466  1.00  0.00     0.119 A 
HETATM    6  C8  UNL     1      -2.987  -1.342   1.166  1.00  0.00     0.150 A 
HETATM    7  N4  UNL     1      -2.268  -2.384   0.441  1.00  0.00    -0.362 N 
HETATM    8  H13 UNL     1      -2.513  -3.316   0.038  1.00  0.00     0.162 HD
ENDROOT
BRANCH   1   9
HETATM    9  N2  UNL     1       1.789   0.591   0.823  1.00  0.00    -0.318 N 
HETATM   10  C3  UNL     1       2.647   0.489  -0.315  1.00  0.00     0.126 C 
HETATM   11  C2  UNL     1       3.971   0.666  -0.385  1.00  0.00     0.043 C 
HETATM   12  C18 UNL     1       4.876   1.015   0.725  1.00  0.00     0.030 C 
HETATM   13  C17 UNL     1       4.628   1.442   1.955  1.00  0.00     0.004 C 
HETATM   14  C16 UNL     1       3.282   1.661   2.471  1.00  0.00     0.018 C 
HETATM   15  C15 UNL     1       2.062   1.325   2.034  1.00  0.00     0.098 C 
BRANCH  11  16
HETATM   16  N1  UNL     1       4.514   0.489  -1.677  1.00  0.00    -0.393 N 
HETATM   17  C1  UNL     1       5.840  -0.025  -1.917  1.00  0.00     0.146 C 
HETATM   18  H4  UNL     1       3.900   0.753  -2.503  1.00  0.00     0.159 HD
ENDBRANCH  11  16
ENDBRANCH   1   9
BRANCH   6  19
HETATM   19  C9  UNL     1      -4.064  -0.820   0.305  1.00  0.00    -0.031 A 
HETATM   20  C10 UNL     1      -4.804  -1.802  -0.353  1.00  0.00     0.012 A 
HETATM   21  C11 UNL     1      -5.844  -1.514  -1.195  1.00  0.00     0.043 A 
HETATM   22  C12 UNL     1      -6.185  -0.195  -1.411  1.00  0.00     0.116 A 
HETATM   23  F1  UNL     1      -7.211   0.107  -2.240  1.00  0.00    -0.206 F 
HETATM   24  C13 UNL     1      -5.468   0.805  -0.771  1.00  0.00     0.043 A 
HETATM   25  C14 UNL     1      -4.417   0.498   0.080  1.00  0.00     0.012 A 
ENDBRANCH   6  19
TORSDOF 3
