REMARK  5 active torsions:
REMARK  status: ('A' for Active; 'I' for Inactive)
REMARK    1  A    between atoms: C2_2  and  N1_3 
REMARK    2  A    between atoms: C2_2  and  C15_19 
REMARK    3  A    between atoms: N1_3  and  C3_4 
REMARK    4  A    between atoms: C8_11  and  C9_12 
REMARK    5  A    between atoms: C12_15  and  N4_16 
ROOT
HETATM    1  C3  UNL     1      -1.050  -0.660  -0.544  1.00  0.00     0.138 A 
HETATM    2  N2  UNL     1      -1.475   0.215  -1.473  1.00  0.00    -0.224 NA
HETATM    3  C4  UNL     1      -0.631   1.083  -2.066  1.00  0.00     0.236 A 
HETATM    4  N3  UNL     1       0.703   1.153  -1.784  1.00  0.00    -0.240 NA
HETATM    5  C5  UNL     1       1.159   0.289  -0.857  1.00  0.00     0.083 A 
HETATM    6  C6  UNL     1       0.314  -0.589  -0.255  1.00  0.00     0.040 A 
HETATM    7  C7  UNL     1       1.411  -1.121   0.528  1.00  0.00     0.032 A 
HETATM    8  C8  UNL     1       2.250  -0.283  -0.038  1.00  0.00     0.005 A 
ENDROOT
BRANCH   1   9
HETATM    9  N1  UNL     1      -1.965  -1.561   0.061  1.00  0.00    -0.366 N 
HETATM   10  H5  UNL     1      -1.521  -2.201   0.775  1.00  0.00     0.161 HD
BRANCH   9  11
HETATM   11  C2  UNL     1      -3.378  -1.605  -0.266  1.00  0.00     0.112 C 
HETATM   12  C1  UNL     1      -4.002  -2.687   0.584  1.00  0.00     0.037 C 
BRANCH  11  13
HETATM   13  C15 UNL     1      -4.050  -0.297  -0.082  1.00  0.00    -0.036 A 
HETATM   14  C16 UNL     1      -3.687   0.302   1.113  1.00  0.00     0.009 A 
HETATM   15  C17 UNL     1      -4.218   1.544   1.464  1.00  0.00     0.001 A 
HETATM   16  C18 UNL     1      -5.094   2.176   0.641  1.00  0.00     0.000 A 
HETATM   17  C19 UNL     1      -5.453   1.572  -0.552  1.00  0.00     0.001 A 
HETATM   18  C20 UNL     1      -4.939   0.357  -0.906  1.00  0.00     0.009 A 
ENDBRANCH  11  13
ENDBRANCH   9  11
ENDBRANCH   1   9
BRANCH   8  19
HETATM   19  C9  UNL     1       3.669   0.056   0.015  1.00  0.00    -0.024 A 
HETATM   20  C10 UNL     1       4.250   1.044  -0.758  1.00  0.00     0.014 A 
HETATM   21  C11 UNL     1       5.597   1.342  -0.686  1.00  0.00     0.030 A 
HETATM   22  C12 UNL     1       6.346   0.599   0.204  1.00  0.00     0.025 A 
HETATM   23  C13 UNL     1       5.850  -0.403   1.012  1.00  0.00     0.030 A 
HETATM   24  C14 UNL     1       4.480  -0.665   0.901  1.00  0.00     0.014 A 
BRANCH  22  25
HETATM   25  N4  UNL     1       7.734   0.902   0.282  1.00  0.00    -0.399 N 
HETATM   26  H10 UNL     1       8.460   0.336   0.773  1.00  0.00     0.156 HD
HETATM   27  H11 UNL     1       8.162   1.745  -0.161  1.00  0.00     0.156 HD
ENDBRANCH  22  25
ENDBRANCH   8  19
TORSDOF 5
