REMARK  4 active torsions:
REMARK  status: ('A' for Active; 'I' for Inactive)
REMARK    1  A    between atoms: C2_2  and  N1_3 
REMARK    2  A    between atoms: C2_2  and  C14_18 
REMARK    3  A    between atoms: N1_3  and  C3_4 
REMARK    4  A    between atoms: C6_9  and  C7_10 
ROOT
HETATM    1  C3  UNL     1      -0.092   0.183  -1.338  1.00  0.00     0.137 A 
HETATM    2  N2  UNL     1       0.449  -0.067  -2.565  1.00  0.00    -0.224 NA
HETATM    3  C4  UNL     1      -0.304   0.155  -3.658  1.00  0.00     0.234 A 
HETATM    4  N3  UNL     1      -1.566   0.615  -3.545  1.00  0.00    -0.253 NA
HETATM    5  C5  UNL     1      -2.132   0.873  -2.347  1.00  0.00     0.133 A 
HETATM    6  C6  UNL     1      -1.386   0.655  -1.209  1.00  0.00     0.028 A 
ENDROOT
BRANCH   1   7
HETATM    7  N1  UNL     1       0.758  -0.065  -0.206  1.00  0.00    -0.369 N 
HETATM    8  H5  UNL     1       0.344   0.147   0.733  1.00  0.00     0.161 HD
BRANCH   7   9
HETATM    9  C2  UNL     1       2.095  -0.571  -0.347  1.00  0.00     0.090 C 
HETATM   10  C1  UNL     1       2.970   0.299  -1.188  1.00  0.00     0.033 C 
BRANCH   9  11
HETATM   11  C14 UNL     1       2.729  -0.701   1.012  1.00  0.00     0.053 A 
HETATM   12  C15 UNL     1       2.892   0.615   1.668  1.00  0.00    -0.016 A 
HETATM   13  C16 UNL     1       4.187   0.825   1.925  1.00  0.00    -0.004 A 
HETATM   14  C17 UNL     1       4.949  -0.337   1.455  1.00  0.00    -0.004 A 
HETATM   15  C18 UNL     1       4.119  -1.207   0.934  1.00  0.00    -0.016 A 
ENDBRANCH   9  11
ENDBRANCH   7   9
ENDBRANCH   1   7
BRANCH   6  16
HETATM   16  C7  UNL     1      -1.874   0.898   0.136  1.00  0.00     0.028 C 
HETATM   17  C8  UNL     1      -3.011   0.495   0.660  1.00  0.00    -0.034 C 
HETATM   18  C9  UNL     1      -3.407   0.805   2.043  1.00  0.00     0.025 C 
HETATM   19  C13 UNL     1      -3.963  -0.327  -0.085  1.00  0.00     0.013 C 
HETATM   20  C10 UNL     1      -4.347   0.107   2.631  1.00  0.00    -0.006 C 
HETATM   21  C11 UNL     1      -5.381  -0.343   1.946  1.00  0.00     0.022 C 
HETATM   22 BR1  UNL     1      -7.155  -0.551   2.608  1.00  0.00    -0.050 Br
HETATM   23  C12 UNL     1      -5.054  -0.690   0.566  1.00  0.00     0.021 C 
ENDBRANCH   6  16
TORSDOF 4
