REMARK  4 active torsions:
REMARK  status: ('A' for Active; 'I' for Inactive)
REMARK       I    between atoms: C2_2  and  N1_4 
REMARK    1  A    between atoms: C5_7  and  O2_8 
REMARK    2  A    between atoms: O2_8  and  C6_9 
REMARK    3  A    between atoms: C8_11  and  C9_12 
REMARK    4  A    between atoms: N2_18  and  C14_19 
ROOT
HETATM    1  C6  UNL     1      -0.244  -0.777   1.397  1.00  0.00     0.078 A 
HETATM    2  C7  UNL     1      -0.581  -0.969   2.699  1.00  0.00     0.045 A 
HETATM    3  C8  UNL     1      -1.683  -1.697   3.079  1.00  0.00    -0.041 A 
HETATM    4  C10 UNL     1      -2.495  -2.266   2.097  1.00  0.00     0.017 A 
HETATM    5  C11 UNL     1      -2.215  -2.114   0.720  1.00  0.00    -0.032 A 
HETATM    6  C12 UNL     1      -1.071  -1.353   0.451  1.00  0.00     0.002 A 
HETATM    7  C13 UNL     1      -1.095  -1.315  -1.064  1.00  0.00     0.185 C 
HETATM    8  N2  UNL     1      -2.462  -0.938  -1.416  1.00  0.00    -0.308 N 
HETATM    9  N3  UNL     1      -3.376  -1.981  -1.361  1.00  0.00    -0.233 NA
HETATM   10  C20 UNL     1      -3.138  -2.797  -0.213  1.00  0.00     0.149 C 
HETATM   11  H19 UNL     1      -3.284  -2.555  -2.225  1.00  0.00     0.147 HD
ENDROOT
BRANCH   1  12
HETATM   12  O2  UNL     1       0.737  -0.142   0.656  1.00  0.00    -0.345 OA
BRANCH  12  13
HETATM   13  C5  UNL     1       1.786   0.631   1.186  1.00  0.00     0.132 C 
HETATM   14  C4  UNL     1       3.048  -0.200   1.377  1.00  0.00     0.052 C 
HETATM   15  C3  UNL     1       3.868  -0.332   0.137  1.00  0.00     0.128 C 
HETATM   16  N1  UNL     1       4.129   0.911  -0.536  1.00  0.00    -0.352 N 
HETATM   17  C2  UNL     1       4.849   0.625  -1.713  1.00  0.00     0.215 C 
HETATM   18  C22 UNL     1       3.582   2.055   0.193  1.00  0.00     0.128 C 
HETATM   19  C1  UNL     1       5.374   1.495  -2.787  1.00  0.00     0.117 C 
HETATM   20  O1  UNL     1       5.006  -0.636  -1.731  1.00  0.00    -0.274 OA
HETATM   21  C21 UNL     1       2.085   1.776   0.282  1.00  0.00     0.052 C 
ENDBRANCH  12  13
ENDBRANCH   1  12
BRANCH   3  22
HETATM   22  C9  UNL     1      -1.882  -1.781   4.548  1.00  0.00     0.153 C 
HETATM   23 CL1  UNL     1      -0.993  -3.194   5.160  1.00  0.00    -0.126 Cl
ENDBRANCH   3  22
BRANCH   8  24
HETATM   24  C14 UNL     1      -2.863   0.379  -1.773  1.00  0.00     0.049 A 
HETATM   25  C15 UNL     1      -2.052   1.462  -1.820  1.00  0.00     0.031 A 
HETATM   26  C16 UNL     1      -2.472   2.745  -2.170  1.00  0.00     0.005 A 
HETATM   27  C17 UNL     1      -3.811   2.900  -2.487  1.00  0.00     0.042 A 
HETATM   28  C18 UNL     1      -4.687   1.823  -2.457  1.00  0.00     0.118 A 
HETATM   29  F1  UNL     1      -6.020   1.907  -2.759  1.00  0.00    -0.206 F 
HETATM   30  C19 UNL     1      -4.193   0.574  -2.100  1.00  0.00     0.072 A 
ENDBRANCH   8  24
TORSDOF 4
