REMARK  2 active torsions:
REMARK  status: ('A' for Active; 'I' for Inactive)
REMARK    1  A    between atoms: C3_3  and  C4_4 
REMARK    2  A    between atoms: C6_6  and  S1_7 
ROOT
HETATM    1  C4  UNL     1       1.605   0.988   2.095  1.00  0.00     0.040 A 
HETATM    2  C5  UNL     1       0.382   0.562   1.906  1.00  0.00     0.009 A 
HETATM    3  C6  UNL     1       0.670  -0.232   1.188  1.00  0.00     0.044 A 
HETATM    4  S1  UNL     1       0.969  -1.135   0.380  1.00  0.00    -0.090 SA
HETATM    5  N1  UNL     1       1.295  -2.230  -0.586  1.00  0.00    -0.234 NA
HETATM    6  C7  UNL     1      -0.067  -1.662   0.322  1.00  0.00     0.178 A 
HETATM    7  N2  UNL     1      -0.984  -2.699   0.137  1.00  0.00    -0.244 NA
HETATM    8  C8  UNL     1      -2.268  -3.163   0.432  1.00  0.00     0.226 C 
HETATM    9  N3  UNL     1      -3.044  -2.428  -0.282  1.00  0.00    -0.264 NA
HETATM   10  C9  UNL     1      -2.897  -1.344  -1.229  1.00  0.00     0.275 C 
HETATM   11  N4  UNL     1      -2.118  -0.226  -0.777  1.00  0.00    -0.358 N 
HETATM   12  C10 UNL     1      -1.976   0.407  -2.077  1.00  0.00     0.005 A 
HETATM   13  C11 UNL     1      -2.476  -0.111  -3.378  1.00  0.00     0.068 C 
HETATM   14  C12 UNL     1      -1.328   1.590  -2.151  1.00  0.00     0.024 A 
HETATM   15  C13 UNL     1      -0.744   2.300  -1.022  1.00  0.00    -0.000 A 
HETATM   16  C14 UNL     1      -0.901   1.659   0.120  1.00  0.00    -0.001 A 
HETATM   17  C15 UNL     1      -1.577   0.335   0.403  1.00  0.00     0.119 A 
HETATM   18  C16 UNL     1      -0.577  -0.443   1.187  1.00  0.00     0.090 A 
HETATM   19  H7  UNL     1       0.862  -3.033  -1.071  1.00  0.00     0.138 HD
ENDROOT
BRANCH   1  20
HETATM   20  C3  UNL     1       2.962   0.706   1.661  1.00  0.00    -0.024 C 
HETATM   21  C2  UNL     1       3.889   1.480   2.189  1.00  0.00    -0.034 C 
HETATM   22  C1  UNL     1       5.297   1.248   1.788  1.00  0.00     0.036 C 
ENDBRANCH   1  20
TORSDOF 2
