REMARK  0 active torsions:
REMARK  status: ('A' for Active; 'I' for Inactive)
ROOT
HETATM    1  C1  UNL     1      -3.517   2.591  -0.565  1.00  0.00     0.022 C 
HETATM    2  C2  UNL     1      -2.496   1.543  -0.419  1.00  0.00     0.022 A 
HETATM    3  C3  UNL     1      -2.250   0.877   0.719  1.00  0.00    -0.010 A 
HETATM    4  C4  UNL     1      -1.219  -0.203   0.880  1.00  0.00    -0.064 A 
HETATM    5  C5  UNL     1      -0.482  -0.639  -0.087  1.00  0.00     0.035 A 
HETATM    6 BR1  UNL     1      -1.749   0.338   0.879  1.00  0.00    -0.148 Br
HETATM    7  C6  UNL     1      -0.114  -0.504  -1.481  1.00  0.00     0.048 A 
HETATM    8  C7  UNL     1       0.509  -0.774  -2.573  1.00  0.00     0.003 A 
HETATM    9  C8  UNL     1       0.114  -0.933  -1.056  1.00  0.00    -0.022 A 
HETATM   10  C9  UNL     1      -0.549   0.121  -1.634  1.00  0.00     0.029 A 
HETATM   11  B1  UNL     1      -1.516   1.348  -1.687  1.00  0.00     0.316 B 
HETATM   12  N1  UNL     1      -0.556   2.713  -1.607  1.00  0.00    -0.357 N 
HETATM   13  N2  UNL     1       0.864   2.662  -1.439  1.00  0.00    -0.189 NA
HETATM   14  C10 UNL     1       1.471   2.141  -0.445  1.00  0.00     0.227 C 
HETATM   15  N3  UNL     1       2.237   1.572   0.645  1.00  0.00    -0.350 N 
HETATM   16  C11 UNL     1       2.466   0.131   0.544  1.00  0.00     0.030 C 
HETATM   17  C12 UNL     1       1.790  -0.503   1.567  1.00  0.00     0.027 C 
HETATM   18  C13 UNL     1       1.253  -1.840   1.614  1.00  0.00     0.102 C 
HETATM   19  C14 UNL     1      -0.065  -1.897   2.343  1.00  0.00     0.033 C 
HETATM   20  C15 UNL     1      -0.962  -0.766   2.271  1.00  0.00     0.038 C 
HETATM   21  N4  UNL     1       1.030  -2.596   0.444  1.00  0.00    -0.406 N 
HETATM   22  C16 UNL     1       1.058  -2.106  -0.842  1.00  0.00     0.105 C 
HETATM   23  C17 UNL     1       2.488  -1.630  -1.183  1.00  0.00     0.000 C 
HETATM   24  C18 UNL     1       3.190  -0.729  -0.432  1.00  0.00     0.027 C 
HETATM   25  H8  UNL     1      -1.149   3.569  -1.690  1.00  0.00     0.161 HD
HETATM   26  H10 UNL     1       2.674   1.907   1.508  1.00  0.00     0.166 HD
HETATM   27  H17 UNL     1       0.471  -3.426   0.665  1.00  0.00     0.154 HD
ENDROOT
TORSDOF 0
