REMARK  5 active torsions:
REMARK  status: ('A' for Active; 'I' for Inactive)
REMARK    1  A    between atoms: O1_2  and  C2_3 
REMARK    2  A    between atoms: C4_5  and  O2_6 
REMARK    3  A    between atoms: O2_6  and  C5_7 
REMARK       I    between atoms: N1_10  and  C8_11 
REMARK    4  A    between atoms: C12_17  and  N2_18 
REMARK    5  A    between atoms: N2_18  and  C13_19 
ROOT
HETATM    1  C2  UNL     1      -0.474  -3.748   0.391  1.00  0.00     0.073 A 
HETATM    2  C3  UNL     1       0.196  -2.528   0.264  1.00  0.00     0.074 A 
HETATM    3  C4  UNL     1      -0.458  -1.317   0.199  1.00  0.00     0.089 A 
HETATM    4  C11 UNL     1      -1.832  -1.330   0.265  1.00  0.00     0.072 A 
HETATM    5  C12 UNL     1      -2.517  -0.162   0.207  1.00  0.00     0.144 A 
HETATM    6  N3  UNL     1      -3.853  -0.243   0.277  1.00  0.00    -0.223 NA
HETATM    7  C19 UNL     1      -4.535  -1.377   0.399  1.00  0.00     0.236 A 
HETATM    8  N4  UNL     1      -3.825  -2.535   0.456  1.00  0.00    -0.241 NA
HETATM    9  C20 UNL     1      -2.485  -2.541   0.392  1.00  0.00     0.077 A 
HETATM   10  C21 UNL     1      -1.872  -3.755   0.458  1.00  0.00     0.069 A 
ENDROOT
BRANCH   3  11
HETATM   11  O2  UNL     1       0.259  -0.157   0.074  1.00  0.00    -0.334 OA
BRANCH  11  12
HETATM   12  C5  UNL     1       1.634  -0.009   0.001  1.00  0.00     0.193 C 
HETATM   13  C6  UNL     1       2.087   0.656  -1.292  1.00  0.00     0.063 C 
HETATM   14  C7  UNL     1       3.580   0.625  -1.360  1.00  0.00     0.130 C 
HETATM   15  N1  UNL     1       4.227   1.296  -0.278  1.00  0.00    -0.343 N 
HETATM   16  C8  UNL     1       5.604   1.079   0.003  1.00  0.00     0.216 C 
HETATM   17  C10 UNL     1       3.430   2.217   0.537  1.00  0.00     0.202 C 
HETATM   18  C9  UNL     1       6.376   0.147  -0.837  1.00  0.00     0.117 C 
HETATM   19  O3  UNL     1       6.133   1.702   0.979  1.00  0.00    -0.274 OA
HETATM   20  S1  UNL     1       2.154   1.157   1.321  1.00  0.00    -0.117 SA
ENDBRANCH  11  12
ENDBRANCH   3  11
BRANCH   1  21
HETATM   21  O1  UNL     1       0.160  -4.975   0.458  1.00  0.00    -0.356 OA
HETATM   22  C1  UNL     1      -0.561  -6.199   0.589  1.00  0.00     0.210 C 
ENDBRANCH   1  21
BRANCH   5  23
HETATM   23  N2  UNL     1      -1.943   1.125   0.057  1.00  0.00    -0.340 N 
HETATM   24  H15 UNL     1      -1.010   1.549  -0.081  1.00  0.00     0.167 HD
BRANCH  23  25
HETATM   25  C13 UNL     1      -2.744   2.313   0.082  1.00  0.00     0.035 A 
HETATM   26  C14 UNL     1      -2.550   3.494  -0.645  1.00  0.00     0.032 A 
HETATM   27  C15 UNL     1      -3.324   4.605  -0.580  1.00  0.00     0.046 A 
HETATM   28  C16 UNL     1      -4.396   4.605   0.259  1.00  0.00     0.138 A 
HETATM   29  F1  UNL     1      -5.155   5.725   0.307  1.00  0.00    -0.204 F 
HETATM   30  C17 UNL     1      -4.685   3.492   1.027  1.00  0.00     0.074 A 
HETATM   31 CL1  UNL     1      -6.070   3.607   2.057  1.00  0.00    -0.081 Cl
HETATM   32  C18 UNL     1      -3.858   2.389   0.918  1.00  0.00     0.056 A 
ENDBRANCH  23  25
ENDBRANCH   5  23
TORSDOF 5
