REMARK  4 active torsions:
REMARK  status: ('A' for Active; 'I' for Inactive)
REMARK    1  A    between atoms: C2_2  and  N1_3 
REMARK    2  A    between atoms: C2_2  and  C16_21 
REMARK    3  A    between atoms: N1_3  and  C3_4 
REMARK    4  A    between atoms: C6_9  and  C7_10 
ROOT
HETATM    1  C7  UNL     1       4.588   0.118   0.193  1.00  0.00    -0.021 A 
HETATM    2  C8  UNL     1       4.971  -0.547  -0.963  1.00  0.00     0.012 A 
HETATM    3  C9  UNL     1       6.263  -0.639  -1.377  1.00  0.00     0.023 A 
HETATM    4  C10 UNL     1       7.296  -0.059  -0.645  1.00  0.00     0.044 A 
HETATM    5  C11 UNL     1       8.626  -0.178  -1.105  1.00  0.00     0.099 C 
HETATM    6  N4  UNL     1       9.730  -0.296  -1.493  1.00  0.00    -0.191 NA
HETATM    7  C12 UNL     1       6.928   0.598   0.495  1.00  0.00     0.023 A 
HETATM    8  C13 UNL     1       5.615   0.677   0.891  1.00  0.00     0.012 A 
ENDROOT
BRANCH   1   9
HETATM    9  C6  UNL     1       3.162   0.088   0.434  1.00  0.00     0.111 A 
HETATM   10  N3  UNL     1       2.205  -0.523  -0.395  1.00  0.00    -0.377 N 
HETATM   11  C5  UNL     1       1.266  -0.041  -1.342  1.00  0.00     0.104 C 
HETATM   12  H8  UNL     1       2.376  -1.511  -0.115  1.00  0.00     0.160 HD
HETATM   13  C4  UNL     1      -0.024   0.144  -1.545  1.00  0.00     0.136 C 
HETATM   14  N2  UNL     1      -0.974  -0.181  -0.639  1.00  0.00    -0.236 NA
HETATM   15  C3  UNL     1      -1.174  -0.327   0.601  1.00  0.00     0.167 C 
HETATM   16  S1  UNL     1       0.373   0.068   0.986  1.00  0.00    -0.054 SA
HETATM   17  C15 UNL     1       1.669   0.395   1.283  1.00  0.00     0.022 A 
HETATM   18  C14 UNL     1       2.935   0.716   1.550  1.00  0.00     0.032 A 
BRANCH  15  19
HETATM   19  N1  UNL     1      -2.417  -0.644   0.274  1.00  0.00    -0.361 N 
HETATM   20  H5  UNL     1      -2.554  -0.725   1.380  1.00  0.00     0.162 HD
BRANCH  19  21
HETATM   21  C2  UNL     1      -3.696  -0.969  -0.059  1.00  0.00     0.113 C 
HETATM   22  C1  UNL     1      -3.947  -1.002  -1.581  1.00  0.00     0.037 C 
BRANCH  21  23
HETATM   23  C16 UNL     1      -4.804  -0.162   0.577  1.00  0.00    -0.036 A 
HETATM   24  C17 UNL     1      -4.844   0.125   1.922  1.00  0.00     0.009 A 
HETATM   25  C18 UNL     1      -5.850   0.862   2.491  1.00  0.00     0.001 A 
HETATM   26  C19 UNL     1      -6.877   1.349   1.713  1.00  0.00     0.000 A 
HETATM   27  C20 UNL     1      -6.860   1.074   0.360  1.00  0.00     0.001 A 
HETATM   28  C21 UNL     1      -5.836   0.322  -0.235  1.00  0.00     0.009 A 
ENDBRANCH  21  23
ENDBRANCH  19  21
ENDBRANCH  15  19
ENDBRANCH   1   9
TORSDOF 4
