REMARK  3 active torsions:
REMARK  status: ('A' for Active; 'I' for Inactive)
REMARK    1  A    between atoms: C2_2  and  N1_3 
REMARK    2  A    between atoms: C2_2  and  C15_20 
REMARK    3  A    between atoms: N1_3  and  C3_4 
ROOT
HETATM    1  C3  UNL     1      -0.129  -0.282  -0.571  1.00  0.00     0.147 C 
HETATM    2  N2  UNL     1      -0.357   0.883  -1.084  1.00  0.00    -0.270 NA
HETATM    3  C4  UNL     1       0.473   2.112  -0.940  1.00  0.00     0.161 C 
HETATM    4  C5  UNL     1       1.609   1.788  -0.193  1.00  0.00     0.100 C 
HETATM    5  S1  UNL     1       2.982   1.396   0.709  1.00  0.00    -0.135 SA
HETATM    6  C6  UNL     1       4.092   1.049   1.446  1.00  0.00    -0.016 A 
HETATM    7  C7  UNL     1       5.130   0.699   2.142  1.00  0.00     0.064 A 
HETATM    8  C8  UNL     1       5.869  -0.410   2.595  1.00  0.00     0.060 A 
HETATM    9  N3  UNL     1       6.505  -1.331   2.985  1.00  0.00    -0.157 N 
HETATM   10  C9  UNL     1       4.406  -0.412   1.591  1.00  0.00     0.084 A 
HETATM   11  C10 UNL     1       4.041  -1.867   1.277  1.00  0.00     0.052 C 
HETATM   12  C11 UNL     1       2.586  -2.157   1.425  1.00  0.00    -0.057 C 
HETATM   13  C12 UNL     1       2.144  -1.652   0.258  1.00  0.00     0.039 C 
HETATM   14  C13 UNL     1       0.810  -1.062   0.288  1.00  0.00     0.097 C 
HETATM   15  N4  UNL     1       0.504  -1.288   1.552  1.00  0.00    -0.282 NA
HETATM   16  C14 UNL     1       1.229  -2.562   1.871  1.00  0.00     0.183 C 
ENDROOT
BRANCH   1  17
HETATM   17  N1  UNL     1      -1.265  -1.058  -1.054  1.00  0.00    -0.365 N 
HETATM   18  H5  UNL     1      -1.230  -2.090  -0.736  1.00  0.00     0.162 HD
BRANCH  17  19
HETATM   19  C2  UNL     1      -2.402  -0.653  -1.863  1.00  0.00     0.112 C 
HETATM   20  C1  UNL     1      -2.026  -0.062  -3.194  1.00  0.00     0.037 C 
BRANCH  19  21
HETATM   21  C15 UNL     1      -3.282   0.270  -1.073  1.00  0.00    -0.036 A 
HETATM   22  C16 UNL     1      -3.879   1.455  -1.457  1.00  0.00     0.009 A 
HETATM   23  C17 UNL     1      -4.651   2.113  -0.504  1.00  0.00     0.001 A 
HETATM   24  C18 UNL     1      -4.847   1.656   0.768  1.00  0.00     0.000 A 
HETATM   25  C19 UNL     1      -4.243   0.464   1.146  1.00  0.00     0.001 A 
HETATM   26  C20 UNL     1      -3.466  -0.213   0.215  1.00  0.00     0.009 A 
ENDBRANCH  19  21
ENDBRANCH  17  19
ENDBRANCH   1  17
TORSDOF 3
