REMARK  6 active torsions:
REMARK  status: ('A' for Active; 'I' for Inactive)
REMARK    1  A    between atoms: C2_2  and  C3_3 
REMARK    2  A    between atoms: C11_14  and  N4_15 
REMARK    3  A    between atoms: N4_15  and  C13_17 
REMARK    4  A    between atoms: C13_17  and  C14_18 
REMARK    5  A    between atoms: C15_19  and  C16_20 
REMARK    6  A    between atoms: C16_20  and  N5_21 
ROOT
HETATM    1  C3  UNL     1      -1.544  -1.808   0.622  1.00  0.00     0.007 C 
HETATM    2  C4  UNL     1      -1.762  -0.530   0.423  1.00  0.00     0.002 C 
HETATM    3  C5  UNL     1      -2.791  -0.257  -0.618  1.00  0.00     0.068 C 
HETATM    4  C6  UNL     1      -3.163  -1.262  -1.560  1.00  0.00     0.101 C 
HETATM    5  N1  UNL     1      -3.442  -2.073  -2.316  1.00  0.00    -0.191 NA
HETATM    6  C7  UNL     1      -3.505   0.879  -0.826  1.00  0.00     0.111 C 
HETATM    7  N2  UNL     1      -3.088   2.021  -0.105  1.00  0.00    -0.365 N 
HETATM    8  C8  UNL     1      -3.463   3.061   0.811  1.00  0.00     0.273 C 
HETATM    9  N3  UNL     1      -2.380   2.759   1.814  1.00  0.00    -0.275 NA
HETATM   10  C9  UNL     1      -1.673   1.740   1.361  1.00  0.00     0.064 C 
HETATM   11  C10 UNL     1      -1.680   2.504   0.026  1.00  0.00     0.181 C 
HETATM   12  C11 UNL     1      -0.954   0.397   1.311  1.00  0.00     0.306 C 
ENDROOT
BRANCH   1  13
HETATM   13  C2  UNL     1      -1.908  -3.114   0.229  1.00  0.00    -0.026 C 
HETATM   14  C1  UNL     1      -1.604  -4.366   0.514  1.00  0.00     0.031 C 
ENDBRANCH   1  13
BRANCH  12  15
HETATM   15  N4  UNL     1       0.346   0.692   0.781  1.00  0.00     0.102 N 
HETATM   16  C12 UNL     1       1.015   1.572   1.718  1.00  0.00     0.311 C 
BRANCH  15  17
HETATM   17  C13 UNL     1       1.128  -0.402   0.342  1.00  0.00     0.300 C 
BRANCH  17  18
HETATM   18  C14 UNL     1       2.459   0.084  -0.174  1.00  0.00     0.001 C 
HETATM   19  C15 UNL     1       2.945  -0.079  -1.422  1.00  0.00    -0.008 C 
BRANCH  19  20
HETATM   20  C16 UNL     1       4.290   0.448  -1.830  1.00  0.00     0.169 C 
BRANCH  20  21
HETATM   21  N5  UNL     1       5.131  -0.608  -2.257  1.00  0.00    -0.325 NA
HETATM   22  C17 UNL     1       4.922  -1.297  -3.290  1.00  0.00     0.164 C 
ENDBRANCH  20  21
ENDBRANCH  19  20
ENDBRANCH  17  18
ENDBRANCH  15  17
ENDBRANCH  12  15
TORSDOF 6
