REMARK  5 active torsions:
REMARK  status: ('A' for Active; 'I' for Inactive)
REMARK    1  A    between atoms: C2_2  and  N1_3 
REMARK    2  A    between atoms: C2_2  and  C14_19 
REMARK    3  A    between atoms: N1_3  and  C3_4 
REMARK    4  A    between atoms: C6_9  and  C7_10 
REMARK    5  A    between atoms: C8_11  and  N4_12 
ROOT
HETATM    1  C7  UNL     1       2.241   0.058  -0.082  1.00  0.00    -0.015 C 
HETATM    2  C8  UNL     1       3.039   0.054   0.985  1.00  0.00     0.032 C 
HETATM    3  C9  UNL     1       3.701  -1.168   1.506  1.00  0.00     0.165 C 
HETATM    4  C10 UNL     1       5.028  -1.277   0.935  1.00  0.00     0.074 C 
HETATM    5  N5  UNL     1       6.082  -1.343   0.483  1.00  0.00    -0.196 NA
HETATM    6  C11 UNL     1       2.811  -2.331   1.151  1.00  0.00    -0.005 C 
HETATM    7  C12 UNL     1       2.048  -2.360   0.066  1.00  0.00    -0.024 C 
HETATM    8  C13 UNL     1       2.047  -1.210  -0.864  1.00  0.00     0.068 C 
ENDROOT
BRANCH   2   9
HETATM    9  N4  UNL     1       3.287   1.275   1.715  1.00  0.00    -0.401 N 
HETATM   10  H8  UNL     1       4.096   1.945   1.828  1.00  0.00     0.156 HD
HETATM   11  H9  UNL     1       2.367   1.413   2.203  1.00  0.00     0.156 HD
ENDBRANCH   2   9
BRANCH   1  12
HETATM   12  C6  UNL     1       1.604   1.289  -0.529  1.00  0.00     0.036 A 
HETATM   13  C3  UNL     1       0.269   1.472  -0.754  1.00  0.00     0.137 A 
HETATM   14  N2  UNL     1      -0.135   2.658  -1.238  1.00  0.00    -0.224 NA
HETATM   15  C4  UNL     1       0.743   3.655  -1.498  1.00  0.00     0.234 A 
HETATM   16  N3  UNL     1       2.075   3.481  -1.273  1.00  0.00    -0.253 NA
HETATM   17  C5  UNL     1       2.531   2.295  -0.785  1.00  0.00     0.134 A 
BRANCH  13  18
HETATM   18  N1  UNL     1      -0.639   0.459  -0.423  1.00  0.00    -0.366 N 
HETATM   19  H5  UNL     1      -0.509  -0.465   0.002  1.00  0.00     0.161 HD
BRANCH  18  20
HETATM   20  C2  UNL     1      -2.045   0.720  -0.703  1.00  0.00     0.112 C 
HETATM   21  C1  UNL     1      -2.287   0.787  -2.189  1.00  0.00     0.037 C 
BRANCH  20  22
HETATM   22  C14 UNL     1      -2.971  -0.200  -0.012  1.00  0.00    -0.036 A 
HETATM   23  C15 UNL     1      -4.110   0.295   0.633  1.00  0.00     0.009 A 
HETATM   24  C16 UNL     1      -5.062  -0.425   1.322  1.00  0.00     0.001 A 
HETATM   25  C17 UNL     1      -4.868  -1.790   1.382  1.00  0.00     0.000 A 
HETATM   26  C18 UNL     1      -3.767  -2.349   0.770  1.00  0.00     0.001 A 
HETATM   27  C19 UNL     1      -2.839  -1.570   0.088  1.00  0.00     0.009 A 
ENDBRANCH  20  22
ENDBRANCH  18  20
ENDBRANCH  13  18
ENDBRANCH   1  12
TORSDOF 5
