REMARK  2 active torsions:
REMARK  status: ('A' for Active; 'I' for Inactive)
REMARK    1  A    between atoms: C2_2  and  C3_3 
REMARK    2  A    between atoms: C13_16  and  C14_17 
ROOT
HETATM    1  C1  UNL     1       1.311  -2.044  -0.474  1.00  0.00     0.069 C 
HETATM    2  C2  UNL     1       1.393  -0.601  -0.629  1.00  0.00     0.132 C 
HETATM    3  N1  UNL     1       1.126  -0.344  -2.100  1.00  0.00    -0.346 N 
HETATM    4  C9  UNL     1      -0.054   0.550  -1.888  1.00  0.00     0.101 C 
HETATM    5  C10 UNL     1       0.372   1.858  -1.723  1.00  0.00     0.041 C 
HETATM    6  C11 UNL     1       0.859   1.639  -0.264  1.00  0.00     0.156 C 
HETATM    7  N2  UNL     1       0.406   0.255   0.092  1.00  0.00    -0.354 N 
HETATM    8  C12 UNL     1      -0.836  -0.149   0.798  1.00  0.00     0.119 C 
HETATM    9  C13 UNL     1      -1.718  -0.091  -0.283  1.00  0.00     0.059 C 
HETATM   10  N3  UNL     1      -1.480   0.029  -1.760  1.00  0.00    -0.341 N 
HETATM   11  H8  UNL     1       1.860  -0.888  -2.623  1.00  0.00     0.164 HD
HETATM   12  H18 UNL     1      -2.224  -0.235  -2.471  1.00  0.00     0.167 HD
ENDROOT
BRANCH   2  13
HETATM   13  C3  UNL     1       2.747  -0.170  -0.262  1.00  0.00    -0.010 A 
HETATM   14  C4  UNL     1       3.849   0.041  -1.057  1.00  0.00     0.014 A 
HETATM   15  C5  UNL     1       5.059   0.433  -0.523  1.00  0.00     0.043 A 
HETATM   16  C6  UNL     1       5.246   0.639   0.832  1.00  0.00     0.116 A 
HETATM   17  F1  UNL     1       6.477   1.019   1.213  1.00  0.00    -0.206 F 
HETATM   18  C7  UNL     1       4.148   0.429   1.631  1.00  0.00     0.043 A 
HETATM   19  C8  UNL     1       2.931   0.037   1.112  1.00  0.00     0.014 A 
ENDBRANCH   2  13
BRANCH   9  20
HETATM   20  C14 UNL     1      -3.152  -0.170   0.058  1.00  0.00    -0.008 A 
HETATM   21  C15 UNL     1      -3.650  -0.346   1.320  1.00  0.00     0.014 A 
HETATM   22  C16 UNL     1      -4.979  -0.407   1.667  1.00  0.00     0.001 A 
HETATM   23  C17 UNL     1      -5.930  -0.285   0.678  1.00  0.00     0.000 A 
HETATM   24  C18 UNL     1      -5.488  -0.106  -0.614  1.00  0.00     0.001 A 
HETATM   25  C19 UNL     1      -4.141  -0.055  -0.877  1.00  0.00     0.014 A 
ENDBRANCH   9  20
TORSDOF 2
