REMARK  3 active torsions:
REMARK  status: ('A' for Active; 'I' for Inactive)
REMARK    1  A    between atoms: C11_11  and  C12_12 
REMARK    2  A    between atoms: C12_12  and  N1_13 
REMARK    3  A    between atoms: C13_14  and  C14_15 
ROOT
HETATM    1  C1  UNL     1      -3.719  -1.804   1.663  1.00  0.00     0.067 C 
HETATM    2  C2  UNL     1      -2.349  -1.742   1.043  1.00  0.00    -0.002 C 
HETATM    3  C3  UNL     1      -1.635  -0.621   1.267  1.00  0.00     0.005 C 
HETATM    4  C4  UNL     1      -0.378  -0.852   0.556  1.00  0.00     0.049 C 
HETATM    5  C5  UNL     1      -0.860  -1.782  -0.589  1.00  0.00     0.113 C 
HETATM    6  C6  UNL     1      -1.788  -1.079  -1.489  1.00  0.00    -0.001 C 
HETATM    7  C7  UNL     1      -2.372   0.048  -1.955  1.00  0.00    -0.002 C 
HETATM    8  C8  UNL     1      -2.301   1.483  -1.674  1.00  0.00    -0.000 C 
HETATM    9  C9  UNL     1      -1.690   2.362  -0.945  1.00  0.00     0.000 C 
HETATM   10  C10 UNL     1      -0.645   2.468   0.065  1.00  0.00     0.005 C 
HETATM   11  C11 UNL     1       0.211   1.584   0.632  1.00  0.00    -0.043 C 
HETATM   12  C13 UNL     1       0.317   0.302  -0.020  1.00  0.00     0.059 C 
HETATM   13  N2  UNL     1      -1.664  -2.712   0.226  1.00  0.00    -0.385 N 
HETATM   14  H21 UNL     1      -1.927  -3.693   0.445  1.00  0.00     0.160 HD
ENDROOT
BRANCH  12  15
HETATM   15  C14 UNL     1       1.691  -0.064  -0.505  1.00  0.00    -0.049 A 
HETATM   16  C15 UNL     1       2.603  -0.743   0.299  1.00  0.00     0.011 A 
HETATM   17  C16 UNL     1       3.879  -1.125  -0.039  1.00  0.00     0.043 A 
HETATM   18  C17 UNL     1       4.296  -0.798  -1.311  1.00  0.00     0.116 A 
HETATM   19  F1  UNL     1       5.547  -1.156  -1.682  1.00  0.00    -0.206 F 
HETATM   20  C18 UNL     1       3.462  -0.126  -2.177  1.00  0.00     0.043 A 
HETATM   21  C19 UNL     1       2.209   0.221  -1.775  1.00  0.00     0.011 A 
ENDBRANCH  12  15
BRANCH  11  22
HETATM   22  C12 UNL     1       1.273   1.613   1.671  1.00  0.00     0.301 C 
BRANCH  22  23
HETATM   23  N1  UNL     1       1.381   2.982   2.221  1.00  0.00     0.082 N 
HETATM   24  H14 UNL     1       2.153   3.516   1.808  1.00  0.00     0.313 HD
HETATM   25  H15 UNL     1       1.442   2.995   3.244  1.00  0.00     0.313 HD
ENDBRANCH  22  23
ENDBRANCH  11  22
TORSDOF 3
