REMARK  6 active torsions:
REMARK  status: ('A' for Active; 'I' for Inactive)
REMARK    1  A    between atoms: C1_2  and  N1_3 
REMARK    2  A    between atoms: N1_3  and  C2_4 
REMARK    3  A    between atoms: C2_4  and  C3_5 
REMARK    4  A    between atoms: C3_5  and  C4_6 
REMARK    5  A    between atoms: C4_6  and  O2_7 
REMARK    6  A    between atoms: O2_7  and  C5_8 
ROOT
HETATM    1  C5  UNL     1       1.203   0.070   1.107  1.00  0.00     0.098 A 
HETATM    2  C6  UNL     1      -0.070  -0.289   1.172  1.00  0.00     0.101 A 
HETATM    3  N2  UNL     1      -0.176  -1.585   0.578  1.00  0.00    -0.240 NA
HETATM    4  C7  UNL     1      -1.045  -1.805  -0.368  1.00  0.00     0.209 C 
HETATM    5  N3  UNL     1      -1.938  -0.778  -0.865  1.00  0.00    -0.335 N 
HETATM    6  C8  UNL     1      -3.237  -0.211  -0.588  1.00  0.00     0.130 A 
HETATM    7  C9  UNL     1      -3.745   0.008  -1.790  1.00  0.00     0.078 A 
HETATM    8 CL1  UNL     1      -2.692  -0.453  -3.119  1.00  0.00    -0.080 Cl
HETATM    9  C10 UNL     1      -5.046   0.573  -2.182  1.00  0.00     0.028 A 
HETATM   10  C11 UNL     1      -5.945   0.953  -1.319  1.00  0.00     0.003 A 
HETATM   11  C12 UNL     1      -6.006   0.968   0.123  1.00  0.00     0.017 A 
HETATM   12  C13 UNL     1      -5.100   0.580   0.977  1.00  0.00     0.093 A 
HETATM   13  N4  UNL     1      -3.828   0.047   0.709  1.00  0.00    -0.338 N 
HETATM   14  C14 UNL     1      -2.894  -0.336   1.734  1.00  0.00     0.158 C 
HETATM   15  C15 UNL     1      -2.061   0.840   2.083  1.00  0.00     0.007 C 
HETATM   16  C16 UNL     1      -0.767   0.820   1.812  1.00  0.00    -0.007 A 
HETATM   17  C17 UNL     1       0.283   1.794   2.073  1.00  0.00     0.016 A 
HETATM   18  C18 UNL     1       1.481   1.399   1.674  1.00  0.00     0.040 A 
HETATM   19  H10 UNL     1      -1.392  -0.386  -1.661  1.00  0.00     0.168 HD
ENDROOT
BRANCH   1  20
HETATM   20  O2  UNL     1       2.230  -0.717   0.550  1.00  0.00    -0.349 OA
BRANCH  20  21
HETATM   21  C4  UNL     1       3.273  -0.129  -0.214  1.00  0.00     0.177 C 
BRANCH  21  22
HETATM   22  C3  UNL     1       4.175  -1.261  -0.641  1.00  0.00     0.046 C 
BRANCH  22  23
HETATM   23  C2  UNL     1       5.336  -0.824  -1.460  1.00  0.00     0.124 C 
BRANCH  23  24
HETATM   24  N1  UNL     1       6.203   0.108  -0.780  1.00  0.00    -0.368 N 
HETATM   25  H2  UNL     1       6.392   1.074  -1.142  1.00  0.00     0.161 HD
BRANCH  24  26
HETATM   26  C1  UNL     1       6.841  -0.272   0.432  1.00  0.00     0.348 C 
HETATM   27  O1  UNL     1       6.681  -1.401   0.946  1.00  0.00    -0.284 OA
ENDBRANCH  24  26
ENDBRANCH  23  24
ENDBRANCH  22  23
ENDBRANCH  21  22
ENDBRANCH  20  21
ENDBRANCH   1  20
TORSDOF 6
