REMARK  1 active torsions:
REMARK  status: ('A' for Active; 'I' for Inactive)
REMARK    1  A    between atoms: C13_15  and  C14_16 
ROOT
HETATM    1  C1  UNL     1       0.555   3.117   0.130  1.00  0.00     0.038 C 
HETATM    2  C2  UNL     1       1.045   1.840   0.191  1.00  0.00    -0.079 C 
HETATM    3  C3  UNL     1       2.478   2.112  -0.160  1.00  0.00     0.003 C 
HETATM    4  C4  UNL     1       3.506   1.284  -0.291  1.00  0.00     0.000 C 
HETATM    5  C5  UNL     1       4.446   0.166  -0.367  1.00  0.00    -0.003 C 
HETATM    6  C6  UNL     1       4.238  -1.156  -0.168  1.00  0.00    -0.012 C 
HETATM    7  C7  UNL     1       3.274  -2.228   0.168  1.00  0.00     0.035 A 
HETATM    8  C8  UNL     1       2.380  -1.346  -0.084  1.00  0.00     0.071 A 
HETATM    9  C9  UNL     1       0.980  -1.264  -0.017  1.00  0.00    -0.015 A 
HETATM   10  C10 UNL     1       1.836  -2.337   0.295  1.00  0.00     0.102 A 
HETATM   11  N1  UNL     1       1.284  -3.489   0.719  1.00  0.00    -0.265 NA
HETATM   12  C11 UNL     1      -0.055  -3.536   0.818  1.00  0.00     0.228 A 
HETATM   13  N2  UNL     1      -0.821  -2.498   0.516  1.00  0.00    -0.246 NA
HETATM   14  C12 UNL     1      -0.329  -1.320   0.087  1.00  0.00     0.050 A 
HETATM   15  C13 UNL     1      -0.738   0.053  -0.285  1.00  0.00     0.075 C 
HETATM   16  C20 UNL     1      -0.211   1.171   0.555  1.00  0.00     0.050 C 
ENDROOT
BRANCH  15  17
HETATM   17  C14 UNL     1      -2.230   0.052  -0.108  1.00  0.00    -0.048 A 
HETATM   18  C15 UNL     1      -2.940   0.390   1.021  1.00  0.00     0.011 A 
HETATM   19  C16 UNL     1      -4.317   0.333   1.024  1.00  0.00     0.043 A 
HETATM   20  C17 UNL     1      -5.030  -0.067  -0.110  1.00  0.00     0.116 A 
HETATM   21  F1  UNL     1      -6.364  -0.087  -0.001  1.00  0.00    -0.206 F 
HETATM   22  C18 UNL     1      -4.329  -0.408  -1.246  1.00  0.00     0.043 A 
HETATM   23  C19 UNL     1      -2.962  -0.343  -1.223  1.00  0.00     0.011 A 
ENDBRANCH  15  17
TORSDOF 1
