REMARK  3 active torsions:
REMARK  status: ('A' for Active; 'I' for Inactive)
REMARK    1  A    between atoms: N1_2  and  C2_3 
REMARK    2  A    between atoms: C6_11  and  N5_12 
REMARK    3  A    between atoms: N5_12  and  C7_13 
ROOT
HETATM    1  C2  UNL     1      -2.225   0.140   0.459  1.00  0.00     0.050 C 
HETATM    2  C3  UNL     1      -2.864  -1.019   0.466  1.00  0.00     0.123 C 
HETATM    3 CL1  UNL     1      -3.637  -1.330   2.023  1.00  0.00    -0.063 Cl
HETATM    4  N2  UNL     1      -2.922  -1.927  -0.599  1.00  0.00    -0.361 N 
HETATM    5  C4  UNL     1      -2.311  -2.916  -1.457  1.00  0.00     0.272 C 
HETATM    6  N3  UNL     1      -1.206  -2.467  -2.242  1.00  0.00    -0.263 NA
HETATM    7  C5  UNL     1      -0.349  -1.638  -1.872  1.00  0.00     0.230 C 
HETATM    8  N4  UNL     1       0.443  -0.690  -1.162  1.00  0.00    -0.229 NA
HETATM    9  C6  UNL     1      -0.103   0.373  -0.632  1.00  0.00     0.111 C 
HETATM   10  C14 UNL     1      -1.592   0.432  -0.851  1.00  0.00     0.138 C 
HETATM   11  H5  UNL     1      -3.941  -1.669  -0.764  1.00  0.00     0.162 HD
ENDROOT
BRANCH   9  12
HETATM   12  N5  UNL     1       0.671   1.313   0.071  1.00  0.00    -0.344 N 
HETATM   13  H9  UNL     1       0.278   2.294   0.021  1.00  0.00     0.167 HD
BRANCH  12  14
HETATM   14  C7  UNL     1       1.815   0.699   0.689  1.00  0.00     0.039 A 
HETATM   15  C8  UNL     1       1.901   0.149   1.950  1.00  0.00     0.033 A 
HETATM   16  C9  UNL     1       3.106  -0.393   2.348  1.00  0.00     0.044 A 
HETATM   17  C10 UNL     1       4.194  -0.386   1.510  1.00  0.00     0.117 A 
HETATM   18  F1  UNL     1       5.374  -0.927   1.923  1.00  0.00    -0.206 F 
HETATM   19  C11 UNL     1       4.136   0.162   0.230  1.00  0.00     0.051 A 
HETATM   20  C12 UNL     1       2.916   0.708  -0.165  1.00  0.00    -0.032 A 
HETATM   21  C13 UNL     1       2.932   1.274  -1.541  1.00  0.00     0.050 C 
ENDBRANCH  12  14
ENDBRANCH   9  12
BRANCH   1  22
HETATM   22  N1  UNL     1      -2.176   1.009   1.573  1.00  0.00    -0.395 N 
HETATM   23  C1  UNL     1      -2.770   2.259   1.188  1.00  0.00     0.146 C 
HETATM   24  H4  UNL     1      -1.751   0.668   2.465  1.00  0.00     0.159 HD
ENDBRANCH   1  22
TORSDOF 3
