REMARK  5 active torsions:
REMARK  status: ('A' for Active; 'I' for Inactive)
REMARK    1  A    between atoms: N1_2  and  C2_3 
REMARK    2  A    between atoms: C5_8  and  C6_9 
REMARK    3  A    between atoms: C11_15  and  C12_16 
REMARK    4  A    between atoms: C12_16  and  C13_17 
REMARK    5  A    between atoms: C13_17  and  C14_18 
ROOT
HETATM    1  C6  UNL     1      -0.902  -0.365  -0.304  1.00  0.00     0.032 A 
HETATM    2  C7  UNL     1      -0.629  -0.094   1.148  1.00  0.00     0.030 C 
HETATM    3  C8  UNL     1      -1.140  -1.862  -0.451  1.00  0.00     0.034 A 
HETATM    4  C9  UNL     1      -0.279  -2.481  -1.281  1.00  0.00     0.114 A 
HETATM    5  F1  UNL     1      -0.165  -3.798  -1.670  1.00  0.00    -0.206 F 
HETATM    6  C10 UNL     1       0.595  -1.369  -1.720  1.00  0.00     0.046 A 
HETATM    7  C11 UNL     1       0.252  -0.170  -1.171  1.00  0.00    -0.060 A 
ENDROOT
BRANCH   1   8
HETATM    8  C5  UNL     1      -2.162   0.262  -0.720  1.00  0.00     0.021 A 
HETATM    9  C2  UNL     1      -3.284  -0.090   0.045  1.00  0.00     0.133 A 
HETATM   10  N2  UNL     1      -4.503   0.396  -0.241  1.00  0.00    -0.224 NA
HETATM   11  C3  UNL     1      -4.770   1.234  -1.247  1.00  0.00     0.234 A 
HETATM   12  N3  UNL     1      -3.708   1.582  -1.991  1.00  0.00    -0.253 NA
HETATM   13  C4  UNL     1      -2.477   1.119  -1.738  1.00  0.00     0.130 A 
BRANCH   9  14
HETATM   14  N1  UNL     1      -3.349  -0.962   1.197  1.00  0.00    -0.379 N 
HETATM   15  C1  UNL     1      -4.572  -1.261   1.918  1.00  0.00     0.147 C 
HETATM   16  H4  UNL     1      -2.722  -1.545   1.790  1.00  0.00     0.160 HD
ENDBRANCH   9  14
ENDBRANCH   1   8
BRANCH   7  17
HETATM   17  C12 UNL     1       1.123   0.930  -1.608  1.00  0.00     0.040 C 
BRANCH  17  18
HETATM   18  C13 UNL     1       1.922   1.627  -0.556  1.00  0.00     0.040 C 
BRANCH  18  19
HETATM   19  C14 UNL     1       2.866   0.744   0.187  1.00  0.00    -0.065 C 
HETATM   20  C15 UNL     1       3.084   0.363   1.441  1.00  0.00    -0.023 C 
HETATM   21  C16 UNL     1       4.197   0.804   1.958  1.00  0.00     0.012 C 
HETATM   22  C17 UNL     1       5.421   0.766   1.158  1.00  0.00    -0.003 C 
HETATM   23  C18 UNL     1       5.222   0.399  -0.098  1.00  0.00    -0.022 C 
HETATM   24  C19 UNL     1       3.901   0.054  -0.665  1.00  0.00     0.062 C 
ENDBRANCH  18  19
ENDBRANCH  17  18
ENDBRANCH   7  17
TORSDOF 5
