REMARK  1 active torsions:
REMARK  status: ('A' for Active; 'I' for Inactive)
REMARK    1  A    between atoms: C16_21  and  P1_22 
ROOT
HETATM    1  C1  UNL     1       4.247   0.604  -0.762  1.00  0.00     0.182 C 
HETATM    2  N1  UNL     1       2.883   1.153  -0.593  1.00  0.00    -0.255 N 
HETATM    3  N2  UNL     1       2.360   2.324  -0.294  1.00  0.00    -0.152 NA
HETATM    4  C2  UNL     1       1.070   2.499  -0.213  1.00  0.00     0.162 A 
HETATM    5  C3  UNL     1       0.940   1.204  -0.537  1.00  0.00     0.060 A 
HETATM    6  C4  UNL     1      -0.040   0.338  -0.744  1.00  0.00     0.046 A 
HETATM    7  C5  UNL     1       0.099  -0.852  -1.007  1.00  0.00     0.034 A 
HETATM    8  N3  UNL     1       1.421  -0.969  -1.052  1.00  0.00    -0.275 N 
HETATM    9  C6  UNL     1       1.912   0.249  -0.788  1.00  0.00     0.146 A 
HETATM   10  C7  UNL     1       1.539  -2.363  -1.278  1.00  0.00     0.194 A 
HETATM   11  F1  UNL     1       2.821  -2.815  -1.406  1.00  0.00    -0.186 F 
HETATM   12  C8  UNL     1       0.238  -2.885  -1.303  1.00  0.00     0.051 A 
HETATM   13  C9  UNL     1      -0.897  -1.967  -1.091  1.00  0.00     0.098 A 
HETATM   14  C10 UNL     1      -1.586  -1.779   0.188  1.00  0.00    -0.022 A 
HETATM   15  C11 UNL     1      -1.731  -0.436   0.670  1.00  0.00     0.023 A 
HETATM   16  C12 UNL     1      -1.923   0.840   1.245  1.00  0.00    -0.008 A 
HETATM   17  C13 UNL     1      -2.478   0.236   2.313  1.00  0.00     0.015 A 
HETATM   18  C14 UNL     1      -2.588  -1.148   2.347  1.00  0.00     0.025 A 
HETATM   19  C15 UNL     1      -2.191  -2.069   1.398  1.00  0.00     0.041 A 
HETATM   20 CL1  UNL     1      -2.312  -3.825   1.445  1.00  0.00    -0.084 Cl
HETATM   21  C16 UNL     1      -1.477   2.128   0.712  1.00  0.00     0.049 C 
HETATM   22  N4  UNL     1      -0.409   2.649  -0.131  1.00  0.00    -0.338 N 
HETATM   23  H11 UNL     1      -0.570   3.283  -0.886  1.00  0.00     0.167 HD
ENDROOT
BRANCH  21  24
HETATM   24  P1  UNL     1      -2.603   3.151   1.340  1.00  0.00    -0.043 P 
HETATM   25  H10 UNL     1      -2.640   4.562   1.129  1.00  0.00     0.069 HD
ENDBRANCH  21  24
TORSDOF 1
