REMARK  0 active torsions:
REMARK  status: ('A' for Active; 'I' for Inactive)
ROOT
HETATM    1  C1  UNL     1       0.757  -3.690   0.087  1.00  0.00     0.039 C 
HETATM    2  C2  UNL     1       0.616  -2.353   0.845  1.00  0.00     0.141 C 
HETATM    3  N1  UNL     1       1.407  -1.322   0.251  1.00  0.00    -0.364 N 
HETATM    4  C3  UNL     1       1.847  -0.149   0.877  1.00  0.00     0.126 C 
HETATM    5  N2  UNL     1       3.031  -0.666   0.855  1.00  0.00    -0.225 NA
HETATM    6  C4  UNL     1       4.227  -0.144   1.315  1.00  0.00     0.230 C 
HETATM    7  N3  UNL     1       4.940   0.605   0.591  1.00  0.00    -0.263 NA
HETATM    8  C5  UNL     1       4.613   0.997  -0.753  1.00  0.00     0.272 C 
HETATM    9  N4  UNL     1       3.203   0.939  -0.945  1.00  0.00    -0.371 N 
HETATM   10  C6  UNL     1       1.927   1.329  -0.616  1.00  0.00     0.037 C 
HETATM   11  C7  UNL     1       2.382   1.982   0.482  1.00  0.00     0.006 C 
HETATM   12  C8  UNL     1       1.956   1.165   1.503  1.00  0.00     0.065 C 
HETATM   13  C9  UNL     1       0.528   1.220  -0.841  1.00  0.00     0.013 C 
HETATM   14  C10 UNL     1      -0.094   2.061  -0.066  1.00  0.00     0.047 C 
HETATM   15  C11 UNL     1      -1.073   2.843   0.627  1.00  0.00     0.025 C 
HETATM   16  C12 UNL     1      -2.318   3.171   0.889  1.00  0.00     0.113 C 
HETATM   17  F1  UNL     1      -2.323   4.173   1.792  1.00  0.00    -0.206 F 
HETATM   18  C13 UNL     1      -3.275   2.307   0.253  1.00  0.00     0.038 C 
HETATM   19  C14 UNL     1      -4.192   1.556  -0.301  1.00  0.00    -0.020 C 
HETATM   20  C15 UNL     1      -3.651   0.427  -1.098  1.00  0.00     0.054 C 
HETATM   21  C16 UNL     1      -4.157  -0.857  -0.490  1.00  0.00    -0.023 C 
HETATM   22  C17 UNL     1      -3.482  -1.811   0.080  1.00  0.00    -0.001 C 
HETATM   23  C18 UNL     1      -2.055  -1.767   0.227  1.00  0.00     0.039 C 
HETATM   24  C19 UNL     1      -0.795  -1.985   0.489  1.00  0.00     0.116 C 
HETATM   25  F2  UNL     1      -1.388  -3.137   0.982  1.00  0.00    -0.209 F 
HETATM   26  H5  UNL     1       1.618  -1.536  -0.782  1.00  0.00     0.162 HD
HETATM   27  H9  UNL     1       2.825   0.318  -1.692  1.00  0.00     0.161 HD
ENDROOT
TORSDOF 0
