REMARK  2 active torsions:
REMARK  status: ('A' for Active; 'I' for Inactive)
REMARK    1  A    between atoms: C5_6  and  N1_7 
REMARK    2  A    between atoms: N1_7  and  C6_8 
ROOT
HETATM    1  C6  UNL     1       0.236  -0.019   0.393  1.00  0.00     0.136 C 
HETATM    2  N2  UNL     1      -0.184  -0.683   1.382  1.00  0.00    -0.224 NA
HETATM    3  C7  UNL     1       0.490  -0.779   2.607  1.00  0.00     0.231 C 
HETATM    4  N3  UNL     1       1.685  -0.685   3.127  1.00  0.00    -0.253 NA
HETATM    5  C8  UNL     1       2.738  -0.370   2.134  1.00  0.00     0.419 C 
HETATM    6  N4  UNL     1       2.427  -1.240   1.011  1.00  0.00     0.106 N 
HETATM    7  C9  UNL     1       3.149  -0.730  -0.154  1.00  0.00     0.311 C 
HETATM    8  C10 UNL     1       2.629   0.662  -0.451  1.00  0.00    -0.016 A 
HETATM    9  C11 UNL     1       3.372   1.690  -0.961  1.00  0.00     0.013 A 
HETATM   10  C12 UNL     1       2.763   2.903  -1.178  1.00  0.00     0.043 A 
HETATM   11  C13 UNL     1       1.443   3.194  -0.926  1.00  0.00     0.117 A 
HETATM   12  F2  UNL     1       0.896   4.408  -1.159  1.00  0.00    -0.206 F 
HETATM   13  C14 UNL     1       0.709   2.118  -0.404  1.00  0.00     0.058 A 
HETATM   14  C15 UNL     1       1.294   0.864  -0.168  1.00  0.00     0.021 A 
HETATM   15  H9  UNL     1       2.806  -2.210   1.158  1.00  0.00     0.318 HD
ENDROOT
BRANCH   1  16
HETATM   16  N1  UNL     1      -0.784  -0.211  -0.643  1.00  0.00    -0.363 N 
HETATM   17  H5  UNL     1      -0.984   0.576  -1.353  1.00  0.00     0.162 HD
BRANCH  16  18
HETATM   18  C5  UNL     1      -1.565  -1.428  -0.781  1.00  0.00     0.129 C 
HETATM   19  C4  UNL     1      -2.485  -1.248  -1.929  1.00  0.00     0.002 C 
HETATM   20  C3  UNL     1      -3.673  -0.695  -2.113  1.00  0.00     0.001 C 
HETATM   21  C2  UNL     1      -4.451  -0.041  -1.045  1.00  0.00     0.042 C 
HETATM   22  C1  UNL     1      -4.369  -0.274   0.272  1.00  0.00     0.116 C 
HETATM   23  F1  UNL     1      -5.178   0.445   1.051  1.00  0.00    -0.206 F 
HETATM   24  C17 UNL     1      -3.492  -1.227   0.942  1.00  0.00     0.040 C 
HETATM   25  C16 UNL     1      -2.337  -1.684   0.478  1.00  0.00     0.005 C 
ENDBRANCH  16  18
ENDBRANCH   1  16
TORSDOF 2
