REMARK  3 active torsions:
REMARK  status: ('A' for Active; 'I' for Inactive)
REMARK    1  A    between atoms: O1_2  and  C2_3 
REMARK    2  A    between atoms: C11_15  and  N3_20 
REMARK    3  A    between atoms: N3_20  and  C15_21 
ROOT
HETATM    1  C2  UNL     1       0.077  -1.804  -0.437  1.00  0.00     0.060 C 
HETATM    2  C3  UNL     1      -1.206  -2.044  -0.128  1.00  0.00     0.077 C 
HETATM    3  C4  UNL     1      -2.462  -1.711   0.552  1.00  0.00     0.086 C 
HETATM    4  C5  UNL     1      -2.477  -2.193   1.993  1.00  0.00     0.033 C 
HETATM    5  N1  UNL     1      -2.988  -0.405   0.449  1.00  0.00    -0.408 N 
HETATM    6  C6  UNL     1      -3.061   0.363   1.629  1.00  0.00     0.119 C 
HETATM    7  C7  UNL     1      -3.771   1.667   1.395  1.00  0.00     0.051 C 
HETATM    8  C8  UNL     1      -3.235   2.429   0.196  1.00  0.00     0.128 C 
HETATM    9  C9  UNL     1      -3.306   1.573  -1.015  1.00  0.00     0.051 C 
HETATM   10  C10 UNL     1      -3.463   0.111  -0.736  1.00  0.00     0.119 C 
HETATM   11  O2  UNL     1      -2.026   3.023   0.388  1.00  0.00    -0.373 OA
HETATM   12  P1  UNL     1      -0.813   2.421  -0.646  1.00  0.00    -0.044 P 
HETATM   13  C11 UNL     1       0.234   1.087   0.077  1.00  0.00     0.160 A 
HETATM   14  C12 UNL     1       1.572   0.855   0.742  1.00  0.00     0.055 A 
HETATM   15  C13 UNL     1       2.494   1.805   0.998  1.00  0.00     0.091 A 
HETATM   16  N2  UNL     1       1.713   2.462   1.858  1.00  0.00    -0.168 NA
HETATM   17  C14 UNL     1       0.475   1.880   2.031  1.00  0.00     0.099 A 
HETATM   18  N3  UNL     1       1.271   1.172   1.121  1.00  0.00     0.000 N 
HETATM   19  C15 UNL     1       0.601  -0.003   0.576  1.00  0.00     0.030 A 
HETATM   20  C16 UNL     1       1.196  -0.900  -0.251  1.00  0.00    -0.017 A 
HETATM   21  C17 UNL     1       2.399  -1.222  -0.949  1.00  0.00     0.010 A 
HETATM   22  C18 UNL     1       3.369  -1.753  -1.693  1.00  0.00     0.001 A 
HETATM   23  C19 UNL     1       4.652  -1.120  -1.784  1.00  0.00     0.000 A 
HETATM   24  C20 UNL     1       5.558  -0.227  -1.554  1.00  0.00     0.004 A 
HETATM   25  C21 UNL     1       5.606   1.003  -0.771  1.00  0.00     0.061 A 
HETATM   26  C22 UNL     1       5.047   1.919   0.030  1.00  0.00     0.189 A 
HETATM   27  F1  UNL     1       5.538   3.045   0.585  1.00  0.00    -0.186 F 
HETATM   28  N4  UNL     1       3.737   1.897   0.458  1.00  0.00    -0.325 N 
HETATM   29  H18 UNL     1       0.010   3.490  -1.224  1.00  0.00     0.075 HD
HETATM   30  H26 UNL     1       3.343   2.414  -0.392  1.00  0.00     0.169 HD
ENDROOT
BRANCH   1  31
HETATM   31  O1  UNL     1      -0.108  -2.975  -1.156  1.00  0.00    -0.359 OA
HETATM   32  C1  UNL     1       0.408  -4.231  -0.841  1.00  0.00     0.209 C 
ENDBRANCH   1  31
TORSDOF 3
