REMARK  7 active torsions:
REMARK  status: ('A' for Active; 'I' for Inactive)
REMARK    1  A    between atoms: C2_2  and  N1_3 
REMARK    2  A    between atoms: C2_2  and  C13_18 
REMARK    3  A    between atoms: N1_3  and  C3_4 
REMARK    4  A    between atoms: C6_10  and  C7_11 
REMARK    5  A    between atoms: C7_11  and  C8_12 
REMARK    6  A    between atoms: C8_12  and  C9_13 
REMARK    7  A    between atoms: C9_13  and  C10_14 
ROOT
HETATM    1  C3  UNL     1      -0.005  -1.044   0.092  1.00  0.00     0.105 C 
HETATM    2  N2  UNL     1      -0.928  -1.075  -0.838  1.00  0.00    -0.229 NA
HETATM    3  C4  UNL     1      -0.661  -1.863  -1.987  1.00  0.00     0.235 C 
HETATM    4  N3  UNL     1       0.061  -0.907  -2.538  1.00  0.00    -0.241 NA
HETATM    5  C5  UNL     1       0.227   0.334  -1.817  1.00  0.00     0.335 C 
HETATM    6  N4  UNL     1       1.101   0.980  -1.074  1.00  0.00    -0.271 NA
HETATM    7  C6  UNL     1       2.348   0.341  -0.825  1.00  0.00    -0.019 C 
HETATM    8  C11 UNL     1       2.439  -0.864  -0.288  1.00  0.00    -0.001 C 
HETATM    9  C12 UNL     1       1.322  -1.711   0.128  1.00  0.00     0.106 C 
ENDROOT
BRANCH   1  10
HETATM   10  N1  UNL     1      -0.398  -0.208   1.202  1.00  0.00    -0.370 N 
HETATM   11  H5  UNL     1       0.372   0.324   1.703  1.00  0.00     0.161 HD
BRANCH  10  12
HETATM   12  C2  UNL     1      -1.777  -0.091   1.627  1.00  0.00     0.112 C 
HETATM   13  C1  UNL     1      -2.270  -1.471   2.002  1.00  0.00     0.037 C 
BRANCH  12  14
HETATM   14  C13 UNL     1      -2.669   0.565   0.672  1.00  0.00    -0.036 A 
HETATM   15  C14 UNL     1      -2.443   1.734  -0.014  1.00  0.00     0.012 A 
HETATM   16  C15 UNL     1      -3.365   2.267  -0.902  1.00  0.00     0.043 A 
HETATM   17  C16 UNL     1      -4.562   1.610  -1.119  1.00  0.00     0.116 A 
HETATM   18  F2  UNL     1      -5.489   2.093  -1.976  1.00  0.00    -0.206 F 
HETATM   19  C17 UNL     1      -4.852   0.440  -0.468  1.00  0.00     0.043 A 
HETATM   20  C18 UNL     1      -3.899  -0.045   0.405  1.00  0.00     0.012 A 
ENDBRANCH  12  14
ENDBRANCH  10  12
ENDBRANCH   1  10
BRANCH   7  21
HETATM   21  C7  UNL     1       3.580   1.068  -1.188  1.00  0.00     0.068 C 
BRANCH  21  22
HETATM   22  C8  UNL     1       4.805   0.300  -0.881  1.00  0.00     0.079 C 
BRANCH  22  23
HETATM   23  C9  UNL     1       5.241   0.312   0.370  1.00  0.00    -0.121 C 
BRANCH  23  24
HETATM   24  C10 UNL     1       5.583   0.564   1.622  1.00  0.00     0.239 C 
HETATM   25  F1  UNL     1       6.354   1.651   1.816  1.00  0.00    -0.211 F 
ENDBRANCH  23  24
ENDBRANCH  22  23
ENDBRANCH  21  22
ENDBRANCH   7  21
TORSDOF 7
