REMARK  3 active torsions:
REMARK  status: ('A' for Active; 'I' for Inactive)
REMARK    1  A    between atoms: C1_2  and  C2_3 
REMARK    2  A    between atoms: C8_12  and  N4_13 
REMARK    3  A    between atoms: N4_13  and  C9_14 
ROOT
HETATM    1  C2  UNL     1      -1.954  -1.029   0.666  1.00  0.00     0.052 C 
HETATM    2  C3  UNL     1      -2.208   0.209   1.426  1.00  0.00    -0.017 C 
HETATM    3  C4  UNL     1      -3.216   1.046   1.109  1.00  0.00     0.015 C 
HETATM    4  C5  UNL     1      -4.172   0.846  -0.004  1.00  0.00     0.113 C 
HETATM    5  N1  UNL     1      -3.824   0.295  -1.085  1.00  0.00    -0.273 NA
HETATM    6  C6  UNL     1      -2.631  -0.284  -1.673  1.00  0.00     0.242 A 
HETATM    7  N2  UNL     1      -2.157   0.713  -2.575  1.00  0.00    -0.254 NA
HETATM    8  C7  UNL     1      -1.000   1.172  -2.634  1.00  0.00     0.231 A 
HETATM    9  N3  UNL     1      -0.013   0.690  -1.742  1.00  0.00    -0.229 NA
HETATM   10  C8  UNL     1      -0.279  -0.220  -0.868  1.00  0.00     0.110 A 
HETATM   11  C16 UNL     1      -1.609  -0.815  -0.785  1.00  0.00     0.111 A 
ENDROOT
BRANCH  10  12
HETATM   12  N4  UNL     1       0.798  -0.617  -0.029  1.00  0.00    -0.367 N 
HETATM   13  H9  UNL     1       0.750  -1.608   0.356  1.00  0.00     0.161 HD
BRANCH  12  14
HETATM   14  C9  UNL     1       1.922   0.217   0.320  1.00  0.00     0.129 C 
HETATM   15  C10 UNL     1       2.802  -0.517   1.262  1.00  0.00     0.002 C 
HETATM   16  C11 UNL     1       4.033  -0.371   1.726  1.00  0.00     0.001 C 
HETATM   17  C12 UNL     1       4.891   0.758   1.303  1.00  0.00     0.042 C 
HETATM   18  C13 UNL     1       4.850   1.430   0.138  1.00  0.00     0.116 C 
HETATM   19  F2  UNL     1       5.753   2.430  -0.002  1.00  0.00    -0.206 F 
HETATM   20  C14 UNL     1       3.910   1.153  -0.972  1.00  0.00     0.040 C 
HETATM   21  C15 UNL     1       2.691   0.646  -0.877  1.00  0.00     0.005 C 
ENDBRANCH  12  14
ENDBRANCH  10  12
BRANCH   1  22
HETATM   22  C1  UNL     1      -3.131  -1.959   0.841  1.00  0.00     0.231 C 
HETATM   23  F1  UNL     1      -2.922  -3.149   0.130  1.00  0.00    -0.255 F 
ENDBRANCH   1  22
TORSDOF 3
