REMARK  4 active torsions:
REMARK  status: ('A' for Active; 'I' for Inactive)
REMARK    1  A    between atoms: C2_2  and  N1_3 
REMARK    2  A    between atoms: C2_2  and  C15_20 
REMARK    3  A    between atoms: N1_3  and  C3_4 
REMARK    4  A    between atoms: C6_10  and  C7_11 
ROOT
HETATM    1  C3  UNL     1       0.694  -0.264  -0.395  1.00  0.00     0.102 A 
HETATM    2  N2  UNL     1       1.128  -0.228   0.818  1.00  0.00    -0.229 NA
HETATM    3  C4  UNL     1       0.289  -0.252   1.941  1.00  0.00     0.236 A 
HETATM    4  N3  UNL     1      -0.631  -0.271   2.827  1.00  0.00    -0.235 NA
HETATM    5  C5  UNL     1      -2.022  -0.261   2.560  1.00  0.00     0.234 A 
HETATM    6  N4  UNL     1      -3.099  -0.275   1.807  1.00  0.00    -0.245 NA
HETATM    7  C6  UNL     1      -2.843  -0.334   0.352  1.00  0.00     0.051 A 
HETATM    8  C13 UNL     1      -1.812  -0.341  -0.508  1.00  0.00     0.056 A 
HETATM    9  C14 UNL     1      -0.563  -0.333  -1.213  1.00  0.00     0.090 A 
ENDROOT
BRANCH   1  10
HETATM   10  N1  UNL     1       1.858  -0.222  -1.249  1.00  0.00    -0.370 N 
HETATM   11  H5  UNL     1       1.741   0.132  -2.256  1.00  0.00     0.161 HD
BRANCH  10  12
HETATM   12  C2  UNL     1       3.178  -0.635  -0.805  1.00  0.00     0.112 C 
HETATM   13  C1  UNL     1       4.126  -0.447  -1.968  1.00  0.00     0.037 C 
BRANCH  12  14
HETATM   14  C15 UNL     1       3.683   0.206   0.305  1.00  0.00    -0.036 A 
HETATM   15  C16 UNL     1       4.288  -0.319   1.433  1.00  0.00     0.012 A 
HETATM   16  C17 UNL     1       4.706   0.598   2.382  1.00  0.00     0.043 A 
HETATM   17  C18 UNL     1       4.525   1.953   2.203  1.00  0.00     0.116 A 
HETATM   18  F2  UNL     1       4.955   2.822   3.170  1.00  0.00    -0.206 F 
HETATM   19  C19 UNL     1       3.928   2.461   1.089  1.00  0.00     0.043 A 
HETATM   20  C20 UNL     1       3.497   1.565   0.117  1.00  0.00     0.012 A 
ENDBRANCH  12  14
ENDBRANCH  10  12
ENDBRANCH   1  10
BRANCH   7  21
HETATM   21  C7  UNL     1      -4.038  -0.410  -0.476  1.00  0.00    -0.011 A 
HETATM   22  C8  UNL     1      -5.311  -0.425   0.104  1.00  0.00     0.016 A 
HETATM   23  C9  UNL     1      -6.517  -0.493  -0.537  1.00  0.00     0.043 A 
HETATM   24  C10 UNL     1      -6.459  -0.554  -1.900  1.00  0.00     0.116 A 
HETATM   25  F1  UNL     1      -7.613  -0.623  -2.602  1.00  0.00    -0.206 F 
HETATM   26  C11 UNL     1      -5.285  -0.549  -2.612  1.00  0.00     0.043 A 
HETATM   27  C12 UNL     1      -4.143  -0.477  -1.851  1.00  0.00     0.016 A 
ENDBRANCH   7  21
TORSDOF 4
