REMARK  5 active torsions:
REMARK  status: ('A' for Active; 'I' for Inactive)
REMARK       I    between atoms: C2_2  and  N1_4 
REMARK    1  A    between atoms: C5_7  and  O2_8 
REMARK    2  A    between atoms: O2_8  and  C6_9 
REMARK    3  A    between atoms: C13_18  and  C14_19 
REMARK    4  A    between atoms: C14_19  and  C15_20 
REMARK    5  A    between atoms: C16_21  and  C18_23 
ROOT
HETATM    1  C6  UNL     1      -1.088  -1.707  -0.037  1.00  0.00     0.084 A 
HETATM    2  C7  UNL     1      -1.164  -2.886   0.671  1.00  0.00     0.044 A 
HETATM    3  C8  UNL     1      -2.263  -3.714   0.771  1.00  0.00    -0.057 A 
HETATM    4  C9  UNL     1      -2.247  -4.971   1.564  1.00  0.00     0.048 C 
HETATM    5  C10 UNL     1      -3.421  -3.359   0.110  1.00  0.00     0.039 A 
HETATM    6  C11 UNL     1      -3.403  -2.169  -0.627  1.00  0.00     0.073 A 
HETATM    7  N2  UNL     1      -4.557  -1.903  -1.241  1.00  0.00    -0.241 NA
HETATM    8  C12 UNL     1      -4.650  -0.795  -1.979  1.00  0.00     0.234 A 
HETATM    9  N3  UNL     1      -3.602  -0.008  -2.072  1.00  0.00    -0.245 NA
HETATM   10  C13 UNL     1      -2.389  -0.213  -1.472  1.00  0.00     0.054 A 
HETATM   11  C19 UNL     1      -2.258  -1.368  -0.691  1.00  0.00     0.051 A 
ENDROOT
BRANCH   1  12
HETATM   12  O2  UNL     1      -0.020  -0.884  -0.149  1.00  0.00    -0.345 OA
BRANCH  12  13
HETATM   13  C5  UNL     1       1.252  -1.059   0.428  1.00  0.00     0.132 C 
HETATM   14  C4  UNL     1       1.578   0.001   1.438  1.00  0.00     0.052 C 
HETATM   15  C3  UNL     1       2.260   1.195   0.849  1.00  0.00     0.128 C 
HETATM   16  N1  UNL     1       3.524   0.711   0.302  1.00  0.00    -0.352 N 
HETATM   17  C2  UNL     1       4.818   1.078   0.785  1.00  0.00     0.215 C 
HETATM   18  C21 UNL     1       3.308  -0.183  -0.785  1.00  0.00     0.128 C 
HETATM   19  C1  UNL     1       4.934   2.010   1.914  1.00  0.00     0.117 C 
HETATM   20  O1  UNL     1       5.841   0.580   0.215  1.00  0.00    -0.274 OA
HETATM   21  C20 UNL     1       2.318  -1.259  -0.608  1.00  0.00     0.052 C 
ENDBRANCH  12  13
ENDBRANCH   1  12
BRANCH  10  22
HETATM   22  C14 UNL     1      -1.273   0.750  -1.602  1.00  0.00     0.087 C 
BRANCH  22  23
HETATM   23  C15 UNL     1      -1.161   1.658  -0.432  1.00  0.00    -0.016 C 
HETATM   24  C16 UNL     1      -1.227   3.008  -0.577  1.00  0.00    -0.059 C 
HETATM   25  C17 UNL     1      -1.417   3.534  -1.963  1.00  0.00     0.045 C 
BRANCH  24  26
HETATM   26  C18 UNL     1      -1.129   4.014   0.521  1.00  0.00     0.256 C 
HETATM   27  F1  UNL     1      -2.258   4.797   0.612  1.00  0.00    -0.251 F 
ENDBRANCH  24  26
ENDBRANCH  22  23
ENDBRANCH  10  22
TORSDOF 5
