REMARK  7 active torsions:
REMARK  status: ('A' for Active; 'I' for Inactive)
REMARK    1  A    between atoms: C2_2  and  N1_3 
REMARK    2  A    between atoms: C2_2  and  C3_4 
REMARK    3  A    between atoms: C8_10  and  N2_11 
REMARK    4  A    between atoms: N2_11  and  C9_12 
REMARK    5  A    between atoms: C10_14  and  C11_15 
REMARK    6  A    between atoms: C12_16  and  C13_17 
REMARK    7  A    between atoms: C13_17  and  C14_18 
ROOT
HETATM    1  C3  UNL     1      -3.352   0.353  -0.969  1.00  0.00     0.001 A 
HETATM    2  C4  UNL     1      -3.791   1.197  -2.000  1.00  0.00     0.014 A 
HETATM    3  C5  UNL     1      -2.997   1.964  -2.826  1.00  0.00     0.043 A 
HETATM    4  C6  UNL     1      -1.639   1.880  -2.604  1.00  0.00     0.118 A 
HETATM    5  F1  UNL     1      -0.834   2.619  -3.399  1.00  0.00    -0.206 F 
HETATM    6  C7  UNL     1      -1.168   1.061  -1.600  1.00  0.00     0.072 A 
HETATM    7  C8  UNL     1      -1.965   0.300  -0.779  1.00  0.00     0.044 A 
ENDROOT
BRANCH   7   8
HETATM    8  N2  UNL     1      -1.441  -0.524   0.251  1.00  0.00    -0.344 N 
HETATM    9  H10 UNL     1      -2.061  -1.099   0.857  1.00  0.00     0.167 HD
BRANCH   8  10
HETATM   10  C9  UNL     1      -0.039  -0.615   0.519  1.00  0.00     0.108 A 
HETATM   11  N3  UNL     1       0.719   0.425   0.560  1.00  0.00    -0.236 NA
HETATM   12  C10 UNL     1       2.054   0.033   0.844  1.00  0.00     0.055 A 
HETATM   13  C15 UNL     1       2.115  -1.276   0.981  1.00  0.00     0.012 A 
HETATM   14  C16 UNL     1       0.739  -1.855   0.782  1.00  0.00     0.108 A 
BRANCH  12  15
HETATM   15  C11 UNL     1       3.177   0.944   0.960  1.00  0.00     0.027 C 
HETATM   16  C12 UNL     1       4.446   0.697   1.213  1.00  0.00    -0.024 C 
BRANCH  16  17
HETATM   17  C13 UNL     1       5.495  -0.298   1.497  1.00  0.00     0.038 C 
BRANCH  17  18
HETATM   18  C14 UNL     1       6.571  -0.236   0.407  1.00  0.00     0.089 C 
HETATM   19 BR1  UNL     1       7.305   1.538   0.426  1.00  0.00    -0.096 Br
ENDBRANCH  17  18
ENDBRANCH  16  17
ENDBRANCH  12  15
ENDBRANCH   8  10
ENDBRANCH   7   8
BRANCH   1  20
HETATM   20  C2  UNL     1      -4.330  -0.425  -0.168  1.00  0.00     0.249 C 
HETATM   21  C1  UNL     1      -4.670   0.243   1.153  1.00  0.00     0.047 C 
BRANCH  20  22
HETATM   22  N1  UNL     1      -4.059  -1.822  -0.071  1.00  0.00     0.086 N 
HETATM   23  H5  UNL     1      -4.388  -2.205   0.849  1.00  0.00     0.313 HD
HETATM   24  H6  UNL     1      -4.522  -2.379  -0.823  1.00  0.00     0.313 HD
ENDBRANCH  20  22
ENDBRANCH   1  20
TORSDOF 7
