REMARK  0 active torsions:
REMARK  status: ('A' for Active; 'I' for Inactive)
ROOT
HETATM    1  F1  UNL     1       4.915  -1.491  -1.490  1.00  0.00    -0.205 F 
HETATM    2  C1  UNL     1       3.801  -0.745  -1.314  1.00  0.00     0.127 C 
HETATM    3  C2  UNL     1       2.869  -0.998  -2.220  1.00  0.00     0.016 C 
HETATM    4  C3  UNL     1       1.825  -0.215  -2.261  1.00  0.00     0.046 C 
HETATM    5  C4  UNL     1       1.225  -0.102  -0.880  1.00  0.00     0.144 C 
HETATM    6  C5  UNL     1       2.238   0.588  -0.069  1.00  0.00     0.034 C 
HETATM    7  C6  UNL     1       3.513   0.262  -0.293  1.00  0.00     0.043 C 
HETATM    8  N1  UNL     1       1.003  -1.492  -0.452  1.00  0.00    -0.367 N 
HETATM    9  C7  UNL     1       0.187  -2.123  -1.424  1.00  0.00     0.087 C 
HETATM   10  C8  UNL     1      -1.118  -2.273  -1.307  1.00  0.00     0.032 C 
HETATM   11  C9  UNL     1      -1.825  -1.768  -0.103  1.00  0.00    -0.002 A 
HETATM   12 BR1  UNL     1      -3.736  -1.993   0.051  1.00  0.00    -0.118 Br
HETATM   13  C10 UNL     1      -1.963  -1.178   1.103  1.00  0.00     0.115 A 
HETATM   14  C11 UNL     1      -2.459  -0.618   2.350  1.00  0.00     0.006 C 
HETATM   15  C12 UNL     1      -1.532  -0.246   3.153  1.00  0.00    -0.028 C 
HETATM   16  C13 UNL     1      -0.438   0.319   2.614  1.00  0.00     0.028 C 
HETATM   17  C14 UNL     1      -0.793   1.158   1.418  1.00  0.00     0.028 A 
HETATM   18  C15 UNL     1      -1.544   2.247   1.961  1.00  0.00     0.133 A 
HETATM   19  N2  UNL     1      -2.152   3.363   1.414  1.00  0.00    -0.253 NA
HETATM   20  C16 UNL     1      -1.980   3.405   0.063  1.00  0.00     0.234 A 
HETATM   21  N3  UNL     1      -1.287   2.429  -0.546  1.00  0.00    -0.224 NA
HETATM   22  C17 UNL     1      -0.719   1.371   0.029  1.00  0.00     0.139 A 
HETATM   23  N4  UNL     1      -0.052   0.533  -0.943  1.00  0.00    -0.341 N 
HETATM   24  H4  UNL     1       1.059  -2.334   0.116  1.00  0.00     0.162 HD
HETATM   25  H12 UNL     1      -0.578   0.346  -1.852  1.00  0.00     0.164 HD
ENDROOT
TORSDOF 0
