REMARK  8 active torsions:
REMARK  status: ('A' for Active; 'I' for Inactive)
REMARK    1  A    between atoms: C2_2  and  C3_3 
REMARK    2  A    between atoms: C2_2  and  N1_11 
REMARK    3  A    between atoms: C3_3  and  C4_4 
REMARK    4  A    between atoms: C4_4  and  C5_5 
REMARK    5  A    between atoms: C5_5  and  C6_6 
REMARK    6  A    between atoms: C6_6  and  C7_8 
REMARK    7  A    between atoms: C7_8  and  C8_9 
REMARK    8  A    between atoms: N1_11  and  C9_12 
ROOT
HETATM    1  N1  UNL     1      -1.025  -0.213   1.646  1.00  0.00    -0.363 N 
HETATM    2  H12 UNL     1      -1.453  -0.228   2.598  1.00  0.00     0.162 HD
ENDROOT
BRANCH   1   3
HETATM    3  C2  UNL     1      -0.132   0.763   1.120  1.00  0.00     0.083 C 
HETATM    4  C1  UNL     1       1.231   0.091   0.888  1.00  0.00     0.032 C 
BRANCH   3   5
HETATM    5  C3  UNL     1      -0.506   1.439  -0.156  1.00  0.00     0.052 C 
BRANCH   5   6
HETATM    6  C4  UNL     1       0.509   2.447  -0.498  1.00  0.00    -0.022 C 
BRANCH   6   7
HETATM    7  C5  UNL     1       1.343   3.395  -0.797  1.00  0.00     0.038 C 
BRANCH   7   8
HETATM    8  C6  UNL     1       2.739   3.631  -1.078  1.00  0.00     0.114 C 
HETATM    9  F1  UNL     1       3.256   2.392  -0.948  1.00  0.00    -0.206 F 
BRANCH   8  10
HETATM   10  C7  UNL     1       3.371   4.691  -1.371  1.00  0.00     0.046 C 
BRANCH  10  11
HETATM   11  C8  UNL     1       3.332   6.153  -1.622  1.00  0.00     0.252 C 
HETATM   12  F2  UNL     1       4.108   6.893  -0.783  1.00  0.00    -0.251 F 
ENDBRANCH  10  11
ENDBRANCH   8  10
ENDBRANCH   7   8
ENDBRANCH   6   7
ENDBRANCH   5   6
ENDBRANCH   3   5
ENDBRANCH   1   3
BRANCH   1  13
HETATM   13  C9  UNL     1      -1.384  -1.279   0.826  1.00  0.00     0.180 C 
HETATM   14  N2  UNL     1      -1.473  -1.335  -0.452  1.00  0.00    -0.217 NA
HETATM   15  C10 UNL     1      -1.856  -2.520  -1.157  1.00  0.00     0.231 C 
HETATM   16  N3  UNL     1      -2.171  -3.568  -0.628  1.00  0.00    -0.253 NA
HETATM   17  C11 UNL     1      -2.577  -4.877  -0.662  1.00  0.00     0.420 C 
HETATM   18  N4  UNL     1      -1.891  -5.641   0.468  1.00  0.00     0.113 N 
HETATM   19  C12 UNL     1      -2.467  -4.952   1.712  1.00  0.00     0.365 C 
HETATM   20  H16 UNL     1      -0.892  -5.365   0.487  1.00  0.00     0.319 HD
HETATM   21  C13 UNL     1      -2.062  -3.595   1.412  1.00  0.00    -0.068 C 
HETATM   22  C14 UNL     1      -1.756  -2.559   1.162  1.00  0.00    -0.027 C 
ENDBRANCH   1  13
TORSDOF 8
