REMARK  3 active torsions:
REMARK  status: ('A' for Active; 'I' for Inactive)
REMARK    1  A    between atoms: C2_2  and  N1_3 
REMARK    2  A    between atoms: N2_6  and  C5_7 
REMARK    3  A    between atoms: C5_7  and  C6_8 
ROOT
HETATM    1  C6  UNL     1       0.327   0.133   1.325  1.00  0.00    -0.055 C 
HETATM    2  C7  UNL     1      -0.560   1.071   0.896  1.00  0.00    -0.018 C 
HETATM    3  C8  UNL     1      -1.642   1.877   0.441  1.00  0.00     0.066 C 
HETATM    4  C9  UNL     1      -3.053   1.526   0.500  1.00  0.00    -0.047 A 
HETATM    5  C10 UNL     1      -3.716   2.566   1.223  1.00  0.00     0.008 A 
HETATM    6  C11 UNL     1      -5.084   2.705   1.542  1.00  0.00     0.001 A 
HETATM    7  C12 UNL     1      -5.860   1.662   1.069  1.00  0.00     0.001 A 
HETATM    8  C13 UNL     1      -5.275   0.629   0.364  1.00  0.00     0.009 A 
HETATM    9  C14 UNL     1      -3.932   0.535   0.077  1.00  0.00    -0.039 A 
HETATM   10  C15 UNL     1      -3.511  -0.684  -0.680  1.00  0.00     0.010 A 
HETATM   11  C16 UNL     1      -2.803  -0.341  -1.988  1.00  0.00     0.025 C 
HETATM   12  C17 UNL     1      -4.436  -1.804  -0.754  1.00  0.00     0.046 A 
HETATM   13  C18 UNL     1      -3.523  -2.543   0.107  1.00  0.00    -0.021 A 
HETATM   14  C19 UNL     1      -2.682  -1.580   0.204  1.00  0.00    -0.070 A 
HETATM   15  C20 UNL     1      -1.530  -0.953   0.646  1.00  0.00     0.039 C 
HETATM   16  C21 UNL     1      -0.265  -1.300   1.246  1.00  0.00     0.040 C 
ENDROOT
BRANCH   1  17
HETATM   17  C5  UNL     1       1.711  -0.103   1.760  1.00  0.00     0.306 C 
BRANCH  17  18
HETATM   18  N2  UNL     1       2.396  -1.045   0.882  1.00  0.00     0.095 N 
HETATM   19  C4  UNL     1       3.734  -1.164   1.396  1.00  0.00     0.303 C 
HETATM   20  C3  UNL     1       4.763  -1.282   0.288  1.00  0.00     0.302 C 
HETATM   21  N1  UNL     1       4.871  -0.053  -0.468  1.00  0.00     0.091 N 
HETATM   22  C23 UNL     1       3.544   0.479  -0.651  1.00  0.00     0.302 C 
HETATM   23  C22 UNL     1       2.456  -0.557  -0.476  1.00  0.00     0.303 C 
BRANCH  21  24
HETATM   24  C2  UNL     1       5.546  -0.294  -1.727  1.00  0.00     0.268 C 
HETATM   25  C1  UNL     1       5.710   0.919  -2.581  1.00  0.00     0.037 C 
ENDBRANCH  21  24
ENDBRANCH  17  18
ENDBRANCH   1  17
TORSDOF 3
