REMARK  1 active torsions:
REMARK  status: ('A' for Active; 'I' for Inactive)
REMARK    1  A    between atoms: N1_2  and  C2_3 
ROOT
HETATM    1  C2  UNL     1       4.165   1.064  -0.469  1.00  0.00     0.152 C 
HETATM    2  N2  UNL     1       4.429  -0.240  -0.433  1.00  0.00    -0.223 NA
HETATM    3  C3  UNL     1       4.109  -1.030   0.733  1.00  0.00     0.229 C 
HETATM    4  N3  UNL     1       3.001  -1.102   1.390  1.00  0.00    -0.276 NA
HETATM    5  C4  UNL     1       1.643  -0.706   0.954  1.00  0.00     0.132 C 
HETATM    6  C5  UNL     1       1.418   0.624   0.582  1.00  0.00     0.071 A 
HETATM    7  C6  UNL     1       1.452   1.760   0.164  1.00  0.00     0.201 A 
HETATM    8  N4  UNL     1       0.035   2.053   0.514  1.00  0.00    -0.043 N 
HETATM    9  C7  UNL     1      -0.725   2.672  -0.592  1.00  0.00     0.267 C 
HETATM   10  C8  UNL     1      -2.143   2.939  -0.075  1.00  0.00     0.299 C 
HETATM   11  N5  UNL     1      -2.703   1.641   0.296  1.00  0.00     0.085 N 
HETATM   12  C9  UNL     1      -3.974   1.902   0.985  1.00  0.00     0.309 C 
HETATM   13  C10 UNL     1      -3.020   0.866  -0.906  1.00  0.00     0.272 C 
HETATM   14  C11 UNL     1      -3.066  -0.621  -0.467  1.00  0.00     0.035 C 
HETATM   15  C12 UNL     1      -1.681  -0.862   0.157  1.00  0.00     0.041 C 
HETATM   16  C13 UNL     1      -1.360  -2.214   0.548  1.00  0.00    -0.051 A 
HETATM   17  C14 UNL     1      -2.347  -3.037   1.018  1.00  0.00     0.007 A 
HETATM   18  C15 UNL     1      -1.993  -4.327   1.440  1.00  0.00     0.001 A 
HETATM   19  C16 UNL     1      -0.666  -4.667   1.345  1.00  0.00     0.001 A 
HETATM   20  C17 UNL     1       0.233  -3.751   0.855  1.00  0.00     0.008 A 
HETATM   21  C18 UNL     1      -0.016  -2.469   0.419  1.00  0.00    -0.046 A 
HETATM   22  C19 UNL     1       1.197  -1.780  -0.027  1.00  0.00     0.041 C 
HETATM   23  C20 UNL     1       1.051  -1.258  -1.433  1.00  0.00     0.017 C 
HETATM   24  C21 UNL     1       2.843   1.662  -0.243  1.00  0.00     0.039 A 
HETATM   25  C22 UNL     1       1.626   2.066  -0.000  1.00  0.00     0.247 A 
HETATM   26  H5  UNL     1      -0.247   1.814   1.479  1.00  0.00     0.282 HD
ENDROOT
BRANCH   1  27
HETATM   27  N1  UNL     1       4.867   2.320  -0.711  1.00  0.00    -0.269 NA
HETATM   28  C1  UNL     1       5.736   2.708   0.189  1.00  0.00     0.173 C 
ENDBRANCH   1  27
TORSDOF 1
