REMARK  4 active torsions:
REMARK  status: ('A' for Active; 'I' for Inactive)
REMARK    1  A    between atoms: C5_6  and  C6_7 
REMARK    2  A    between atoms: C6_7  and  N2_8 
REMARK    3  A    between atoms: N2_8  and  C7_9 
REMARK    4  A    between atoms: C9_14  and  C10_15 
ROOT
HETATM    1  N1  UNL     1       8.859   0.899   0.731  1.00  0.00    -0.191 NA
HETATM    2  C1  UNL     1       7.803   0.579   0.335  1.00  0.00     0.099 C 
HETATM    3  C2  UNL     1       6.504   0.210  -0.156  1.00  0.00     0.044 A 
HETATM    4  C3  UNL     1       5.761  -0.600   0.671  1.00  0.00     0.023 A 
HETATM    5  C4  UNL     1       4.505  -0.992   0.262  1.00  0.00     0.010 A 
HETATM    6  C5  UNL     1       3.981  -0.593  -0.949  1.00  0.00    -0.041 A 
HETATM    7  C18 UNL     1       4.761   0.228  -1.763  1.00  0.00     0.010 A 
HETATM    8  C19 UNL     1       6.024   0.644  -1.392  1.00  0.00     0.023 A 
ENDROOT
BRANCH   6   9
HETATM    9  C6  UNL     1       2.625  -0.989  -1.441  1.00  0.00     0.160 C 
BRANCH   9  10
HETATM   10  N2  UNL     1       1.594  -0.057  -1.040  1.00  0.00    -0.371 N 
HETATM   11  H5  UNL     1       0.969   0.495  -1.669  1.00  0.00     0.161 HD
BRANCH  10  12
HETATM   12  C7  UNL     1       1.381   0.153   0.352  1.00  0.00     0.119 C 
HETATM   13  C8  UNL     1       1.928   0.775   1.376  1.00  0.00    -0.054 C 
HETATM   14  B1  UNL     1       0.535   2.337   1.478  1.00  0.00     0.247 B 
HETATM   15  P1  UNL     1      -0.987   1.867   1.995  1.00  0.00    -0.084 P 
HETATM   16  N3  UNL     1      -2.336   1.463   0.940  1.00  0.00    -0.397 N 
HETATM   17  H6  UNL     1      -1.113   1.181   3.270  1.00  0.00     0.067 HD
HETATM   18  C9  UNL     1      -3.196   0.440   1.403  1.00  0.00     0.153 C 
HETATM   19  H7  UNL     1      -2.183   1.563  -0.062  1.00  0.00     0.158 HD
HETATM   20  C16 UNL     1      -2.580  -0.868   1.677  1.00  0.00     0.120 C 
HETATM   21  N4  UNL     1      -1.577  -1.545   1.300  1.00  0.00    -0.256 NA
HETATM   22  C17 UNL     1      -0.619  -1.139   0.343  1.00  0.00     0.234 C 
HETATM   23  N5  UNL     1       0.232  -0.447   0.989  1.00  0.00    -0.225 NA
BRANCH  18  24
HETATM   24  C10 UNL     1      -4.275   0.222   0.403  1.00  0.00    -0.030 A 
HETATM   25  C11 UNL     1      -5.596   0.093   0.812  1.00  0.00     0.012 A 
HETATM   26  C12 UNL     1      -6.695  -0.111  -0.000  1.00  0.00     0.043 A 
HETATM   27  C13 UNL     1      -6.426  -0.194  -1.370  1.00  0.00     0.116 A 
HETATM   28  F1  UNL     1      -7.509  -0.394  -2.158  1.00  0.00    -0.206 F 
HETATM   29  C14 UNL     1      -5.137  -0.073  -1.830  1.00  0.00     0.043 A 
HETATM   30  C15 UNL     1      -4.068   0.133  -0.958  1.00  0.00     0.012 A 
ENDBRANCH  18  24
ENDBRANCH  10  12
ENDBRANCH   9  10
ENDBRANCH   6   9
TORSDOF 4
