REMARK  2 active torsions:
REMARK  status: ('A' for Active; 'I' for Inactive)
REMARK    1  A    between atoms: C10_14  and  C11_15 
REMARK    2  A    between atoms: C12_16  and  C13_17 
ROOT
HETATM    1  C13 UNL     1       3.011   0.099   1.267  1.00  0.00    -0.036 A 
HETATM    2  C14 UNL     1       3.338  -0.945   2.095  1.00  0.00     0.013 A 
HETATM    3  C15 UNL     1       4.590  -1.090   2.653  1.00  0.00     0.023 A 
HETATM    4  C16 UNL     1       5.590  -0.175   2.400  1.00  0.00     0.044 A 
HETATM    5  C17 UNL     1       6.908  -0.282   2.959  1.00  0.00     0.099 C 
HETATM    6  N4  UNL     1       7.975  -0.370   3.396  1.00  0.00    -0.191 NA
HETATM    7  C18 UNL     1       5.294   0.885   1.573  1.00  0.00     0.023 A 
HETATM    8  C19 UNL     1       4.032   0.995   1.034  1.00  0.00     0.013 A 
ENDROOT
BRANCH   1   9
HETATM    9  C12 UNL     1       1.682   0.236   0.686  1.00  0.00     0.015 C 
HETATM   10  C11 UNL     1       1.357   1.225  -0.102  1.00  0.00     0.051 C 
BRANCH  10  11
HETATM   11  C10 UNL     1      -0.002   1.311  -0.659  1.00  0.00     0.125 C 
HETATM   12  N3  UNL     1      -0.402   2.272  -1.460  1.00  0.00    -0.225 NA
HETATM   13  C9  UNL     1      -1.737   2.288  -1.962  1.00  0.00     0.231 C 
HETATM   14  N2  UNL     1      -2.323   2.576  -0.856  1.00  0.00    -0.261 NA
HETATM   15  C8  UNL     1      -3.784   2.710  -0.842  1.00  0.00     0.297 C 
HETATM   16  N1  UNL     1      -4.267   1.501  -0.187  1.00  0.00    -0.284 NA
HETATM   17  C7  UNL     1      -3.826   0.352  -0.541  1.00  0.00     0.093 C 
HETATM   18  C6  UNL     1      -3.034  -0.627  -1.295  1.00  0.00     0.064 C 
HETATM   19  C2  UNL     1      -1.632  -0.824  -0.854  1.00  0.00     0.057 C 
HETATM   20  C5  UNL     1      -3.644  -2.027  -1.144  1.00  0.00     0.082 C 
HETATM   21  C1  UNL     1      -0.801  -1.343  -2.008  1.00  0.00     0.044 C 
HETATM   22  C3  UNL     1      -1.730  -1.933   0.154  1.00  0.00     0.042 C 
HETATM   23  N5  UNL     1      -0.960   0.317  -0.323  1.00  0.00    -0.362 N 
HETATM   24  C4  UNL     1      -2.856  -2.609  -0.005  1.00  0.00     0.093 C 
HETATM   25  F1  UNL     1      -3.254  -3.673   0.742  1.00  0.00    -0.211 F 
HETATM   26  H18 UNL     1      -1.119   0.680   0.647  1.00  0.00     0.162 HD
ENDBRANCH  10  11
ENDBRANCH   1   9
TORSDOF 2
