REMARK  3 active torsions:
REMARK  status: ('A' for Active; 'I' for Inactive)
REMARK    1  A    between atoms: C2_2  and  N1_3 
REMARK    2  A    between atoms: C2_2  and  C16_21 
REMARK    3  A    between atoms: N1_3  and  C3_4 
ROOT
HETATM    1  C3  UNL     1       0.875  -0.401   0.702  1.00  0.00     0.139 A 
HETATM    2  N2  UNL     1       0.902  -1.082   1.860  1.00  0.00    -0.224 NA
HETATM    3  C4  UNL     1      -0.259  -1.451   2.421  1.00  0.00     0.237 A 
HETATM    4  N3  UNL     1      -1.455  -1.169   1.873  1.00  0.00    -0.223 NA
HETATM    5  C5  UNL     1      -1.548  -0.481   0.698  1.00  0.00     0.146 A 
HETATM    6  C6  UNL     1      -0.363  -0.101   0.121  1.00  0.00     0.058 A 
HETATM    7  C7  UNL     1      -0.617   0.582  -1.055  1.00  0.00     0.044 A 
HETATM    8  C8  UNL     1      -1.996   0.576  -1.122  1.00  0.00     0.018 A 
HETATM    9  N4  UNL     1      -2.569  -0.047  -0.096  1.00  0.00    -0.330 N 
HETATM   10  C9  UNL     1      -3.892  -0.352   0.346  1.00  0.00     0.092 C 
HETATM   11  C10 UNL     1      -4.072  -1.835   0.505  1.00  0.00     0.033 C 
HETATM   12  C11 UNL     1      -4.963   0.156  -0.595  1.00  0.00     0.075 C 
HETATM   13  C12 UNL     1      -4.756   1.574  -0.996  1.00  0.00     0.021 C 
HETATM   14  C13 UNL     1      -5.764   2.507  -0.514  1.00  0.00     0.095 C 
HETATM   15  N5  UNL     1      -6.559   3.268  -0.126  1.00  0.00    -0.192 NA
HETATM   16  C14 UNL     1      -3.802   2.132  -1.724  1.00  0.00    -0.003 C 
HETATM   17  C15 UNL     1      -2.739   1.211  -2.244  1.00  0.00     0.085 C 
ENDROOT
BRANCH   1  18
HETATM   18  N1  UNL     1       2.064   0.016   0.059  1.00  0.00    -0.366 N 
HETATM   19  H5  UNL     1       2.036   0.534  -0.822  1.00  0.00     0.161 HD
BRANCH  18  20
HETATM   20  C2  UNL     1       3.338  -0.301   0.672  1.00  0.00     0.108 C 
HETATM   21  C1  UNL     1       3.556  -1.795   0.831  1.00  0.00     0.037 C 
BRANCH  20  22
HETATM   22  C16 UNL     1       4.480   0.222  -0.099  1.00  0.00    -0.051 A 
HETATM   23  C17 UNL     1       5.368   1.138   0.257  1.00  0.00     0.008 A 
HETATM   24  C18 UNL     1       6.311   1.315  -0.856  1.00  0.00     0.038 A 
HETATM   25  C19 UNL     1       5.958   0.501  -1.839  1.00  0.00     0.098 A 
HETATM   26  F1  UNL     1       6.546   0.330  -3.059  1.00  0.00    -0.211 F 
HETATM   27  C20 UNL     1       4.758  -0.292  -1.486  1.00  0.00     0.106 A 
ENDBRANCH  20  22
ENDBRANCH  18  20
ENDBRANCH   1  18
TORSDOF 3
