REMARK  3 active torsions:
REMARK  status: ('A' for Active; 'I' for Inactive)
REMARK    1  A    between atoms: O1_2  and  C2_3 
REMARK       I    between atoms: N1_5  and  C4_6 
REMARK    2  A    between atoms: C8_11  and  O3_12 
REMARK    3  A    between atoms: O3_12  and  C9_13 
ROOT
HETATM    1  C9  UNL     1       0.322   0.511  -0.092  1.00  0.00     0.104 A 
HETATM    2  C10 UNL     1       1.758   0.172  -0.240  1.00  0.00     0.078 A 
HETATM    3  N2  UNL     1       2.756  -0.746   0.063  1.00  0.00    -0.384 N 
HETATM    4  C11 UNL     1       3.516  -0.519   1.366  1.00  0.00     0.111 C 
HETATM    5  C12 UNL     1       3.018  -0.394   2.221  1.00  0.00     0.087 C 
HETATM    6 CL1  UNL     1       1.886  -0.210   3.496  1.00  0.00    -0.080 Cl
HETATM    7  C13 UNL     1       4.411  -0.559   3.120  1.00  0.00     0.139 C 
HETATM    8  F1  UNL     1       4.999  -0.874   4.348  1.00  0.00    -0.204 F 
HETATM    9  C14 UNL     1       5.616  -0.525   2.154  1.00  0.00     0.045 C 
HETATM   10  C15 UNL     1       6.263  -0.453   1.026  1.00  0.00     0.020 C 
HETATM   11  C16 UNL     1       6.820  -0.334  -0.292  1.00  0.00     0.083 C 
HETATM   12  N3  UNL     1       5.758   0.049  -1.179  1.00  0.00    -0.398 N 
HETATM   13  C17 UNL     1       4.684   0.195  -2.268  1.00  0.00     0.124 C 
HETATM   14  C18 UNL     1       3.727   1.348  -1.608  1.00  0.00     0.017 C 
HETATM   15  C19 UNL     1       2.530   1.112  -1.175  1.00  0.00     0.038 A 
HETATM   16  C20 UNL     1       0.997   1.009  -0.575  1.00  0.00     0.036 A 
HETATM   17  C21 UNL     1       0.251   1.954  -0.981  1.00  0.00     0.046 A 
HETATM   18  H15 UNL     1       2.493  -1.308  -0.813  1.00  0.00     0.160 HD
HETATM   19  H20 UNL     1       5.759   1.003  -0.610  1.00  0.00     0.158 HD
ENDROOT
BRANCH   1  20
HETATM   20  O3  UNL     1      -1.071   0.211   0.409  1.00  0.00    -0.368 OA
BRANCH  20  21
HETATM   21  C8  UNL     1      -2.166   0.331  -0.525  1.00  0.00     0.154 C 
HETATM   22  C2  UNL     1      -3.291   0.739   0.337  1.00  0.00     0.167 C 
HETATM   23  C3  UNL     1      -4.581   0.533  -0.553  1.00  0.00     0.160 C 
HETATM   24  N1  UNL     1      -4.753  -0.860  -0.474  1.00  0.00    -0.350 N 
HETATM   25  C4  UNL     1      -5.990  -1.536   0.056  1.00  0.00     0.215 C 
HETATM   26  C6  UNL     1      -3.710  -1.593  -1.140  1.00  0.00     0.128 C 
HETATM   27  C5  UNL     1      -7.367  -0.847  -0.069  1.00  0.00     0.117 C 
HETATM   28  O2  UNL     1      -5.631  -2.607   0.549  1.00  0.00    -0.274 OA
HETATM   29  C7  UNL     1      -2.568  -0.693  -1.504  1.00  0.00     0.054 C 
BRANCH  22  30
HETATM   30  O1  UNL     1      -3.292   2.092   0.687  1.00  0.00    -0.386 OA
HETATM   31  C1  UNL     1      -3.513   2.161   2.097  1.00  0.00     0.202 C 
ENDBRANCH  22  30
ENDBRANCH  20  21
ENDBRANCH   1  20
TORSDOF 3
