REMARK  3 active torsions:
REMARK  status: ('A' for Active; 'I' for Inactive)
REMARK    1  A    between atoms: N1_1  and  C1_2 
REMARK    2  A    between atoms: C2_3  and  C3_4 
REMARK    3  A    between atoms: C15_18  and  C16_19 
ROOT
HETATM    1  C3  UNL     1      -0.654  -0.390   0.673  1.00  0.00     0.032 C 
HETATM    2  C4  UNL     1      -0.783   0.248   1.995  1.00  0.00    -0.005 C 
HETATM    3  C5  UNL     1       0.172  -0.204   2.822  1.00  0.00     0.026 C 
HETATM    4  C6  UNL     1       0.856  -1.292   2.159  1.00  0.00     0.025 C 
HETATM    5  C7  UNL     1       0.318  -1.475   0.972  1.00  0.00     0.021 C 
HETATM    6  N2  UNL     1       1.927  -2.150   2.517  1.00  0.00    -0.385 N 
HETATM    7  C8  UNL     1       2.848  -2.802   1.620  1.00  0.00     0.166 C 
HETATM    8  C9  UNL     1       3.789  -1.930   0.921  1.00  0.00     0.102 C 
HETATM    9  N3  UNL     1       3.761  -1.620  -0.321  1.00  0.00    -0.304 NA
HETATM   10  C10 UNL     1       4.672  -0.792  -0.950  1.00  0.00     0.148 C 
HETATM   11  C11 UNL     1       4.310   0.098  -2.062  1.00  0.00     0.022 C 
HETATM   12  C12 UNL     1       3.394   1.218  -1.795  1.00  0.00     0.002 C 
HETATM   13  C13 UNL     1       1.954   1.116  -1.634  1.00  0.00     0.001 C 
HETATM   14  C14 UNL     1       1.408   0.231  -0.577  1.00  0.00     0.011 C 
HETATM   15  C15 UNL     1      -0.112   0.482  -0.408  1.00  0.00     0.039 C 
HETATM   16  H6  UNL     1       2.056  -2.326   3.545  1.00  0.00     0.160 HD
ENDROOT
BRANCH   1  17
HETATM   17  C2  UNL     1      -1.903  -1.088   0.243  1.00  0.00    -0.019 C 
HETATM   18  C1  UNL     1      -3.010  -1.111   1.009  1.00  0.00     0.053 C 
HETATM   19  C25 UNL     1      -3.953  -1.898   0.196  1.00  0.00     0.260 A 
HETATM   20  N4  UNL     1      -3.608  -1.514  -1.180  1.00  0.00    -0.343 N 
HETATM   21  N6  UNL     1      -5.335  -1.651   0.439  1.00  0.00    -0.251 NA
HETATM   22  C22 UNL     1      -2.207  -1.859  -1.021  1.00  0.00     0.164 C 
HETATM   23  C23 UNL     1      -4.440  -0.990  -2.211  1.00  0.00     0.208 A 
HETATM   24  N5  UNL     1      -5.687  -0.820  -1.850  1.00  0.00    -0.238 NA
HETATM   25  C24 UNL     1      -6.071  -1.170  -0.505  1.00  0.00     0.230 A 
BRANCH  18  26
HETATM   26  N1  UNL     1      -3.320  -0.562   2.292  1.00  0.00    -0.399 N 
HETATM   27  H1  UNL     1      -2.954  -1.157   3.085  1.00  0.00     0.156 HD
HETATM   28  H2  UNL     1      -3.841   0.314   2.414  1.00  0.00     0.156 HD
ENDBRANCH  18  26
ENDBRANCH   1  17
BRANCH  15  29
HETATM   29  C16 UNL     1      -0.383   1.920  -0.262  1.00  0.00    -0.052 A 
HETATM   30  C17 UNL     1      -1.195   2.629  -1.155  1.00  0.00     0.007 A 
HETATM   31  C18 UNL     1      -1.477   3.974  -1.069  1.00  0.00     0.001 A 
HETATM   32  C19 UNL     1      -0.931   4.698  -0.034  1.00  0.00     0.000 A 
HETATM   33  C20 UNL     1      -0.127   4.073   0.878  1.00  0.00     0.001 A 
HETATM   34  C21 UNL     1       0.118   2.723   0.737  1.00  0.00     0.007 A 
ENDBRANCH  15  29
TORSDOF 3
