REMARK  6 active torsions:
REMARK  status: ('A' for Active; 'I' for Inactive)
REMARK    1  A    between atoms: S1_2  and  N1_4 
REMARK    2  A    between atoms: N1_4  and  C2_5 
REMARK    3  A    between atoms: C6_10  and  C7_11 
REMARK    4  A    between atoms: C7_11  and  C8_12 
REMARK    5  A    between atoms: C12_17  and  O2_18 
REMARK    6  A    between atoms: O2_18  and  O3_19 
ROOT
HETATM    1  C2  UNL     1       2.660  -0.987  -0.317  1.00  0.00     0.079 A 
HETATM    2  C3  UNL     1       2.632  -2.285   0.185  1.00  0.00     0.036 A 
HETATM    3  C4  UNL     1       1.520  -2.679   0.894  1.00  0.00     0.045 A 
HETATM    4  C5  UNL     1       0.434  -1.831   1.122  1.00  0.00     0.126 A 
HETATM    5  F1  UNL     1      -0.682  -2.167   1.808  1.00  0.00    -0.205 F 
HETATM    6  C6  UNL     1       0.433  -0.545   0.636  1.00  0.00     0.026 A 
HETATM    7  C15 UNL     1       1.587  -0.193  -0.078  1.00  0.00     0.153 A 
HETATM    8  F2  UNL     1       1.719   1.051  -0.618  1.00  0.00    -0.203 F 
ENDROOT
BRANCH   6   9
HETATM    9  C7  UNL     1      -0.578   0.501   0.747  1.00  0.00     0.086 C 
BRANCH   9  10
HETATM   10  C8  UNL     1      -1.737   0.214  -0.131  1.00  0.00    -0.026 C 
HETATM   11  C9  UNL     1      -1.823  -1.075  -0.711  1.00  0.00     0.092 C 
HETATM   12  N2  UNL     1      -3.361  -1.189  -0.306  1.00  0.00    -0.387 N 
HETATM   13  C10 UNL     1      -4.455  -0.279  -0.492  1.00  0.00     0.131 C 
HETATM   14  H10 UNL     1      -3.704  -2.130   0.132  1.00  0.00     0.159 HD
HETATM   15  C11 UNL     1      -4.730   1.100   0.082  1.00  0.00     0.043 C 
HETATM   16  C14 UNL     1      -3.924   0.330  -1.780  1.00  0.00     0.017 C 
HETATM   17  C12 UNL     1      -3.444   1.338   0.500  1.00  0.00     0.117 C 
HETATM   18  C13 UNL     1      -2.999   0.710  -0.877  1.00  0.00     0.007 C 
BRANCH  17  19
HETATM   19  O2  UNL     1      -3.391   1.939   1.781  1.00  0.00    -0.179 OA
BRANCH  19  20
HETATM   20  O3  UNL     1      -2.706   3.091   1.921  1.00  0.00    -0.114 OA
HETATM   21 CL1  UNL     1      -2.276   3.716   0.393  1.00  0.00     0.100 Cl
ENDBRANCH  19  20
ENDBRANCH  17  19
ENDBRANCH   9  10
ENDBRANCH   6   9
BRANCH   1  22
HETATM   22  N1  UNL     1       3.821  -0.574  -1.060  1.00  0.00    -0.303 N 
HETATM   23  H4  UNL     1       4.374  -1.133  -1.740  1.00  0.00     0.176 HD
BRANCH  22  24
HETATM   24  S1  UNL     1       4.177   1.092  -0.637  1.00  0.00     0.110 S 
HETATM   25  C1  UNL     1       5.889   1.206  -0.145  1.00  0.00     0.152 C 
HETATM   26  O1  UNL     1       3.935   2.030  -1.804  1.00  0.00    -0.236 OA
ENDBRANCH  22  24
ENDBRANCH   1  22
TORSDOF 6
