REMARK  5 active torsions:
REMARK  status: ('A' for Active; 'I' for Inactive)
REMARK    1  A    between atoms: C5_5  and  C6_6 
REMARK    2  A    between atoms: C7_9  and  S1_10 
REMARK    3  A    between atoms: S1_10  and  C8_11 
REMARK    4  A    between atoms: C8_11  and  C9_12 
REMARK    5  A    between atoms: C15_19  and  O2_20 
ROOT
HETATM    1  C6  UNL     1      -0.924  -0.193   0.998  1.00  0.00     0.206 A 
HETATM    2  N1  UNL     1      -0.162  -1.079   1.619  1.00  0.00    -0.120 NA
HETATM    3  N2  UNL     1       1.065  -0.587   1.756  1.00  0.00    -0.114 NA
HETATM    4  C7  UNL     1       1.070   0.646   1.203  1.00  0.00     0.231 A 
HETATM    5  O1  UNL     1      -0.150   0.837   0.760  1.00  0.00    -0.263 OA
ENDROOT
BRANCH   1   6
HETATM    6  C5  UNL     1      -2.354  -0.386   0.667  1.00  0.00     0.052 A 
HETATM    7  C4  UNL     1      -3.021  -1.547   0.995  1.00  0.00     0.019 A 
HETATM    8  C3  UNL     1      -4.363  -1.612   0.632  1.00  0.00     0.008 A 
HETATM    9  C2  UNL     1      -5.025  -0.590  -0.021  1.00  0.00    -0.059 A 
HETATM   10  C1  UNL     1      -6.448  -0.649  -0.409  1.00  0.00     0.048 C 
HETATM   11  C16 UNL     1      -4.333   0.560  -0.337  1.00  0.00     0.044 A 
HETATM   12  C15 UNL     1      -3.000   0.659   0.008  1.00  0.00     0.080 A 
BRANCH  12  13
HETATM   13  O2  UNL     1      -2.356   1.847  -0.339  1.00  0.00    -0.360 OA
HETATM   14  H13 UNL     1      -1.915   2.475   0.315  1.00  0.00     0.217 HD
ENDBRANCH  12  13
ENDBRANCH   1   6
BRANCH   4  15
HETATM   15  S1  UNL     1       2.096   2.094   0.850  1.00  0.00    -0.078 SA
BRANCH  15  16
HETATM   16  C8  UNL     1       2.832   1.789  -0.784  1.00  0.00     0.121 C 
BRANCH  16  17
HETATM   17  C9  UNL     1       3.764   0.657  -0.662  1.00  0.00    -0.049 A 
HETATM   18  C10 UNL     1       5.076   1.028  -0.357  1.00  0.00     0.008 A 
HETATM   19  C11 UNL     1       6.088   0.107  -0.203  1.00  0.00     0.001 A 
HETATM   20  C12 UNL     1       5.793  -1.230  -0.357  1.00  0.00     0.000 A 
HETATM   21  C13 UNL     1       4.482  -1.608  -0.662  1.00  0.00     0.001 A 
HETATM   22  C14 UNL     1       3.466  -0.676  -0.815  1.00  0.00     0.008 A 
ENDBRANCH  16  17
ENDBRANCH  15  16
ENDBRANCH   4  15
TORSDOF 5
