REMARK  5 active torsions:
REMARK  status: ('A' for Active; 'I' for Inactive)
REMARK    1  A    between atoms: C2_2  and  C3_3 
REMARK    2  A    between atoms: C3_3  and  S1_4 
REMARK    3  A    between atoms: S1_4  and  N1_7 
REMARK    4  A    between atoms: N1_7  and  C4_8 
REMARK    5  A    between atoms: C8_13  and  C9_14 
ROOT
HETATM    1  C4  UNL     1       1.069  -1.562  -0.777  1.00  0.00     0.080 C 
HETATM    2  C5  UNL     1       0.244  -2.588  -0.500  1.00  0.00     0.036 C 
HETATM    3  C6  UNL     1      -1.168  -2.583  -0.057  1.00  0.00     0.041 C 
HETATM    4  C7  UNL     1      -1.714  -1.547   0.558  1.00  0.00     0.106 C 
HETATM    5  F1  UNL     1      -3.002  -1.806   0.848  1.00  0.00    -0.210 F 
HETATM    6  C8  UNL     1      -1.311  -0.211   1.004  1.00  0.00     0.110 C 
HETATM    7  C15 UNL     1      -0.312   0.354   0.061  1.00  0.00     0.034 C 
HETATM    8  C16 UNL     1       0.661  -0.151  -0.675  1.00  0.00     0.141 C 
HETATM    9  F2  UNL     1       1.399   0.701  -1.447  1.00  0.00    -0.204 F 
ENDROOT
BRANCH   6  10
HETATM   10  C9  UNL     1      -2.466   0.693   1.167  1.00  0.00    -0.001 A 
HETATM   11  C10 UNL     1      -3.091   1.371   2.126  1.00  0.00     0.108 A 
HETATM   12  N2  UNL     1      -4.080   1.930   1.281  1.00  0.00    -0.316 N 
HETATM   13  C11 UNL     1      -5.222   2.723   0.985  1.00  0.00     0.210 A 
HETATM   14  C14 UNL     1      -3.445   1.222   0.225  1.00  0.00     0.048 A 
HETATM   15  N3  UNL     1      -5.785   2.896  -0.159  1.00  0.00    -0.260 NA
HETATM   16  C12 UNL     1      -5.211   2.216  -1.299  1.00  0.00     0.230 A 
HETATM   17 CL1  UNL     1      -6.513   1.214  -2.014  1.00  0.00    -0.096 Cl
HETATM   18  C13 UNL     1      -4.027   1.402  -0.946  1.00  0.00     0.046 A 
ENDBRANCH   6  10
BRANCH   1  19
HETATM   19  N1  UNL     1       2.387  -1.825  -1.186  1.00  0.00    -0.282 N 
HETATM   20  H8  UNL     1       2.032  -1.885  -2.178  1.00  0.00     0.178 HD
BRANCH  19  21
HETATM   21  S1  UNL     1       4.046  -2.047  -0.798  1.00  0.00     0.231 S 
HETATM   22  O1  UNL     1       4.779  -2.368  -2.044  1.00  0.00    -0.206 OA
HETATM   23  O2  UNL     1       4.227  -3.197   0.164  1.00  0.00    -0.206 OA
BRANCH  21  24
HETATM   24  C3  UNL     1       4.783  -0.618  -0.059  1.00  0.00     0.163 C 
BRANCH  24  25
HETATM   25  C2  UNL     1       4.094  -0.246   1.218  1.00  0.00     0.012 C 
HETATM   26  C1  UNL     1       4.720   0.976   1.855  1.00  0.00     0.006 C 
ENDBRANCH  24  25
ENDBRANCH  21  24
ENDBRANCH  19  21
ENDBRANCH   1  19
TORSDOF 5
