REMARK  7 active torsions:
REMARK  status: ('A' for Active; 'I' for Inactive)
REMARK    1  A    between atoms: C2_2  and  C3_3 
REMARK    2  A    between atoms: C4_4  and  C5_5 
REMARK    3  A    between atoms: C6_6  and  C7_7 
REMARK    4  A    between atoms: C7_7  and  S1_8 
REMARK    5  A    between atoms: S1_8  and  C8_9 
REMARK    6  A    between atoms: C9_12  and  C10_13 
REMARK    7  A    between atoms: C16_19  and  O1_20 
ROOT
HETATM    1  C8  UNL     1       0.410  -1.233  -1.460  1.00  0.00     0.231 A 
HETATM    2  N1  UNL     1       0.809  -0.124  -0.806  1.00  0.00    -0.114 NA
HETATM    3  N2  UNL     1      -0.264   0.400  -0.288  1.00  0.00    -0.120 NA
HETATM    4  C9  UNL     1      -1.353  -0.352  -0.596  1.00  0.00     0.206 A 
HETATM    5  O2  UNL     1      -0.909  -1.368  -1.329  1.00  0.00    -0.263 OA
ENDROOT
BRANCH   4   6
HETATM    6  C10 UNL     1      -2.695   0.003  -0.143  1.00  0.00     0.052 A 
HETATM    7  C11 UNL     1      -2.965   1.128   0.629  1.00  0.00     0.019 A 
HETATM    8  C12 UNL     1      -4.266   1.383   1.011  1.00  0.00     0.008 A 
HETATM    9  C13 UNL     1      -5.338   0.566   0.662  1.00  0.00    -0.059 A 
HETATM   10  C14 UNL     1      -6.687   0.941   1.129  1.00  0.00     0.048 C 
HETATM   11  C15 UNL     1      -5.037  -0.545  -0.105  1.00  0.00     0.044 A 
HETATM   12  C16 UNL     1      -3.746  -0.828  -0.504  1.00  0.00     0.080 A 
BRANCH  12  13
HETATM   13  O1  UNL     1      -3.584  -1.976  -1.273  1.00  0.00    -0.360 OA
HETATM   14  H16 UNL     1      -2.914  -2.687  -1.100  1.00  0.00     0.217 HD
ENDBRANCH  12  13
ENDBRANCH   4   6
BRANCH   1  15
HETATM   15  S1  UNL     1       1.411  -2.404  -2.386  1.00  0.00    -0.079 SA
BRANCH  15  16
HETATM   16  C7  UNL     1       3.121  -1.804  -2.282  1.00  0.00     0.110 C 
BRANCH  16  17
HETATM   17  C6  UNL     1       3.673  -1.864  -0.914  1.00  0.00    -0.016 C 
HETATM   18  C5  UNL     1       4.143  -0.935  -0.100  1.00  0.00    -0.004 C 
BRANCH  18  19
HETATM   19  C4  UNL     1       4.195   0.468  -0.473  1.00  0.00    -0.004 C 
HETATM   20  C3  UNL     1       4.659   1.422   0.320  1.00  0.00    -0.026 C 
BRANCH  20  21
HETATM   21  C2  UNL     1       5.193   1.291   1.668  1.00  0.00    -0.006 C 
HETATM   22  C1  UNL     1       5.656   2.291   2.442  1.00  0.00     0.037 C 
ENDBRANCH  20  21
ENDBRANCH  18  19
ENDBRANCH  16  17
ENDBRANCH  15  16
ENDBRANCH   1  15
TORSDOF 7
