REMARK  6 active torsions:
REMARK  status: ('A' for Active; 'I' for Inactive)
REMARK    1  A    between atoms: C4_4  and  O1_5 
REMARK    2  A    between atoms: N1_7  and  N2_8 
REMARK    3  A    between atoms: C6_9  and  S1_10 
REMARK    4  A    between atoms: S1_10  and  C7_11 
REMARK    5  A    between atoms: C7_11  and  C8_12 
REMARK    6  A    between atoms: C14_18  and  O2_19 
ROOT
HETATM    1  C1  UNL     1       6.017  -1.398  -0.426  1.00  0.00     0.048 C 
HETATM    2  C2  UNL     1       4.857  -0.451  -0.326  1.00  0.00    -0.060 A 
HETATM    3  C3  UNL     1       3.639  -0.888  -0.605  1.00  0.00     0.017 A 
HETATM    4  C4  UNL     1       2.414  -0.043  -0.541  1.00  0.00     0.198 A 
HETATM    5  C5  UNL     1       2.736   1.346  -0.124  1.00  0.00     0.122 A 
HETATM    6  N1  UNL     1       1.743   2.167  -0.035  1.00  0.00    -0.149 NA
HETATM    7  C14 UNL     1       4.078   1.828   0.184  1.00  0.00     0.095 A 
HETATM    8  C15 UNL     1       5.087   0.950   0.082  1.00  0.00     0.045 A 
ENDROOT
BRANCH   4   9
HETATM    9  O1  UNL     1       1.491  -0.640   0.347  1.00  0.00    -0.385 OA
HETATM   10  H6  UNL     1       1.477  -1.600   0.110  1.00  0.00     0.210 HD
ENDBRANCH   4   9
BRANCH   6  11
HETATM   11  N2  UNL     1       0.484   1.629  -0.348  1.00  0.00    -0.155 NA
HETATM   12  C6  UNL     1      -0.547   1.828   0.422  1.00  0.00     0.186 C 
BRANCH  12  13
HETATM   13  S1  UNL     1      -2.289   1.466   0.604  1.00  0.00    -0.116 SA
BRANCH  13  14
HETATM   14  C7  UNL     1      -2.589  -0.133  -0.182  1.00  0.00     0.118 C 
BRANCH  14  15
HETATM   15  C8  UNL     1      -4.038  -0.450  -0.039  1.00  0.00    -0.049 A 
HETATM   16  C9  UNL     1      -4.979  -0.076  -0.971  1.00  0.00     0.008 A 
HETATM   17  C10 UNL     1      -6.327  -0.354  -0.870  1.00  0.00     0.001 A 
HETATM   18  C11 UNL     1      -6.774  -1.057   0.242  1.00  0.00     0.000 A 
HETATM   19  C12 UNL     1      -5.846  -1.436   1.178  1.00  0.00     0.001 A 
HETATM   20  C13 UNL     1      -4.499  -1.146   1.055  1.00  0.00     0.008 A 
ENDBRANCH  14  15
ENDBRANCH  13  14
ENDBRANCH  12  13
ENDBRANCH   6  11
BRANCH   7  21
HETATM   21  O2  UNL     1       4.339   3.135   0.571  1.00  0.00    -0.358 OA
HETATM   22  H15 UNL     1       3.556   3.744   0.716  1.00  0.00     0.217 HD
ENDBRANCH   7  21
TORSDOF 6
