REMARK  5 active torsions:
REMARK  status: ('A' for Active; 'I' for Inactive)
REMARK    1  A    between atoms: C5_5  and  O1_6 
REMARK    2  A    between atoms: O1_6  and  C6_7 
REMARK    3  A    between atoms: C7_10  and  S1_11 
REMARK    4  A    between atoms: S1_11  and  C8_12 
REMARK    5  A    between atoms: C8_12  and  C9_13 
ROOT
HETATM    1  C6  UNL     1      -1.559   1.107  -1.441  1.00  0.00     0.318 A 
HETATM    2  N1  UNL     1      -1.367   2.271  -0.754  1.00  0.00    -0.095 NA
HETATM    3  N2  UNL     1      -0.060   2.351  -0.544  1.00  0.00    -0.112 NA
HETATM    4  C7  UNL     1       0.557   1.270  -1.081  1.00  0.00     0.233 A 
HETATM    5  O2  UNL     1      -0.392   0.542  -1.616  1.00  0.00    -0.244 OA
ENDROOT
BRANCH   4   6
HETATM    6  S1  UNL     1       2.313   0.946  -1.044  1.00  0.00    -0.078 SA
BRANCH   6   7
HETATM    7  C8  UNL     1       2.679   0.005   0.463  1.00  0.00     0.121 C 
BRANCH   7   8
HETATM    8  C9  UNL     1       4.161  -0.254   0.471  1.00  0.00    -0.049 A 
HETATM    9  C10 UNL     1       4.743  -1.368  -0.097  1.00  0.00     0.008 A 
HETATM   10  C11 UNL     1       6.112  -1.497  -0.028  1.00  0.00     0.001 A 
HETATM   11  C12 UNL     1       6.901  -0.536   0.597  1.00  0.00     0.000 A 
HETATM   12  C13 UNL     1       6.331   0.599   1.178  1.00  0.00     0.001 A 
HETATM   13  C14 UNL     1       4.948   0.697   1.090  1.00  0.00     0.008 A 
ENDBRANCH   7   8
ENDBRANCH   6   7
ENDBRANCH   4   6
BRANCH   1  14
HETATM   14  O1  UNL     1      -2.853   0.774  -1.795  1.00  0.00    -0.275 OA
BRANCH  14  15
HETATM   15  C5  UNL     1      -3.595   0.008  -0.887  1.00  0.00     0.061 A 
HETATM   16  C4  UNL     1      -3.465  -1.191  -0.294  1.00  0.00     0.033 A 
HETATM   17  C3  UNL     1      -4.635  -1.381   0.562  1.00  0.00     0.005 A 
HETATM   18  C2  UNL     1      -5.428  -0.331   0.477  1.00  0.00    -0.078 A 
HETATM   19  C1  UNL     1      -6.718  -0.180   1.217  1.00  0.00     0.044 C 
HETATM   20  C15 UNL     1      -4.853   0.684  -0.465  1.00  0.00     0.098 A 
ENDBRANCH  14  15
ENDBRANCH   1  14
TORSDOF 5
