REMARK  7 active torsions:
REMARK  status: ('A' for Active; 'I' for Inactive)
REMARK    1  A    between atoms: C2_2  and  C3_3 
REMARK    2  A    between atoms: C3_3  and  C4_4 
REMARK    3  A    between atoms: C4_4  and  C5_5 
REMARK    4  A    between atoms: C8_8  and  C9_9 
REMARK    5  A    between atoms: C10_12  and  S1_13 
REMARK    6  A    between atoms: S1_13  and  C11_14 
REMARK    7  A    between atoms: C11_14  and  C12_15 
ROOT
HETATM    1  C9  UNL     1      -0.437   0.911   0.623  1.00  0.00     0.178 A 
HETATM    2  N1  UNL     1      -0.191  -0.133  -0.186  1.00  0.00    -0.125 NA
HETATM    3  N2  UNL     1       0.889   0.078  -0.906  1.00  0.00    -0.114 NA
HETATM    4  C10 UNL     1       1.354   1.289  -0.555  1.00  0.00     0.231 A 
HETATM    5  O1  UNL     1       0.534   1.747   0.357  1.00  0.00    -0.268 OA
ENDROOT
BRANCH   1   6
HETATM    6  C8  UNL     1      -1.508   1.198   1.631  1.00  0.00     0.094 A 
HETATM    7  C5  UNL     1      -2.903   1.205   1.138  1.00  0.00     0.023 A 
HETATM    8  C6  UNL     1      -3.143   0.105   2.061  1.00  0.00    -0.024 A 
HETATM    9  C7  UNL     1      -1.901   0.109   2.489  1.00  0.00    -0.017 A 
BRANCH   7  10
HETATM   10  C4  UNL     1      -3.136   0.889  -0.290  1.00  0.00     0.009 C 
BRANCH  10  11
HETATM   11  C3  UNL     1      -4.536   0.509  -0.617  1.00  0.00     0.000 C 
BRANCH  11  12
HETATM   12  C2  UNL     1      -5.110  -0.692   0.044  1.00  0.00    -0.005 C 
HETATM   13  C1  UNL     1      -4.361  -1.975  -0.214  1.00  0.00     0.005 C 
ENDBRANCH  11  12
ENDBRANCH  10  11
ENDBRANCH   7  10
ENDBRANCH   1   6
BRANCH   4  14
HETATM   14  S1  UNL     1       2.776   2.221  -1.118  1.00  0.00    -0.078 SA
BRANCH  14  15
HETATM   15  C11 UNL     1       4.240   1.828  -0.114  1.00  0.00     0.121 C 
BRANCH  15  16
HETATM   16  C12 UNL     1       4.686   0.422  -0.301  1.00  0.00    -0.049 A 
HETATM   17  C13 UNL     1       5.605   0.146  -1.302  1.00  0.00     0.008 A 
HETATM   18  C14 UNL     1       6.019  -1.179  -1.471  1.00  0.00     0.001 A 
HETATM   19  C15 UNL     1       5.574  -2.226  -0.710  1.00  0.00     0.000 A 
HETATM   20  C16 UNL     1       4.652  -1.906   0.283  1.00  0.00     0.001 A 
HETATM   21  C17 UNL     1       4.203  -0.604   0.499  1.00  0.00     0.008 A 
ENDBRANCH  15  16
ENDBRANCH  14  15
ENDBRANCH   4  14
TORSDOF 7
