REMARK  4 active torsions:
REMARK  status: ('A' for Active; 'I' for Inactive)
REMARK    1  A    between atoms: C3_3  and  C4_4 
REMARK    2  A    between atoms: C5_5  and  C6_6 
REMARK    3  A    between atoms: C6_6  and  C7_7 
REMARK    4  A    between atoms: C7_7  and  S1_8 
ROOT
HETATM    1  S1  UNL     1      -0.348   0.641  -2.496  1.00  0.00    -0.050 SA
HETATM    2  C8  UNL     1      -1.193   0.310  -0.980  1.00  0.00     0.091 A 
HETATM    3  N1  UNL     1      -1.381   0.956  -2.044  1.00  0.00    -0.209 N 
HETATM    4  N2  UNL     1      -2.306   1.736  -2.609  1.00  0.00    -0.173 NA
HETATM    5  C9  UNL     1      -3.482   1.925  -2.157  1.00  0.00     0.151 C 
HETATM    6  C10 UNL     1      -3.734   1.186  -0.919  1.00  0.00    -0.017 C 
HETATM    7  C11 UNL     1      -4.430   0.033  -1.025  1.00  0.00     0.012 C 
HETATM    8  C12 UNL     1      -4.241  -1.132  -0.141  1.00  0.00    -0.002 C 
HETATM    9  C13 UNL     1      -3.327  -1.303   0.811  1.00  0.00    -0.013 C 
HETATM   10  C14 UNL     1      -2.222  -0.396   1.216  1.00  0.00    -0.003 C 
HETATM   11  C15 UNL     1      -1.757  -0.862   2.588  1.00  0.00     0.024 C 
HETATM   12  C16 UNL     1      -2.660   1.037   1.306  1.00  0.00    -0.012 C 
HETATM   13  C17 UNL     1      -3.193   1.775   0.339  1.00  0.00     0.010 C 
HETATM   14  C18 UNL     1      -1.046  -0.402   0.261  1.00  0.00     0.085 C 
ENDROOT
BRANCH   1  15
HETATM   15  C7  UNL     1       1.313   0.051  -2.667  1.00  0.00     0.097 C 
BRANCH  15  16
HETATM   16  C6  UNL     1       2.391   0.783  -1.925  1.00  0.00     0.038 C 
BRANCH  16  17
HETATM   17  C5  UNL     1       2.189   0.809  -0.496  1.00  0.00    -0.026 C 
HETATM   18  C4  UNL     1       2.848   0.382   0.569  1.00  0.00    -0.004 C 
BRANCH  18  19
HETATM   19  C3  UNL     1       4.119  -0.309   0.397  1.00  0.00    -0.005 C 
HETATM   20  C2  UNL     1       4.867  -0.780   1.379  1.00  0.00    -0.031 C 
HETATM   21  C1  UNL     1       6.150  -1.479   1.231  1.00  0.00     0.036 C 
ENDBRANCH  18  19
ENDBRANCH  16  17
ENDBRANCH  15  16
ENDBRANCH   1  15
TORSDOF 4
