REMARK  6 active torsions:
REMARK  status: ('A' for Active; 'I' for Inactive)
REMARK    1  A    between atoms: C2_2  and  B1_5 
REMARK    2  A    between atoms: B1_5  and  C5_6 
REMARK    3  A    between atoms: C8_9  and  C9_10 
REMARK    4  A    between atoms: C10_13  and  S1_14 
REMARK    5  A    between atoms: S1_14  and  C11_15 
REMARK    6  A    between atoms: C11_15  and  C12_16 
ROOT
HETATM    1  C9  UNL     1       0.953  -0.263   0.691  1.00  0.00     0.203 A 
HETATM    2  N1  UNL     1       1.740  -1.323   0.889  1.00  0.00    -0.120 NA
HETATM    3  N2  UNL     1       2.887  -0.853   1.371  1.00  0.00    -0.114 NA
HETATM    4  C10 UNL     1       2.785   0.480   1.461  1.00  0.00     0.231 A 
HETATM    5  O1  UNL     1       1.581   0.844   1.037  1.00  0.00    -0.263 OA
ENDROOT
BRANCH   1   6
HETATM    6  C8  UNL     1      -0.422  -0.318   0.163  1.00  0.00     0.019 A 
HETATM    7  C7  UNL     1      -1.166   0.831  -0.003  1.00  0.00     0.015 A 
HETATM    8  C6  UNL     1      -2.462   0.788  -0.498  1.00  0.00    -0.004 A 
HETATM    9  C5  UNL     1      -2.975  -0.451  -0.819  1.00  0.00    -0.102 A 
HETATM   10  C19 UNL     1      -2.284  -1.640  -0.678  1.00  0.00    -0.004 A 
HETATM   11  C18 UNL     1      -1.004  -1.496  -0.178  1.00  0.00     0.015 A 
BRANCH   9  12
HETATM   12  B1  UNL     1      -4.454  -0.409  -1.370  1.00  0.00     0.201 B 
HETATM   13  H10 UNL     1      -4.625  -1.135  -2.313  1.00  0.00    -0.020 HD
BRANCH  12  14
HETATM   14  C2  UNL     1      -5.672  -0.272  -0.353  1.00  0.00    -0.077 C 
HETATM   15  C1  UNL     1      -6.951  -0.526  -1.079  1.00  0.00     0.003 C 
HETATM   16  C3  UNL     1      -5.726   1.114   0.267  1.00  0.00     0.003 C 
HETATM   17  C4  UNL     1      -5.445  -1.274   0.767  1.00  0.00     0.003 C 
ENDBRANCH  12  14
ENDBRANCH   9  12
ENDBRANCH   1   6
BRANCH   4  18
HETATM   18  S1  UNL     1       3.967   1.689   2.028  1.00  0.00    -0.078 SA
BRANCH  18  19
HETATM   19  C11 UNL     1       5.029   2.292   0.694  1.00  0.00     0.121 C 
BRANCH  19  20
HETATM   20  C12 UNL     1       5.896   1.154   0.223  1.00  0.00    -0.049 A 
HETATM   21  C13 UNL     1       5.571   0.260  -0.774  1.00  0.00     0.008 A 
HETATM   22  C14 UNL     1       6.456  -0.742  -1.116  1.00  0.00     0.001 A 
HETATM   23  C15 UNL     1       7.670  -0.855  -0.463  1.00  0.00     0.000 A 
HETATM   24  C16 UNL     1       8.053   0.009   0.542  1.00  0.00     0.001 A 
HETATM   25  C17 UNL     1       7.134   1.004   0.857  1.00  0.00     0.008 A 
ENDBRANCH  19  20
ENDBRANCH  18  19
ENDBRANCH   4  18
TORSDOF 6
