REMARK  6 active torsions:
REMARK  status: ('A' for Active; 'I' for Inactive)
REMARK    1  A    between atoms: C2_2  and  P1_4 
REMARK    2  A    between atoms: C2_2  and  C4_5 
REMARK    3  A    between atoms: C7_8  and  C8_9 
REMARK    4  A    between atoms: C9_12  and  S1_13 
REMARK    5  A    between atoms: S1_13  and  C10_14 
REMARK    6  A    between atoms: C10_14  and  C11_15 
ROOT
HETATM    1  C8  UNL     1       0.314  -0.437  -0.862  1.00  0.00     0.203 A 
HETATM    2  N1  UNL     1      -0.167  -1.417  -1.612  1.00  0.00    -0.120 NA
HETATM    3  N2  UNL     1      -1.495  -1.279  -1.686  1.00  0.00    -0.114 NA
HETATM    4  C9  UNL     1      -1.804  -0.178  -0.952  1.00  0.00     0.231 A 
HETATM    5  O1  UNL     1      -0.685   0.337  -0.447  1.00  0.00    -0.263 OA
ENDROOT
BRANCH   1   6
HETATM    6  C7  UNL     1       1.721  -0.243  -0.546  1.00  0.00     0.019 A 
HETATM    7  C6  UNL     1       2.698  -1.111  -1.029  1.00  0.00     0.016 A 
HETATM    8  C5  UNL     1       4.051  -1.007  -0.782  1.00  0.00     0.009 A 
HETATM    9  C4  UNL     1       4.470   0.048   0.012  1.00  0.00    -0.046 A 
HETATM   10  C17 UNL     1       3.544   0.946   0.523  1.00  0.00     0.009 A 
HETATM   11  C16 UNL     1       2.185   0.792   0.240  1.00  0.00     0.016 A 
BRANCH   9  12
HETATM   12  C2  UNL     1       5.940   0.150   0.273  1.00  0.00    -0.003 C 
HETATM   13  C1  UNL     1       6.559   1.015  -0.831  1.00  0.00     0.025 C 
HETATM   14  C3  UNL     1       6.578  -1.218   0.117  1.00  0.00     0.025 C 
BRANCH  12  15
HETATM   15  P1  UNL     1       6.332   0.810   1.945  1.00  0.00    -0.128 P 
HETATM   16  H7  UNL     1       5.108   1.028   2.700  1.00  0.00     0.055 HD
HETATM   17  H8  UNL     1       7.258  -0.076   2.636  1.00  0.00     0.055 HD
ENDBRANCH  12  15
ENDBRANCH   9  12
ENDBRANCH   1   6
BRANCH   4  18
HETATM   18  S1  UNL     1      -3.535   0.258  -0.869  1.00  0.00    -0.077 SA
BRANCH  18  19
HETATM   19  C10 UNL     1      -4.386  -0.529   0.509  1.00  0.00     0.139 C 
BRANCH  19  20
HETATM   20  C11 UNL     1      -5.812  -0.101   0.485  1.00  0.00     0.015 A 
HETATM   21  C12 UNL     1      -6.774  -1.008   0.360  1.00  0.00     0.025 A 
HETATM   22  C13 UNL     1      -8.209  -0.752   0.320  1.00  0.00    -0.001 A 
HETATM   23  C14 UNL     1      -8.544   0.516   0.421  1.00  0.00    -0.007 A 
HETATM   24  C15 UNL     1      -7.619   1.653   0.566  1.00  0.00     0.147 A 
HETATM   25  N3  UNL     1      -6.230   1.233   0.588  1.00  0.00    -0.389 N 
HETATM   26  H18 UNL     1      -5.525   1.994   0.689  1.00  0.00     0.159 HD
ENDBRANCH  19  20
ENDBRANCH  18  19
ENDBRANCH   4  18
TORSDOF 6
