REMARK  3 active torsions:
REMARK  status: ('A' for Active; 'I' for Inactive)
REMARK    1  A    between atoms: O1_2  and  C2_3 
REMARK    2  A    between atoms: S1_11  and  C8_12 
REMARK    3  A    between atoms: C8_12  and  C9_13 
ROOT
HETATM    1  C2  UNL     1      -2.879  -0.960   0.323  1.00  0.00     0.163 C 
HETATM    2  C3  UNL     1      -3.656  -2.016  -0.317  1.00  0.00     0.079 C 
HETATM    3  C4  UNL     1      -3.211   0.449  -0.261  1.00  0.00     0.095 C 
HETATM    4  C5  UNL     1      -2.839   0.581  -1.664  1.00  0.00    -0.024 C 
HETATM    5  C6  UNL     1      -1.872   1.489  -1.973  1.00  0.00    -0.010 C 
HETATM    6  C7  UNL     1      -1.027   2.451  -1.275  1.00  0.00     0.169 C 
HETATM    7  N1  UNL     1       0.399   2.081  -1.387  1.00  0.00    -0.304 N 
HETATM    8  N2  UNL     1       0.958   1.095  -0.632  1.00  0.00    -0.154 NA
HETATM    9  S1  UNL     1       0.817  -0.529  -0.668  1.00  0.00    -0.054 SA
HETATM   10  C15 UNL     1      -0.892  -1.269  -0.878  1.00  0.00     0.260 C 
HETATM   11  O2  UNL     1      -1.490  -1.076   0.308  1.00  0.00    -0.344 OA
HETATM   12  H13 UNL     1       1.288   2.290  -1.874  1.00  0.00     0.183 HD
ENDROOT
BRANCH   9  13
HETATM   13  C8  UNL     1       1.851  -1.331   0.654  1.00  0.00     0.129 C 
BRANCH  13  14
HETATM   14  C9  UNL     1       3.151  -0.624   0.670  1.00  0.00    -0.048 A 
HETATM   15  C10 UNL     1       4.197  -1.060  -0.126  1.00  0.00     0.008 A 
HETATM   16  C11 UNL     1       5.458  -0.501  -0.213  1.00  0.00     0.001 A 
HETATM   17  C12 UNL     1       5.654   0.601   0.591  1.00  0.00     0.000 A 
HETATM   18  C13 UNL     1       4.653   1.085   1.406  1.00  0.00     0.001 A 
HETATM   19  C14 UNL     1       3.409   0.480   1.448  1.00  0.00     0.008 A 
ENDBRANCH  13  14
ENDBRANCH   9  13
BRANCH   1  20
HETATM   20  O1  UNL     1      -3.250  -0.854   1.658  1.00  0.00    -0.360 OA
HETATM   21  C1  UNL     1      -2.755   0.189   2.367  1.00  0.00     0.205 C 
ENDBRANCH   1  20
TORSDOF 3
