REMARK  6 active torsions:
REMARK  status: ('A' for Active; 'I' for Inactive)
REMARK    1  A    between atoms: O1_2  and  C2_3 
REMARK    2  A    between atoms: C4_5  and  O2_6 
REMARK    3  A    between atoms: O2_6  and  C5_7 
REMARK    4  A    between atoms: N1_10  and  C8_11 
REMARK    5  A    between atoms: C12_16  and  N2_17 
REMARK    6  A    between atoms: N2_17  and  C13_18 
ROOT
HETATM    1  C2  UNL     1      -0.030   3.855   0.446  1.00  0.00     0.073 A 
HETATM    2  C3  UNL     1       0.580   2.625   0.192  1.00  0.00     0.074 A 
HETATM    3  C4  UNL     1      -0.105   1.434   0.140  1.00  0.00     0.088 A 
HETATM    4  C11 UNL     1      -1.463   1.401   0.342  1.00  0.00     0.072 A 
HETATM    5  C12 UNL     1      -2.117   0.220   0.287  1.00  0.00     0.144 A 
HETATM    6  N3  UNL     1      -3.436   0.252   0.492  1.00  0.00    -0.223 NA
HETATM    7  C19 UNL     1      -4.073   1.394   0.739  1.00  0.00     0.236 A 
HETATM    8  N4  UNL     1      -3.410   2.557   0.790  1.00  0.00    -0.241 NA
HETATM    9  C20 UNL     1      -2.064   2.614   0.593  1.00  0.00     0.077 A 
HETATM   10  C21 UNL     1      -1.406   3.820   0.650  1.00  0.00     0.069 A 
ENDROOT
BRANCH   5  11
HETATM   11  N2  UNL     1      -1.527  -1.041   0.010  1.00  0.00    -0.340 N 
HETATM   12  H15 UNL     1      -0.606  -1.444  -0.240  1.00  0.00     0.167 HD
BRANCH  11  13
HETATM   13  C13 UNL     1      -2.302  -2.248   0.044  1.00  0.00     0.035 A 
HETATM   14  C14 UNL     1      -3.319  -2.370   0.999  1.00  0.00     0.032 A 
HETATM   15  C15 UNL     1      -4.127  -3.484   1.082  1.00  0.00     0.046 A 
HETATM   16  C16 UNL     1      -3.954  -4.541   0.205  1.00  0.00     0.138 A 
HETATM   17  F1  UNL     1      -4.721  -5.655   0.247  1.00  0.00    -0.204 F 
HETATM   18  C17 UNL     1      -2.976  -4.468  -0.743  1.00  0.00     0.074 A 
HETATM   19 CL1  UNL     1      -2.690  -5.759  -1.890  1.00  0.00    -0.081 Cl
HETATM   20  C18 UNL     1      -2.197  -3.360  -0.801  1.00  0.00     0.056 A 
ENDBRANCH  11  13
ENDBRANCH   5  11
BRANCH   3  21
HETATM   21  O2  UNL     1       0.620   0.330  -0.114  1.00  0.00    -0.345 OA
BRANCH  21  22
HETATM   22  C5  UNL     1       1.966   0.132  -0.344  1.00  0.00     0.132 C 
HETATM   23  C6  UNL     1       2.218  -0.492  -1.724  1.00  0.00     0.052 C 
HETATM   24  C7  UNL     1       3.700  -0.715  -1.915  1.00  0.00     0.127 C 
HETATM   25  N1  UNL     1       4.235  -1.372  -0.736  1.00  0.00    -0.359 N 
HETATM   26  C9  UNL     1       3.189  -1.982   0.071  1.00  0.00     0.127 C 
HETATM   27  C10 UNL     1       2.484  -0.818   0.743  1.00  0.00     0.052 C 
BRANCH  25  28
HETATM   28  C8  UNL     1       5.608  -1.437  -0.373  1.00  0.00     0.350 C 
HETATM   29  O3  UNL     1       6.124  -1.989   0.631  1.00  0.00    -0.284 OA
ENDBRANCH  25  28
ENDBRANCH  21  22
ENDBRANCH   3  21
BRANCH   1  30
HETATM   30  O1  UNL     1       0.627   5.064   0.503  1.00  0.00    -0.356 OA
HETATM   31  C1  UNL     1      -0.065   6.250   0.764  1.00  0.00     0.210 C 
ENDBRANCH   1  30
TORSDOF 6
