REMARK  5 active torsions:
REMARK  status: ('A' for Active; 'I' for Inactive)
REMARK    1  A    between atoms: O1_2  and  C2_3 
REMARK    2  A    between atoms: C6_7  and  C7_8 
REMARK    3  A    between atoms: C8_11  and  S1_12 
REMARK    4  A    between atoms: S1_12  and  C9_13 
REMARK    5  A    between atoms: C9_13  and  C10_14 
ROOT
HETATM    1  C7  UNL     1      -1.014   0.712   0.858  1.00  0.00     0.203 A 
HETATM    2  N1  UNL     1      -0.141   1.642   1.311  1.00  0.00    -0.120 NA
HETATM    3  N2  UNL     1       0.936   0.976   1.685  1.00  0.00    -0.114 NA
HETATM    4  C8  UNL     1       0.731  -0.326   1.468  1.00  0.00     0.231 A 
HETATM    5  O2  UNL     1      -0.470  -0.461   0.962  1.00  0.00    -0.263 OA
ENDROOT
BRANCH   1   6
HETATM    6  C6  UNL     1      -2.330   1.137   0.362  1.00  0.00     0.021 A 
HETATM    7  C5  UNL     1      -2.763   2.466   0.298  1.00  0.00     0.016 A 
HETATM    8  C4  UNL     1      -4.021   2.770  -0.176  1.00  0.00     0.004 A 
HETATM    9  C3  UNL     1      -4.879   1.763  -0.597  1.00  0.00     0.037 A 
HETATM   10  C2  UNL     1      -4.453   0.431  -0.536  1.00  0.00     0.069 A 
HETATM   11  C16 UNL     1      -3.182   0.144  -0.056  1.00  0.00     0.052 A 
BRANCH  10  12
HETATM   12  O1  UNL     1      -5.450  -0.414  -0.998  1.00  0.00    -0.356 OA
HETATM   13  C1  UNL     1      -5.243  -1.811  -1.028  1.00  0.00     0.210 C 
ENDBRANCH  10  12
ENDBRANCH   1   6
BRANCH   4  14
HETATM   14  S1  UNL     1       1.598  -1.897   1.665  1.00  0.00    -0.078 SA
BRANCH  14  15
HETATM   15  C9  UNL     1       2.535  -2.180   0.127  1.00  0.00     0.121 C 
BRANCH  15  16
HETATM   16  C10 UNL     1       3.598  -1.145   0.076  1.00  0.00    -0.049 A 
HETATM   17  C11 UNL     1       4.834  -1.486   0.642  1.00  0.00     0.008 A 
HETATM   18  C12 UNL     1       5.924  -0.653   0.685  1.00  0.00     0.001 A 
HETATM   19  C13 UNL     1       5.835   0.609   0.149  1.00  0.00     0.000 A 
HETATM   20  C14 UNL     1       4.619   0.977  -0.420  1.00  0.00     0.001 A 
HETATM   21  C15 UNL     1       3.538   0.126  -0.454  1.00  0.00     0.008 A 
ENDBRANCH  15  16
ENDBRANCH  14  15
ENDBRANCH   4  14
TORSDOF 5
