REMARK  2 active torsions:
REMARK  status: ('A' for Active; 'I' for Inactive)
REMARK    1  A    between atoms: O1_2  and  C2_3 
REMARK    2  A    between atoms: C7_8  and  C8_9 
ROOT
HETATM    1  C8  UNL     1       0.285   0.762   0.054  1.00  0.00     0.102 C 
HETATM    2  N1  UNL     1       0.319   1.950   0.609  1.00  0.00    -0.149 NA
HETATM    3  N2  UNL     1       1.257   2.719   1.305  1.00  0.00    -0.155 NA
HETATM    4  C9  UNL     1       2.475   2.573   1.702  1.00  0.00     0.186 C 
HETATM    5  S1  UNL     1       3.749   1.340   1.639  1.00  0.00    -0.116 SA
HETATM    6  C10 UNL     1       3.787   0.540   0.019  1.00  0.00     0.119 C 
HETATM    7  C11 UNL     1       2.644  -0.395  -0.087  1.00  0.00    -0.036 A 
HETATM    8  C12 UNL     1       3.203  -1.659  -0.236  1.00  0.00     0.009 A 
HETATM    9  C13 UNL     1       2.450  -2.805  -0.368  1.00  0.00     0.001 A 
HETATM   10  C14 UNL     1       1.066  -2.639  -0.345  1.00  0.00     0.001 A 
HETATM   11  C15 UNL     1       0.464  -1.414  -0.200  1.00  0.00     0.014 A 
HETATM   12  C16 UNL     1       1.271  -0.304  -0.072  1.00  0.00     0.002 A 
ENDROOT
BRANCH   1  13
HETATM   13  C7  UNL     1      -1.025   0.503  -0.544  1.00  0.00     0.029 A 
HETATM   14  C2  UNL     1      -2.230   0.455   0.167  1.00  0.00     0.080 A 
HETATM   15  C3  UNL     1      -3.422   0.212  -0.481  1.00  0.00     0.037 A 
HETATM   16  C4  UNL     1      -3.455   0.012  -1.838  1.00  0.00     0.003 A 
HETATM   17  C5  UNL     1      -2.311   0.044  -2.608  1.00  0.00     0.001 A 
HETATM   18  C6  UNL     1      -1.135   0.290  -1.929  1.00  0.00     0.017 A 
BRANCH  14  19
HETATM   19  O1  UNL     1      -2.148   0.662   1.537  1.00  0.00    -0.355 OA
HETATM   20  C1  UNL     1      -3.303   0.638   2.373  1.00  0.00     0.210 C 
ENDBRANCH  14  19
ENDBRANCH   1  13
TORSDOF 2
