REMARK  7 active torsions:
REMARK  status: ('A' for Active; 'I' for Inactive)
REMARK    1  A    between atoms: C2_2  and  C3_3 
REMARK    2  A    between atoms: C4_4  and  C5_5 
REMARK    3  A    between atoms: C6_6  and  C7_7 
REMARK    4  A    between atoms: C7_7  and  S1_8 
REMARK    5  A    between atoms: S1_8  and  C8_9 
REMARK    6  A    between atoms: C9_12  and  C10_13 
REMARK    7  A    between atoms: C15_18  and  O1_19 
ROOT
HETATM    1  C8  UNL     1      -0.227  -0.922  -0.569  1.00  0.00     0.231 A 
HETATM    2  N1  UNL     1       0.516  -2.062  -0.548  1.00  0.00    -0.114 NA
HETATM    3  N2  UNL     1      -0.158  -2.901   0.223  1.00  0.00    -0.120 NA
HETATM    4  C9  UNL     1      -1.278  -2.303   0.664  1.00  0.00     0.206 A 
HETATM    5  O2  UNL     1      -1.309  -1.082   0.168  1.00  0.00    -0.263 OA
ENDROOT
BRANCH   1   6
HETATM    6  S1  UNL     1      -0.085   0.687  -1.337  1.00  0.00    -0.079 SA
BRANCH   6   7
HETATM    7  C7  UNL     1       1.445   0.774  -2.319  1.00  0.00     0.110 C 
BRANCH   7   8
HETATM    8  C6  UNL     1       2.581   0.701  -1.382  1.00  0.00    -0.016 C 
HETATM    9  C5  UNL     1       3.517   1.605  -1.210  1.00  0.00    -0.003 C 
BRANCH   9  10
HETATM   10  C4  UNL     1       3.576   2.853  -1.940  1.00  0.00    -0.000 C 
HETATM   11  C3  UNL     1       4.543   3.746  -1.737  1.00  0.00    -0.001 C 
BRANCH  11  12
HETATM   12  C2  UNL     1       4.610   5.018  -2.474  1.00  0.00    -0.010 C 
HETATM   13  C1  UNL     1       5.574   5.894  -2.268  1.00  0.00     0.011 C 
ENDBRANCH  11  12
ENDBRANCH   9  10
ENDBRANCH   7   8
ENDBRANCH   6   7
ENDBRANCH   1   6
BRANCH   4  14
HETATM   14  C10 UNL     1      -2.271  -2.938   1.548  1.00  0.00     0.052 A 
HETATM   15  C11 UNL     1      -2.156  -4.233   2.021  1.00  0.00     0.019 A 
HETATM   16  C12 UNL     1      -3.107  -4.795   2.846  1.00  0.00     0.001 A 
HETATM   17  C13 UNL     1      -4.217  -4.070   3.227  1.00  0.00     0.003 A 
HETATM   18  C14 UNL     1      -4.368  -2.765   2.772  1.00  0.00     0.038 A 
HETATM   19  C15 UNL     1      -3.397  -2.201   1.934  1.00  0.00     0.082 A 
BRANCH  19  20
HETATM   20  O1  UNL     1      -3.493  -0.905   1.448  1.00  0.00    -0.355 OA
HETATM   21  C16 UNL     1      -4.623  -0.144   1.827  1.00  0.00     0.210 C 
ENDBRANCH  19  20
ENDBRANCH   4  14
TORSDOF 7
