REMARK  3 active torsions:
REMARK  status: ('A' for Active; 'I' for Inactive)
REMARK    1  A    between atoms: B1_2  and  C2_3 
REMARK    2  A    between atoms: C2_3  and  C3_4 
REMARK    3  A    between atoms: C4_5  and  C5_6 
ROOT
HETATM    1  C5  UNL     1      -0.368  -0.507  -1.125  1.00  0.00     0.049 C 
HETATM    2  C6  UNL     1      -0.780   0.476  -2.119  1.00  0.00     0.101 C 
HETATM    3  C7  UNL     1      -0.951   1.883  -1.703  1.00  0.00     0.171 A 
HETATM    4  N1  UNL     1      -0.714   3.220  -1.620  1.00  0.00    -0.126 NA
HETATM    5  N2  UNL     1      -1.665   3.648  -0.792  1.00  0.00    -0.114 NA
HETATM    6  C8  UNL     1      -2.420   2.602  -0.413  1.00  0.00     0.231 A 
HETATM    7  O1  UNL     1      -1.948   1.568  -0.988  1.00  0.00    -0.268 OA
HETATM    8  S1  UNL     1      -3.729   1.664   0.419  1.00  0.00    -0.078 SA
HETATM    9  C9  UNL     1      -3.720  -0.096  -0.057  1.00  0.00     0.122 C 
HETATM   10  C10 UNL     1      -2.510  -0.815   0.441  1.00  0.00    -0.042 A 
HETATM   11  C11 UNL     1      -2.861  -1.473   1.603  1.00  0.00     0.008 A 
HETATM   12  C12 UNL     1      -2.018  -2.262   2.355  1.00  0.00     0.001 A 
HETATM   13  C13 UNL     1      -0.711  -2.437   1.954  1.00  0.00     0.001 A 
HETATM   14  C14 UNL     1      -0.388  -1.755   0.771  1.00  0.00     0.008 A 
HETATM   15  C15 UNL     1      -1.211  -0.936  -0.035  1.00  0.00    -0.043 A 
ENDROOT
BRANCH   1  16
HETATM   16  C4  UNL     1       0.943   0.017  -0.549  1.00  0.00    -0.022 C 
HETATM   17  C3  UNL     1       1.394   0.360   0.652  1.00  0.00    -0.040 C 
BRANCH  17  18
HETATM   18  C2  UNL     1       2.755   0.864   0.996  1.00  0.00    -0.028 C 
BRANCH  18  19
HETATM   19  B1  UNL     1       3.702   0.969  -0.276  1.00  0.00     0.155 B 
HETATM   20  C1  UNL     1       4.902  -0.037  -0.499  1.00  0.00    -0.059 C 
HETATM   21  H4  UNL     1       3.636   1.969  -0.896  1.00  0.00    -0.026 HD
ENDBRANCH  18  19
ENDBRANCH  17  18
ENDBRANCH   1  16
TORSDOF 3
