REMARK  8 active torsions:
REMARK  status: ('A' for Active; 'I' for Inactive)
REMARK    1  A    between atoms: O1_2  and  C2_3 
REMARK    2  A    between atoms: C7_8  and  C8_9 
REMARK    3  A    between atoms: C8_9  and  O2_10 
REMARK    4  A    between atoms: N1_11  and  N2_12 
REMARK    5  A    between atoms: N2_12  and  C9_13 
REMARK    6  A    between atoms: C9_13  and  S1_14 
REMARK    7  A    between atoms: S1_14  and  C10_15 
REMARK    8  A    between atoms: C10_15  and  C11_16 
ROOT
HETATM    1  C8  UNL     1      -1.825   1.440  -0.093  1.00  0.00     0.187 C 
HETATM    2  N1  UNL     1      -1.043   0.484  -0.527  1.00  0.00    -0.182 NA
ENDROOT
BRANCH   1   3
HETATM    3  C7  UNL     1      -3.272   1.266   0.022  1.00  0.00     0.051 A 
HETATM    4  C2  UNL     1      -3.884   0.076  -0.325  1.00  0.00     0.082 A 
HETATM    5  C3  UNL     1      -5.249  -0.103  -0.222  1.00  0.00     0.038 A 
HETATM    6  C4  UNL     1      -6.066   0.898   0.232  1.00  0.00     0.003 A 
HETATM    7  C5  UNL     1      -5.484   2.087   0.583  1.00  0.00     0.001 A 
HETATM    8  C6  UNL     1      -4.121   2.258   0.477  1.00  0.00     0.018 A 
BRANCH   4   9
HETATM    9  O1  UNL     1      -3.153  -0.998  -0.795  1.00  0.00    -0.355 OA
HETATM   10  C1  UNL     1      -3.726  -2.235  -1.163  1.00  0.00     0.210 C 
ENDBRANCH   4   9
ENDBRANCH   1   3
BRANCH   1  11
HETATM   11  O2  UNL     1      -1.318   2.675   0.283  1.00  0.00    -0.343 OA
HETATM   12  H8  UNL     1      -0.340   2.855   0.011  1.00  0.00     0.219 HD
ENDBRANCH   1  11
BRANCH   2  13
HETATM   13  N2  UNL     1       0.328   0.751  -0.600  1.00  0.00    -0.220 NA
BRANCH  13  14
HETATM   14  C9  UNL     1       1.127  -0.257  -0.705  1.00  0.00     0.348 C 
BRANCH  14  15
HETATM   15  S1  UNL     1       1.846  -1.898  -0.841  1.00  0.00    -0.139 SA
BRANCH  15  16
HETATM   16  C10 UNL     1       3.036  -2.101   0.490  1.00  0.00     0.114 C 
BRANCH  16  17
HETATM   17  C11 UNL     1       4.171  -1.163   0.277  1.00  0.00    -0.049 A 
HETATM   18  C12 UNL     1       4.153   0.111   0.803  1.00  0.00     0.008 A 
HETATM   19  C13 UNL     1       5.193   1.013   0.626  1.00  0.00     0.001 A 
HETATM   20  C14 UNL     1       6.307   0.649  -0.103  1.00  0.00     0.000 A 
HETATM   21  C15 UNL     1       6.344  -0.633  -0.641  1.00  0.00     0.001 A 
HETATM   22  C16 UNL     1       5.294  -1.491  -0.442  1.00  0.00     0.008 A 
ENDBRANCH  16  17
ENDBRANCH  15  16
ENDBRANCH  14  15
ENDBRANCH  13  14
ENDBRANCH   2  13
TORSDOF 8
