REMARK  5 active torsions:
REMARK  status: ('A' for Active; 'I' for Inactive)
REMARK    1  A    between atoms: C1_2  and  O1_3 
REMARK    2  A    between atoms: O1_3  and  C2_4 
REMARK    3  A    between atoms: C8_12  and  S2_13 
REMARK    4  A    between atoms: S2_13  and  C9_14 
REMARK    5  A    between atoms: C9_14  and  C10_15 
ROOT
HETATM    1  C2  UNL     1      -4.002  -0.081  -0.241  1.00  0.00     0.116 C 
HETATM    2  C3  UNL     1      -4.524   0.354   0.910  1.00  0.00     0.022 C 
HETATM    3  C4  UNL     1      -3.863   1.485   1.620  1.00  0.00     0.058 C 
HETATM    4  C5  UNL     1      -3.676   2.614   0.658  1.00  0.00    -0.015 C 
HETATM    5  C6  UNL     1      -3.077   2.463  -0.538  1.00  0.00     0.051 C 
HETATM    6  S1  UNL     1      -2.561   0.762  -0.788  1.00  0.00    -0.057 SA
HETATM    7  C7  UNL     1      -1.634   0.294  -2.148  1.00  0.00     0.264 C 
HETATM    8  O2  UNL     1      -0.314   0.589  -1.728  1.00  0.00    -0.318 OA
HETATM    9  C8  UNL     1      -0.181   0.365  -0.365  1.00  0.00     0.211 C 
HETATM   10  N2  UNL     1      -1.138   0.368   0.501  1.00  0.00    -0.194 NA
ENDROOT
BRANCH   1  11
HETATM   11  O1  UNL     1      -4.461  -1.112  -1.052  1.00  0.00    -0.298 OA
BRANCH  11  12
HETATM   12  C1  UNL     1      -4.575  -2.383  -0.504  1.00  0.00     0.250 C 
HETATM   13  N1  UNL     1      -3.362  -2.700  -0.175  1.00  0.00    -0.289 NA
HETATM   14  H1  UNL     1      -3.075  -3.591   0.267  1.00  0.00     0.188 HD
ENDBRANCH  11  12
ENDBRANCH   1  11
BRANCH   9  15
HETATM   15  S2  UNL     1       1.407   0.025   0.418  1.00  0.00    -0.080 SA
BRANCH  15  16
HETATM   16  C9  UNL     1       2.736   0.022  -0.787  1.00  0.00     0.121 C 
BRANCH  16  17
HETATM   17  C10 UNL     1       4.013  -0.264  -0.073  1.00  0.00    -0.049 A 
HETATM   18  C11 UNL     1       4.466  -1.553   0.096  1.00  0.00     0.008 A 
HETATM   19  C12 UNL     1       5.641  -1.855   0.751  1.00  0.00     0.001 A 
HETATM   20  C13 UNL     1       6.410  -0.822   1.267  1.00  0.00     0.000 A 
HETATM   21  C14 UNL     1       5.992   0.484   1.119  1.00  0.00     0.001 A 
HETATM   22  C15 UNL     1       4.805   0.739   0.453  1.00  0.00     0.008 A 
ENDBRANCH  16  17
ENDBRANCH  15  16
ENDBRANCH   9  15
TORSDOF 5
