REMARK  6 active torsions:
REMARK  status: ('A' for Active; 'I' for Inactive)
REMARK    1  A    between atoms: C4_5  and  N2_6 
REMARK    2  A    between atoms: N2_6  and  C5_7 
REMARK    3  A    between atoms: C5_7  and  C6_8 
REMARK    4  A    between atoms: C7_9  and  C8_11 
REMARK    5  A    between atoms: C11_15  and  O1_16 
REMARK    6  A    between atoms: O1_16  and  C12_17 
ROOT
HETATM    1  C1  UNL     1       0.995   3.733  -1.186  1.00  0.00     0.047 C 
HETATM    2  C2  UNL     1      -0.028   3.071  -0.282  1.00  0.00    -0.044 C 
HETATM    3  C3  UNL     1       0.376   2.059   0.512  1.00  0.00     0.089 C 
HETATM    4  N1  UNL     1       0.152   1.053   1.486  1.00  0.00    -0.367 N 
HETATM    5  C4  UNL     1       0.279  -0.375   1.108  1.00  0.00     0.345 C 
HETATM    6  C10 UNL     1      -0.575  -0.750  -0.031  1.00  0.00     0.062 C 
HETATM    7  C11 UNL     1      -1.280  -1.313  -0.994  1.00  0.00     0.058 C 
HETATM    8  C17 UNL     1      -2.165  -0.723  -2.079  1.00  0.00     0.160 C 
HETATM    9  C18 UNL     1      -2.174   0.689  -1.845  1.00  0.00    -0.077 C 
HETATM   10  C19 UNL     1      -2.187   1.823  -1.637  1.00  0.00     0.009 C 
HETATM   11  N3  UNL     1      -2.222   3.132  -1.386  1.00  0.00    -0.329 N 
HETATM   12  C20 UNL     1      -3.097   4.091  -2.015  1.00  0.00     0.163 C 
HETATM   13  C21 UNL     1      -3.526   5.111  -0.969  1.00  0.00     0.290 C 
HETATM   14  N4  UNL     1      -2.410   5.915  -0.537  1.00  0.00     0.087 N 
HETATM   15  C22 UNL     1      -1.159   5.190  -0.615  1.00  0.00     0.300 C 
HETATM   16  C23 UNL     1      -1.350   3.694  -0.411  1.00  0.00     0.151 C 
HETATM   17  H5  UNL     1      -0.086   1.545   2.382  1.00  0.00     0.161 HD
HETATM   18  H31 UNL     1      -2.567   6.169   0.462  1.00  0.00     0.316 HD
ENDROOT
BRANCH   5  19
HETATM   19  N2  UNL     1       1.665  -0.572   0.747  1.00  0.00     0.111 N 
HETATM   20  H7  UNL     1       1.811  -1.530   0.349  1.00  0.00     0.319 HD
BRANCH  19  21
HETATM   21  C5  UNL     1       2.583  -0.316   1.849  1.00  0.00     0.297 C 
BRANCH  21  22
HETATM   22  C6  UNL     1       3.923  -0.551   1.326  1.00  0.00     0.141 A 
HETATM   23  C7  UNL     1       5.068  -0.773   0.801  1.00  0.00     0.027 A 
HETATM   24 CL1  UNL     1       4.121  -1.102  -0.630  1.00  0.00    -0.176 Cl
BRANCH  23  25
HETATM   25  C8  UNL     1       6.459  -0.957   0.479  1.00  0.00     0.207 C 
HETATM   26  C9  UNL     1       6.713  -2.380  -0.011  1.00  0.00     0.051 C 
HETATM   27  F1  UNL     1       6.887  -0.059  -0.507  1.00  0.00    -0.244 F 
ENDBRANCH  23  25
ENDBRANCH  21  22
ENDBRANCH  19  21
ENDBRANCH   5  19
BRANCH   7  28
HETATM   28  O1  UNL     1      -0.949  -2.601  -0.691  1.00  0.00    -0.349 OA
BRANCH  28  29
HETATM   29  C12 UNL     1      -1.392  -3.412   0.344  1.00  0.00     0.132 C 
HETATM   30  C13 UNL     1      -0.889  -4.829   0.289  1.00  0.00     0.058 C 
HETATM   31  C14 UNL     1      -1.871  -5.809  -0.270  1.00  0.00     0.170 C 
HETATM   32  O2  UNL     1      -3.050  -5.687   0.478  1.00  0.00    -0.391 OA
HETATM   33  C15 UNL     1      -3.652  -4.510   0.093  1.00  0.00     0.170 C 
HETATM   34  C16 UNL     1      -2.863  -3.293   0.522  1.00  0.00     0.058 C 
ENDBRANCH  28  29
ENDBRANCH   7  28
TORSDOF 6
