REMARK  6 active torsions:
REMARK  status: ('A' for Active; 'I' for Inactive)
REMARK    1  A    between atoms: N1_1  and  C1_2 
REMARK    2  A    between atoms: C6_7  and  C7_8 
REMARK    3  A    between atoms: C8_11  and  S1_12 
REMARK    4  A    between atoms: S1_12  and  C9_13 
REMARK    5  A    between atoms: C9_13  and  C10_14 
REMARK    6  A    between atoms: C10_14  and  C11_15 
ROOT
HETATM    1  C7  UNL     1      -2.379   1.295  -0.192  1.00  0.00     0.205 A 
HETATM    2  N2  UNL     1      -1.747   2.268  -0.903  1.00  0.00    -0.120 NA
HETATM    3  N3  UNL     1      -0.616   2.568  -0.290  1.00  0.00    -0.114 NA
HETATM    4  C8  UNL     1      -0.513   1.800   0.804  1.00  0.00     0.231 A 
HETATM    5  O1  UNL     1      -1.579   1.067   0.817  1.00  0.00    -0.263 OA
ENDROOT
BRANCH   1   6
HETATM    6  C6  UNL     1      -3.669   0.627  -0.466  1.00  0.00     0.045 A 
HETATM    7  C1  UNL     1      -4.109  -0.343   0.412  1.00  0.00     0.040 A 
HETATM    8  C2  UNL     1      -5.332  -0.946   0.114  1.00  0.00     0.030 A 
HETATM    9  C3  UNL     1      -6.051  -0.579  -1.007  1.00  0.00     0.002 A 
HETATM   10  C4  UNL     1      -5.547   0.403  -1.842  1.00  0.00     0.001 A 
HETATM   11  C5  UNL     1      -4.343   1.033  -1.595  1.00  0.00     0.018 A 
BRANCH   7  12
HETATM   12  N1  UNL     1      -3.300  -0.654   1.539  1.00  0.00    -0.398 N 
HETATM   13  H1  UNL     1      -2.737  -1.466   1.837  1.00  0.00     0.156 HD
HETATM   14  H2  UNL     1      -3.144  -0.002   2.335  1.00  0.00     0.156 HD
ENDBRANCH   7  12
ENDBRANCH   1   6
BRANCH   4  15
HETATM   15  S1  UNL     1       0.665   1.577   2.144  1.00  0.00    -0.082 SA
BRANCH  15  16
HETATM   16  C9  UNL     1       1.873   0.310   1.659  1.00  0.00     0.087 C 
BRANCH  16  17
HETATM   17  C10 UNL     1       2.666   0.885   0.503  1.00  0.00     0.049 C 
BRANCH  17  18
HETATM   18  C11 UNL     1       3.694  -0.071   0.017  1.00  0.00    -0.057 A 
HETATM   19  C12 UNL     1       4.948  -0.003   0.607  1.00  0.00     0.007 A 
HETATM   20  C13 UNL     1       5.979  -0.862   0.216  1.00  0.00     0.001 A 
HETATM   21  C14 UNL     1       5.717  -1.796  -0.789  1.00  0.00     0.000 A 
HETATM   22  C15 UNL     1       4.479  -1.882  -1.390  1.00  0.00     0.001 A 
HETATM   23  C16 UNL     1       3.511  -1.006  -0.955  1.00  0.00     0.007 A 
ENDBRANCH  17  18
ENDBRANCH  16  17
ENDBRANCH  15  16
ENDBRANCH   4  15
TORSDOF 6
