REMARK  7 active torsions:
REMARK  status: ('A' for Active; 'I' for Inactive)
REMARK    1  A    between atoms: C1_2  and  C2_3 
REMARK    2  A    between atoms: C2_3  and  O1_4 
REMARK    3  A    between atoms: O1_4  and  C3_5 
REMARK    4  A    between atoms: C8_10  and  N2_11 
REMARK    5  A    between atoms: C9_12  and  O2_13 
REMARK    6  A    between atoms: S1_14  and  C10_15 
REMARK    7  A    between atoms: C10_15  and  C11_16 
ROOT
HETATM    1  N2  UNL     1      -0.309  -1.260   0.835  1.00  0.00    -0.258 N 
HETATM    2  C9  UNL     1       0.915  -1.430   0.547  1.00  0.00     0.203 A 
HETATM    3  S1  UNL     1       0.980  -0.283   1.912  1.00  0.00    -0.036 SA
ENDROOT
BRANCH   1   4
HETATM    4  C8  UNL     1      -1.433  -1.832   0.231  1.00  0.00     0.081 A 
HETATM    5  C3  UNL     1      -2.535  -1.020  -0.065  1.00  0.00     0.097 A 
HETATM    6  C4  UNL     1      -3.661  -1.580  -0.668  1.00  0.00     0.039 A 
HETATM    7  C5  UNL     1      -3.740  -2.920  -0.992  1.00  0.00     0.003 A 
HETATM    8  C6  UNL     1      -2.654  -3.735  -0.704  1.00  0.00     0.002 A 
HETATM    9  C7  UNL     1      -1.558  -3.145  -0.107  1.00  0.00     0.033 A 
BRANCH   5  10
HETATM   10  O1  UNL     1      -2.520   0.347   0.237  1.00  0.00    -0.344 OA
BRANCH  10  11
HETATM   11  C2  UNL     1      -3.648   1.144  -0.073  1.00  0.00     0.222 C 
BRANCH  11  12
HETATM   12  C1  UNL     1      -3.428   2.561   0.327  1.00  0.00     0.106 C 
HETATM   13  N1  UNL     1      -3.763   3.668  -0.194  1.00  0.00    -0.314 NA
HETATM   14  H1  UNL     1      -4.298   3.706  -1.072  1.00  0.00     0.185 HD
ENDBRANCH  11  12
ENDBRANCH  10  11
ENDBRANCH   5  10
ENDBRANCH   1   4
BRANCH   2  15
HETATM   15  O2  UNL     1       0.947  -2.333  -0.534  1.00  0.00    -0.339 OA
HETATM   16  H9  UNL     1       0.710  -1.962  -1.463  1.00  0.00     0.220 HD
ENDBRANCH   2  15
BRANCH   3  17
HETATM   17  C10 UNL     1       2.714   0.119   2.267  1.00  0.00     0.132 C 
BRANCH  17  18
HETATM   18  C11 UNL     1       3.351   0.866   1.166  1.00  0.00    -0.048 A 
HETATM   19  C12 UNL     1       3.377   2.240   1.038  1.00  0.00     0.008 A 
HETATM   20  C13 UNL     1       3.981   2.908  -0.003  1.00  0.00     0.001 A 
HETATM   21  C14 UNL     1       4.612   2.198  -1.002  1.00  0.00     0.000 A 
HETATM   22  C15 UNL     1       4.605   0.817  -0.905  1.00  0.00     0.001 A 
HETATM   23  C16 UNL     1       3.994   0.165   0.145  1.00  0.00     0.008 A 
ENDBRANCH  17  18
ENDBRANCH   3  17
TORSDOF 7
