REMARK  7 active torsions:
REMARK  status: ('A' for Active; 'I' for Inactive)
REMARK    1  A    between atoms: N1_1  and  C1_2 
REMARK    2  A    between atoms: C6_7  and  C7_8 
REMARK    3  A    between atoms: C8_11  and  S1_12 
REMARK    4  A    between atoms: S1_12  and  C9_13 
REMARK    5  A    between atoms: C9_13  and  C10_14 
REMARK    6  A    between atoms: C11_15  and  C12_16 
REMARK    7  A    between atoms: C13_17  and  C14_18 
ROOT
HETATM    1  C7  UNL     1      -2.403   0.498  -0.415  1.00  0.00     0.205 A 
HETATM    2  N2  UNL     1      -1.636   1.615  -0.577  1.00  0.00    -0.120 NA
HETATM    3  N3  UNL     1      -0.450   1.172  -0.976  1.00  0.00    -0.114 NA
HETATM    4  C8  UNL     1      -0.481  -0.177  -1.059  1.00  0.00     0.231 A 
HETATM    5  O1  UNL     1      -1.698  -0.568  -0.707  1.00  0.00    -0.263 OA
ENDROOT
BRANCH   1   6
HETATM    6  C6  UNL     1      -3.812   0.487   0.023  1.00  0.00     0.045 A 
HETATM    7  C1  UNL     1      -4.523  -0.701   0.162  1.00  0.00     0.040 A 
HETATM    8  C2  UNL     1      -5.848  -0.672   0.576  1.00  0.00     0.030 A 
HETATM    9  C3  UNL     1      -6.406   0.556   0.832  1.00  0.00     0.002 A 
HETATM   10  C4  UNL     1      -5.775   1.772   0.720  1.00  0.00     0.001 A 
HETATM   11  C5  UNL     1      -4.444   1.683   0.300  1.00  0.00     0.018 A 
BRANCH   7  12
HETATM   12  N1  UNL     1      -3.866  -1.927  -0.125  1.00  0.00    -0.398 N 
HETATM   13  H1  UNL     1      -3.604  -2.311   0.791  1.00  0.00     0.156 HD
HETATM   14  H2  UNL     1      -3.799  -2.154  -1.147  1.00  0.00     0.156 HD
ENDBRANCH   7  12
ENDBRANCH   1   6
BRANCH   4  15
HETATM   15  S1  UNL     1       0.908  -1.209  -1.561  1.00  0.00    -0.079 SA
BRANCH  15  16
HETATM   16  C9  UNL     1       2.294  -0.071  -1.911  1.00  0.00     0.110 C 
BRANCH  16  17
HETATM   17  C10 UNL     1       2.653   0.542  -0.617  1.00  0.00    -0.016 C 
HETATM   18  C11 UNL     1       3.800   0.505   0.036  1.00  0.00    -0.003 C 
BRANCH  18  19
HETATM   19  C12 UNL     1       4.955  -0.211  -0.490  1.00  0.00    -0.002 C 
HETATM   20  C13 UNL     1       6.112  -0.241   0.182  1.00  0.00     0.004 C 
BRANCH  20  21
HETATM   21  C14 UNL     1       7.310  -0.969  -0.338  1.00  0.00     0.249 C 
HETATM   22  F1  UNL     1       7.697  -1.956   0.555  1.00  0.00    -0.251 F 
ENDBRANCH  20  21
ENDBRANCH  18  19
ENDBRANCH  16  17
ENDBRANCH  15  16
ENDBRANCH   4  15
TORSDOF 7
