REMARK  5 active torsions:
REMARK  status: ('A' for Active; 'I' for Inactive)
REMARK    1  A    between atoms: N1_1  and  C1_2 
REMARK    2  A    between atoms: C6_7  and  C7_8 
REMARK    3  A    between atoms: S1_11  and  C8_12 
REMARK    4  A    between atoms: C8_12  and  S2_13 
REMARK    5  A    between atoms: S2_13  and  C9_14 
ROOT
HETATM    1  C7  UNL     1       2.248   0.450   0.559  1.00  0.00     0.206 A 
HETATM    2  N2  UNL     1       1.953   1.450  -0.116  1.00  0.00    -0.141 NA
HETATM    3  N3  UNL     1       0.771   2.175   0.239  1.00  0.00    -0.023 NA
HETATM    4  S1  UNL     1       0.162   1.337   1.550  1.00  0.00     0.044 SA
HETATM    5  O1  UNL     1       1.464   0.040   1.624  1.00  0.00    -0.250 OA
ENDROOT
BRANCH   1   6
HETATM    6  C6  UNL     1       3.466  -0.264   0.163  1.00  0.00     0.045 A 
HETATM    7  C1  UNL     1       4.531   0.262  -0.557  1.00  0.00     0.040 A 
HETATM    8  C2  UNL     1       5.651  -0.457  -0.900  1.00  0.00     0.030 A 
HETATM    9  C3  UNL     1       5.770  -1.762  -0.537  1.00  0.00     0.002 A 
HETATM   10  C4  UNL     1       4.729  -2.310   0.177  1.00  0.00     0.001 A 
HETATM   11  C5  UNL     1       3.609  -1.591   0.520  1.00  0.00     0.018 A 
BRANCH   7  12
HETATM   12  N1  UNL     1       4.417   1.627  -0.943  1.00  0.00    -0.398 N 
HETATM   13  H1  UNL     1       4.207   1.629  -1.967  1.00  0.00     0.156 HD
HETATM   14  H2  UNL     1       4.452   2.622  -0.645  1.00  0.00     0.156 HD
ENDBRANCH   7  12
ENDBRANCH   1   6
BRANCH   4  15
HETATM   15  C8  UNL     1      -1.275   1.580   2.575  1.00  0.00     0.187 C 
BRANCH  15  16
HETATM   16  S2  UNL     1      -2.392   0.151   2.505  1.00  0.00    -0.143 SA
BRANCH  16  17
HETATM   17  C9  UNL     1      -3.111  -0.018   0.832  1.00  0.00     0.093 C 
HETATM   18  C10 UNL     1      -3.998   1.104   0.522  1.00  0.00    -0.008 C 
HETATM   19  C11 UNL     1      -4.928   1.296  -0.401  1.00  0.00    -0.003 C 
HETATM   20  C12 UNL     1      -5.236   0.266  -1.370  1.00  0.00    -0.000 C 
HETATM   21  C13 UNL     1      -5.103  -1.072  -1.368  1.00  0.00    -0.000 C 
HETATM   22  C14 UNL     1      -4.544  -1.767  -0.207  1.00  0.00    -0.003 C 
HETATM   23  C15 UNL     1      -3.704  -1.352   0.737  1.00  0.00    -0.008 C 
ENDBRANCH  16  17
ENDBRANCH  15  16
ENDBRANCH   4  15
TORSDOF 5
