REMARK  0 active torsions:
REMARK  status: ('A' for Active; 'I' for Inactive)
ROOT
HETATM    1  C1  UNL     1      -0.312  -0.240  -2.369  1.00  0.00     0.045 C 
HETATM    2  C2  UNL     1      -0.312  -1.053  -1.163  1.00  0.00    -0.060 C 
HETATM    3  C3  UNL     1       0.823  -1.783  -0.999  1.00  0.00    -0.006 A 
HETATM    4  C4  UNL     1       1.730  -2.714  -0.374  1.00  0.00     0.023 A 
HETATM    5  C5  UNL     1       2.857  -2.487  -0.960  1.00  0.00     0.036 A 
HETATM    6  S1  UNL     1       2.200  -1.252  -1.961  1.00  0.00    -0.142 SA
HETATM    7  C6  UNL     1       2.432   0.444  -1.579  1.00  0.00     0.219 A 
HETATM    8  N1  UNL     1       3.373   1.346  -1.906  1.00  0.00    -0.115 NA
HETATM    9  N2  UNL     1       2.974   2.472  -1.301  1.00  0.00    -0.114 NA
HETATM   10  C7  UNL     1       1.831   2.236  -0.638  1.00  0.00     0.232 A 
HETATM   11  O1  UNL     1       1.521   0.996  -0.819  1.00  0.00    -0.259 OA
HETATM   12  S2  UNL     1       0.721   3.202   0.365  1.00  0.00    -0.078 SA
HETATM   13  C8  UNL     1      -0.967   2.506   0.386  1.00  0.00     0.122 C 
HETATM   14  C9  UNL     1      -0.927   1.241   1.187  1.00  0.00    -0.042 A 
HETATM   15  C10 UNL     1      -0.655   1.741   2.476  1.00  0.00     0.008 A 
HETATM   16  C11 UNL     1      -0.511   0.995   3.658  1.00  0.00     0.001 A 
HETATM   17  C12 UNL     1      -0.659  -0.390   3.505  1.00  0.00     0.001 A 
HETATM   18  C13 UNL     1      -0.928  -0.819   2.199  1.00  0.00     0.008 A 
HETATM   19  C14 UNL     1      -1.075  -0.085   0.999  1.00  0.00    -0.043 A 
HETATM   20  C15 UNL     1      -1.322  -1.029  -0.077  1.00  0.00     0.045 C 
HETATM   21  C16 UNL     1      -2.675  -0.578  -0.689  1.00  0.00     0.020 C 
HETATM   22  H6  UNL     1       2.171  -1.624  -3.532  1.00  0.00     0.099 HD
ENDROOT
TORSDOF 0
