REMARK  8 active torsions:
REMARK  status: ('A' for Active; 'I' for Inactive)
REMARK    1  A    between atoms: C4_5  and  O1_6 
REMARK    2  A    between atoms: O1_6  and  C5_7 
REMARK    3  A    between atoms: C5_7  and  C6_8 
REMARK    4  A    between atoms: C11_14  and  N3_15 
REMARK    5  A    between atoms: N3_15  and  C12_16 
REMARK    6  A    between atoms: C13_17  and  C14_18 
REMARK    7  A    between atoms: C15_19  and  N4_20 
REMARK    8  A    between atoms: C15_19  and  C16_21 
ROOT
HETATM    1  C6  UNL     1      -0.218  -0.000  -0.523  1.00  0.00    -0.004 C 
HETATM    2  C7  UNL     1      -0.267  -0.589  -1.705  1.00  0.00     0.014 C 
HETATM    3  C8  UNL     1       0.860  -0.823  -2.582  1.00  0.00     0.034 C 
HETATM    4  C9  UNL     1       1.938  -0.112  -2.345  1.00  0.00     0.086 C 
HETATM    5  N2  UNL     1       2.249   0.128  -1.118  1.00  0.00    -0.245 NA
HETATM    6  C10 UNL     1       1.178   0.402  -0.187  1.00  0.00     0.081 C 
HETATM    7  C11 UNL     1       1.633   1.020   0.916  1.00  0.00     0.119 C 
ENDROOT
BRANCH   1   8
HETATM    8  C5  UNL     1      -1.083   0.400   0.600  1.00  0.00     0.209 C 
BRANCH   8   9
HETATM    9  O1  UNL     1      -2.408   0.121   0.494  1.00  0.00    -0.381 OA
BRANCH   9  10
HETATM   10  C4  UNL     1      -3.102   0.690  -0.540  1.00  0.00     0.125 C 
HETATM   11  C3  UNL     1      -4.117   1.640   0.172  1.00  0.00     0.062 C 
HETATM   12  C2  UNL     1      -5.232   0.835   0.767  1.00  0.00     0.274 C 
HETATM   13  N1  UNL     1      -4.897  -0.531   1.041  1.00  0.00     0.084 N 
HETATM   14  C1  UNL     1      -6.091  -1.195   1.530  1.00  0.00     0.309 C 
HETATM   15  C18 UNL     1      -4.376  -1.291  -0.045  1.00  0.00     0.274 C 
HETATM   16  C17 UNL     1      -4.016  -0.335  -1.164  1.00  0.00     0.062 C 
ENDBRANCH   9  10
ENDBRANCH   8   9
ENDBRANCH   1   8
BRANCH   7  17
HETATM   17  N3  UNL     1       3.000   1.389   1.194  1.00  0.00    -0.373 N 
HETATM   18  H14 UNL     1       3.364   1.242   2.158  1.00  0.00     0.164 HD
BRANCH  17  19
HETATM   19  C12 UNL     1       3.659   1.917   0.049  1.00  0.00     0.088 C 
HETATM   20  C13 UNL     1       4.737   1.217  -0.270  1.00  0.00     0.019 C 
BRANCH  20  21
HETATM   21  C14 UNL     1       5.106   0.059   0.533  1.00  0.00     0.027 C 
HETATM   22  C15 UNL     1       6.173  -0.635   0.219  1.00  0.00     0.016 C 
BRANCH  22  23
HETATM   23  N4  UNL     1       6.977  -0.266  -0.904  1.00  0.00    -0.401 N 
HETATM   24  H18 UNL     1       7.190  -0.336  -1.940  1.00  0.00     0.156 HD
HETATM   25  H19 UNL     1       7.806   0.342  -1.070  1.00  0.00     0.156 HD
ENDBRANCH  22  23
BRANCH  22  26
HETATM   26  C16 UNL     1       6.594  -1.825   1.003  1.00  0.00     0.171 C 
HETATM   27 CL1  UNL     1       6.621  -3.278  -0.031  1.00  0.00    -0.124 Cl
ENDBRANCH  22  26
ENDBRANCH  20  21
ENDBRANCH  17  19
ENDBRANCH   7  17
TORSDOF 8
