REMARK  5 active torsions:
REMARK  status: ('A' for Active; 'I' for Inactive)
REMARK    1  A    between atoms: C3_3  and  C4_4 
REMARK    2  A    between atoms: C6_8  and  B1_9 
REMARK    3  A    between atoms: B1_9  and  S1_10 
REMARK    4  A    between atoms: S1_10  and  C7_11 
REMARK    5  A    between atoms: C7_11  and  C8_12 
ROOT
HETATM    1  B1  UNL     1      -0.434  -0.756  -1.275  1.00  0.00     0.320 B 
HETATM    2  H8  UNL     1      -1.134   0.160  -1.518  1.00  0.00    -0.004 HD
ENDROOT
BRANCH   1   3
HETATM    3  C6  UNL     1       0.895  -0.483  -0.517  1.00  0.00     0.126 A 
HETATM    4  N2  UNL     1       0.863  -0.654   0.750  1.00  0.00    -0.164 NA
HETATM    5  N1  UNL     1       2.101  -0.386   1.344  1.00  0.00    -0.256 N 
HETATM    6  C5  UNL     1       2.974  -0.006   0.266  1.00  0.00     0.164 A 
HETATM    7  H7  UNL     1       2.412  -0.427   2.337  1.00  0.00     0.191 HD
HETATM    8  C4  UNL     1       4.247   0.334   0.378  1.00  0.00     0.057 C 
HETATM    9  O1  UNL     1       2.190  -0.077  -0.876  1.00  0.00    -0.288 OA
BRANCH   8  10
HETATM   10  C3  UNL     1       5.130   0.720  -0.715  1.00  0.00    -0.000 C 
HETATM   11  C2  UNL     1       6.379   1.045  -0.554  1.00  0.00    -0.031 C 
HETATM   12  C1  UNL     1       7.287   1.436  -1.638  1.00  0.00     0.036 C 
ENDBRANCH   8  10
ENDBRANCH   1   3
BRANCH   1  13
HETATM   13  S1  UNL     1      -1.207  -2.462  -1.109  1.00  0.00    -0.216 SA
BRANCH  13  14
HETATM   14  C7  UNL     1      -2.279  -2.448   0.353  1.00  0.00     0.098 C 
BRANCH  14  15
HETATM   15  C8  UNL     1      -3.410  -1.524   0.076  1.00  0.00    -0.042 A 
HETATM   16  C9  UNL     1      -4.649  -2.088  -0.238  1.00  0.00     0.008 A 
HETATM   17  C10 UNL     1      -5.772  -1.339  -0.516  1.00  0.00     0.001 A 
HETATM   18  C11 UNL     1      -5.699   0.038  -0.492  1.00  0.00     0.008 A 
HETATM   19  C12 UNL     1      -4.484   0.612  -0.184  1.00  0.00    -0.042 A 
HETATM   20  C13 UNL     1      -3.344  -0.147   0.099  1.00  0.00    -0.036 A 
HETATM   21  C14 UNL     1      -3.201   1.331   0.141  1.00  0.00     0.049 A 
HETATM   22  C15 UNL     1      -3.160   1.941   1.513  1.00  0.00     0.020 C 
ENDBRANCH  14  15
ENDBRANCH  13  14
ENDBRANCH   1  13
TORSDOF 5
