REMARK  4 active torsions:
REMARK  status: ('A' for Active; 'I' for Inactive)
REMARK    1  A    between atoms: C4_4  and  S1_5 
REMARK    2  A    between atoms: S1_5  and  C5_6 
REMARK    3  A    between atoms: C6_9  and  C7_10 
REMARK    4  A    between atoms: C7_10  and  C8_11 
ROOT
HETATM    1  C5  UNL     1       0.036   0.268  -0.808  1.00  0.00     0.235 A 
HETATM    2  N1  UNL     1      -0.212   1.535  -0.369  1.00  0.00    -0.114 NA
HETATM    3  N2  UNL     1      -1.187   1.462   0.513  1.00  0.00    -0.126 NA
HETATM    4  C6  UNL     1      -1.551   0.176   0.633  1.00  0.00     0.175 A 
HETATM    5  O1  UNL     1      -0.794  -0.511  -0.175  1.00  0.00    -0.268 OA
ENDROOT
BRANCH   1   6
HETATM    6  S1  UNL     1       1.324   0.049  -2.026  1.00  0.00    -0.046 SA
BRANCH   6   7
HETATM    7  C4  UNL     1       2.924  -0.224  -1.260  1.00  0.00     0.004 C 
HETATM    8  C3  UNL     1       2.794  -0.201   0.064  1.00  0.00     0.016 C 
HETATM    9  C2  UNL     1       3.720  -0.359   1.163  1.00  0.00     0.001 C 
HETATM   10  C1  UNL     1       5.017  -0.181   1.307  1.00  0.00     0.001 C 
HETATM   11  C15 UNL     1       6.076   0.254   0.411  1.00  0.00     0.017 C 
HETATM   12  C14 UNL     1       6.187   0.382  -0.919  1.00  0.00     0.083 C 
HETATM   13  N4  UNL     1       5.263   0.126  -1.971  1.00  0.00    -0.394 N 
HETATM   14  C13 UNL     1       3.986  -0.406  -2.247  1.00  0.00     0.165 C 
HETATM   15  H14 UNL     1       5.747   0.476  -2.853  1.00  0.00     0.159 HD
ENDBRANCH   6   7
ENDBRANCH   1   6
BRANCH   4  16
HETATM   16  C7  UNL     1      -2.616  -0.355   1.522  1.00  0.00     0.145 C 
BRANCH  16  17
HETATM   17  C8  UNL     1      -3.908  -0.351   0.760  1.00  0.00     0.013 A 
HETATM   18  C9  UNL     1      -4.672  -1.383   0.475  1.00  0.00     0.025 A 
HETATM   19  C10 UNL     1      -5.912  -1.267  -0.275  1.00  0.00    -0.001 A 
HETATM   20  C11 UNL     1      -6.289  -0.060  -0.691  1.00  0.00    -0.007 A 
HETATM   21  C12 UNL     1      -5.530   1.203  -0.446  1.00  0.00     0.147 A 
HETATM   22  N3  UNL     1      -4.323   0.929   0.309  1.00  0.00    -0.389 N 
HETATM   23  H11 UNL     1      -3.782   1.803   0.488  1.00  0.00     0.159 HD
ENDBRANCH  16  17
ENDBRANCH   4  16
TORSDOF 4
