REMARK  10 active torsions:
REMARK  status: ('A' for Active; 'I' for Inactive)
REMARK    1  A    between atoms: C2_2  and  C3_4 
REMARK    2  A    between atoms: C4_6  and  C5_7 
REMARK    3  A    between atoms: C5_7  and  C6_8 
REMARK    4  A    between atoms: C6_8  and  N1_9 
REMARK    5  A    between atoms: N1_9  and  C7_10 
REMARK    6  A    between atoms: C9_12  and  C10_13 
REMARK    7  A    between atoms: C10_13  and  C11_14 
REMARK    8  A    between atoms: C11_14  and  C12_15 
REMARK    9  A    between atoms: C12_15  and  N2_16 
REMARK   10  A    between atoms: C18_23  and  O2_24 
ROOT
HETATM    1  C7  UNL     1       1.877  -0.772   0.440  1.00  0.00     0.147 C 
HETATM    2  C8  UNL     1       0.450  -0.784   0.992  1.00  0.00     0.038 C 
HETATM    3  C9  UNL     1      -0.820  -0.482   0.538  1.00  0.00    -0.022 C 
HETATM    4  C18 UNL     1      -0.760  -0.224  -0.886  1.00  0.00     0.094 C 
HETATM    5  C19 UNL     1       0.503  -0.351  -1.276  1.00  0.00     0.048 C 
HETATM    6  C20 UNL     1       1.687   0.394  -0.615  1.00  0.00     0.120 C 
HETATM    7  N3  UNL     1       0.882  -1.290  -2.331  1.00  0.00    -0.352 N 
HETATM    8  C21 UNL     1       1.891  -2.107  -1.628  1.00  0.00     0.204 C 
HETATM    9  N4  UNL     1       2.203  -1.881  -0.386  1.00  0.00    -0.249 NA
HETATM   10  H25 UNL     1       0.340  -1.128  -3.204  1.00  0.00     0.166 HD
ENDROOT
BRANCH   1  11
HETATM   11  N1  UNL     1       2.804  -0.349   1.396  1.00  0.00    -0.391 N 
HETATM   12  H6  UNL     1       2.376  -0.128   2.305  1.00  0.00     0.156 HD
BRANCH  11  13
HETATM   13  C6  UNL     1       4.075  -0.395   0.717  1.00  0.00     0.067 C 
BRANCH  13  14
HETATM   14  C5  UNL     1       5.216  -0.539   0.018  1.00  0.00     0.106 C 
BRANCH  14  15
HETATM   15  C4  UNL     1       6.195   0.430   0.379  1.00  0.00     0.201 A 
HETATM   16  C3  UNL     1       7.302   1.031   0.350  1.00  0.00     0.102 A 
HETATM   17  F1  UNL     1       6.403   1.545   1.271  1.00  0.00    -0.358 F 
BRANCH  16  18
HETATM   18  C2  UNL     1       8.628   1.347  -0.044  1.00  0.00     0.046 C 
HETATM   19  C1  UNL     1       8.927   2.362   0.729  1.00  0.00     0.059 C 
HETATM   20 CL1  UNL     1       8.775   0.097  -1.236  1.00  0.00    -0.086 Cl
ENDBRANCH  16  18
ENDBRANCH  14  15
ENDBRANCH  13  14
ENDBRANCH  11  13
ENDBRANCH   1  11
BRANCH   3  21
HETATM   21  C10 UNL     1      -1.930  -0.494   1.447  1.00  0.00     0.043 C 
BRANCH  21  22
HETATM   22  C11 UNL     1      -2.633   0.773   1.648  1.00  0.00     0.024 C 
BRANCH  22  23
HETATM   23  C12 UNL     1      -3.427   1.440   0.604  1.00  0.00     0.123 C 
BRANCH  23  24
HETATM   24  N2  UNL     1      -4.556   0.657   0.130  1.00  0.00    -0.381 N 
HETATM   25  C13 UNL     1      -5.579   0.420   1.182  1.00  0.00     0.149 C 
HETATM   26  C14 UNL     1      -6.542  -0.617   0.577  1.00  0.00     0.187 C 
HETATM   27  O1  UNL     1      -5.740  -1.647   0.065  1.00  0.00    -0.384 OA
HETATM   28  C15 UNL     1      -5.332  -1.267  -1.210  1.00  0.00     0.223 C 
HETATM   29  C16 UNL     1      -4.841   0.124  -1.151  1.00  0.00     0.021 C 
HETATM   30  C17 UNL     1      -4.626   0.985  -2.130  1.00  0.00     0.040 C 
ENDBRANCH  23  24
ENDBRANCH  22  23
ENDBRANCH  21  22
ENDBRANCH   3  21
BRANCH   4  31
HETATM   31  O2  UNL     1      -1.679   0.086  -1.809  1.00  0.00    -0.358 OA
HETATM   32  H22 UNL     1      -2.054  -0.537  -2.530  1.00  0.00     0.217 HD
ENDBRANCH   4  31
TORSDOF 10
