REMARK  1 active torsions:
REMARK  status: ('A' for Active; 'I' for Inactive)
REMARK    1  A    between atoms: O1_2  and  C2_3 
ROOT
HETATM    1  C2  UNL     1       3.590   0.303  -0.976  1.00  0.00     0.071 A 
HETATM    2  C3  UNL     1       3.126  -0.589  -0.112  1.00  0.00     0.073 A 
HETATM    3  C4  UNL     1       1.726  -0.928  -0.372  1.00  0.00     0.211 A 
HETATM    4  N1  UNL     1       0.778  -0.494   0.619  1.00  0.00    -0.139 NA
HETATM    5  S1  UNL     1      -0.444  -1.517   0.287  1.00  0.00    -0.104 SA
HETATM    6  C5  UNL     1      -1.636  -1.448   1.558  1.00  0.00     0.086 C 
HETATM    7  C6  UNL     1      -2.932  -1.046   0.850  1.00  0.00     0.038 C 
HETATM    8  C7  UNL     1      -4.030  -0.627   1.696  1.00  0.00    -0.026 C 
HETATM    9  C8  UNL     1      -4.264   0.675   1.385  1.00  0.00    -0.004 C 
HETATM   10  C9  UNL     1      -3.611   1.564   0.439  1.00  0.00    -0.004 C 
HETATM   11  C10 UNL     1      -2.779   1.964  -0.459  1.00  0.00    -0.019 C 
HETATM   12  C11 UNL     1      -1.665   1.891  -1.402  1.00  0.00     0.110 C 
HETATM   13  C12 UNL     1      -0.675   1.111  -1.925  1.00  0.00     0.115 C 
HETATM   14  O2  UNL     1       0.285   0.130  -2.333  1.00  0.00    -0.349 OA
HETATM   15  C13 UNL     1       1.433  -0.060  -1.561  1.00  0.00     0.105 A 
HETATM   16  C14 UNL     1       2.509   0.640  -1.901  1.00  0.00     0.073 A 
HETATM   17  C15 UNL     1       0.663  -2.893   0.156  1.00  0.00     0.251 C 
HETATM   18  O3  UNL     1       1.632  -2.241  -0.652  1.00  0.00    -0.343 OA
ENDROOT
BRANCH   1  19
HETATM   19  O1  UNL     1       4.912   0.701  -0.829  1.00  0.00    -0.356 OA
HETATM   20  C1  UNL     1       5.259   1.561   0.262  1.00  0.00     0.210 C 
ENDBRANCH   1  19
TORSDOF 1
