REMARK  7 active torsions:
REMARK  status: ('A' for Active; 'I' for Inactive)
REMARK    1  A    between atoms: C3_3  and  N1_4 
REMARK    2  A    between atoms: C3_3  and  C11_14 
REMARK    3  A    between atoms: N1_4  and  C4_5 
REMARK    4  A    between atoms: C4_5  and  C5_6 
REMARK    5  A    between atoms: C10_11  and  O1_12 
REMARK    6  A    between atoms: C14_19  and  N4_20 
REMARK    7  A    between atoms: N4_20  and  C15_21 
ROOT
HETATM    1  C11 UNL     1      -0.685   2.187  -0.662  1.00  0.00     0.124 A 
HETATM    2  C12 UNL     1      -0.846   2.927  -1.947  1.00  0.00     0.168 A 
HETATM    3  N2  UNL     1      -1.903   2.537  -2.803  1.00  0.00    -0.282 NA
HETATM    4  C13 UNL     1      -2.729   1.617  -2.570  1.00  0.00     0.228 A 
HETATM    5  N3  UNL     1      -2.640   0.863  -1.346  1.00  0.00    -0.228 NA
HETATM    6  C14 UNL     1      -1.697   1.145  -0.493  1.00  0.00     0.117 A 
ENDROOT
BRANCH   1   7
HETATM    7  C3  UNL     1       0.707   1.667  -0.605  1.00  0.00     0.014 C 
HETATM    8  C2  UNL     1       1.592   2.090   0.311  1.00  0.00    -0.006 C 
HETATM    9  C1  UNL     1       1.590   3.047   1.422  1.00  0.00     0.038 C 
BRANCH   7  10
HETATM   10  N1  UNL     1       1.093   0.690  -1.556  1.00  0.00    -0.388 N 
HETATM   11  H5  UNL     1       1.168   1.277  -2.422  1.00  0.00     0.159 HD
BRANCH  10  12
HETATM   12  C4  UNL     1       1.358  -0.722  -1.553  1.00  0.00     0.161 C 
BRANCH  12  13
HETATM   13  C5  UNL     1       2.458  -1.148  -0.684  1.00  0.00    -0.006 A 
HETATM   14  C6  UNL     1       3.663  -1.449  -1.325  1.00  0.00     0.011 A 
HETATM   15  C7  UNL     1       4.796  -1.860  -0.647  1.00  0.00     0.001 A 
HETATM   16  C8  UNL     1       4.726  -1.976   0.725  1.00  0.00     0.003 A 
HETATM   17  C9  UNL     1       3.513  -1.671   1.346  1.00  0.00     0.038 A 
HETATM   18  C10 UNL     1       2.387  -1.264   0.687  1.00  0.00     0.092 A 
BRANCH  18  19
HETATM   19  O1  UNL     1       1.204  -0.968   1.308  1.00  0.00    -0.270 OA
HETATM   20 BR1  UNL     1       1.092  -1.119   3.162  1.00  0.00     0.105 Br
ENDBRANCH  18  19
ENDBRANCH  12  13
ENDBRANCH  10  12
ENDBRANCH   7  10
ENDBRANCH   1   7
BRANCH   6  21
HETATM   21  N4  UNL     1      -1.727   0.330   0.674  1.00  0.00    -0.344 N 
HETATM   22  H16 UNL     1      -1.078   0.550   1.488  1.00  0.00     0.167 HD
BRANCH  21  23
HETATM   23  C15 UNL     1      -2.606  -0.805   0.820  1.00  0.00     0.033 A 
HETATM   24  C16 UNL     1      -2.301  -2.097   0.464  1.00  0.00     0.029 A 
HETATM   25  C17 UNL     1      -3.235  -3.096   0.655  1.00  0.00     0.002 A 
HETATM   26  C18 UNL     1      -4.481  -2.842   1.199  1.00  0.00     0.000 A 
HETATM   27  C19 UNL     1      -4.795  -1.545   1.560  1.00  0.00     0.002 A 
HETATM   28  C20 UNL     1      -3.844  -0.550   1.361  1.00  0.00     0.029 A 
ENDBRANCH  21  23
ENDBRANCH   6  21
TORSDOF 7
