REMARK  6 active torsions:
REMARK  status: ('A' for Active; 'I' for Inactive)
REMARK    1  A    between atoms: C4_4  and  C5_5 
REMARK    2  A    between atoms: C6_6  and  C7_7 
REMARK    3  A    between atoms: C7_7  and  N1_8 
REMARK    4  A    between atoms: N1_8  and  C8_9 
REMARK    5  A    between atoms: C13_16  and  N4_17 
REMARK    6  A    between atoms: N4_17  and  C14_18 
ROOT
HETATM    1  C1  UNL     1       6.725   3.170  -5.665  1.00  0.00     0.017 C 
HETATM    2  C2  UNL     1       6.616   2.432  -4.742  1.00  0.00    -0.089 C 
HETATM    3  C3  UNL     1       6.478   1.537  -3.628  1.00  0.00     0.063 C 
HETATM    4  C4  UNL     1       5.520   1.723  -2.738  1.00  0.00     0.009 C 
ENDROOT
BRANCH   4   5
HETATM    5  C5  UNL     1       5.202   0.958  -1.557  1.00  0.00    -0.002 C 
HETATM    6  C6  UNL     1       4.222   1.167  -0.671  1.00  0.00    -0.007 C 
BRANCH   6   7
HETATM    7  C7  UNL     1       4.068   0.251   0.489  1.00  0.00     0.147 C 
BRANCH   7   8
HETATM    8  N1  UNL     1       2.789  -0.411   0.542  1.00  0.00    -0.386 N 
HETATM    9  H8  UNL     1       2.780  -1.452   0.416  1.00  0.00     0.160 HD
BRANCH   8  10
HETATM   10  C8  UNL     1       1.546   0.244   0.752  1.00  0.00     0.029 A 
HETATM   11  C9  UNL     1       1.478   1.611   0.954  1.00  0.00     0.031 A 
HETATM   12  C10 UNL     1       0.280   2.255   1.154  1.00  0.00     0.035 A 
HETATM   13  C11 UNL     1      -0.859   1.496   1.147  1.00  0.00     0.072 A 
HETATM   14  N2  UNL     1      -2.051   2.084   1.340  1.00  0.00    -0.241 NA
HETATM   15  C20 UNL     1      -0.867   0.125   0.952  1.00  0.00     0.041 A 
HETATM   16  C12 UNL     1      -3.172   1.333   1.334  1.00  0.00     0.235 A 
HETATM   17  N3  UNL     1      -3.202   0.005   1.147  1.00  0.00    -0.224 NA
HETATM   18  C13 UNL     1      -2.036  -0.639   0.948  1.00  0.00     0.139 A 
HETATM   19  C21 UNL     1       0.358  -0.459   0.758  1.00  0.00     0.046 A 
BRANCH  18  20
HETATM   20  N4  UNL     1      -2.036  -2.042   0.754  1.00  0.00    -0.344 N 
HETATM   21  H12 UNL     1      -1.157  -2.585   0.600  1.00  0.00     0.164 HD
BRANCH  20  22
HETATM   22  C14 UNL     1      -3.283  -2.758   0.763  1.00  0.00     0.247 C 
HETATM   23  C15 UNL     1      -3.938  -2.452   2.088  1.00  0.00     0.045 C 
HETATM   24  C16 UNL     1      -5.118  -1.924   2.449  1.00  0.00     0.011 C 
HETATM   25 BR1  UNL     1      -5.518  -1.724   4.298  1.00  0.00    -0.051 Br
HETATM   26  C17 UNL     1      -6.110  -1.496   1.459  1.00  0.00     0.017 C 
HETATM   27  C18 UNL     1      -6.027  -1.454   0.137  1.00  0.00     0.000 C 
HETATM   28  C19 UNL     1      -4.881  -1.838  -0.734  1.00  0.00     0.198 C 
HETATM   29  O1  UNL     1      -4.058  -2.786  -0.302  1.00  0.00    -0.360 OA
ENDBRANCH  20  22
ENDBRANCH  18  20
ENDBRANCH   8  10
ENDBRANCH   7   8
ENDBRANCH   6   7
ENDBRANCH   4   5
TORSDOF 6
