REMARK  5 active torsions:
REMARK  status: ('A' for Active; 'I' for Inactive)
REMARK    1  A    between atoms: O1_2  and  C2_3 
REMARK    2  A    between atoms: C4_5  and  O2_6 
REMARK    3  A    between atoms: C7_9  and  C8_10 
REMARK    4  A    between atoms: S1_13  and  C9_14 
REMARK    5  A    between atoms: C9_14  and  C10_15 
ROOT
HETATM    1  C8  UNL     1       0.107  -0.049   0.338  1.00  0.00     0.204 A 
HETATM    2  N1  UNL     1       0.725   0.539   1.259  1.00  0.00    -0.141 NA
HETATM    3  N2  UNL     1       2.158   0.485   1.101  1.00  0.00    -0.024 NA
HETATM    4  S1  UNL     1       2.525  -0.317  -0.215  1.00  0.00     0.035 SA
HETATM    5  O3  UNL     1       0.718  -0.694  -0.736  1.00  0.00    -0.251 OA
ENDROOT
BRANCH   1   6
HETATM    6  C7  UNL     1      -1.359  -0.021   0.455  1.00  0.00     0.024 A 
HETATM    7  C6  UNL     1      -2.160  -0.632  -0.494  1.00  0.00     0.053 A 
HETATM    8  C4  UNL     1      -3.531  -0.666  -0.481  1.00  0.00     0.071 A 
HETATM    9  C3  UNL     1      -4.189  -0.044   0.558  1.00  0.00     0.073 A 
HETATM   10  C2  UNL     1      -3.473   0.589   1.547  1.00  0.00     0.071 A 
HETATM   11  C15 UNL     1      -2.101   0.573   1.453  1.00  0.00     0.053 A 
BRANCH   8  12
HETATM   12  O2  UNL     1      -4.255  -1.293  -1.460  1.00  0.00    -0.356 OA
HETATM   13  C5  UNL     1      -5.665  -1.277  -1.365  1.00  0.00     0.210 C 
ENDBRANCH   8  12
BRANCH  10  14
HETATM   14  O1  UNL     1      -4.063   1.244   2.636  1.00  0.00    -0.356 OA
HETATM   15  C1  UNL     1      -5.476   1.225   2.675  1.00  0.00     0.210 C 
ENDBRANCH  10  14
ENDBRANCH   1   6
BRANCH   4  16
HETATM   16  C9  UNL     1       3.977  -0.836  -1.127  1.00  0.00     0.125 C 
BRANCH  16  17
HETATM   17  C10 UNL     1       5.203  -0.345  -0.393  1.00  0.00     0.042 A 
HETATM   18  C11 UNL     1       6.433  -0.774  -1.149  1.00  0.00    -0.017 A 
HETATM   19  C12 UNL     1       7.150   0.275  -1.496  1.00  0.00    -0.004 A 
HETATM   20  C13 UNL     1       6.473   1.486  -1.010  1.00  0.00    -0.004 A 
HETATM   21  C14 UNL     1       5.352   1.114  -0.376  1.00  0.00    -0.017 A 
ENDBRANCH  16  17
ENDBRANCH   4  16
TORSDOF 5
