REMARK  4 active torsions:
REMARK  status: ('A' for Active; 'I' for Inactive)
REMARK    1  A    between atoms: C3_3  and  C4_4 
REMARK    2  A    between atoms: C4_4  and  C5_5 
REMARK    3  A    between atoms: C9_9  and  N1_10 
REMARK    4  A    between atoms: N1_10  and  C10_11 
ROOT
HETATM    1  C5  UNL     1      -2.041   0.404  -1.036  1.00  0.00    -0.074 C 
HETATM    2  C6  UNL     1      -0.738   0.133  -1.459  1.00  0.00     0.062 C 
HETATM    3  C7  UNL     1       0.332  -0.679  -1.336  1.00  0.00    -0.005 C 
HETATM    4  C8  UNL     1       1.153  -1.641  -1.215  1.00  0.00     0.032 A 
HETATM    5  C9  UNL     1       2.462  -1.983  -1.115  1.00  0.00     0.141 A 
HETATM    6  N2  UNL     1       2.985  -3.227  -1.107  1.00  0.00    -0.224 NA
HETATM    7  C16 UNL     1       2.264  -4.321  -1.195  1.00  0.00     0.235 A 
HETATM    8  N3  UNL     1       0.897  -4.180  -1.300  1.00  0.00    -0.245 NA
HETATM    9  C17 UNL     1       0.439  -2.900  -1.300  1.00  0.00     0.060 A 
HETATM   10  C18 UNL     1      -0.867  -3.298  -1.164  1.00  0.00     0.106 C 
HETATM   11  C19 UNL     1      -2.291  -3.474  -0.975  1.00  0.00     0.159 C 
HETATM   12  N4  UNL     1      -3.055  -2.532  -0.701  1.00  0.00    -0.464 NA
HETATM   13  C20 UNL     1      -3.644  -1.420  -0.427  1.00  0.00     0.221 C 
HETATM   14  C21 UNL     1      -3.377  -0.131  -1.156  1.00  0.00     0.068 C 
ENDROOT
BRANCH   5  15
HETATM   15  N1  UNL     1       3.184  -0.732  -1.019  1.00  0.00    -0.340 N 
HETATM   16  H10 UNL     1       3.611  -0.486  -1.934  1.00  0.00     0.167 HD
BRANCH  15  17
HETATM   17  C10 UNL     1       3.201  -0.045   0.249  1.00  0.00     0.035 A 
HETATM   18  C11 UNL     1       3.682   1.238   0.125  1.00  0.00     0.029 A 
HETATM   19  C12 UNL     1       3.715   1.965   1.327  1.00  0.00     0.004 A 
HETATM   20  C13 UNL     1       3.278   1.367   2.496  1.00  0.00     0.019 A 
HETATM   21  C14 UNL     1       2.798   0.055   2.564  1.00  0.00     0.013 A 
HETATM   22 BR1  UNL     1       2.166  -0.891   4.080  1.00  0.00    -0.051 Br
HETATM   23  C15 UNL     1       2.760  -0.697   1.360  1.00  0.00     0.048 A 
ENDBRANCH  15  17
ENDBRANCH   5  15
BRANCH   1  24
HETATM   24  C4  UNL     1      -2.126   1.620  -0.396  1.00  0.00     0.003 C 
BRANCH  24  25
HETATM   25  C3  UNL     1      -2.782   2.750   0.320  1.00  0.00    -0.004 C 
HETATM   26  C2  UNL     1      -2.702   3.956   0.914  1.00  0.00    -0.031 C 
HETATM   27  C1  UNL     1      -1.342   4.552   0.920  1.00  0.00     0.036 C 
ENDBRANCH  24  25
ENDBRANCH   1  24
TORSDOF 4
