REMARK  6 active torsions:
REMARK  status: ('A' for Active; 'I' for Inactive)
REMARK    1  A    between atoms: C2_2  and  C3_3 
REMARK    2  A    between atoms: C3_3  and  N1_4 
REMARK    3  A    between atoms: N1_4  and  C5_6 
REMARK    4  A    between atoms: C5_6  and  C6_7 
REMARK    5  A    between atoms: C6_7  and  O1_8 
REMARK    6  A    between atoms: O1_8  and  C7_9 
ROOT
HETATM    1  C7  UNL     1      -0.326  -1.472   0.959  1.00  0.00     0.082 A 
HETATM    2  C8  UNL     1       0.071  -2.462   1.818  1.00  0.00     0.038 A 
HETATM    3  C9  UNL     1      -0.817  -2.759   2.806  1.00  0.00     0.005 A 
HETATM    4  C10 UNL     1      -2.042  -2.096   2.924  1.00  0.00     0.032 A 
HETATM    5  C11 UNL     1      -2.474  -1.078   2.060  1.00  0.00     0.069 A 
HETATM    6  C12 UNL     1      -1.555  -0.793   1.063  1.00  0.00     0.041 A 
HETATM    7  C13 UNL     1      -1.620   0.053   0.115  1.00  0.00     0.100 C 
HETATM    8  N2  UNL     1      -2.109   1.051  -0.701  1.00  0.00    -0.386 N 
HETATM    9  C14 UNL     1      -3.355   1.156   0.037  1.00  0.00     0.061 A 
HETATM   10  C15 UNL     1      -3.045   2.047   1.032  1.00  0.00     0.057 A 
HETATM   11  C16 UNL     1      -3.801   2.290   2.123  1.00  0.00    -0.025 A 
HETATM   12  C17 UNL     1      -4.392   1.368   1.355  1.00  0.00     0.056 A 
HETATM   13  C18 UNL     1      -4.997   0.411   0.549  1.00  0.00     0.097 A 
HETATM   14 CL1  UNL     1      -6.281  -0.679   0.153  1.00  0.00    -0.110 Cl
HETATM   15  C19 UNL     1      -4.187   0.223  -0.520  1.00  0.00     0.056 A 
HETATM   16  P1  UNL     1      -4.950   0.063   2.525  1.00  0.00     0.001 P 
HETATM   17  N3  UNL     1      -3.529  -0.995   2.723  1.00  0.00    -0.266 NA
HETATM   18  H19 UNL     1      -2.329   1.759  -1.370  1.00  0.00     0.159 HD
HETATM   19  H23 UNL     1      -5.510   0.549   3.736  1.00  0.00     0.079 HD
ENDROOT
BRANCH   1  20
HETATM   20  O1  UNL     1       0.558  -1.138  -0.067  1.00  0.00    -0.348 OA
BRANCH  20  21
HETATM   21  C6  UNL     1       1.773  -1.814  -0.172  1.00  0.00     0.206 C 
BRANCH  21  22
HETATM   22  C5  UNL     1       2.620  -1.352  -1.320  1.00  0.00     0.298 C 
BRANCH  22  23
HETATM   23  N1  UNL     1       2.987   0.030  -1.275  1.00  0.00     0.086 N 
HETATM   24  C4  UNL     1       1.795   0.819  -1.357  1.00  0.00     0.310 C 
BRANCH  23  25
HETATM   25  C3  UNL     1       3.796   0.308  -2.437  1.00  0.00     0.271 C 
BRANCH  25  26
HETATM   26  C2  UNL     1       4.383   1.670  -2.497  1.00  0.00     0.026 C 
HETATM   27  C1  UNL     1       5.287   1.920  -1.299  1.00  0.00     0.007 C 
ENDBRANCH  25  26
ENDBRANCH  23  25
ENDBRANCH  22  23
ENDBRANCH  21  22
ENDBRANCH  20  21
ENDBRANCH   1  20
TORSDOF 6
