REMARK  8 active torsions:
REMARK  status: ('A' for Active; 'I' for Inactive)
REMARK    1  A    between atoms: C2_2  and  C3_3 
REMARK    2  A    between atoms: C3_3  and  C4_4 
REMARK    3  A    between atoms: C4_4  and  N1_5 
REMARK    4  A    between atoms: N1_5  and  C5_6 
REMARK    5  A    between atoms: C5_6  and  C6_7 
REMARK    6  A    between atoms: C6_7  and  C7_8 
REMARK    7  A    between atoms: C10_11  and  N2_12 
REMARK    8  A    between atoms: N2_12  and  C11_13 
ROOT
HETATM    1  C7  UNL     1       0.589   0.001   0.071  1.00  0.00     0.053 A 
HETATM    2  C8  UNL     1       0.183  -1.089   0.663  1.00  0.00     0.007 A 
HETATM    3  C9  UNL     1      -1.120  -1.552   1.134  1.00  0.00     0.060 A 
HETATM    4  C10 UNL     1      -2.238  -0.575   0.918  1.00  0.00     0.126 A 
HETATM    5  C17 UNL     1      -1.687   0.623   0.241  1.00  0.00     0.115 A 
HETATM    6  N3  UNL     1      -0.465   0.916  -0.145  1.00  0.00    -0.263 NA
ENDROOT
BRANCH   4   7
HETATM    7  N2  UNL     1      -3.274  -1.215   0.137  1.00  0.00    -0.380 N 
HETATM    8  H15 UNL     1      -3.092  -2.192  -0.249  1.00  0.00     0.160 HD
BRANCH   7   9
HETATM    9  C11 UNL     1      -4.536  -0.657  -0.173  1.00  0.00     0.029 A 
HETATM   10  C12 UNL     1      -4.973   0.564   0.249  1.00  0.00     0.029 A 
HETATM   11  C13 UNL     1      -6.199   1.123  -0.054  1.00  0.00     0.004 A 
HETATM   12  C14 UNL     1      -7.078   0.414  -0.845  1.00  0.00     0.019 A 
HETATM   13  C15 UNL     1      -6.682  -0.827  -1.296  1.00  0.00     0.013 A 
HETATM   14 BR1  UNL     1      -7.854  -1.859  -2.395  1.00  0.00    -0.051 Br
HETATM   15  C16 UNL     1      -5.445  -1.337  -0.964  1.00  0.00     0.048 A 
ENDBRANCH   7   9
ENDBRANCH   4   7
BRANCH   1  16
HETATM   16  C6  UNL     1       1.989  -0.016  -0.193  1.00  0.00     0.048 C 
BRANCH  16  17
HETATM   17  C5  UNL     1       3.058   0.515  -0.652  1.00  0.00     0.085 C 
BRANCH  17  18
HETATM   18  N1  UNL     1       4.294   0.972  -1.108  1.00  0.00    -0.398 N 
HETATM   19  H8  UNL     1       4.574   0.648  -2.077  1.00  0.00     0.158 HD
BRANCH  18  20
HETATM   20  C4  UNL     1       5.021   1.829  -0.185  1.00  0.00     0.122 C 
BRANCH  20  21
HETATM   21  C3  UNL     1       5.480   1.060   1.028  1.00  0.00     0.046 C 
BRANCH  21  22
HETATM   22  C2  UNL     1       6.389  -0.053   0.676  1.00  0.00    -0.035 C 
HETATM   23  C1  UNL     1       6.727  -0.276  -0.565  1.00  0.00     0.007 C 
ENDBRANCH  21  22
ENDBRANCH  20  21
ENDBRANCH  18  20
ENDBRANCH  17  18
ENDBRANCH  16  17
ENDBRANCH   1  16
TORSDOF 8
