REMARK  8 active torsions:
REMARK  status: ('A' for Active; 'I' for Inactive)
REMARK    1  A    between atoms: C2_2  and  C3_3 
REMARK    2  A    between atoms: C4_4  and  C5_5 
REMARK    3  A    between atoms: C6_6  and  N1_7 
REMARK    4  A    between atoms: N1_7  and  C7_8 
REMARK    5  A    between atoms: C12_14  and  N3_15 
REMARK    6  A    between atoms: N3_15  and  C13_16 
REMARK    7  A    between atoms: C13_16  and  C14_17 
REMARK    8  A    between atoms: C17_20  and  O1_21 
ROOT
HETATM    1  C7  UNL     1       2.138  -0.316   0.931  1.00  0.00     0.133 A 
HETATM    2  N2  UNL     1       2.812  -1.219   1.564  1.00  0.00    -0.267 NA
HETATM    3  C8  UNL     1       1.947  -2.250   2.105  1.00  0.00     0.190 A 
HETATM    4  C9  UNL     1       0.588  -1.826   1.691  1.00  0.00    -0.024 A 
HETATM    5  C10 UNL     1      -0.647  -2.386   1.898  1.00  0.00     0.012 A 
HETATM    6  C11 UNL     1      -1.752  -1.743   1.377  1.00  0.00     0.030 A 
HETATM    7  C12 UNL     1      -1.688  -0.564   0.656  1.00  0.00     0.029 A 
HETATM    8  C20 UNL     1      -0.432  -0.020   0.461  1.00  0.00     0.045 A 
HETATM    9  C21 UNL     1       0.696  -0.634   0.966  1.00  0.00     0.020 A 
ENDROOT
BRANCH   7  10
HETATM   10  N3  UNL     1      -2.877   0.053   0.142  1.00  0.00    -0.386 N 
HETATM   11  H13 UNL     1      -2.752   0.941  -0.393  1.00  0.00     0.160 HD
BRANCH  10  12
HETATM   12  C13 UNL     1      -4.110  -0.655   0.442  1.00  0.00     0.158 C 
BRANCH  12  13
HETATM   13  C14 UNL     1      -5.304   0.000  -0.097  1.00  0.00    -0.040 A 
HETATM   14  C15 UNL     1      -5.932   0.925   0.712  1.00  0.00     0.011 A 
HETATM   15  C16 UNL     1      -7.061   1.561   0.232  1.00  0.00     0.037 A 
HETATM   16  C17 UNL     1      -7.603   1.318  -1.031  1.00  0.00     0.065 A 
HETATM   17  C18 UNL     1      -6.952   0.379  -1.834  1.00  0.00     0.037 A 
HETATM   18  C19 UNL     1      -5.811  -0.269  -1.357  1.00  0.00     0.011 A 
BRANCH  16  19
HETATM   19  O1  UNL     1      -8.720   1.942  -1.516  1.00  0.00    -0.361 OA
HETATM   20  H18 UNL     1      -9.651   1.572  -1.352  1.00  0.00     0.217 HD
ENDBRANCH  16  19
ENDBRANCH  12  13
ENDBRANCH  10  12
ENDBRANCH   7  10
BRANCH   1  21
HETATM   21  N1  UNL     1       2.711   0.839   0.282  1.00  0.00    -0.350 N 
HETATM   22  H8  UNL     1       2.013   1.506  -0.164  1.00  0.00     0.166 HD
BRANCH  21  23
HETATM   23  C6  UNL     1       4.129   0.958   0.308  1.00  0.00     0.090 C 
HETATM   24  C5  UNL     1       4.973   0.850  -0.706  1.00  0.00     0.017 C 
BRANCH  24  25
HETATM   25  C4  UNL     1       6.398   1.003  -0.490  1.00  0.00     0.001 C 
HETATM   26  C3  UNL     1       7.232   0.893  -1.511  1.00  0.00    -0.001 C 
BRANCH  26  27
HETATM   27  C2  UNL     1       8.668   1.043  -1.320  1.00  0.00    -0.010 C 
HETATM   28  C1  UNL     1       9.520   0.935  -2.336  1.00  0.00     0.011 C 
ENDBRANCH  26  27
ENDBRANCH  24  25
ENDBRANCH  21  23
ENDBRANCH   1  21
TORSDOF 8
