REMARK  7 active torsions:
REMARK  status: ('A' for Active; 'I' for Inactive)
REMARK    1  A    between atoms: C2_2  and  C3_3 
REMARK    2  A    between atoms: C4_4  and  C5_5 
REMARK    3  A    between atoms: C4_4  and  N1_8 
REMARK    4  A    between atoms: N1_8  and  C7_9 
REMARK    5  A    between atoms: C7_9  and  C8_10 
REMARK    6  A    between atoms: C10_12  and  N2_13 
REMARK    7  A    between atoms: C13_16  and  O1_17 
ROOT
HETATM    1  C8  UNL     1       0.293  -1.615  -0.936  1.00  0.00     0.059 A 
HETATM    2  C9  UNL     1      -0.929  -2.078  -0.809  1.00  0.00     0.108 A 
HETATM    3  C10 UNL     1      -1.768  -1.002  -0.363  1.00  0.00     0.061 A 
HETATM    4  C16 UNL     1      -3.072  -1.287  -0.168  1.00  0.00     0.033 A 
HETATM    5  C17 UNL     1      -3.591  -2.654  -0.410  1.00  0.00     0.022 A 
HETATM    6  C18 UNL     1      -2.767  -3.624  -0.826  1.00  0.00     0.119 A 
HETATM    7  N3  UNL     1      -1.402  -3.374  -1.042  1.00  0.00    -0.240 N 
HETATM    8  N4  UNL     1      -0.449  -4.302  -1.469  1.00  0.00    -0.163 NA
HETATM    9  C19 UNL     1       0.792  -3.987  -1.638  1.00  0.00     0.230 A 
HETATM   10  N5  UNL     1       1.225  -2.634  -1.381  1.00  0.00    -0.349 N 
HETATM   11  H22 UNL     1       2.247  -2.561  -1.568  1.00  0.00     0.166 HD
ENDROOT
BRANCH   1  12
HETATM   12  C7  UNL     1       1.043  -0.388  -0.767  1.00  0.00     0.179 C 
BRANCH  12  13
HETATM   13  N1  UNL     1       2.152  -0.690   0.210  1.00  0.00    -0.384 N 
HETATM   14  H7  UNL     1       2.267  -1.633   0.625  1.00  0.00     0.160 HD
BRANCH  13  15
HETATM   15  C4  UNL     1       3.012   0.380   0.519  1.00  0.00     0.029 C 
HETATM   16  C3  UNL     1       3.750   0.963  -0.418  1.00  0.00     0.028 C 
BRANCH  16  17
HETATM   17  C2  UNL     1       4.643   2.055  -0.165  1.00  0.00    -0.008 C 
HETATM   18  C1  UNL     1       5.351   2.600  -1.118  1.00  0.00     0.011 C 
ENDBRANCH  16  17
BRANCH  15  19
HETATM   19  C5  UNL     1       3.091   0.852   1.894  1.00  0.00     0.041 C 
HETATM   20  C6  UNL     1       2.372   0.292   2.841  1.00  0.00     0.087 C 
HETATM   21 CL1  UNL     1       1.217  -1.021   2.864  1.00  0.00    -0.097 Cl
ENDBRANCH  15  19
ENDBRANCH  13  15
ENDBRANCH  12  13
ENDBRANCH   1  12
BRANCH   3  22
HETATM   22  N2  UNL     1      -1.668   0.383  -0.057  1.00  0.00    -0.375 N 
HETATM   23  C11 UNL     1      -1.559   0.700   1.387  1.00  0.00     0.153 C 
HETATM   24  C12 UNL     1      -2.702   1.548   1.807  1.00  0.00     0.025 C 
HETATM   25  C13 UNL     1      -3.278   2.261   0.831  1.00  0.00     0.042 C 
HETATM   26  C14 UNL     1      -2.997   2.373  -0.616  1.00  0.00     0.083 C 
HETATM   27  C15 UNL     1      -1.724   1.613  -0.891  1.00  0.00     0.130 C 
BRANCH  25  28
HETATM   28  O1  UNL     1      -4.356   3.077   1.161  1.00  0.00    -0.365 OA
HETATM   29  H13 UNL     1      -4.213   4.082   1.049  1.00  0.00     0.217 HD
ENDBRANCH  25  28
ENDBRANCH   3  22
TORSDOF 7
