REMARK  4 active torsions:
REMARK  status: ('A' for Active; 'I' for Inactive)
REMARK    1  A    between atoms: C5_5  and  N1_6 
REMARK    2  A    between atoms: N1_6  and  C6_7 
REMARK    3  A    between atoms: C9_10  and  O1_11 
REMARK    4  A    between atoms: C13_18  and  N4_19 
ROOT
HETATM    1  C1  UNL     1      -2.451   1.932   0.537  1.00  0.00     0.021 C 
HETATM    2  C2  UNL     1      -2.069   0.992  -0.584  1.00  0.00     0.059 A 
HETATM    3  C3  UNL     1      -0.704   0.423  -0.356  1.00  0.00     0.001 A 
HETATM    4  C4  UNL     1      -0.818  -0.878  -0.250  1.00  0.00     0.038 A 
HETATM    5  C5  UNL     1       0.079  -1.898  -0.041  1.00  0.00     0.141 A 
HETATM    6  N2  UNL     1      -0.323  -3.179   0.026  1.00  0.00    -0.224 NA
HETATM    7  C11 UNL     1      -1.609  -3.545  -0.106  1.00  0.00     0.236 A 
HETATM    8  N3  UNL     1      -2.525  -2.580  -0.313  1.00  0.00    -0.239 NA
HETATM    9  C12 UNL     1      -2.138  -1.311  -0.381  1.00  0.00     0.097 A 
HETATM   10  C13 UNL     1      -2.899  -0.241  -0.577  1.00  0.00     0.074 A 
ENDROOT
BRANCH   5  11
HETATM   11  N1  UNL     1       1.468  -1.674   0.118  1.00  0.00    -0.340 N 
HETATM   12  H6  UNL     1       2.169  -2.427   0.278  1.00  0.00     0.167 HD
BRANCH  11  13
HETATM   13  C6  UNL     1       2.253  -0.506   0.111  1.00  0.00     0.032 A 
HETATM   14  C7  UNL     1       2.599   0.248   1.168  1.00  0.00     0.009 A 
HETATM   15  C8  UNL     1       3.438   1.404   0.762  1.00  0.00     0.095 A 
HETATM   16  C9  UNL     1       3.527   1.205  -0.705  1.00  0.00     0.067 A 
HETATM   17  C10 UNL     1       2.858   0.124  -1.082  1.00  0.00     0.062 A 
BRANCH  16  18
HETATM   18  O1  UNL     1       4.260   2.129  -1.444  1.00  0.00    -0.275 OA
HETATM   19 BR1  UNL     1       6.082   2.383  -1.054  1.00  0.00     0.105 Br
ENDBRANCH  16  18
ENDBRANCH  11  13
ENDBRANCH   5  11
BRANCH  10  20
HETATM   20  N4  UNL     1      -4.322  -0.190  -0.766  1.00  0.00    -0.226 N 
HETATM   21  F1  UNL     1      -5.049   0.022  -1.890  1.00  0.00    -0.101 F 
HETATM   22  H12 UNL     1      -4.772  -0.355   0.172  1.00  0.00     0.199 HD
ENDBRANCH  10  20
TORSDOF 4
