REMARK  3 active torsions:
REMARK  status: ('A' for Active; 'I' for Inactive)
REMARK    1  A    between atoms: O1_1  and  C1_2 
REMARK    2  A    between atoms: C14_17  and  N3_18 
REMARK    3  A    between atoms: N3_18  and  C15_19 
ROOT
HETATM    1  C1  UNL     1      -3.350   0.084  -1.250  1.00  0.00     0.071 C 
HETATM    2  C2  UNL     1      -3.586  -0.846  -0.296  1.00  0.00     0.067 C 
HETATM    3  C3  UNL     1      -4.073  -0.070   0.923  1.00  0.00     0.096 C 
HETATM    4  C4  UNL     1      -2.860   0.764   1.267  1.00  0.00    -0.074 C 
HETATM    5  C5  UNL     1      -2.685   1.746   0.343  1.00  0.00    -0.017 C 
HETATM    6  C6  UNL     1      -3.311   1.582  -1.034  1.00  0.00     0.093 C 
HETATM    7  C7  UNL     1      -1.807   0.727   2.370  1.00  0.00     0.062 C 
HETATM    8  C8  UNL     1      -0.472   0.820   1.668  1.00  0.00    -0.007 C 
HETATM    9  C9  UNL     1      -0.194  -0.184   0.866  1.00  0.00     0.007 C 
HETATM   10  C10 UNL     1      -1.037  -1.338   0.620  1.00  0.00     0.025 C 
HETATM   11  C11 UNL     1      -0.923  -2.322  -0.240  1.00  0.00    -0.020 C 
HETATM   12  C12 UNL     1      -2.257  -2.833  -0.637  1.00  0.00     0.126 C 
HETATM   13  N1  UNL     1      -3.333  -2.182  -0.644  1.00  0.00    -0.262 NA
HETATM   14  C13 UNL     1       0.511  -2.460  -0.450  1.00  0.00     0.191 C 
HETATM   15  N2  UNL     1       1.111  -1.160  -0.856  1.00  0.00    -0.267 NA
HETATM   16  C14 UNL     1       0.972  -0.172  -0.003  1.00  0.00     0.133 C 
ENDROOT
BRANCH  16  17
HETATM   17  N3  UNL     1       1.938   0.860   0.041  1.00  0.00    -0.341 N 
HETATM   18  H14 UNL     1       1.551   1.789   0.289  1.00  0.00     0.167 HD
BRANCH  17  19
HETATM   19  C15 UNL     1       3.316   0.674  -0.224  1.00  0.00     0.035 A 
HETATM   20  C16 UNL     1       3.978  -0.487  -0.518  1.00  0.00     0.029 A 
HETATM   21  C17 UNL     1       5.330  -0.555  -0.769  1.00  0.00     0.004 A 
HETATM   22  C18 UNL     1       6.112   0.577  -0.735  1.00  0.00     0.019 A 
HETATM   23  C19 UNL     1       5.474   1.769  -0.441  1.00  0.00     0.013 A 
HETATM   24 BR1  UNL     1       6.503   3.360  -0.382  1.00  0.00    -0.051 Br
HETATM   25  C20 UNL     1       4.131   1.787  -0.200  1.00  0.00     0.048 A 
ENDBRANCH  17  19
ENDBRANCH  16  17
BRANCH   1  26
HETATM   26  O1  UNL     1      -3.116  -0.357  -2.573  1.00  0.00    -0.363 OA
HETATM   27  H1  UNL     1      -3.981  -0.362  -3.132  1.00  0.00     0.217 HD
ENDBRANCH   1  26
TORSDOF 3
