REMARK  4 active torsions:
REMARK  status: ('A' for Active; 'I' for Inactive)
REMARK    1  A    between atoms: C3_3  and  C4_4 
REMARK    2  A    between atoms: C4_4  and  N1_5 
REMARK    3  A    between atoms: N1_5  and  C5_6 
REMARK    4  A    between atoms: C10_13  and  N4_14 
ROOT
HETATM    1  C1  UNL     1       6.396   1.861  -0.764  1.00  0.00     0.112 C 
HETATM    2  C2  UNL     1       5.579   0.728  -1.248  1.00  0.00    -0.109 C 
HETATM    3  C3  UNL     1       4.915  -0.218  -1.631  1.00  0.00    -0.087 C 
ENDROOT
BRANCH   3   4
HETATM    4  C4  UNL     1       4.125  -1.355  -2.101  1.00  0.00     0.214 C 
BRANCH   4   5
HETATM    5  N1  UNL     1       2.746  -1.112  -1.765  1.00  0.00    -0.380 N 
HETATM    6  H6  UNL     1       2.055  -1.057  -2.525  1.00  0.00     0.160 HD
BRANCH   5   7
HETATM    7  C5  UNL     1       2.315  -0.947  -0.421  1.00  0.00     0.029 A 
HETATM    8  C6  UNL     1       3.163  -1.007   0.663  1.00  0.00     0.031 A 
HETATM    9  C7  UNL     1       2.755  -0.847   1.973  1.00  0.00     0.035 A 
HETATM   10  C8  UNL     1       1.423  -0.614   2.231  1.00  0.00     0.072 A 
HETATM   11  N2  UNL     1       0.948  -0.447   3.490  1.00  0.00    -0.241 NA
HETATM   12  C18 UNL     1       0.549  -0.549   1.166  1.00  0.00     0.041 A 
HETATM   13  C9  UNL     1      -0.366  -0.222   3.666  1.00  0.00     0.236 A 
HETATM   14  N3  UNL     1      -1.203  -0.162   2.614  1.00  0.00    -0.224 NA
HETATM   15  C10 UNL     1      -0.783  -0.321   1.334  1.00  0.00     0.140 A 
HETATM   16  C19 UNL     1       0.988  -0.712  -0.132  1.00  0.00     0.046 A 
BRANCH  15  17
HETATM   17  N4  UNL     1      -1.781  -0.234   0.314  1.00  0.00    -0.357 N 
HETATM   18  C11 UNL     1      -2.252  -1.181  -0.707  1.00  0.00     0.152 C 
HETATM   19  C12 UNL     1      -3.762  -1.167  -0.716  1.00  0.00    -0.005 C 
HETATM   20  C13 UNL     1      -4.287   0.053  -0.751  1.00  0.00    -0.084 C 
HETATM   21  C14 UNL     1      -5.736   0.296  -0.765  1.00  0.00     0.043 C 
HETATM   22  C15 UNL     1      -3.371   1.250  -0.777  1.00  0.00     0.058 C 
HETATM   23  C16 UNL     1      -2.398   1.077   0.368  1.00  0.00     0.086 C 
HETATM   24  C17 UNL     1      -3.085   1.325   1.709  1.00  0.00     0.032 C 
ENDBRANCH  15  17
ENDBRANCH   5   7
ENDBRANCH   4   5
ENDBRANCH   3   4
TORSDOF 4
