REMARK  4 active torsions:
REMARK  status: ('A' for Active; 'I' for Inactive)
REMARK    1  A    between atoms: N1_7  and  C7_8 
REMARK    2  A    between atoms: C7_8  and  C8_9 
REMARK    3  A    between atoms: C13_16  and  N4_17 
REMARK    4  A    between atoms: N4_17  and  C14_18 
ROOT
HETATM    1  C1  UNL     1       0.463  -2.033  -1.342  1.00  0.00     0.054 C 
HETATM    2  C2  UNL     1      -0.289  -1.334  -0.043  1.00  0.00     0.134 A 
HETATM    3  C3  UNL     1      -0.345  -2.524   0.814  1.00  0.00     0.071 A 
HETATM    4  C4  UNL     1      -1.340  -3.400   0.886  1.00  0.00     0.032 C 
HETATM    5  C5  UNL     1      -2.522  -3.144   0.079  1.00  0.00     0.019 C 
HETATM    6  C6  UNL     1      -2.511  -1.999  -0.615  1.00  0.00     0.087 C 
HETATM    7  N1  UNL     1      -1.487  -0.960  -0.640  1.00  0.00    -0.368 N 
HETATM    8  N2  UNL     1       0.643  -2.821   1.830  1.00  0.00    -0.243 NA
HETATM    9  C12 UNL     1       1.571  -1.958   2.067  1.00  0.00     0.235 A 
HETATM   10  N3  UNL     1       1.584  -0.776   1.301  1.00  0.00    -0.226 NA
HETATM   11  C13 UNL     1       0.772  -0.450   0.353  1.00  0.00     0.140 A 
ENDROOT
BRANCH  11  12
HETATM   12  N4  UNL     1       1.150   0.784  -0.201  1.00  0.00    -0.342 N 
HETATM   13  H15 UNL     1       0.391   1.373  -0.585  1.00  0.00     0.167 HD
BRANCH  12  14
HETATM   14  C14 UNL     1       2.447   1.342  -0.336  1.00  0.00     0.034 A 
HETATM   15  C15 UNL     1       3.630   0.727   0.000  1.00  0.00     0.029 A 
HETATM   16  C16 UNL     1       4.894   1.256  -0.122  1.00  0.00     0.004 A 
HETATM   17  C17 UNL     1       5.004   2.544  -0.638  1.00  0.00     0.019 A 
HETATM   18  C18 UNL     1       3.858   3.201  -0.989  1.00  0.00     0.013 A 
HETATM   19 BR1  UNL     1       3.994   4.966  -1.697  1.00  0.00    -0.051 Br
HETATM   20  C19 UNL     1       2.628   2.610  -0.839  1.00  0.00     0.048 A 
ENDBRANCH  12  14
ENDBRANCH  11  12
BRANCH   7  21
HETATM   21  C7  UNL     1      -2.072   0.235  -1.210  1.00  0.00     0.132 C 
BRANCH  21  22
HETATM   22  C8  UNL     1      -2.448   1.152  -0.048  1.00  0.00     0.029 A 
HETATM   23  C9  UNL     1      -3.404   0.586   0.888  1.00  0.00    -0.024 A 
HETATM   24  C10 UNL     1      -4.322   1.451   0.614  1.00  0.00    -0.029 A 
HETATM   25  C11 UNL     1      -3.502   2.148  -0.368  1.00  0.00     0.037 A 
ENDBRANCH  21  22
ENDBRANCH   7  21
TORSDOF 4
