REMARK  1 active torsions:
REMARK  status: ('A' for Active; 'I' for Inactive)
REMARK    1  A    between atoms: O1_1  and  C1_2 
ROOT
HETATM    1  C1  UNL     1      -3.661  -0.537  -1.028  1.00  0.00     0.064 C 
HETATM    2  C2  UNL     1      -2.860   0.311  -0.395  1.00  0.00     0.010 C 
HETATM    3  C3  UNL     1      -2.032   1.181   0.415  1.00  0.00     0.030 C 
HETATM    4  C4  UNL     1      -2.129   2.654   0.112  1.00  0.00     0.009 C 
HETATM    5  C5  UNL     1      -0.724   3.166   0.588  1.00  0.00     0.046 C 
HETATM    6  C6  UNL     1       0.253   2.302  -0.242  1.00  0.00    -0.015 C 
HETATM    7 BR1  UNL     1      -0.268   2.752  -2.062  1.00  0.00    -0.056 Br
HETATM    8  C7  UNL     1       1.264   1.423  -0.110  1.00  0.00    -0.005 C 
HETATM    9  C8  UNL     1       1.558   1.233   1.334  1.00  0.00     0.084 C 
HETATM   10  C9  UNL     1       2.416   0.326   1.998  1.00  0.00     0.033 A 
HETATM   11  C10 UNL     1       2.129   0.824   3.249  1.00  0.00     0.103 A 
HETATM   12  N1  UNL     1       2.841   0.409   4.361  1.00  0.00    -0.257 NA
HETATM   13  C11 UNL     1       3.798  -0.492   4.077  1.00  0.00     0.232 A 
HETATM   14  N2  UNL     1       4.060  -0.972   2.848  1.00  0.00    -0.246 NA
HETATM   15  C12 UNL     1       3.419  -0.634   1.721  1.00  0.00     0.043 A 
HETATM   16  C13 UNL     1       3.651  -1.486   0.719  1.00  0.00     0.009 C 
HETATM   17  C14 UNL     1       2.615  -1.424  -0.279  1.00  0.00     0.093 C 
HETATM   18  C15 UNL     1       2.154  -1.875  -1.507  1.00  0.00     0.065 C 
HETATM   19  N3  UNL     1       0.948  -1.510  -2.172  1.00  0.00    -0.418 N 
HETATM   20  C16 UNL     1      -0.184  -1.800  -1.308  1.00  0.00     0.135 C 
HETATM   21  C17 UNL     1      -1.528  -1.778  -1.995  1.00  0.00     0.168 C 
HETATM   22  N4  UNL     1      -1.840  -0.677  -2.798  1.00  0.00    -0.286 NA
HETATM   23  C18 UNL     1      -3.012  -0.329  -3.096  1.00  0.00     0.082 C 
HETATM   24  C19 UNL     1      -3.984  -0.836  -2.412  1.00  0.00     0.069 C 
HETATM   25  H16 UNL     1       0.718  -1.082  -3.082  1.00  0.00     0.153 HD
ENDROOT
BRANCH   1  26
HETATM   26  O1  UNL     1      -3.855  -0.798   0.332  1.00  0.00    -0.361 OA
HETATM   27  H1  UNL     1      -4.115  -1.758   0.592  1.00  0.00     0.217 HD
ENDBRANCH   1  26
TORSDOF 1
