REMARK  2 active torsions:
REMARK  status: ('A' for Active; 'I' for Inactive)
REMARK    1  A    between atoms: C2_2  and  C3_3 
REMARK    2  A    between atoms: C18_23  and  O2_24 
ROOT
HETATM    1  C3  UNL     1       0.006   1.184  -0.026  1.00  0.00     0.062 C 
HETATM    2  C4  UNL     1       0.676   1.118  -1.202  1.00  0.00     0.310 A 
HETATM    3  N1  UNL     1      -0.196   1.618  -2.264  1.00  0.00     0.136 N 
HETATM    4  C5  UNL     1      -0.429   0.151  -1.937  1.00  0.00     0.320 A 
HETATM    5  C6  UNL     1      -0.980  -0.957  -1.365  1.00  0.00    -0.035 C 
HETATM    6  C7  UNL     1      -0.479  -2.330  -1.646  1.00  0.00     0.019 C 
HETATM    7  C8  UNL     1      -0.370  -2.977  -0.520  1.00  0.00    -0.008 C 
HETATM    8  C9  UNL     1       0.629  -2.601   0.181  1.00  0.00     0.034 A 
HETATM    9 BR1  UNL     1       2.016  -3.304   1.250  1.00  0.00    -0.087 Br
HETATM   10  C10 UNL     1       1.275  -1.357   0.514  1.00  0.00     0.133 A 
HETATM   11  C11 UNL     1       2.242  -0.559  -0.007  1.00  0.00     0.022 C 
HETATM   12  C12 UNL     1       3.137   0.595  -0.080  1.00  0.00     0.019 C 
HETATM   13  C13 UNL     1       3.993   0.926  -1.017  1.00  0.00     0.118 C 
HETATM   14  N2  UNL     1       3.686  -0.209  -1.879  1.00  0.00    -0.249 NA
HETATM   15  C14 UNL     1       2.458  -0.097  -2.432  1.00  0.00     0.254 C 
HETATM   16  O1  UNL     1       1.603   0.934  -2.220  1.00  0.00    -0.301 OA
HETATM   17  N3  UNL     1       1.243  -0.308   1.517  1.00  0.00    -0.388 N 
HETATM   18  C15 UNL     1       0.145   0.611   1.301  1.00  0.00     0.124 C 
HETATM   19  C16 UNL     1      -1.092  -0.337   1.496  1.00  0.00    -0.031 C 
HETATM   20  C17 UNL     1      -1.237  -0.719   2.949  1.00  0.00     0.048 C 
HETATM   21  C18 UNL     1      -2.071  -1.034   0.866  1.00  0.00     0.051 C 
HETATM   22  C19 UNL     1      -2.263  -1.107  -0.583  1.00  0.00     0.101 C 
HETATM   23  H6  UNL     1      -0.884   1.795  -3.020  1.00  0.00     0.321 HD
HETATM   24  H13 UNL     1       1.840  -0.154   2.334  1.00  0.00     0.156 HD
ENDROOT
BRANCH   1  25
HETATM   25  C2  UNL     1      -1.363   1.765  -0.012  1.00  0.00     0.013 C 
HETATM   26  C1  UNL     1      -1.305   3.133   0.730  1.00  0.00     0.006 C 
ENDBRANCH   1  25
BRANCH  21  27
HETATM   27  O2  UNL     1      -3.092  -1.833   1.444  1.00  0.00    -0.364 OA
HETATM   28  H18 UNL     1      -3.642  -1.360   2.155  1.00  0.00     0.217 HD
ENDBRANCH  21  27
TORSDOF 2
