REMARK  8 active torsions:
REMARK  status: ('A' for Active; 'I' for Inactive)
REMARK    1  A    between atoms: C2_2  and  N3_17 
REMARK    2  A    between atoms: C3_3  and  C4_4 
REMARK    3  A    between atoms: C7_8  and  N2_9 
REMARK    4  A    between atoms: N2_9  and  C8_10 
REMARK    5  A    between atoms: N3_17  and  C14_18 
REMARK    6  A    between atoms: C14_18  and  C15_19 
REMARK    7  A    between atoms: C15_19  and  C16_20 
REMARK    8  A    between atoms: C19_23  and  O1_24 
ROOT
HETATM    1  C1  UNL     1      -0.959   1.912  -0.141  1.00  0.00     0.067 C 
HETATM    2  C2  UNL     1      -1.071   0.862   0.905  1.00  0.00    -0.003 C 
HETATM    3  C3  UNL     1      -0.284  -0.185   1.242  1.00  0.00     0.004 C 
ENDROOT
BRANCH   3   4
HETATM    4  C4  UNL     1       0.761  -0.007   0.259  1.00  0.00     0.030 C 
HETATM    5  C5  UNL     1       1.926  -0.494  -0.211  1.00  0.00     0.002 C 
HETATM    6  C6  UNL     1       2.512   0.256  -1.356  1.00  0.00     0.162 C 
HETATM    7  C13 UNL     1       3.112  -1.438  -0.282  1.00  0.00     0.090 C 
HETATM    8  N1  UNL     1       3.871   0.550  -0.848  1.00  0.00    -0.276 NA
HETATM    9  C7  UNL     1       4.249  -0.499  -0.170  1.00  0.00     0.099 C 
BRANCH   9  10
HETATM   10  N2  UNL     1       5.490  -0.671   0.504  1.00  0.00    -0.345 N 
HETATM   11  H8  UNL     1       5.465  -1.242   1.377  1.00  0.00     0.167 HD
BRANCH  10  12
HETATM   12  C8  UNL     1       6.651  -0.063  -0.052  1.00  0.00     0.030 A 
HETATM   13  C9  UNL     1       7.561  -1.003  -0.356  1.00  0.00     0.008 A 
HETATM   14  C10 UNL     1       8.749  -0.307  -0.932  1.00  0.00     0.075 A 
HETATM   15  C11 UNL     1       8.375   1.128  -0.906  1.00  0.00    -0.006 A 
HETATM   16 BR1  UNL     1       9.413   2.615  -1.494  1.00  0.00    -0.055 Br
HETATM   17  C12 UNL     1       7.166   1.234  -0.396  1.00  0.00     0.044 A 
ENDBRANCH  10  12
ENDBRANCH   9  10
ENDBRANCH   3   4
BRANCH   2  18
HETATM   18  N3  UNL     1      -2.301   1.186   1.588  1.00  0.00    -0.393 N 
HETATM   19  H15 UNL     1      -2.279   2.050   2.184  1.00  0.00     0.159 HD
BRANCH  18  20
HETATM   20  C14 UNL     1      -3.549   0.449   1.540  1.00  0.00     0.124 C 
BRANCH  20  21
HETATM   21  C15 UNL     1      -4.128   0.576   0.173  1.00  0.00     0.058 C 
BRANCH  21  22
HETATM   22  C16 UNL     1      -5.431  -0.150   0.039  1.00  0.00    -0.057 A 
HETATM   23  C17 UNL     1      -6.556   0.600   0.354  1.00  0.00     0.010 A 
HETATM   24  C18 UNL     1      -7.850   0.129   0.299  1.00  0.00     0.037 A 
HETATM   25  C19 UNL     1      -8.013  -1.183  -0.101  1.00  0.00     0.065 A 
HETATM   26  C20 UNL     1      -6.917  -1.957  -0.421  1.00  0.00     0.037 A 
HETATM   27  C21 UNL     1      -5.635  -1.456  -0.355  1.00  0.00     0.010 A 
BRANCH  25  28
HETATM   28  O1  UNL     1      -9.313  -1.688  -0.167  1.00  0.00    -0.361 OA
HETATM   29  H22 UNL     1     -10.090  -1.088  -0.431  1.00  0.00     0.217 HD
ENDBRANCH  25  28
ENDBRANCH  21  22
ENDBRANCH  20  21
ENDBRANCH  18  20
ENDBRANCH   2  18
TORSDOF 8
