REMARK  4 active torsions:
REMARK  status: ('A' for Active; 'I' for Inactive)
REMARK    1  A    between atoms: N1_1  and  C1_2 
REMARK    2  A    between atoms: C1_2  and  C2_3 
REMARK    3  A    between atoms: C3_5  and  N3_6 
REMARK    4  A    between atoms: C8_12  and  N4_13 
ROOT
HETATM    1  C2  UNL     1       1.451  -0.597   1.305  1.00  0.00     0.081 C 
HETATM    2  N2  UNL     1       0.330  -0.718   0.660  1.00  0.00    -0.260 NA
HETATM    3  C3  UNL     1      -0.138  -0.174  -0.584  1.00  0.00     0.234 C 
HETATM    4  C9  UNL     1       0.258   1.230  -0.777  1.00  0.00     0.219 C 
HETATM    5  O1  UNL     1       1.626   1.287  -1.103  1.00  0.00    -0.353 OA
HETATM    6  C10 UNL     1       2.384   1.483   0.028  1.00  0.00     0.186 A 
HETATM    7 CL2  UNL     1       1.647   2.753   1.053  1.00  0.00    -0.078 Cl
HETATM    8  C11 UNL     1       3.764   1.886  -0.256  1.00  0.00     0.033 A 
HETATM    9  C12 UNL     1       4.606   0.988   0.284  1.00  0.00     0.001 A 
HETATM   10  C13 UNL     1       3.867  -0.099   0.968  1.00  0.00     0.014 A 
HETATM   11  C14 UNL     1       2.572   0.219   0.791  1.00  0.00     0.025 A 
ENDROOT
BRANCH   3  12
HETATM   12  N3  UNL     1      -1.566  -0.411  -0.624  1.00  0.00    -0.331 N 
HETATM   13  C4  UNL     1      -1.825  -1.817  -0.416  1.00  0.00     0.090 A 
HETATM   14  C5  UNL     1      -3.071  -2.302  -0.388  1.00  0.00     0.018 A 
HETATM   15  C6  UNL     1      -4.234  -1.443  -0.567  1.00  0.00     0.025 A 
HETATM   16  C7  UNL     1      -3.953  -0.170  -0.756  1.00  0.00     0.064 A 
HETATM   17 CL1  UNL     1      -5.224   1.014  -0.988  1.00  0.00    -0.085 Cl
HETATM   18  C8  UNL     1      -2.637   0.510  -0.823  1.00  0.00     0.365 A 
BRANCH  18  19
HETATM   19  N4  UNL     1      -2.533   1.205  -2.115  1.00  0.00     0.106 N 
HETATM   20  H8  UNL     1      -2.851   2.193  -2.015  1.00  0.00     0.316 HD
HETATM   21  H9  UNL     1      -3.170   0.735  -2.792  1.00  0.00     0.316 HD
ENDBRANCH  18  19
ENDBRANCH   3  12
BRANCH   1  22
HETATM   22  C1  UNL     1       1.711  -1.258   2.577  1.00  0.00     0.139 C 
BRANCH  22  23
HETATM   23  N1  UNL     1       1.789  -1.901   3.686  1.00  0.00    -0.310 NA
HETATM   24  H1  UNL     1       2.665  -1.865   4.285  1.00  0.00     0.186 HD
ENDBRANCH  22  23
ENDBRANCH   1  22
TORSDOF 4
