REMARK  5 active torsions:
REMARK  status: ('A' for Active; 'I' for Inactive)
REMARK    1  A    between atoms: O1_2  and  C2_3 
REMARK    2  A    between atoms: C3_4  and  C4_5 
REMARK    3  A    between atoms: C4_5  and  C5_6 
REMARK    4  A    between atoms: C10_13  and  N3_14 
REMARK    5  A    between atoms: N3_14  and  C11_15 
ROOT
HETATM    1  C5  UNL     1       1.732   2.019   0.006  1.00  0.00    -0.054 A 
HETATM    2  C6  UNL     1       1.918   2.780  -1.118  1.00  0.00     0.010 A 
HETATM    3  C7  UNL     1       0.929   2.801  -2.058  1.00  0.00     0.033 A 
HETATM    4  C8  UNL     1      -0.218   2.078  -1.876  1.00  0.00     0.072 A 
HETATM    5  N1  UNL     1      -1.146   2.152  -2.851  1.00  0.00    -0.241 NA
HETATM    6  C9  UNL     1      -2.316   1.465  -2.755  1.00  0.00     0.236 A 
HETATM    7  N2  UNL     1      -2.506   0.721  -1.664  1.00  0.00    -0.224 NA
HETATM    8  C10 UNL     1      -1.646   0.592  -0.657  1.00  0.00     0.142 A 
HETATM    9  C17 UNL     1      -0.470   1.293  -0.773  1.00  0.00     0.039 A 
HETATM   10  C18 UNL     1       0.558   1.308   0.141  1.00  0.00     0.025 A 
ENDROOT
BRANCH   8  11
HETATM   11  N3  UNL     1      -1.836  -0.197   0.506  1.00  0.00    -0.340 N 
HETATM   12  H11 UNL     1      -1.149  -0.243   1.254  1.00  0.00     0.167 HD
BRANCH  11  13
HETATM   13  C11 UNL     1      -2.925  -1.030   0.866  1.00  0.00     0.035 A 
HETATM   14  C12 UNL     1      -3.090  -1.688   2.068  1.00  0.00     0.029 A 
HETATM   15  C13 UNL     1      -4.161  -2.487   2.368  1.00  0.00     0.004 A 
HETATM   16  C14 UNL     1      -5.169  -2.686   1.451  1.00  0.00     0.019 A 
HETATM   17  C15 UNL     1      -5.050  -2.050   0.235  1.00  0.00     0.013 A 
HETATM   18 BR1  UNL     1      -6.477  -2.366  -0.989  1.00  0.00    -0.051 Br
HETATM   19  C16 UNL     1      -3.953  -1.255  -0.020  1.00  0.00     0.048 A 
ENDBRANCH  11  13
ENDBRANCH   8  11
BRANCH   1  20
HETATM   20  C4  UNL     1       2.790   1.968   1.056  1.00  0.00     0.067 C 
BRANCH  20  21
HETATM   21  C3  UNL     1       3.751   0.874   0.812  1.00  0.00     0.002 C 
HETATM   22  C2  UNL     1       3.810  -0.025  -0.155  1.00  0.00     0.130 C 
BRANCH  22  23
HETATM   23  O1  UNL     1       4.550  -1.087  -0.593  1.00  0.00    -0.368 OA
HETATM   24  C1  UNL     1       5.662  -1.646   0.047  1.00  0.00     0.208 C 
ENDBRANCH  22  23
ENDBRANCH  20  21
ENDBRANCH   1  20
TORSDOF 5
