REMARK  4 active torsions:
REMARK  status: ('A' for Active; 'I' for Inactive)
REMARK    1  A    between atoms: O1_2  and  C2_3 
REMARK    2  A    between atoms: C7_8  and  C8_9 
REMARK    3  A    between atoms: C8_9  and  N1_10 
REMARK    4  A    between atoms: N1_10  and  C9_11 
ROOT
HETATM    1  N1  UNL     1      -0.375  -0.796  -1.873  1.00  0.00    -0.386 N 
HETATM    2  H10 UNL     1      -0.352  -0.387  -2.857  1.00  0.00     0.160 HD
ENDROOT
BRANCH   1   3
HETATM    3  C8  UNL     1      -1.573  -1.359  -1.347  1.00  0.00     0.161 C 
BRANCH   3   4
HETATM    4  C7  UNL     1      -2.049  -0.660  -0.123  1.00  0.00    -0.007 A 
HETATM    5  C2  UNL     1      -2.680   0.581  -0.279  1.00  0.00     0.076 A 
HETATM    6  C3  UNL     1      -3.149   1.291   0.811  1.00  0.00     0.037 A 
HETATM    7  C4  UNL     1      -2.991   0.763   2.077  1.00  0.00     0.003 A 
HETATM    8  C5  UNL     1      -2.370  -0.465   2.275  1.00  0.00     0.001 A 
HETATM    9  C6  UNL     1      -1.915  -1.144   1.157  1.00  0.00     0.011 A 
BRANCH   5  10
HETATM   10  O1  UNL     1      -2.823   1.082  -1.565  1.00  0.00    -0.355 OA
HETATM   11  C1  UNL     1      -3.456   2.331  -1.753  1.00  0.00     0.210 C 
ENDBRANCH   5  10
ENDBRANCH   3   4
ENDBRANCH   1   3
BRANCH   1  12
HETATM   12  C9  UNL     1       0.874  -0.696  -1.225  1.00  0.00     0.025 A 
HETATM   13  C10 UNL     1       1.868  -1.332  -1.864  1.00  0.00     0.008 A 
HETATM   14  C11 UNL     1       3.305  -1.448  -1.493  1.00  0.00     0.089 A 
HETATM   15  C12 UNL     1       3.489  -0.717  -0.215  1.00  0.00     0.047 A 
HETATM   16  N2  UNL     1       4.708  -0.740   0.262  1.00  0.00    -0.246 NA
HETATM   17  C15 UNL     1       2.445  -0.009   0.515  1.00  0.00    -0.011 A 
HETATM   18  C13 UNL     1       4.868  -0.023   1.503  1.00  0.00     0.227 A 
HETATM   19  N3  UNL     1       4.005   0.643   2.229  1.00  0.00    -0.278 NA
HETATM   20  C14 UNL     1       2.610   0.723   1.770  1.00  0.00     0.191 A 
HETATM   21  C16 UNL     1       1.221  -0.018   0.016  1.00  0.00     0.039 A 
ENDBRANCH   1  12
TORSDOF 4
