REMARK  8 active torsions:
REMARK  status: ('A' for Active; 'I' for Inactive)
REMARK    1  A    between atoms: C3_3  and  C4_4 
REMARK    2  A    between atoms: C5_5  and  C6_6 
REMARK    3  A    between atoms: C6_6  and  N1_7 
REMARK    4  A    between atoms: N1_7  and  C7_8 
REMARK    5  A    between atoms: C12_15  and  N4_16 
REMARK    6  A    between atoms: N4_16  and  C13_17 
REMARK    7  A    between atoms: C13_17  and  C14_18 
REMARK    8  A    between atoms: C19_23  and  O1_24 
ROOT
HETATM    1  C7  UNL     1       1.703  -2.085   0.162  1.00  0.00     0.137 A 
HETATM    2  N2  UNL     1       2.247  -3.054  -0.591  1.00  0.00    -0.224 NA
HETATM    3  C8  UNL     1       1.559  -4.007  -1.238  1.00  0.00     0.235 A 
HETATM    4  N3  UNL     1       0.218  -3.995  -1.125  1.00  0.00    -0.241 NA
HETATM    5  C9  UNL     1      -0.416  -3.062  -0.391  1.00  0.00     0.072 A 
HETATM    6  C10 UNL     1      -1.792  -3.106  -0.317  1.00  0.00     0.035 A 
HETATM    7  C11 UNL     1      -2.343  -2.109   0.458  1.00  0.00     0.031 A 
HETATM    8  C12 UNL     1      -1.663  -1.120   1.129  1.00  0.00     0.029 A 
HETATM    9  C21 UNL     1      -0.292  -1.137   1.012  1.00  0.00     0.046 A 
HETATM   10  C22 UNL     1       0.327  -2.101   0.258  1.00  0.00     0.041 A 
ENDROOT
BRANCH   8  11
HETATM   11  N4  UNL     1      -2.265  -0.098   1.891  1.00  0.00    -0.386 N 
HETATM   12  H14 UNL     1      -1.612   0.561   2.407  1.00  0.00     0.160 HD
BRANCH  11  13
HETATM   13  C13 UNL     1      -3.564   0.414   2.237  1.00  0.00     0.161 C 
BRANCH  13  14
HETATM   14  C14 UNL     1      -4.072   1.315   1.174  1.00  0.00    -0.007 A 
HETATM   15  C15 UNL     1      -3.853   2.659   1.540  1.00  0.00     0.011 A 
HETATM   16  C16 UNL     1      -4.199   3.733   0.749  1.00  0.00     0.001 A 
HETATM   17  C17 UNL     1      -4.795   3.526  -0.477  1.00  0.00     0.003 A 
HETATM   18  C18 UNL     1      -5.014   2.223  -0.847  1.00  0.00     0.037 A 
HETATM   19  C19 UNL     1      -4.663   1.171  -0.045  1.00  0.00     0.076 A 
BRANCH  19  20
HETATM   20  O1  UNL     1      -4.857  -0.140  -0.355  1.00  0.00    -0.355 OA
HETATM   21  C20 UNL     1      -5.450  -0.578  -1.558  1.00  0.00     0.210 C 
ENDBRANCH  19  20
ENDBRANCH  13  14
ENDBRANCH  11  13
ENDBRANCH   8  11
BRANCH   1  22
HETATM   22  N1  UNL     1       2.556  -1.155   0.781  1.00  0.00    -0.371 N 
HETATM   23  H10 UNL     1       2.263  -0.364   1.386  1.00  0.00     0.161 HD
BRANCH  22  24
HETATM   24  C6  UNL     1       4.010  -1.226   0.614  1.00  0.00     0.148 C 
BRANCH  24  25
HETATM   25  C5  UNL     1       4.418  -1.057  -0.794  1.00  0.00    -0.007 C 
HETATM   26  C4  UNL     1       5.194  -0.115  -1.266  1.00  0.00    -0.003 C 
BRANCH  26  27
HETATM   27  C3  UNL     1       5.811   0.956  -0.500  1.00  0.00    -0.005 C 
HETATM   28  C2  UNL     1       6.603   1.915  -0.989  1.00  0.00    -0.031 C 
HETATM   29  C1  UNL     1       7.211   2.986  -0.179  1.00  0.00     0.036 C 
ENDBRANCH  26  27
ENDBRANCH  24  25
ENDBRANCH  22  24
ENDBRANCH   1  22
TORSDOF 8
