REMARK  0 active torsions:
REMARK  status: ('A' for Active; 'I' for Inactive)
ROOT
HETATM    1  B1  UNL     1       4.590  -2.203  -0.780  1.00  0.00     0.181 B 
HETATM    2  C1  UNL     1       3.732  -0.867  -0.577  1.00  0.00    -0.070 A 
HETATM    3  C2  UNL     1       2.905  -1.770  -0.084  1.00  0.00     0.015 A 
HETATM    4  C3  UNL     1       1.680  -2.139   0.519  1.00  0.00     0.040 A 
HETATM    5  N1  UNL     1       2.068  -3.214   1.194  1.00  0.00    -0.246 NA
HETATM    6  C4  UNL     1       1.247  -3.882   2.017  1.00  0.00     0.233 A 
HETATM    7  N2  UNL     1       0.017  -3.412   2.129  1.00  0.00    -0.242 NA
HETATM    8  C5  UNL     1      -0.483  -2.340   1.499  1.00  0.00     0.066 A 
HETATM    9  C6  UNL     1       0.351  -1.645   0.643  1.00  0.00     0.004 A 
HETATM   10  C7  UNL     1      -0.156  -0.570   0.059  1.00  0.00     0.088 C 
HETATM   11  C8  UNL     1      -0.152   0.589  -0.764  1.00  0.00     0.325 C 
HETATM   12  N3  UNL     1       0.972   1.537  -0.493  1.00  0.00    -0.393 N 
HETATM   13  C9  UNL     1       1.634   2.743  -0.964  1.00  0.00     0.059 C 
HETATM   14  C10 UNL     1       2.953   2.547  -1.245  1.00  0.00     0.050 C 
HETATM   15  C11 UNL     1       3.105   1.104  -0.919  1.00  0.00     0.026 C 
HETATM   16  C12 UNL     1       4.274   0.440  -1.081  1.00  0.00    -0.010 C 
HETATM   17  N4  UNL     1      -1.320   1.449  -0.613  1.00  0.00     0.115 N 
HETATM   18  C13 UNL     1      -2.569   0.896  -1.013  1.00  0.00     0.258 C 
HETATM   19  C14 UNL     1      -3.299   1.901  -1.804  1.00  0.00     0.079 C 
HETATM   20  C15 UNL     1      -4.081   2.879  -1.443  1.00  0.00    -0.018 C 
HETATM   21  C16 UNL     1      -4.574   2.911  -0.214  1.00  0.00    -0.020 C 
HETATM   22  C17 UNL     1      -4.288   1.659   0.536  1.00  0.00     0.002 C 
HETATM   23  C18 UNL     1      -3.402   0.677   0.263  1.00  0.00    -0.038 C 
HETATM   24  C19 UNL     1      -3.626  -0.272   1.409  1.00  0.00     0.051 C 
HETATM   25  C20 UNL     1      -2.850  -1.262   1.892  1.00  0.00    -0.014 C 
HETATM   26  C21 UNL     1      -1.661  -2.131   1.974  1.00  0.00     0.029 C 
HETATM   27  H1  UNL     1       5.575  -2.336  -0.073  1.00  0.00    -0.022 HD
HETATM   28  H2  UNL     1       4.868  -2.507  -1.915  1.00  0.00    -0.022 HD
HETATM   29  H7  UNL     1       1.488   1.236   0.393  1.00  0.00     0.155 HD
HETATM   30  H12 UNL     1      -1.340   1.903   0.323  1.00  0.00     0.319 HD
ENDROOT
TORSDOF 0
