REMARK  4 active torsions:
REMARK  status: ('A' for Active; 'I' for Inactive)
REMARK    1  A    between atoms: N1_7  and  C7_8 
REMARK    2  A    between atoms: C12_15  and  N4_16 
REMARK    3  A    between atoms: N4_16  and  C13_17 
REMARK    4  A    between atoms: C13_17  and  C14_18 
ROOT
HETATM    1  C7  UNL     1      -2.575   1.260   0.735  1.00  0.00     0.148 A 
HETATM    2  N2  UNL     1      -3.223   2.373   1.123  1.00  0.00    -0.223 NA
HETATM    3  C8  UNL     1      -2.685   3.584   0.927  1.00  0.00     0.236 A 
HETATM    4  N3  UNL     1      -1.478   3.683   0.332  1.00  0.00    -0.241 NA
HETATM    5  C9  UNL     1      -0.778   2.618  -0.080  1.00  0.00     0.072 A 
HETATM    6  C10 UNL     1       0.447   2.744  -0.682  1.00  0.00     0.035 A 
HETATM    7  C11 UNL     1       1.059   1.569  -1.055  1.00  0.00     0.031 A 
HETATM    8  C12 UNL     1       0.562   0.296  -0.883  1.00  0.00     0.029 A 
HETATM    9  C20 UNL     1      -0.666   0.253  -0.275  1.00  0.00     0.046 A 
HETATM   10  C21 UNL     1      -1.342   1.379   0.128  1.00  0.00     0.041 A 
ENDROOT
BRANCH   8  11
HETATM   11  N4  UNL     1       1.221  -0.892  -1.273  1.00  0.00    -0.386 N 
HETATM   12  H10 UNL     1       0.661  -1.781  -1.069  1.00  0.00     0.160 HD
BRANCH  11  13
HETATM   13  C13 UNL     1       2.475  -1.182  -1.881  1.00  0.00     0.158 C 
BRANCH  13  14
HETATM   14  C14 UNL     1       3.668  -0.826  -1.053  1.00  0.00    -0.041 A 
HETATM   15  C15 UNL     1       4.486   0.280  -1.030  1.00  0.00     0.010 A 
HETATM   16  C16 UNL     1       5.525   0.366  -0.134  1.00  0.00     0.024 A 
HETATM   17  C17 UNL     1       5.826  -0.609   0.782  1.00  0.00     0.034 A 
HETATM   18 CL1  UNL     1       7.182  -0.323   1.836  1.00  0.00    -0.084 Cl
HETATM   19  C18 UNL     1       5.025  -1.725   0.779  1.00  0.00     0.024 A 
HETATM   20  C19 UNL     1       3.981  -1.818  -0.115  1.00  0.00     0.010 A 
ENDBRANCH  13  14
ENDBRANCH  11  13
ENDBRANCH   8  11
BRANCH   1  21
HETATM   21  N1  UNL     1      -3.197  -0.000   0.970  1.00  0.00    -0.307 N 
HETATM   22  C2  UNL     1      -4.066  -0.598   0.013  1.00  0.00     0.031 A 
HETATM   23  C1  UNL     1      -4.251   0.082  -1.085  1.00  0.00     0.043 C 
HETATM   24  C3  UNL     1      -4.741  -1.881   0.175  1.00  0.00     0.029 A 
HETATM   25  C4  UNL     1      -4.499  -2.509   1.320  1.00  0.00     0.004 A 
HETATM   26  C5  UNL     1      -3.610  -1.933   2.340  1.00  0.00     0.018 A 
HETATM   27  C6  UNL     1      -2.991  -0.752   2.185  1.00  0.00     0.099 A 
ENDBRANCH   1  21
TORSDOF 4
