REMARK  5 active torsions:
REMARK  status: ('A' for Active; 'I' for Inactive)
REMARK    1  A    between atoms: N1_5  and  C4_6 
REMARK    2  A    between atoms: C7_9  and  N2_10 
REMARK    3  A    between atoms: C8_11  and  N3_12 
REMARK    4  A    between atoms: C9_13  and  N4_14 
REMARK    5  A    between atoms: N4_14  and  C10_15 
ROOT
HETATM    1  C4  UNL     1      -2.011  -0.310  -0.440  1.00  0.00     0.032 A 
HETATM    2  C5  UNL     1      -1.284   0.662  -0.951  1.00  0.00     0.031 A 
HETATM    3  C6  UNL     1       0.116   0.371  -1.233  1.00  0.00     0.060 A 
HETATM    4  C7  UNL     1       0.618  -0.828  -0.978  1.00  0.00     0.165 A 
HETATM    5  O1  UNL     1      -0.175  -1.811  -0.446  1.00  0.00    -0.328 OA
HETATM    6  C16 UNL     1      -1.544  -1.672  -0.122  1.00  0.00     0.234 A 
ENDROOT
BRANCH   4   7
HETATM    7  N2  UNL     1       1.953  -1.269  -1.193  1.00  0.00    -0.218 NA
HETATM    8  C8  UNL     1       2.908  -0.505  -0.752  1.00  0.00     0.237 C 
BRANCH   8   9
HETATM    9  N3  UNL     1       2.569   0.699  -0.096  1.00  0.00    -0.237 NA
HETATM   10  C9  UNL     1       3.275   1.736   0.064  1.00  0.00     0.208 C 
BRANCH  10  11
HETATM   11  N4  UNL     1       4.577   1.781  -0.444  1.00  0.00    -0.351 N 
HETATM   12  H8  UNL     1       4.842   2.563  -1.114  1.00  0.00     0.166 HD
BRANCH  11  13
HETATM   13  C10 UNL     1       5.548   0.823  -0.066  1.00  0.00     0.034 A 
HETATM   14  C11 UNL     1       6.767   0.824  -0.756  1.00  0.00     0.029 A 
HETATM   15  C12 UNL     1       7.785  -0.055  -0.453  1.00  0.00     0.004 A 
HETATM   16  C13 UNL     1       7.646  -0.985   0.554  1.00  0.00     0.019 A 
HETATM   17  C14 UNL     1       6.470  -1.011   1.244  1.00  0.00     0.013 A 
HETATM   18 BR1  UNL     1       6.197  -2.266   2.652  1.00  0.00    -0.051 Br
HETATM   19  C15 UNL     1       5.477  -0.120   0.916  1.00  0.00     0.048 A 
ENDBRANCH  11  13
ENDBRANCH  10  11
ENDBRANCH   8   9
ENDBRANCH   4   7
BRANCH   1  20
HETATM   20  N1  UNL     1      -3.383  -0.096  -0.141  1.00  0.00    -0.379 N 
HETATM   21  C3  UNL     1      -3.502   0.254   1.261  1.00  0.00     0.151 C 
HETATM   22  C2  UNL     1      -4.612   1.184   1.539  1.00  0.00     0.016 C 
HETATM   23  C1  UNL     1      -5.896   1.293   1.169  1.00  0.00     0.031 C 
HETATM   24 CL1  UNL     1      -6.807   2.643   1.817  1.00  0.00    -0.085 Cl
HETATM   25  C20 UNL     1      -6.763   0.506   0.302  1.00  0.00     0.019 C 
HETATM   26  C19 UNL     1      -6.628  -0.505  -0.566  1.00  0.00    -0.023 C 
HETATM   27  C18 UNL     1      -5.384  -1.241  -0.974  1.00  0.00     0.047 C 
HETATM   28  C17 UNL     1      -4.263  -0.280  -1.280  1.00  0.00     0.127 C 
ENDBRANCH   1  20
TORSDOF 5
