REMARK  6 active torsions:
REMARK  status: ('A' for Active; 'I' for Inactive)
REMARK    1  A    between atoms: C2_2  and  C3_4 
REMARK    2  A    between atoms: C4_6  and  C5_7 
REMARK    3  A    between atoms: C8_10  and  C9_11 
REMARK    4  A    between atoms: C9_11  and  N1_12 
REMARK    5  A    between atoms: C13_16  and  O1_17 
REMARK    6  A    between atoms: O1_17  and  C14_18 
ROOT
HETATM    1  C5  UNL     1      -1.352  -2.190   1.373  1.00  0.00     0.087 C 
HETATM    2  C6  UNL     1      -0.603  -2.476   0.241  1.00  0.00     0.038 C 
HETATM    3  C7  UNL     1       0.091  -2.679  -0.871  1.00  0.00     0.036 C 
HETATM    4  C8  UNL     1       0.863  -3.003  -2.016  1.00  0.00    -0.029 C 
HETATM    5  C10 UNL     1       1.150  -2.293  -3.121  1.00  0.00     0.009 C 
HETATM    6  C11 UNL     1       0.799  -0.937  -3.497  1.00  0.00    -0.001 C 
HETATM    7  C12 UNL     1       0.183   0.091  -2.946  1.00  0.00     0.010 C 
HETATM    8  C13 UNL     1      -0.464   0.474  -1.711  1.00  0.00     0.185 C 
HETATM    9  C19 UNL     1      -1.300  -0.483  -0.988  1.00  0.00     0.125 C 
HETATM   10  N3  UNL     1      -1.454  -1.491  -0.308  1.00  0.00    -0.266 NA
ENDROOT
BRANCH   8  11
HETATM   11  O1  UNL     1      -0.873   1.813  -1.598  1.00  0.00    -0.371 OA
BRANCH  11  12
HETATM   12  C14 UNL     1      -0.049   2.535  -0.786  1.00  0.00     0.126 C 
HETATM   13  C15 UNL     1       0.540   3.807  -1.307  1.00  0.00     0.051 C 
HETATM   14  C16 UNL     1       1.065   4.587  -0.086  1.00  0.00     0.116 C 
HETATM   15  N2  UNL     1       1.421   3.706   0.978  1.00  0.00    -0.421 N 
HETATM   16  C17 UNL     1       0.368   2.942   1.578  1.00  0.00     0.116 C 
HETATM   17  H20 UNL     1       2.323   3.217   0.857  1.00  0.00     0.153 HD
HETATM   18  C18 UNL     1      -0.764   2.867   0.533  1.00  0.00     0.051 C 
ENDBRANCH  11  12
ENDBRANCH   8  11
BRANCH   4  19
HETATM   19  C9  UNL     1       1.317  -4.369  -1.706  1.00  0.00     0.305 C 
BRANCH  19  20
HETATM   20  N1  UNL     1       0.254  -5.319  -1.505  1.00  0.00     0.082 N 
HETATM   21  H9  UNL     1       0.701  -6.270  -1.675  1.00  0.00     0.313 HD
HETATM   22  H10 UNL     1      -0.527  -5.246  -2.162  1.00  0.00     0.313 HD
ENDBRANCH  19  20
ENDBRANCH   4  19
BRANCH   1  23
HETATM   23  C4  UNL     1      -0.668  -1.707   2.627  1.00  0.00     0.002 C 
HETATM   24  C3  UNL     1      -1.265  -0.618   3.163  1.00  0.00     0.041 C 
HETATM   25 CL1  UNL     1      -2.724   0.045   2.412  1.00  0.00    -0.086 Cl
BRANCH  24  26
HETATM   26  C2  UNL     1      -0.640  -0.112   4.382  1.00  0.00     0.107 A 
HETATM   27  C1  UNL     1      -0.176   0.479   5.525  1.00  0.00     0.304 A 
HETATM   28  F1  UNL     1      -1.357   1.000   4.803  1.00  0.00    -0.394 F 
ENDBRANCH  24  26
ENDBRANCH   1  23
TORSDOF 6
