REMARK  4 active torsions:
REMARK  status: ('A' for Active; 'I' for Inactive)
REMARK    1  A    between atoms: C3_3  and  N1_4 
REMARK    2  A    between atoms: N1_4  and  C4_5 
REMARK    3  A    between atoms: C4_5  and  C5_6 
REMARK    4  A    between atoms: N4_20  and  C16_21 
ROOT
HETATM    1  C1  UNL     1       0.035   1.395   0.155  1.00  0.00     0.039 C 
HETATM    2  C2  UNL     1      -0.331   0.152  -0.617  1.00  0.00     0.132 C 
HETATM    3  C3  UNL     1       0.331  -1.001  -0.026  1.00  0.00     0.014 C 
HETATM    4  C11 UNL     1      -0.384  -2.103   0.096  1.00  0.00     0.070 C 
HETATM    5  C12 UNL     1      -0.541  -3.490   0.495  1.00  0.00     0.004 C 
HETATM    6  C13 UNL     1      -1.791  -3.761   0.159  1.00  0.00     0.114 C 
HETATM    7  N2  UNL     1      -3.133  -3.863  -0.265  1.00  0.00    -0.254 NA
HETATM    8  C14 UNL     1      -3.909  -2.890  -0.529  1.00  0.00     0.233 C 
HETATM    9  N3  UNL     1      -3.103  -1.780  -0.294  1.00  0.00    -0.237 NA
HETATM   10  C15 UNL     1      -2.541  -1.123  -1.250  1.00  0.00     0.212 C 
HETATM   11  N4  UNL     1      -1.786  -0.040  -0.634  1.00  0.00    -0.332 N 
ENDROOT
BRANCH   3  12
HETATM   12  N1  UNL     1       1.635  -0.381   0.171  1.00  0.00    -0.390 N 
HETATM   13  H5  UNL     1       1.944   0.005   1.108  1.00  0.00     0.159 HD
BRANCH  12  14
HETATM   14  C4  UNL     1       2.511  -0.318  -0.970  1.00  0.00     0.158 C 
BRANCH  14  15
HETATM   15  C5  UNL     1       3.774   0.338  -0.546  1.00  0.00    -0.041 A 
HETATM   16  C6  UNL     1       4.055   1.678  -0.578  1.00  0.00     0.010 A 
HETATM   17  C7  UNL     1       5.290   2.135  -0.143  1.00  0.00     0.024 A 
HETATM   18  C8  UNL     1       6.265   1.280   0.330  1.00  0.00     0.034 A 
HETATM   19 CL1  UNL     1       7.831   1.872   0.880  1.00  0.00    -0.084 Cl
HETATM   20  C9  UNL     1       6.014  -0.076   0.375  1.00  0.00     0.024 A 
HETATM   21  C10 UNL     1       4.776  -0.504  -0.064  1.00  0.00     0.010 A 
ENDBRANCH  14  15
ENDBRANCH  12  14
ENDBRANCH   3  12
BRANCH  11  22
HETATM   22  C16 UNL     1      -2.782   0.837  -0.067  1.00  0.00     0.036 A 
HETATM   23  C17 UNL     1      -2.712   1.424   1.175  1.00  0.00     0.029 A 
HETATM   24  C18 UNL     1      -3.660   2.281   1.681  1.00  0.00     0.002 A 
HETATM   25  C19 UNL     1      -4.764   2.595   0.926  1.00  0.00     0.000 A 
HETATM   26  C20 UNL     1      -4.928   2.058  -0.331  1.00  0.00     0.002 A 
HETATM   27  C21 UNL     1      -3.937   1.209  -0.769  1.00  0.00     0.029 A 
ENDBRANCH  11  22
TORSDOF 4
