REMARK  3 active torsions:
REMARK  status: ('A' for Active; 'I' for Inactive)
REMARK    1  A    between atoms: C2_2  and  C3_3 
REMARK    2  A    between atoms: C13_16  and  N3_17 
REMARK    3  A    between atoms: C18_23  and  N4_24 
ROOT
HETATM    1  C3  UNL     1      -2.339   1.389   0.431  1.00  0.00    -0.036 C 
HETATM    2  C4  UNL     1      -1.232   1.870  -0.124  1.00  0.00     0.114 A 
HETATM    3  C5  UNL     1      -0.219   1.046   0.164  1.00  0.00     0.015 A 
HETATM    4 CL1  UNL     1       0.345   2.634   0.658  1.00  0.00    -0.166 Cl
HETATM    5  C6  UNL     1      -0.392  -0.378  -0.140  1.00  0.00     0.091 C 
HETATM    6  C7  UNL     1      -1.368  -0.451  -1.294  1.00  0.00     0.017 C 
HETATM    7  C8  UNL     1      -1.530  -1.737  -1.550  1.00  0.00     0.054 C 
HETATM    8  C9  UNL     1      -2.799  -2.245  -1.128  1.00  0.00     0.048 C 
HETATM    9  C10 UNL     1      -3.414  -1.809  -0.049  1.00  0.00     0.085 C 
HETATM   10  N1  UNL     1      -3.191  -0.879   0.954  1.00  0.00    -0.395 N 
HETATM   11  C11 UNL     1      -2.308   0.176   1.273  1.00  0.00     0.155 C 
HETATM   12  N2  UNL     1      -0.313  -2.128  -2.162  1.00  0.00    -0.263 NA
HETATM   13  C12 UNL     1       0.587  -1.171  -2.296  1.00  0.00     0.127 C 
HETATM   14  C13 UNL     1       0.887  -0.828  -0.881  1.00  0.00     0.279 C 
HETATM   15  H8  UNL     1      -3.985  -1.160   1.621  1.00  0.00     0.159 HD
ENDROOT
BRANCH  14  16
HETATM   16  N3  UNL     1       1.969   0.113  -0.709  1.00  0.00     0.136 N 
HETATM   17  C14 UNL     1       3.084  -0.339  -1.530  1.00  0.00     0.304 C 
HETATM   18  C15 UNL     1       4.247   0.615  -1.354  1.00  0.00     0.018 C 
HETATM   19  C16 UNL     1       4.442   1.202  -0.189  1.00  0.00    -0.010 C 
HETATM   20 BR1  UNL     1       5.860   2.426   0.184  1.00  0.00    -0.056 Br
HETATM   21  C17 UNL     1       3.557   0.964   0.989  1.00  0.00     0.114 C 
HETATM   22  C18 UNL     1       2.453   0.010   0.689  1.00  0.00     0.457 C 
BRANCH  22  23
HETATM   23  N4  UNL     1       2.994  -1.355   0.818  1.00  0.00     0.112 N 
HETATM   24  H19 UNL     1       2.762  -1.767   1.749  1.00  0.00     0.315 HD
HETATM   25  H20 UNL     1       4.015  -1.318   0.744  1.00  0.00     0.315 HD
ENDBRANCH  22  23
ENDBRANCH  14  16
BRANCH   1  26
HETATM   26  C2  UNL     1      -3.516   2.182   0.123  1.00  0.00    -0.020 C 
HETATM   27  C1  UNL     1      -4.637   1.724   0.665  1.00  0.00     0.031 C 
ENDBRANCH   1  26
TORSDOF 3
