REMARK  2 active torsions:
REMARK  status: ('A' for Active; 'I' for Inactive)
REMARK    1  A    between atoms: N1_1  and  C1_2 
REMARK    2  A    between atoms: C6_8  and  C7_9 
ROOT
HETATM    1  C1  UNL     1      -2.404  -0.581   1.305  1.00  0.00     0.268 A 
HETATM    2  N2  UNL     1      -1.203  -1.377   0.683  1.00  0.00    -0.011 N 
HETATM    3  C2  UNL     1      -0.727  -0.874  -0.341  1.00  0.00     0.236 A 
HETATM    4  C3  UNL     1      -1.111  -0.467   1.029  1.00  0.00     0.193 A 
HETATM    5  C4  UNL     1      -0.860   0.958   1.201  1.00  0.00     0.086 A 
HETATM    6  C5  UNL     1      -0.783   2.218   1.747  1.00  0.00    -0.000 A 
HETATM    7  C6  UNL     1      -1.343   1.439   2.744  1.00  0.00     0.060 A 
HETATM    8  C7  UNL     1      -1.495   0.065   2.410  1.00  0.00     0.075 A 
HETATM    9  C8  UNL     1      -1.693  -1.173   2.274  1.00  0.00     0.257 A 
HETATM   10  N3  UNL     1      -0.585   3.514   1.935  1.00  0.00    -0.372 N 
HETATM   11  C9  UNL     1       0.734   3.187   2.364  1.00  0.00     0.085 C 
HETATM   12  C10 UNL     1       1.850   2.588   2.200  1.00  0.00     0.015 C 
HETATM   13  C11 UNL     1       2.776   1.766   1.484  1.00  0.00     0.139 A 
HETATM   14  C12 UNL     1       3.242   1.037   0.512  1.00  0.00     0.018 A 
HETATM   15 CL1  UNL     1       4.610   0.854   1.526  1.00  0.00    -0.172 Cl
HETATM   16  C13 UNL     1       2.914   0.425  -0.753  1.00  0.00     0.016 C 
HETATM   17  C14 UNL     1       2.511  -0.083  -1.878  1.00  0.00    -0.021 C 
HETATM   18  C15 UNL     1       1.141   0.107  -2.308  1.00  0.00     0.067 C 
HETATM   19  C16 UNL     1       0.379  -1.179  -2.276  1.00  0.00    -0.028 A 
HETATM   20  C17 UNL     1       0.637  -1.994  -3.376  1.00  0.00     0.018 A 
HETATM   21 BR1  UNL     1       1.797  -1.477  -4.782  1.00  0.00    -0.051 Br
HETATM   22  C18 UNL     1       0.083  -3.231  -3.601  1.00  0.00     0.019 A 
HETATM   23  C19 UNL     1      -0.808  -3.733  -2.676  1.00  0.00     0.002 A 
HETATM   24  C20 UNL     1      -1.100  -2.980  -1.589  1.00  0.00     0.010 A 
HETATM   25  C21 UNL     1      -0.516  -1.769  -1.425  1.00  0.00    -0.008 A 
HETATM   26  H7  UNL     1      -1.458   3.886   1.660  1.00  0.00     0.164 HD
ENDROOT
BRANCH   1  27
HETATM   27  N1  UNL     1      -2.912   0.356   0.282  1.00  0.00    -0.307 N 
HETATM   28  H1  UNL     1      -3.666   0.921   0.750  1.00  0.00     0.120 HD
HETATM   29  H2  UNL     1      -3.341  -0.182  -0.494  1.00  0.00     0.120 HD
ENDBRANCH   1  27
TORSDOF 2
