REMARK  2 active torsions:
REMARK  status: ('A' for Active; 'I' for Inactive)
REMARK    1  A    between atoms: N1_13  and  C12_14 
REMARK    2  A    between atoms: C12_14  and  C13_15 
ROOT
HETATM    1  C1  UNL     1      -1.814   2.764  -1.324  1.00  0.00     0.043 C 
HETATM    2  C2  UNL     1      -2.070   1.648  -0.659  1.00  0.00     0.025 C 
HETATM    3  C3  UNL     1      -2.728   1.917   0.643  1.00  0.00     0.047 C 
HETATM    4  C4  UNL     1      -2.916   1.097   1.665  1.00  0.00     0.013 C 
HETATM    5 BR1  UNL     1      -3.823   1.991   3.081  1.00  0.00    -0.051 Br
HETATM    6  C5  UNL     1      -2.606  -0.292   1.979  1.00  0.00     0.018 C 
HETATM    7  C6  UNL     1      -1.886  -1.273   1.410  1.00  0.00     0.018 C 
HETATM    8  C7  UNL     1      -1.028  -1.536   0.210  1.00  0.00     0.132 C 
HETATM    9  C8  UNL     1      -0.992  -3.050   0.111  1.00  0.00     0.048 C 
HETATM   10  C9  UNL     1      -0.093  -3.102  -0.919  1.00  0.00     0.058 C 
HETATM   11  C10 UNL     1       1.340  -2.612  -0.776  1.00  0.00     0.048 C 
HETATM   12  C11 UNL     1       1.510  -2.118   0.484  1.00  0.00     0.090 C 
HETATM   13  N1  UNL     1       0.318  -1.238   0.737  1.00  0.00    -0.363 N 
HETATM   14  N2  UNL     1      -0.619  -3.462  -2.263  1.00  0.00    -0.242 NA
HETATM   15  C19 UNL     1      -1.522  -2.576  -2.849  1.00  0.00     0.235 C 
HETATM   16  N3  UNL     1      -2.028  -1.332  -2.212  1.00  0.00    -0.225 NA
HETATM   17  C20 UNL     1      -1.508  -0.937  -1.010  1.00  0.00     0.142 C 
HETATM   18  N4  UNL     1      -1.642   0.463  -1.374  1.00  0.00    -0.342 N 
HETATM   19  H16 UNL     1      -1.371   0.650  -2.387  1.00  0.00     0.167 HD
ENDROOT
BRANCH  13  20
HETATM   20  C12 UNL     1       0.731  -0.123   1.623  1.00  0.00     0.162 C 
BRANCH  20  21
HETATM   21  C13 UNL     1       1.810   0.682   1.033  1.00  0.00    -0.040 A 
HETATM   22  C14 UNL     1       1.690   1.779   0.212  1.00  0.00     0.010 A 
HETATM   23  C15 UNL     1       2.738   2.498  -0.309  1.00  0.00     0.024 A 
HETATM   24  C16 UNL     1       4.011   2.126  -0.012  1.00  0.00     0.034 A 
HETATM   25 CL1  UNL     1       5.336   3.048  -0.681  1.00  0.00    -0.084 Cl
HETATM   26  C17 UNL     1       4.211   1.040   0.802  1.00  0.00     0.024 A 
HETATM   27  C18 UNL     1       3.138   0.337   1.310  1.00  0.00     0.010 A 
ENDBRANCH  20  21
ENDBRANCH  13  20
TORSDOF 2
