REMARK  5 active torsions:
REMARK  status: ('A' for Active; 'I' for Inactive)
REMARK    1  A    between atoms: C3_3  and  N1_4 
REMARK    2  A    between atoms: N1_4  and  C4_5 
REMARK    3  A    between atoms: C4_5  and  C5_6 
REMARK    4  A    between atoms: C13_16  and  N3_17 
REMARK    5  A    between atoms: N3_17  and  C14_18 
ROOT
HETATM    1  C1  UNL     1      -1.315   2.824   0.154  1.00  0.00     0.050 C 
HETATM    2  C2  UNL     1      -0.602   1.527   0.134  1.00  0.00    -0.011 C 
HETATM    3  C3  UNL     1      -1.205   0.393   0.480  1.00  0.00     0.105 C 
HETATM    4  N2  UNL     1      -0.616  -0.925   0.412  1.00  0.00    -0.352 N 
HETATM    5  C11 UNL     1       0.740  -0.949  -0.079  1.00  0.00     0.103 C 
HETATM    6  C12 UNL     1       1.407   0.124  -0.419  1.00  0.00     0.032 C 
HETATM    7  C13 UNL     1       2.757  -0.020  -0.934  1.00  0.00     0.139 C 
HETATM    8  N4  UNL     1       3.378   1.010  -1.387  1.00  0.00    -0.224 NA
HETATM    9  C20 UNL     1       2.670   2.271  -1.305  1.00  0.00     0.230 C 
HETATM   10  N5  UNL     1       1.508   2.485  -0.789  1.00  0.00    -0.268 NA
HETATM   11  C21 UNL     1       0.794   1.429  -0.186  1.00  0.00     0.179 C 
HETATM   12  H11 UNL     1      -1.191  -1.724   0.710  1.00  0.00     0.166 HD
ENDROOT
BRANCH   3  13
HETATM   13  N1  UNL     1      -2.587   0.489   0.886  1.00  0.00    -0.372 N 
HETATM   14  H4  UNL     1      -3.128   0.922   1.663  1.00  0.00     0.161 HD
BRANCH  13  15
HETATM   15  C4  UNL     1      -3.380  -0.229  -0.090  1.00  0.00     0.160 C 
BRANCH  15  16
HETATM   16  C5  UNL     1      -4.836  -0.203   0.213  1.00  0.00    -0.040 A 
HETATM   17  C6  UNL     1      -5.548   0.871  -0.326  1.00  0.00     0.010 A 
HETATM   18  C7  UNL     1      -6.915   0.850  -0.013  1.00  0.00     0.024 A 
HETATM   19  C8  UNL     1      -7.541  -0.097   0.738  1.00  0.00     0.034 A 
HETATM   20 CL1  UNL     1      -9.248  -0.026   1.069  1.00  0.00    -0.084 Cl
HETATM   21  C9  UNL     1      -6.714  -1.085   1.196  1.00  0.00     0.024 A 
HETATM   22  C10 UNL     1      -5.366  -1.238   0.999  1.00  0.00     0.010 A 
ENDBRANCH  15  16
ENDBRANCH  13  15
ENDBRANCH   3  13
BRANCH   7  23
HETATM   23  N3  UNL     1       3.395  -1.278  -0.937  1.00  0.00    -0.340 N 
HETATM   24  H13 UNL     1       2.840  -2.147  -1.066  1.00  0.00     0.167 HD
BRANCH  23  25
HETATM   25  C14 UNL     1       4.827  -1.363  -0.763  1.00  0.00     0.035 A 
HETATM   26  C15 UNL     1       5.775  -1.462  -1.802  1.00  0.00     0.029 A 
HETATM   27  C16 UNL     1       7.067  -1.523  -1.343  1.00  0.00     0.004 A 
HETATM   28  C17 UNL     1       7.477  -1.497  -0.052  1.00  0.00     0.019 A 
HETATM   29  C18 UNL     1       6.531  -1.400   0.943  1.00  0.00     0.013 A 
HETATM   30 BR1  UNL     1       7.045  -1.353   2.782  1.00  0.00    -0.051 Br
HETATM   31  C19 UNL     1       5.219  -1.335   0.550  1.00  0.00     0.048 A 
ENDBRANCH  23  25
ENDBRANCH   7  23
TORSDOF 5
