REMARK  5 active torsions:
REMARK  status: ('A' for Active; 'I' for Inactive)
REMARK    1  A    between atoms: C6_6  and  N1_7 
REMARK    2  A    between atoms: N1_7  and  C7_8 
REMARK    3  A    between atoms: C7_8  and  C8_9 
REMARK    4  A    between atoms: C14_15  and  N2_16 
REMARK    5  A    between atoms: N2_16  and  C15_17 
ROOT
HETATM    1  C1  UNL     1      -2.675  -3.249  -0.922  1.00  0.00     0.042 C 
HETATM    2  C2  UNL     1      -1.847  -2.207  -0.871  1.00  0.00     0.020 C 
HETATM    3  C3  UNL     1      -0.555  -2.375  -0.178  1.00  0.00     0.029 C 
HETATM    4  C4  UNL     1       0.310  -1.371  -0.097  1.00  0.00     0.014 C 
HETATM    5  C5  UNL     1      -0.046  -0.094  -0.708  1.00  0.00    -0.001 C 
HETATM    6  C6  UNL     1       0.871   0.764  -1.126  1.00  0.00     0.094 C 
HETATM    7  C14 UNL     1      -1.508   0.190  -0.837  1.00  0.00     0.217 C 
HETATM    8  N3  UNL     1      -2.188  -0.945  -1.471  1.00  0.00    -0.365 N 
HETATM    9  H20 UNL     1      -2.874  -1.083  -2.265  1.00  0.00     0.162 HD
ENDROOT
BRANCH   6  10
HETATM   10  N1  UNL     1       2.235   0.394  -0.956  1.00  0.00    -0.394 N 
HETATM   11  H6  UNL     1       2.795  -0.247  -1.561  1.00  0.00     0.159 HD
BRANCH  10  12
HETATM   12  C7  UNL     1       2.780   1.047   0.220  1.00  0.00     0.157 C 
BRANCH  12  13
HETATM   13  C8  UNL     1       4.201   0.702   0.453  1.00  0.00    -0.041 A 
HETATM   14  C9  UNL     1       4.626  -0.367   1.217  1.00  0.00     0.009 A 
HETATM   15  C10 UNL     1       5.989  -0.604   1.374  1.00  0.00     0.001 A 
HETATM   16  C11 UNL     1       6.910   0.244   0.754  1.00  0.00     0.000 A 
HETATM   17  C12 UNL     1       6.480   1.321  -0.017  1.00  0.00     0.001 A 
HETATM   18  C13 UNL     1       5.113   1.551  -0.168  1.00  0.00     0.009 A 
ENDBRANCH  12  13
ENDBRANCH  10  12
ENDBRANCH   6  10
BRANCH   7  19
HETATM   19  N2  UNL     1      -2.076   0.321   0.501  1.00  0.00    -0.365 N 
HETATM   20  H15 UNL     1      -1.459   0.206   1.348  1.00  0.00     0.162 HD
BRANCH  19  21
HETATM   21  C15 UNL     1      -3.452   0.604   0.826  1.00  0.00     0.031 A 
HETATM   22  C16 UNL     1      -3.933   0.715   2.134  1.00  0.00     0.029 A 
HETATM   23  C17 UNL     1      -5.270   0.990   2.299  1.00  0.00     0.004 A 
HETATM   24  C18 UNL     1      -6.170   1.164   1.276  1.00  0.00     0.019 A 
HETATM   25  C19 UNL     1      -5.689   1.054  -0.013  1.00  0.00     0.013 A 
HETATM   26 BR1  UNL     1      -6.940   1.296  -1.428  1.00  0.00    -0.051 Br
HETATM   27  C20 UNL     1      -4.345   0.777  -0.198  1.00  0.00     0.048 A 
ENDBRANCH  19  21
ENDBRANCH   7  19
TORSDOF 5
