REMARK  1 active torsions:
REMARK  status: ('A' for Active; 'I' for Inactive)
REMARK    1  A    between atoms: N1_2  and  C2_3 
ROOT
HETATM    1  C2  UNL     1       2.962   0.842  -0.427  1.00  0.00     0.029 C 
HETATM    2  C3  UNL     1       2.960   1.707   0.733  1.00  0.00     0.197 A 
HETATM    3  C4  UNL     1       2.107   2.356   1.461  1.00  0.00     0.048 A 
HETATM    4 CL1  UNL     1       3.763   2.595   2.065  1.00  0.00    -0.199 Cl
HETATM    5  C5  UNL     1       1.061   3.041   2.196  1.00  0.00    -0.004 C 
HETATM    6  C6  UNL     1      -0.207   3.008   1.871  1.00  0.00     0.019 C 
HETATM    7  C7  UNL     1      -1.219   2.518   0.959  1.00  0.00     0.146 C 
HETATM    8  N2  UNL     1      -2.468   2.496   0.651  1.00  0.00    -0.141 NA
HETATM    9  O1  UNL     1      -2.815   1.762  -0.457  1.00  0.00    -0.213 OA
HETATM   10  C8  UNL     1      -3.555   0.610  -0.246  1.00  0.00     0.109 A 
HETATM   11  C9  UNL     1      -4.744   0.572   0.449  1.00  0.00     0.040 A 
HETATM   12  C10 UNL     1      -5.484  -0.567   0.662  1.00  0.00     0.003 A 
HETATM   13  C11 UNL     1      -5.009  -1.750   0.149  1.00  0.00     0.001 A 
HETATM   14  C12 UNL     1      -3.818  -1.753  -0.555  1.00  0.00     0.012 A 
HETATM   15  C13 UNL     1      -3.077  -0.579  -0.762  1.00  0.00     0.006 A 
HETATM   16  C14 UNL     1      -1.861  -0.827  -1.530  1.00  0.00     0.312 C 
HETATM   17  N3  UNL     1      -0.768  -1.392  -0.803  1.00  0.00     0.101 N 
HETATM   18  C15 UNL     1       0.331  -1.618  -1.731  1.00  0.00     0.286 C 
HETATM   19  P1  UNL     1       0.639  -3.484  -1.728  1.00  0.00    -0.008 P 
HETATM   20  C16 UNL     1       1.127  -3.958  -0.207  1.00  0.00    -0.012 C 
HETATM   21  C17 UNL     1       1.461  -2.904   0.529  1.00  0.00     0.014 C 
HETATM   22  C18 UNL     1       2.121  -1.736  -0.071  1.00  0.00     0.007 C 
HETATM   23  C19 UNL     1       1.617  -1.112  -1.132  1.00  0.00    -0.037 C 
HETATM   24  C20 UNL     1       2.462   0.020  -1.580  1.00  0.00     0.092 C 
HETATM   25  H14 UNL     1      -0.489  -0.913   0.046  1.00  0.00     0.317 HD
ENDROOT
BRANCH   1  26
HETATM   26  N1  UNL     1       4.238   0.928  -0.125  1.00  0.00    -0.301 NA
HETATM   27  C1  UNL     1       5.157   0.200  -0.969  1.00  0.00     0.177 C 
ENDBRANCH   1  26
TORSDOF 1
