REMARK  6 active torsions:
REMARK  status: ('A' for Active; 'I' for Inactive)
REMARK    1  A    between atoms: C2_2  and  N4_18 
REMARK    2  A    between atoms: C3_3  and  C4_4 
REMARK    3  A    between atoms: C6_6  and  N1_7 
REMARK    4  A    between atoms: N1_7  and  C7_8 
REMARK    5  A    between atoms: N4_18  and  C14_19 
REMARK    6  A    between atoms: C14_19  and  C15_20 
ROOT
HETATM    1  C4  UNL     1      -0.375  -0.210   0.726  1.00  0.00     0.141 A 
HETATM    2  C5  UNL     1      -1.314   0.090  -0.382  1.00  0.00     0.110 A 
HETATM    3  C6  UNL     1      -2.703  -0.239  -0.030  1.00  0.00     0.108 A 
HETATM    4  N2  UNL     1      -3.176  -0.735   1.071  1.00  0.00    -0.229 NA
HETATM    5  C13 UNL     1      -2.180  -0.990   2.078  1.00  0.00     0.229 A 
HETATM    6  N3  UNL     1      -0.971  -0.744   1.878  1.00  0.00    -0.273 NA
ENDROOT
BRANCH   1   7
HETATM    7  C3  UNL     1       0.784  -1.047   0.242  1.00  0.00     0.025 C 
HETATM    8  C2  UNL     1       1.973  -0.568  -0.151  1.00  0.00    -0.001 C 
HETATM    9  C1  UNL     1       2.081   0.916  -0.075  1.00  0.00     0.067 C 
BRANCH   8  10
HETATM   10  N4  UNL     1       2.881  -1.554  -0.556  1.00  0.00    -0.389 N 
HETATM   11  H14 UNL     1       2.613  -2.122  -1.414  1.00  0.00     0.159 HD
BRANCH  10  12
HETATM   12  C14 UNL     1       4.125  -1.795   0.150  1.00  0.00     0.158 C 
BRANCH  12  13
HETATM   13  C15 UNL     1       4.985  -0.595   0.163  1.00  0.00    -0.041 A 
HETATM   14  C16 UNL     1       4.989   0.402   1.120  1.00  0.00     0.010 A 
HETATM   15  C17 UNL     1       5.845   1.489   1.029  1.00  0.00     0.019 A 
HETATM   16  C18 UNL     1       6.734   1.605  -0.040  1.00  0.00     0.011 A 
HETATM   17 BR2  UNL     1       7.932   3.077  -0.214  1.00  0.00    -0.051 Br
HETATM   18  C19 UNL     1       6.767   0.626  -1.028  1.00  0.00     0.019 A 
HETATM   19  C20 UNL     1       5.889  -0.431  -0.880  1.00  0.00     0.010 A 
ENDBRANCH  12  13
ENDBRANCH  10  12
ENDBRANCH   8  10
ENDBRANCH   1   7
BRANCH   3  20
HETATM   20  N1  UNL     1      -3.674   0.022  -1.043  1.00  0.00    -0.344 N 
HETATM   21  H8  UNL     1      -3.478   0.156  -2.065  1.00  0.00     0.167 HD
BRANCH  20  22
HETATM   22  C7  UNL     1      -5.090   0.146  -0.834  1.00  0.00     0.034 A 
HETATM   23  C8  UNL     1      -5.893  -0.994  -0.918  1.00  0.00     0.029 A 
HETATM   24  C9  UNL     1      -7.273  -0.902  -0.719  1.00  0.00     0.004 A 
HETATM   25  C10 UNL     1      -7.856   0.327  -0.436  1.00  0.00     0.019 A 
HETATM   26  C11 UNL     1      -7.051   1.467  -0.353  1.00  0.00     0.013 A 
HETATM   27 BR1  UNL     1      -7.781   3.184   0.030  1.00  0.00    -0.051 Br
HETATM   28  C12 UNL     1      -5.670   1.378  -0.552  1.00  0.00     0.048 A 
ENDBRANCH  20  22
ENDBRANCH   3  20
TORSDOF 6
