REMARK  4 active torsions:
REMARK  status: ('A' for Active; 'I' for Inactive)
REMARK    1  A    between atoms: C4_5  and  O1_6 
REMARK    2  A    between atoms: O1_6  and  C5_7 
REMARK    3  A    between atoms: C10_14  and  N4_15 
REMARK    4  A    between atoms: N4_15  and  C11_16 
ROOT
HETATM    1  C5  UNL     1       0.024  -1.755  -0.664  1.00  0.00     0.100 A 
HETATM    2  C6  UNL     1       0.986  -2.740  -0.726  1.00  0.00     0.040 A 
HETATM    3  C7  UNL     1       0.709  -4.075  -0.906  1.00  0.00     0.020 A 
HETATM    4  C8  UNL     1      -0.606  -4.468  -1.034  1.00  0.00     0.098 A 
HETATM    5  N2  UNL     1      -1.557  -3.519  -0.975  1.00  0.00    -0.311 N 
HETATM    6  C9  UNL     1      -2.875  -3.761  -1.085  1.00  0.00     0.217 A 
HETATM    7  N3  UNL     1      -3.477  -2.561  -0.975  1.00  0.00    -0.223 NA
HETATM    8  C10 UNL     1      -2.557  -1.595  -0.801  1.00  0.00     0.159 A 
HETATM    9  C17 UNL     1      -1.297  -2.206  -0.799  1.00  0.00     0.119 A 
ENDROOT
BRANCH   8  10
HETATM   10  N4  UNL     1      -2.777  -0.202  -0.646  1.00  0.00    -0.339 N 
HETATM   11  H13 UNL     1      -2.748   0.216  -1.599  1.00  0.00     0.167 HD
BRANCH  10  12
HETATM   12  C11 UNL     1      -2.997   0.524   0.554  1.00  0.00     0.035 A 
HETATM   13  C12 UNL     1      -3.022  -0.166   1.746  1.00  0.00     0.032 A 
HETATM   14  C13 UNL     1      -3.243   0.588   2.902  1.00  0.00     0.046 A 
HETATM   15  C14 UNL     1      -3.422   1.963   2.799  1.00  0.00     0.138 A 
HETATM   16  F1  UNL     1      -3.642   2.767   3.879  1.00  0.00    -0.204 F 
HETATM   17  C15 UNL     1      -3.389   2.613   1.576  1.00  0.00     0.074 A 
HETATM   18 CL1  UNL     1      -3.615   4.353   1.437  1.00  0.00    -0.081 Cl
HETATM   19  C16 UNL     1      -3.171   1.884   0.410  1.00  0.00     0.056 A 
ENDBRANCH  10  12
ENDBRANCH   8  10
BRANCH   1  20
HETATM   20  O1  UNL     1       0.106  -0.412  -0.495  1.00  0.00    -0.343 OA
BRANCH  20  21
HETATM   21  C4  UNL     1       1.299   0.262  -0.342  1.00  0.00     0.132 C 
HETATM   22  C3  UNL     1       1.513   1.325  -1.430  1.00  0.00     0.062 C 
HETATM   23  C2  UNL     1       2.942   1.776  -1.260  1.00  0.00     0.274 C 
HETATM   24  N1  UNL     1       3.284   2.228   0.048  1.00  0.00     0.084 N 
HETATM   25  C1  UNL     1       4.753   2.308   0.085  1.00  0.00     0.309 C 
HETATM   26  C19 UNL     1       2.828   1.423   1.136  1.00  0.00     0.274 C 
HETATM   27  C18 UNL     1       1.362   1.079   0.957  1.00  0.00     0.062 C 
ENDBRANCH  20  21
ENDBRANCH   1  20
TORSDOF 4
