REMARK  4 active torsions:
REMARK  status: ('A' for Active; 'I' for Inactive)
REMARK    1  A    between atoms: C11_14  and  N4_15 
REMARK    2  A    between atoms: N4_15  and  C12_16 
REMARK    3  A    between atoms: C12_16  and  C13_17 
REMARK    4  A    between atoms: C18_22  and  O1_23 
ROOT
HETATM    1  C1  UNL     1      -1.825   1.815  -0.483  1.00  0.00     0.015 C 
HETATM    2  C2  UNL     1      -2.322   1.879   0.737  1.00  0.00    -0.080 C 
HETATM    3  C3  UNL     1      -3.640   1.266   0.741  1.00  0.00     0.058 C 
HETATM    4  C4  UNL     1      -4.522   1.210   1.639  1.00  0.00     0.004 C 
HETATM    5  C5  UNL     1      -5.530   0.410   0.758  1.00  0.00    -0.012 C 
HETATM    6  C6  UNL     1      -5.366  -0.111  -0.455  1.00  0.00     0.075 C 
HETATM    7  N1  UNL     1      -4.285  -0.123  -1.243  1.00  0.00    -0.216 NA
HETATM    8  N2  UNL     1      -4.149  -1.576  -0.975  1.00  0.00    -0.312 N 
HETATM    9  C7  UNL     1      -3.237  -2.378  -0.375  1.00  0.00     0.212 C 
HETATM   10  N3  UNL     1      -2.716  -1.759   0.745  1.00  0.00    -0.283 NA
HETATM   11  C8  UNL     1      -1.742  -2.334   1.575  1.00  0.00     0.156 C 
HETATM   12  C9  UNL     1      -0.510  -1.464   1.373  1.00  0.00     0.052 C 
HETATM   13  C10 UNL     1       0.866  -1.202   1.145  1.00  0.00     0.026 C 
HETATM   14  C11 UNL     1       0.712   0.297   1.106  1.00  0.00     0.002 C 
HETATM   15  C19 UNL     1      -0.092   1.305   1.193  1.00  0.00     0.002 C 
HETATM   16  C20 UNL     1      -0.983   2.536   1.284  1.00  0.00     0.062 C 
HETATM   17  H7  UNL     1      -3.395  -0.332  -1.861  1.00  0.00     0.152 HD
HETATM   18  H8  UNL     1      -4.727  -2.462  -1.184  1.00  0.00     0.181 HD
ENDROOT
BRANCH  14  19
HETATM   19  N4  UNL     1       1.964   1.039   0.844  1.00  0.00    -0.389 N 
HETATM   20  H14 UNL     1       2.432   1.911   1.220  1.00  0.00     0.159 HD
BRANCH  19  21
HETATM   21  C12 UNL     1       2.576   0.236  -0.177  1.00  0.00     0.161 C 
BRANCH  21  22
HETATM   22  C13 UNL     1       4.023   0.102  -0.193  1.00  0.00    -0.007 A 
HETATM   23  C14 UNL     1       4.581  -0.753   0.805  1.00  0.00     0.011 A 
HETATM   24  C15 UNL     1       5.926  -0.750   0.681  1.00  0.00     0.001 A 
HETATM   25  C16 UNL     1       6.946  -0.209  -0.075  1.00  0.00     0.003 A 
HETATM   26  C17 UNL     1       6.358   0.665  -1.080  1.00  0.00     0.037 A 
HETATM   27  C18 UNL     1       4.965   0.641  -0.938  1.00  0.00     0.073 A 
BRANCH  27  28
HETATM   28  O1  UNL     1       4.476   1.499  -1.952  1.00  0.00    -0.360 OA
HETATM   29  H21 UNL     1       3.867   1.030  -2.622  1.00  0.00     0.217 HD
ENDBRANCH  27  28
ENDBRANCH  21  22
ENDBRANCH  19  21
ENDBRANCH  14  19
TORSDOF 4
