REMARK  5 active torsions:
REMARK  status: ('A' for Active; 'I' for Inactive)
REMARK    1  A    between atoms: C3_3  and  O1_4 
REMARK    2  A    between atoms: O1_4  and  C4_5 
REMARK    3  A    between atoms: C4_5  and  N1_6 
REMARK    4  A    between atoms: C7_9  and  N2_10 
REMARK    5  A    between atoms: N2_10  and  C8_11 
ROOT
HETATM    1  N1  UNL     1       0.541   0.166  -0.434  1.00  0.00    -0.364 N 
HETATM    2  C5  UNL     1      -0.770  -0.148  -0.038  1.00  0.00     0.105 A 
HETATM    3  C6  UNL     1      -1.852   0.450  -0.485  1.00  0.00     0.053 A 
HETATM    4  C7  UNL     1      -3.083   0.063  -0.031  1.00  0.00     0.138 A 
HETATM    5  N3  UNL     1      -4.107   0.747  -0.561  1.00  0.00    -0.224 NA
HETATM    6  C13 UNL     1      -4.009   1.732  -1.458  1.00  0.00     0.235 A 
HETATM    7  N4  UNL     1      -2.768   2.080  -1.879  1.00  0.00    -0.241 NA
HETATM    8  C14 UNL     1      -1.667   1.452  -1.406  1.00  0.00     0.071 A 
HETATM    9  C15 UNL     1      -0.487   1.842  -1.859  1.00  0.00     0.025 A 
HETATM   10  C16 UNL     1       0.763   1.228  -1.411  1.00  0.00     0.154 A 
ENDROOT
BRANCH   4  11
HETATM   11  N2  UNL     1      -3.317  -0.959   0.912  1.00  0.00    -0.375 N 
HETATM   12  H7  UNL     1      -2.580  -1.532   1.366  1.00  0.00     0.160 HD
BRANCH  11  13
HETATM   13  C8  UNL     1      -4.649  -1.314   1.346  1.00  0.00     0.064 A 
HETATM   14  B1  UNL     1      -5.331  -0.043   2.017  1.00  0.00     0.213 B 
HETATM   15  C9  UNL     1      -6.611   0.527   1.336  1.00  0.00    -0.078 A 
HETATM   16  H9  UNL     1      -4.936   0.416   3.028  1.00  0.00    -0.019 HD
HETATM   17  C10 UNL     1      -7.201   0.073   0.242  1.00  0.00     0.008 A 
HETATM   18  C11 UNL     1      -6.554  -1.089  -0.365  1.00  0.00     0.030 A 
HETATM   19 CL1  UNL     1      -7.256  -1.759  -1.816  1.00  0.00    -0.085 Cl
HETATM   20  C12 UNL     1      -5.460  -1.653   0.140  1.00  0.00     0.011 A 
ENDBRANCH  11  13
ENDBRANCH   4  11
BRANCH   1  21
HETATM   21  C4  UNL     1       1.713  -0.521   0.087  1.00  0.00     0.300 C 
BRANCH  21  22
HETATM   22  O1  UNL     1       2.890  -0.022  -0.468  1.00  0.00    -0.332 OA
BRANCH  22  23
HETATM   23  C3  UNL     1       4.154  -0.444  -0.191  1.00  0.00     0.072 A 
HETATM   24  C2  UNL     1       5.160   0.364   0.084  1.00  0.00    -0.050 A 
HETATM   25  C1  UNL     1       4.855   1.840   0.082  1.00  0.00     0.046 C 
HETATM   26  C20 UNL     1       6.595   0.210   0.413  1.00  0.00     0.040 A 
HETATM   27  C19 UNL     1       6.980  -1.246   0.433  1.00  0.00     0.031 A 
HETATM   28  C18 UNL     1       5.791  -2.066   0.115  1.00  0.00    -0.024 A 
HETATM   29  C17 UNL     1       4.522  -1.851  -0.172  1.00  0.00     0.033 A 
ENDBRANCH  22  23
ENDBRANCH  21  22
ENDBRANCH   1  21
TORSDOF 5
