REMARK  5 active torsions:
REMARK  status: ('A' for Active; 'I' for Inactive)
REMARK    1  A    between atoms: O1_1  and  C1_2 
REMARK    2  A    between atoms: C6_7  and  C7_8 
REMARK    3  A    between atoms: C7_8  and  N1_9 
REMARK    4  A    between atoms: N1_9  and  C8_10 
REMARK    5  A    between atoms: N2_17  and  C15_18 
ROOT
HETATM    1  C8  UNL     1       0.810  -0.786   0.052  1.00  0.00     0.028 A 
HETATM    2  C9  UNL     1       0.815  -2.167  -0.023  1.00  0.00     0.031 A 
HETATM    3  C10 UNL     1      -0.373  -2.909  -0.023  1.00  0.00     0.034 A 
HETATM    4  C11 UNL     1      -1.577  -2.204   0.056  1.00  0.00     0.066 A 
HETATM    5  C12 UNL     1      -1.590  -0.834   0.131  1.00  0.00    -0.009 A 
HETATM    6  C13 UNL     1      -0.402  -0.137   0.129  1.00  0.00     0.040 A 
HETATM    7  C14 UNL     1      -2.869  -0.095   0.215  1.00  0.00     0.165 A 
HETATM    8  N2  UNL     1      -4.004  -0.983   0.198  1.00  0.00    -0.360 N 
HETATM    9  C20 UNL     1      -3.957  -2.397   0.120  1.00  0.00     0.206 A 
HETATM   10  N3  UNL     1      -2.793  -2.954   0.054  1.00  0.00    -0.244 NA
ENDROOT
BRANCH   1  11
HETATM   11  N1  UNL     1       2.026  -0.053   0.048  1.00  0.00    -0.386 N 
HETATM   12  H8  UNL     1       1.993   0.991   0.105  1.00  0.00     0.160 HD
BRANCH  11  13
HETATM   13  C7  UNL     1       3.318  -0.654  -0.030  1.00  0.00     0.161 C 
BRANCH  13  14
HETATM   14  C6  UNL     1       4.433   0.358  -0.027  1.00  0.00    -0.007 A 
HETATM   15  C1  UNL     1       4.789   0.977   1.154  1.00  0.00     0.073 A 
HETATM   16  C2  UNL     1       5.821   1.916   1.167  1.00  0.00     0.037 A 
HETATM   17  C3  UNL     1       6.510   2.247  -0.000  1.00  0.00     0.003 A 
HETATM   18  C4  UNL     1       6.096   1.584  -1.143  1.00  0.00     0.001 A 
HETATM   19  C5  UNL     1       5.088   0.655  -1.201  1.00  0.00     0.011 A 
BRANCH  15  20
HETATM   20  O1  UNL     1       4.142   0.696   2.366  1.00  0.00    -0.360 OA
HETATM   21  H1  UNL     1       4.164  -0.250   2.750  1.00  0.00     0.217 HD
ENDBRANCH  15  20
ENDBRANCH  13  14
ENDBRANCH  11  13
ENDBRANCH   1  11
BRANCH   8  22
HETATM   22  C15 UNL     1      -5.314  -0.342   0.268  1.00  0.00     0.133 A 
HETATM   23  C16 UNL     1      -5.482   0.573  -0.898  1.00  0.00     0.004 A 
HETATM   24  C17 UNL     1      -5.483   1.844  -0.555  1.00  0.00     0.022 A 
HETATM   25  C18 UNL     1      -5.311   1.854   0.898  1.00  0.00     0.032 A 
HETATM   26 CL1  UNL     1      -5.238   3.290   1.920  1.00  0.00    -0.085 Cl
HETATM   27  C19 UNL     1      -5.214   0.647   1.390  1.00  0.00     0.026 A 
ENDBRANCH   8  22
TORSDOF 5
