REMARK  5 active torsions:
REMARK  status: ('A' for Active; 'I' for Inactive)
REMARK    1  A    between atoms: N1_3  and  C2_4 
REMARK    2  A    between atoms: C7_11  and  N4_12 
REMARK    3  A    between atoms: N4_12  and  C8_13 
REMARK    4  A    between atoms: C8_13  and  C9_14 
REMARK    5  A    between atoms: C14_19  and  O1_20 
ROOT
HETATM    1  B1  UNL     1       6.027   2.939  -2.435  1.00  0.00     0.222 B 
HETATM    2  C1  UNL     1       4.574   1.996  -1.769  1.00  0.00    -0.157 C 
HETATM    3  N1  UNL     1       3.496   1.286  -1.248  1.00  0.00    -0.323 N 
HETATM    4  H1  UNL     1       2.620   1.741  -1.553  1.00  0.00     0.175 HD
ENDROOT
BRANCH   3   5
HETATM    5  C2  UNL     1       3.743   0.142  -0.445  1.00  0.00     0.147 A 
HETATM    6  N2  UNL     1       5.033  -0.178  -0.239  1.00  0.00    -0.223 NA
HETATM    7  C3  UNL     1       5.352  -1.257   0.521  1.00  0.00     0.236 A 
HETATM    8  N3  UNL     1       4.391  -2.024   1.081  1.00  0.00    -0.241 NA
HETATM    9  C4  UNL     1       3.119  -1.668   0.849  1.00  0.00     0.072 A 
HETATM   10  C5  UNL     1       2.120  -2.451   1.422  1.00  0.00     0.035 A 
HETATM   11  C16 UNL     1       2.709  -0.595   0.095  1.00  0.00     0.041 A 
HETATM   12  C6  UNL     1       0.798  -2.109   1.203  1.00  0.00     0.031 A 
HETATM   13  C7  UNL     1       0.427  -1.004   0.426  1.00  0.00     0.029 A 
HETATM   14  C15 UNL     1       1.417  -0.224  -0.145  1.00  0.00     0.046 A 
BRANCH  13  15
HETATM   15  N4  UNL     1      -0.965  -0.688   0.229  1.00  0.00    -0.386 N 
HETATM   16  H5  UNL     1      -1.669  -1.301   0.682  1.00  0.00     0.160 HD
BRANCH  15  17
HETATM   17  C8  UNL     1      -1.325   0.452  -0.579  1.00  0.00     0.161 C 
BRANCH  17  18
HETATM   18  C9  UNL     1      -2.809   0.537  -0.599  1.00  0.00    -0.007 A 
HETATM   19  C10 UNL     1      -3.679   0.174  -1.621  1.00  0.00     0.011 A 
HETATM   20  C11 UNL     1      -5.034   0.320  -1.468  1.00  0.00     0.001 A 
HETATM   21  C12 UNL     1      -5.534   0.839  -0.271  1.00  0.00     0.003 A 
HETATM   22  C13 UNL     1      -4.692   1.204   0.751  1.00  0.00     0.037 A 
HETATM   23  C14 UNL     1      -3.340   1.054   0.589  1.00  0.00     0.073 A 
BRANCH  23  24
HETATM   24  O1  UNL     1      -2.548   1.449   1.678  1.00  0.00    -0.360 OA
HETATM   25  H12 UNL     1      -1.788   2.127   1.569  1.00  0.00     0.217 HD
ENDBRANCH  23  24
ENDBRANCH  17  18
ENDBRANCH  15  17
ENDBRANCH  13  15
ENDBRANCH   3   5
TORSDOF 5
