REMARK  6 active torsions:
REMARK  status: ('A' for Active; 'I' for Inactive)
REMARK    1  A    between atoms: O1_1  and  C1_2 
REMARK    2  A    between atoms: C5_8  and  N3_9 
REMARK    3  A    between atoms: N3_9  and  C6_10 
REMARK    4  A    between atoms: C14_19  and  N4_20 
REMARK    5  A    between atoms: N4_20  and  C15_21 
REMARK    6  A    between atoms: C15_21  and  C16_22 
ROOT
HETATM    1  C1  UNL     1       1.743   1.244   0.863  1.00  0.00     0.094 A 
HETATM    2  C2  UNL     1       0.959   2.408   0.888  1.00  0.00     0.071 A 
HETATM    3  C3  UNL     1      -0.366   2.237   0.560  1.00  0.00     0.075 A 
HETATM    4  N1  UNL     1      -1.129   3.331   0.575  1.00  0.00    -0.241 NA
HETATM    5  C4  UNL     1      -2.436   3.314   0.277  1.00  0.00     0.236 A 
HETATM    6  N2  UNL     1      -2.967   2.135  -0.045  1.00  0.00    -0.224 NA
HETATM    7  C5  UNL     1      -2.307   0.978  -0.094  1.00  0.00     0.142 A 
HETATM    8  C12 UNL     1      -0.980   1.063   0.220  1.00  0.00     0.041 A 
HETATM    9  C13 UNL     1      -0.179  -0.043   0.210  1.00  0.00     0.049 A 
HETATM   10  C14 UNL     1       1.149   0.019   0.519  1.00  0.00     0.062 A 
ENDROOT
BRANCH   7  11
HETATM   11  N3  UNL     1      -2.892  -0.263  -0.442  1.00  0.00    -0.340 N 
HETATM   12  H4  UNL     1      -2.349  -1.120  -0.481  1.00  0.00     0.167 HD
BRANCH  11  13
HETATM   13  C6  UNL     1      -4.239  -0.533  -0.776  1.00  0.00     0.035 A 
HETATM   14  C7  UNL     1      -4.688  -1.772  -1.253  1.00  0.00     0.029 A 
HETATM   15  C8  UNL     1      -5.999  -2.018  -1.568  1.00  0.00     0.004 A 
HETATM   16  C9  UNL     1      -6.961  -1.070  -1.438  1.00  0.00     0.024 A 
HETATM   17  C10 UNL     1      -6.575   0.176  -0.969  1.00  0.00     0.036 A 
HETATM   18 CL1  UNL     1      -7.833   1.377  -0.811  1.00  0.00    -0.084 Cl
HETATM   19  C11 UNL     1      -5.249   0.386  -0.663  1.00  0.00     0.053 A 
ENDBRANCH  11  13
ENDBRANCH   7  11
BRANCH  10  20
HETATM   20  N4  UNL     1       2.175  -0.939   0.554  1.00  0.00    -0.384 N 
HETATM   21  H10 UNL     1       1.536  -1.773   0.331  1.00  0.00     0.160 HD
BRANCH  20  22
HETATM   22  C15 UNL     1       3.202  -1.897   0.588  1.00  0.00     0.154 C 
BRANCH  22  23
HETATM   23  C16 UNL     1       4.582  -1.250   0.690  1.00  0.00    -0.059 A 
HETATM   24  C17 UNL     1       5.424  -1.402   1.714  1.00  0.00     0.004 A 
HETATM   25  C18 UNL     1       6.656  -0.677   1.536  1.00  0.00    -0.003 A 
HETATM   26  C19 UNL     1       6.603  -0.063   0.388  1.00  0.00    -0.022 A 
HETATM   27  C20 UNL     1       5.291  -0.370  -0.270  1.00  0.00     0.063 A 
ENDBRANCH  22  23
ENDBRANCH  20  22
ENDBRANCH  10  20
BRANCH   1  28
HETATM   28  O1  UNL     1       3.060   1.530   1.212  1.00  0.00    -0.358 OA
HETATM   29  H1  UNL     1       3.425   1.524   2.143  1.00  0.00     0.217 HD
ENDBRANCH   1  28
TORSDOF 6
