REMARK  2 active torsions:
REMARK  status: ('A' for Active; 'I' for Inactive)
REMARK    1  A    between atoms: C7_9  and  N2_10 
REMARK    2  A    between atoms: N2_10  and  C8_11 
ROOT
HETATM    1  O1  UNL     1      -6.681   1.117  -0.247  1.00  0.00     0.000 OA
HETATM    2  C1  UNL     1      -5.573   0.464   0.132  1.00  0.00    -0.044 A 
HETATM    3  C2  UNL     1      -5.173   1.541  -0.595  1.00  0.00     0.056 A 
HETATM    4  C3  UNL     1      -3.766   1.782  -0.804  1.00  0.00     0.298 C 
HETATM    5  N1  UNL     1      -2.640   1.354  -0.535  1.00  0.00    -0.438 NA
HETATM    6  C4  UNL     1      -1.387   1.886  -0.937  1.00  0.00     0.131 C 
HETATM    7  C5  UNL     1      -0.265   1.028  -0.622  1.00  0.00     0.010 C 
HETATM    8  C6  UNL     1      -0.158  -0.113   0.066  1.00  0.00     0.048 A 
HETATM    9  C7  UNL     1       1.233  -0.390  -0.039  1.00  0.00     0.143 A 
HETATM   10  N3  UNL     1       1.722  -1.492   0.532  1.00  0.00    -0.212 NA
HETATM   11  C14 UNL     1       1.003  -2.361   1.196  1.00  0.00     0.301 A 
HETATM   12  N4  UNL     1      -0.001  -1.615   0.938  1.00  0.00    -0.398 NA
HETATM   13  C15 UNL     1      -1.001  -0.952   0.731  1.00  0.00     0.122 A 
HETATM   14  C16 UNL     1      -2.205  -1.304   1.081  1.00  0.00     0.045 C 
HETATM   15  C17 UNL     1      -3.537  -0.864   0.881  1.00  0.00     0.004 C 
HETATM   16  C18 UNL     1      -4.737  -0.519   0.736  1.00  0.00     0.008 C 
HETATM   17  H1  UNL     1      -7.633   0.912   0.010  1.00  0.00     0.000 HD
ENDROOT
BRANCH   9  18
HETATM   18  N2  UNL     1       2.260   0.380  -0.754  1.00  0.00    -0.340 N 
HETATM   19  H7  UNL     1       2.324   1.208  -1.374  1.00  0.00     0.167 HD
BRANCH  18  20
HETATM   20  C8  UNL     1       3.638   0.005  -0.660  1.00  0.00     0.035 A 
HETATM   21  C9  UNL     1       4.457  -0.190  -1.776  1.00  0.00     0.029 A 
HETATM   22  C10 UNL     1       5.790  -0.537  -1.518  1.00  0.00     0.004 A 
HETATM   23  C11 UNL     1       6.286  -0.684  -0.248  1.00  0.00     0.024 A 
HETATM   24  C12 UNL     1       5.489  -0.496   0.871  1.00  0.00     0.036 A 
HETATM   25 CL1  UNL     1       5.997  -0.654   2.527  1.00  0.00    -0.084 Cl
HETATM   26  C13 UNL     1       4.157  -0.148   0.606  1.00  0.00     0.053 A 
ENDBRANCH  18  20
ENDBRANCH   9  18
TORSDOF 2
