REMARK  3 active torsions:
REMARK  status: ('A' for Active; 'I' for Inactive)
REMARK    1  A    between atoms: O1_1  and  C1_2 
REMARK    2  A    between atoms: C9_10  and  N1_11 
REMARK    3  A    between atoms: N1_11  and  C10_12 
ROOT
HETATM    1  C1  UNL     1      -2.866   3.062   0.519  1.00  0.00     0.066 A 
HETATM    2  C2  UNL     1      -3.921   2.714  -0.299  1.00  0.00     0.037 A 
HETATM    3  C3  UNL     1      -3.880   1.624  -1.141  1.00  0.00     0.012 A 
HETATM    4  C4  UNL     1      -2.779   0.808  -1.220  1.00  0.00    -0.020 A 
HETATM    5  C5  UNL     1      -1.655   1.037  -0.462  1.00  0.00    -0.025 A 
HETATM    6  C6  UNL     1      -1.781   2.174   0.374  1.00  0.00     0.048 A 
HETATM    7  C7  UNL     1      -0.349   0.499  -0.219  1.00  0.00     0.029 C 
HETATM    8  C8  UNL     1       0.282  -0.548   0.233  1.00  0.00     0.036 A 
HETATM    9  C9  UNL     1       1.620  -0.700   0.321  1.00  0.00     0.141 A 
HETATM   10  N2  UNL     1       2.245  -1.780   0.748  1.00  0.00    -0.224 NA
HETATM   11  C16 UNL     1       1.601  -2.863   1.148  1.00  0.00     0.235 A 
HETATM   12  N3  UNL     1       0.252  -2.793   1.090  1.00  0.00    -0.245 NA
HETATM   13  C17 UNL     1      -0.407  -1.701   0.657  1.00  0.00     0.054 A 
HETATM   14  C18 UNL     1      -1.621  -2.207   0.762  1.00  0.00     0.050 C 
HETATM   15  C19 UNL     1      -3.071  -2.472   0.748  1.00  0.00     0.041 C 
HETATM   16  C20 UNL     1      -3.648  -1.420  -0.226  1.00  0.00     0.270 C 
HETATM   17  N4  UNL     1      -2.789  -1.586  -1.437  1.00  0.00     0.087 N 
HETATM   18  C21 UNL     1      -3.024  -0.347  -2.173  1.00  0.00     0.309 C 
HETATM   19  H17 UNL     1      -3.173  -2.333  -2.041  1.00  0.00     0.316 HD
ENDROOT
BRANCH   9  20
HETATM   20  N1  UNL     1       2.420   0.399  -0.101  1.00  0.00    -0.340 N 
HETATM   21  H6  UNL     1       2.242   1.339  -0.480  1.00  0.00     0.167 HD
BRANCH  20  22
HETATM   22  C10 UNL     1       3.839   0.335  -0.033  1.00  0.00     0.035 A 
HETATM   23  C11 UNL     1       4.710   0.935  -0.954  1.00  0.00     0.029 A 
HETATM   24  C12 UNL     1       6.081   0.898  -0.903  1.00  0.00     0.004 A 
HETATM   25  C13 UNL     1       6.679   0.227   0.120  1.00  0.00     0.024 A 
HETATM   26  C14 UNL     1       5.895  -0.392   1.070  1.00  0.00     0.036 A 
HETATM   27 CL1  UNL     1       6.746  -1.231   2.348  1.00  0.00    -0.084 Cl
HETATM   28  C15 UNL     1       4.544  -0.317   0.962  1.00  0.00     0.053 A 
ENDBRANCH  20  22
ENDBRANCH   9  20
BRANCH   1  29
HETATM   29  O1  UNL     1      -2.934   4.157   1.352  1.00  0.00    -0.361 OA
HETATM   30  H1  UNL     1      -2.934   5.115   0.993  1.00  0.00     0.217 HD
ENDBRANCH   1  29
TORSDOF 3
