REMARK  4 active torsions:
REMARK  status: ('A' for Active; 'I' for Inactive)
REMARK    1  A    between atoms: C2_2  and  C3_3 
REMARK    2  A    between atoms: C11_12  and  O1_13 
REMARK    3  A    between atoms: C14_18  and  N4_19 
REMARK    4  A    between atoms: N4_19  and  C15_20 
ROOT
HETATM    1  C3  UNL     1      -3.356  -1.690   0.949  1.00  0.00     0.011 C 
HETATM    2  C4  UNL     1      -2.851  -0.741   0.167  1.00  0.00    -0.008 C 
HETATM    3  C5  UNL     1      -3.209   0.676   0.210  1.00  0.00     0.161 C 
HETATM    4  N1  UNL     1      -2.109   1.565   0.363  1.00  0.00    -0.388 N 
HETATM    5  C6  UNL     1      -0.841   1.600  -0.285  1.00  0.00     0.023 C 
HETATM    6  C7  UNL     1      -0.118   2.658   0.051  1.00  0.00    -0.005 C 
HETATM    7  C8  UNL     1      -0.113   3.855   0.864  1.00  0.00     0.038 C 
HETATM    8  C9  UNL     1      -0.183   0.697  -1.247  1.00  0.00     0.100 A 
HETATM    9  C10 UNL     1      -0.821  -0.647  -1.302  1.00  0.00     0.036 C 
HETATM   10  C11 UNL     1      -1.872  -1.280  -0.770  1.00  0.00     0.071 C 
HETATM   11  C12 UNL     1      -0.265   1.302  -2.612  1.00  0.00     0.178 A 
HETATM   12  N2  UNL     1       0.926   1.558  -3.320  1.00  0.00    -0.281 NA
HETATM   13  C13 UNL     1       2.107   1.349  -2.942  1.00  0.00     0.228 A 
HETATM   14  N3  UNL     1       2.280   0.780  -1.640  1.00  0.00    -0.227 NA
HETATM   15  C14 UNL     1       1.268   0.498  -0.905  1.00  0.00     0.126 A 
HETATM   16  H7  UNL     1      -2.269   2.329   1.081  1.00  0.00     0.159 HD
ENDROOT
BRANCH  15  17
HETATM   17  N4  UNL     1       1.603  -0.076   0.361  1.00  0.00    -0.343 N 
HETATM   18  H17 UNL     1       0.882  -0.060   1.131  1.00  0.00     0.167 HD
BRANCH  17  19
HETATM   19  C15 UNL     1       2.891  -0.651   0.595  1.00  0.00     0.035 A 
HETATM   20  C16 UNL     1       3.919  -0.277   1.419  1.00  0.00     0.029 A 
HETATM   21  C17 UNL     1       5.094  -0.972   1.478  1.00  0.00     0.004 A 
HETATM   22  C18 UNL     1       5.306  -2.097   0.702  1.00  0.00     0.024 A 
HETATM   23  C19 UNL     1       4.297  -2.487  -0.124  1.00  0.00     0.036 A 
HETATM   24 CL1  UNL     1       4.576  -3.929  -1.116  1.00  0.00    -0.084 Cl
HETATM   25  C20 UNL     1       3.095  -1.789  -0.195  1.00  0.00     0.053 A 
ENDBRANCH  17  19
ENDBRANCH  15  17
BRANCH  10  26
HETATM   26  O1  UNL     1      -2.057  -2.620  -1.159  1.00  0.00    -0.360 OA
HETATM   27  H13 UNL     1      -2.986  -2.943  -1.389  1.00  0.00     0.217 HD
ENDBRANCH  10  26
BRANCH   1  28
HETATM   28  C2  UNL     1      -4.343  -1.281   1.927  1.00  0.00    -0.010 C 
HETATM   29  C1  UNL     1      -4.854  -2.192   2.714  1.00  0.00     0.011 C 
ENDBRANCH   1  28
TORSDOF 4
