REMARK  7 active torsions:
REMARK  status: ('A' for Active; 'I' for Inactive)
REMARK    1  A    between atoms: O1_1  and  C1_2 
REMARK    2  A    between atoms: C6_7  and  C7_8 
REMARK    3  A    between atoms: C7_8  and  N1_9 
REMARK    4  A    between atoms: N1_9  and  C8_10 
REMARK    5  A    between atoms: C14_18  and  C15_19 
REMARK    6  A    between atoms: C15_19  and  N4_20 
REMARK    7  A    between atoms: N4_20  and  C16_21 
ROOT
HETATM    1  C8  UNL     1      -1.605   1.519  -0.285  1.00  0.00     0.044 A 
HETATM    2  C9  UNL     1      -2.422   2.621   0.058  1.00  0.00     0.140 A 
HETATM    3  C10 UNL     1      -1.553   2.428   1.113  1.00  0.00    -0.005 A 
HETATM    4  C11 UNL     1      -0.833   2.252   1.966  1.00  0.00    -0.128 C 
HETATM    5  C12 UNL     1       0.018   2.024   2.952  1.00  0.00     0.235 C 
HETATM    6  N2  UNL     1       0.950   1.744   3.901  1.00  0.00    -0.274 NA
HETATM    7  C13 UNL     1       1.459   0.482   3.480  1.00  0.00     0.202 C 
HETATM    8  N3  UNL     1       0.788   0.014   2.240  1.00  0.00    -0.353 N 
HETATM    9  C14 UNL     1       0.330  -0.120   0.868  1.00  0.00     0.026 C 
HETATM   10  C22 UNL     1      -0.516   0.442   0.041  1.00  0.00     0.028 C 
HETATM   11  H13 UNL     1       0.263  -0.821   2.682  1.00  0.00     0.166 HD
ENDROOT
BRANCH   1  12
HETATM   12  N1  UNL     1      -2.230   1.298  -1.593  1.00  0.00    -0.407 N 
HETATM   13  H8  UNL     1      -1.666   1.824  -2.314  1.00  0.00     0.154 HD
BRANCH  12  14
HETATM   14  C7  UNL     1      -3.409   0.511  -1.901  1.00  0.00     0.156 C 
BRANCH  14  15
HETATM   15  C6  UNL     1      -3.286  -0.911  -1.528  1.00  0.00    -0.008 A 
HETATM   16  C1  UNL     1      -3.399  -1.310  -0.194  1.00  0.00     0.073 A 
HETATM   17  C2  UNL     1      -3.280  -2.643   0.133  1.00  0.00     0.037 A 
HETATM   18  C3  UNL     1      -3.052  -3.632  -0.797  1.00  0.00     0.003 A 
HETATM   19  C4  UNL     1      -2.936  -3.268  -2.124  1.00  0.00     0.001 A 
HETATM   20  C5  UNL     1      -3.054  -1.934  -2.449  1.00  0.00     0.011 A 
BRANCH  16  21
HETATM   21  O1  UNL     1      -3.631  -0.299   0.734  1.00  0.00    -0.360 OA
HETATM   22  H1  UNL     1      -4.459   0.258   0.755  1.00  0.00     0.217 HD
ENDBRANCH  16  21
ENDBRANCH  14  15
ENDBRANCH  12  14
ENDBRANCH   1  12
BRANCH   9  23
HETATM   23  C15 UNL     1       1.159  -1.210   0.385  1.00  0.00     0.176 C 
BRANCH  23  24
HETATM   24  N4  UNL     1       2.567  -0.947   0.480  1.00  0.00    -0.384 N 
HETATM   25  H16 UNL     1       3.075  -1.559   1.183  1.00  0.00     0.160 HD
BRANCH  24  26
HETATM   26  C16 UNL     1       3.351  -0.005  -0.215  1.00  0.00     0.029 A 
HETATM   27  C17 UNL     1       2.885   0.860  -1.177  1.00  0.00     0.029 A 
HETATM   28  C18 UNL     1       3.686   1.756  -1.817  1.00  0.00     0.004 A 
HETATM   29  C19 UNL     1       5.025   1.845  -1.531  1.00  0.00     0.024 A 
HETATM   30  C20 UNL     1       5.548   0.986  -0.559  1.00  0.00     0.036 A 
HETATM   31 CL1  UNL     1       7.248   1.043  -0.140  1.00  0.00    -0.084 Cl
HETATM   32  C21 UNL     1       4.697   0.113   0.044  1.00  0.00     0.052 A 
ENDBRANCH  24  26
ENDBRANCH  23  24
ENDBRANCH   9  23
TORSDOF 7
