REMARK  1 active torsions:
REMARK  status: ('A' for Active; 'I' for Inactive)
REMARK    1  A    between atoms: O1_2  and  C2_3 
ROOT
HETATM    1  C2  UNL     1       2.811   1.052   1.549  1.00  0.00     0.078 C 
HETATM    2  C3  UNL     1       2.327   2.316   1.563  1.00  0.00     0.037 C 
HETATM    3  C4  UNL     1       1.328   3.331   1.174  1.00  0.00    -0.001 C 
HETATM    4  C5  UNL     1       0.240   3.313   0.383  1.00  0.00    -0.021 C 
HETATM    5  C6  UNL     1      -0.824   2.862  -0.546  1.00  0.00     0.021 C 
HETATM    6  C7  UNL     1      -1.021   1.680  -1.174  1.00  0.00     0.003 C 
HETATM    7  C8  UNL     1      -2.141   1.360  -2.078  1.00  0.00     0.040 C 
HETATM    8  C9  UNL     1      -2.885   0.123  -1.709  1.00  0.00    -0.072 C 
HETATM    9  C10 UNL     1      -3.796   0.275  -0.767  1.00  0.00     0.005 C 
HETATM   10  C11 UNL     1      -4.279  -0.698   0.205  1.00  0.00     0.019 C 
HETATM   11  C12 UNL     1      -3.873  -1.930   0.564  1.00  0.00     0.109 C 
HETATM   12  N1  UNL     1      -2.641  -2.632   0.269  1.00  0.00    -0.288 N 
HETATM   13  N2  UNL     1      -1.489  -2.314  -0.510  1.00  0.00    -0.161 NA
HETATM   14  C13 UNL     1      -1.329  -1.702  -1.642  1.00  0.00     0.128 C 
HETATM   15  C14 UNL     1      -2.365  -1.043  -2.518  1.00  0.00     0.114 C 
HETATM   16  N3  UNL     1       0.088  -2.023  -1.496  1.00  0.00    -0.343 N 
HETATM   17  C15 UNL     1       0.953  -1.536  -0.491  1.00  0.00     0.035 A 
HETATM   18  C16 UNL     1       1.086  -2.639   0.327  1.00  0.00     0.053 A 
HETATM   19  C17 UNL     1       1.821  -2.558   1.525  1.00  0.00     0.037 A 
HETATM   20 CL1  UNL     1       2.100  -3.855   2.686  1.00  0.00    -0.084 Cl
HETATM   21  C18 UNL     1       2.347  -1.275   1.727  1.00  0.00     0.038 A 
HETATM   22  C19 UNL     1       2.232  -0.127   0.916  1.00  0.00     0.001 A 
HETATM   23  C20 UNL     1       1.518  -0.342  -0.185  1.00  0.00     0.043 A 
HETATM   24  H14 UNL     1      -2.786  -3.540   0.818  1.00  0.00     0.188 HD
HETATM   25  H17 UNL     1       0.198  -2.681  -2.259  1.00  0.00     0.167 HD
ENDROOT
BRANCH   1  26
HETATM   26  O1  UNL     1       4.018   0.803   2.246  1.00  0.00    -0.355 OA
HETATM   27  C1  UNL     1       5.206   0.988   1.462  1.00  0.00     0.210 C 
ENDBRANCH   1  26
TORSDOF 1
