REMARK  6 active torsions:
REMARK  status: ('A' for Active; 'I' for Inactive)
REMARK    1  A    between atoms: C2_2  and  C3_4 
REMARK    2  A    between atoms: C4_5  and  C5_6 
REMARK    3  A    between atoms: C6_7  and  N1_8 
REMARK    4  A    between atoms: N1_8  and  C7_9 
REMARK    5  A    between atoms: C12_16  and  C13_17 
REMARK    6  A    between atoms: C16_20  and  O1_21 
ROOT
HETATM    1  C7  UNL     1       0.843  -2.116   0.843  1.00  0.00     0.141 A 
HETATM    2  N2  UNL     1       1.473  -3.067   1.514  1.00  0.00    -0.224 NA
HETATM    3  C8  UNL     1       0.821  -3.845   2.402  1.00  0.00     0.236 A 
HETATM    4  N3  UNL     1      -0.513  -3.631   2.598  1.00  0.00    -0.241 NA
HETATM    5  C9  UNL     1      -1.171  -2.664   1.921  1.00  0.00     0.072 A 
HETATM    6  C10 UNL     1      -2.537  -2.452   2.126  1.00  0.00     0.033 A 
HETATM    7  C11 UNL     1      -3.189  -1.457   1.421  1.00  0.00     0.014 A 
HETATM    8  C12 UNL     1      -2.544  -0.649   0.508  1.00  0.00    -0.029 A 
HETATM    9  C19 UNL     1      -1.198  -0.896   0.340  1.00  0.00     0.029 A 
HETATM   10  C20 UNL     1      -0.499  -1.872   1.015  1.00  0.00     0.040 A 
ENDROOT
BRANCH   1  11
HETATM   11  N1  UNL     1       1.584  -1.332  -0.078  1.00  0.00    -0.350 N 
HETATM   12  H7  UNL     1       1.299  -0.553  -0.700  1.00  0.00     0.166 HD
BRANCH  11  13
HETATM   13  C6  UNL     1       2.972  -1.486  -0.338  1.00  0.00     0.090 C 
HETATM   14  C5  UNL     1       3.840  -0.533  -0.158  1.00  0.00     0.017 C 
BRANCH  14  15
HETATM   15  C4  UNL     1       5.256  -0.389  -0.326  1.00  0.00     0.003 C 
HETATM   16  C3  UNL     1       6.069   0.615  -0.122  1.00  0.00     0.019 C 
BRANCH  16  17
HETATM   17  C2  UNL     1       5.701   1.930   0.364  1.00  0.00     0.012 C 
HETATM   18  C1  UNL     1       6.575   2.898   0.546  1.00  0.00     0.056 C 
HETATM   19 CL1  UNL     1       4.243   2.747   0.855  1.00  0.00    -0.089 Cl
ENDBRANCH  16  17
ENDBRANCH  14  15
ENDBRANCH  11  13
ENDBRANCH   1  11
BRANCH   8  20
HETATM   20  C13 UNL     1      -3.180   0.412  -0.262  1.00  0.00    -0.048 A 
HETATM   21  C14 UNL     1      -4.464   0.709  -0.159  1.00  0.00    -0.012 A 
HETATM   22  C15 UNL     1      -5.226   1.753  -0.877  1.00  0.00     0.091 A 
HETATM   23  C16 UNL     1      -4.415   2.528  -1.841  1.00  0.00     0.043 A 
HETATM   24  C17 UNL     1      -3.155   2.222  -1.927  1.00  0.00     0.010 A 
HETATM   25  C18 UNL     1      -2.398   1.207  -1.202  1.00  0.00     0.068 A 
BRANCH  23  26
HETATM   26  O1  UNL     1      -5.108   3.486  -2.533  1.00  0.00    -0.365 OA
HETATM   27  H14 UNL     1      -5.982   3.264  -3.026  1.00  0.00     0.217 HD
ENDBRANCH  23  26
ENDBRANCH   8  20
TORSDOF 6
