REMARK  6 active torsions:
REMARK  status: ('A' for Active; 'I' for Inactive)
REMARK    1  A    between atoms: C3_3  and  C4_4 
REMARK    2  A    between atoms: C3_3  and  N1_11 
REMARK    3  A    between atoms: C8_8  and  C9_9 
REMARK    4  A    between atoms: N1_11  and  C10_12 
REMARK    5  A    between atoms: C10_12  and  C11_13 
REMARK    6  A    between atoms: C15_17  and  O1_18 
ROOT
HETATM    1  N1  UNL     1       0.226  -0.737   1.107  1.00  0.00    -0.387 N 
HETATM    2  H11 UNL     1       0.392  -1.686   0.662  1.00  0.00     0.160 HD
ENDROOT
BRANCH   1   3
HETATM    3  C3  UNL     1       1.085  -0.129   2.099  1.00  0.00     0.024 C 
HETATM    4  C2  UNL     1       0.759  -0.103   3.375  1.00  0.00    -0.002 C 
HETATM    5  C1  UNL     1       1.722   0.553   4.289  1.00  0.00     0.038 C 
BRANCH   3   6
HETATM    6  C4  UNL     1       2.308   0.434   1.526  1.00  0.00     0.036 C 
HETATM    7  C5  UNL     1       2.625   0.406   0.231  1.00  0.00    -0.045 A 
HETATM    8  C6  UNL     1       2.019  -0.102  -1.006  1.00  0.00     0.067 A 
HETATM    9  C8  UNL     1       3.800   0.921  -0.449  1.00  0.00    -0.041 A 
HETATM   10  C7  UNL     1       3.281   0.475  -1.581  1.00  0.00    -0.013 A 
BRANCH   9  11
HETATM   11  C9  UNL     1       5.082   1.627  -0.263  1.00  0.00     0.153 C 
HETATM   12 CL1  UNL     1       5.881   1.824  -1.829  1.00  0.00    -0.126 Cl
ENDBRANCH   9  11
ENDBRANCH   3   6
ENDBRANCH   1   3
BRANCH   1  13
HETATM   13  C10 UNL     1      -0.917   0.082   0.764  1.00  0.00     0.147 C 
BRANCH  13  14
HETATM   14  C11 UNL     1      -1.702  -0.548  -0.300  1.00  0.00    -0.001 C 
HETATM   15  C12 UNL     1      -2.738  -1.088  -0.910  1.00  0.00    -0.070 C 
HETATM   16  C13 UNL     1      -3.911  -1.139  -0.078  1.00  0.00     0.004 C 
HETATM   17  C16 UNL     1      -2.824  -1.637  -2.276  1.00  0.00    -0.016 C 
HETATM   18  C14 UNL     1      -5.041  -0.609  -0.508  1.00  0.00     0.001 C 
HETATM   19  C15 UNL     1      -5.205   0.050  -1.781  1.00  0.00     0.059 C 
HETATM   20  B1  UNL     1      -3.484  -0.607  -3.492  1.00  0.00     0.198 B 
BRANCH  19  21
HETATM   21  O1  UNL     1      -5.092   0.498  -3.085  1.00  0.00    -0.395 OA
HETATM   22  H17 UNL     1      -5.728   1.279  -3.319  1.00  0.00     0.209 HD
ENDBRANCH  19  21
ENDBRANCH  13  14
ENDBRANCH   1  13
TORSDOF 6
