REMARK  6 active torsions:
REMARK  status: ('A' for Active; 'I' for Inactive)
REMARK    1  A    between atoms: C2_2  and  O1_3 
REMARK    2  A    between atoms: C3_4  and  C4_5 
REMARK    3  A    between atoms: C8_10  and  C9_11 
REMARK    4  A    between atoms: C9_11  and  C10_12 
REMARK    5  A    between atoms: C13_17  and  N4_18 
REMARK    6  A    between atoms: N4_18  and  C14_19 
ROOT
HETATM    1  C10 UNL     1      -1.337  -1.878   0.123  1.00  0.00     0.004 A 
HETATM    2  C11 UNL     1      -0.934  -3.293  -0.165  1.00  0.00     0.192 A 
HETATM    3  N2  UNL     1      -2.079  -4.056  -0.504  1.00  0.00    -0.278 NA
HETATM    4  C12 UNL     1      -3.301  -3.732  -0.578  1.00  0.00     0.229 A 
HETATM    5  N3  UNL     1      -3.709  -2.401  -0.297  1.00  0.00    -0.224 NA
HETATM    6  C13 UNL     1      -2.778  -1.555   0.029  1.00  0.00     0.137 A 
ENDROOT
BRANCH   1   7
HETATM    7  C9  UNL     1      -0.452  -0.940   0.447  1.00  0.00    -0.007 C 
BRANCH   7   8
HETATM    8  C8  UNL     1       0.123   0.348   0.817  1.00  0.00     0.041 C 
HETATM    9  C7  UNL     1       0.708   0.385   2.210  1.00  0.00     0.278 C 
HETATM   10  N1  UNL     1       1.900  -0.384   2.343  1.00  0.00     0.087 N 
HETATM   11  C6  UNL     1       2.987   0.179   1.604  1.00  0.00     0.303 C 
HETATM   12  H9  UNL     1       1.776  -1.366   2.087  1.00  0.00     0.316 HD
HETATM   13  C5  UNL     1       2.518   0.623   0.269  1.00  0.00    -0.051 C 
HETATM   14  C4  UNL     1       3.387   0.896  -0.686  1.00  0.00     0.007 C 
HETATM   15  C20 UNL     1       1.119   0.832  -0.219  1.00  0.00     0.046 C 
BRANCH  14  16
HETATM   16  C3  UNL     1       4.822   0.773  -0.465  1.00  0.00     0.032 C 
HETATM   17  C2  UNL     1       5.849   0.982  -1.240  1.00  0.00     0.039 C 
HETATM   18  C1  UNL     1       7.297   0.847  -0.982  1.00  0.00     0.076 C 
BRANCH  17  19
HETATM   19  O1  UNL     1       5.601   1.409  -2.550  1.00  0.00    -0.365 OA
HETATM   20  H4  UNL     1       5.861   0.807  -3.301  1.00  0.00     0.217 HD
ENDBRANCH  17  19
ENDBRANCH  14  16
ENDBRANCH   7   8
ENDBRANCH   1   7
BRANCH   6  21
HETATM   21  N4  UNL     1      -3.236  -0.256   0.315  1.00  0.00    -0.340 N 
HETATM   22  H17 UNL     1      -2.747   0.223   1.132  1.00  0.00     0.167 HD
BRANCH  21  23
HETATM   23  C14 UNL     1      -4.260   0.442  -0.375  1.00  0.00     0.035 A 
HETATM   24  C15 UNL     1      -4.946  -0.021  -1.468  1.00  0.00     0.029 A 
HETATM   25  C16 UNL     1      -5.941   0.676  -2.118  1.00  0.00     0.004 A 
HETATM   26  C17 UNL     1      -6.292   1.928  -1.658  1.00  0.00     0.024 A 
HETATM   27  C18 UNL     1      -5.627   2.430  -0.561  1.00  0.00     0.036 A 
HETATM   28 CL1  UNL     1      -6.072   4.026   0.029  1.00  0.00    -0.084 Cl
HETATM   29  C19 UNL     1      -4.637   1.696   0.057  1.00  0.00     0.053 A 
ENDBRANCH  21  23
ENDBRANCH   6  21
TORSDOF 6
