REMARK  3 active torsions:
REMARK  status: ('A' for Active; 'I' for Inactive)
REMARK    1  A    between atoms: O1_2  and  C2_3 
REMARK    2  A    between atoms: C8_9  and  C9_10 
REMARK    3  A    between atoms: C9_10  and  C10_11 
ROOT
HETATM    1  C10 UNL     1      -1.228  -0.848  -0.015  1.00  0.00    -0.000 A 
HETATM    2  C11 UNL     1      -1.818  -1.892   0.859  1.00  0.00     0.024 C 
HETATM    3  C12 UNL     1      -0.197  -1.596  -0.851  1.00  0.00     0.021 A 
HETATM    4  C13 UNL     1       1.040  -1.213  -0.618  1.00  0.00     0.083 A 
HETATM    5  N1  UNL     1       2.429  -1.419  -0.971  1.00  0.00    -0.242 NA
HETATM    6  C14 UNL     1       3.263  -1.644   0.009  1.00  0.00     0.208 C 
HETATM    7  N2  UNL     1       4.658  -1.874  -0.025  1.00  0.00    -0.348 N 
HETATM    8  C15 UNL     1       5.270  -0.573  -0.047  1.00  0.00     0.083 A 
HETATM    9  C16 UNL     1       6.635  -0.602  -0.229  1.00  0.00     0.063 A 
HETATM   10 CL1  UNL     1       7.535  -2.085  -0.423  1.00  0.00    -0.082 Cl
HETATM   11  C17 UNL     1       7.287   0.609  -0.256  1.00  0.00     0.026 A 
HETATM   12  C18 UNL     1       6.709   1.854  -0.117  1.00  0.00     0.004 A 
HETATM   13  C19 UNL     1       5.344   1.808   0.061  1.00  0.00     0.033 A 
HETATM   14  C20 UNL     1       4.635   0.638   0.098  1.00  0.00     0.076 A 
HETATM   15  N3  UNL     1       3.251   0.836   0.290  1.00  0.00    -0.298 N 
HETATM   16  N4  UNL     1       2.092   0.520   0.990  1.00  0.00    -0.298 N 
HETATM   17  C21 UNL     1       0.956  -0.167   0.426  1.00  0.00     0.073 A 
HETATM   18  C22 UNL     1      -0.326   0.011   0.751  1.00  0.00     0.020 A 
HETATM   19  H17 UNL     1       5.220  -2.744  -0.033  1.00  0.00     0.167 HD
HETATM   20  H21 UNL     1       2.797   1.531  -0.343  1.00  0.00     0.187 HD
HETATM   21  H22 UNL     1       2.108   0.829   1.983  1.00  0.00     0.187 HD
ENDROOT
BRANCH   1  22
HETATM   22  C9  UNL     1      -2.096  -0.171  -0.999  1.00  0.00     0.059 C 
BRANCH  22  23
HETATM   23  C8  UNL     1      -3.265   0.556  -0.513  1.00  0.00    -0.018 A 
HETATM   24  C2  UNL     1      -4.417  -0.179  -0.193  1.00  0.00     0.075 A 
HETATM   25  C3  UNL     1      -5.542   0.464   0.280  1.00  0.00     0.037 A 
HETATM   26  C4  UNL     1      -5.599   1.825   0.460  1.00  0.00     0.003 A 
HETATM   27  C5  UNL     1      -4.486   2.559   0.153  1.00  0.00     0.007 A 
HETATM   28  C6  UNL     1      -3.358   1.920  -0.320  1.00  0.00    -0.053 A 
HETATM   29  C7  UNL     1      -2.187   2.742  -0.634  1.00  0.00     0.049 C 
BRANCH  24  30
HETATM   30  O1  UNL     1      -4.417  -1.527  -0.354  1.00  0.00    -0.355 OA
HETATM   31  C1  UNL     1      -5.408  -2.463  -0.116  1.00  0.00     0.210 C 
ENDBRANCH  24  30
ENDBRANCH  22  23
ENDBRANCH   1  22
TORSDOF 3
