REMARK  3 active torsions:
REMARK  status: ('A' for Active; 'I' for Inactive)
REMARK    1  A    between atoms: C9_11  and  C10_12 
REMARK    2  A    between atoms: C13_15  and  N2_16 
REMARK    3  A    between atoms: N2_16  and  C14_17 
ROOT
HETATM    1  C10 UNL     1      -0.167  -0.089  -0.227  1.00  0.00     0.029 C 
HETATM    2  C11 UNL     1       1.135  -0.275  -0.487  1.00  0.00     0.043 A 
HETATM    3  C12 UNL     1       2.079   0.866  -0.561  1.00  0.00     0.137 A 
HETATM    4  C13 UNL     1       3.403   0.312  -0.863  1.00  0.00     0.111 A 
HETATM    5  N3  UNL     1       3.703  -0.950  -1.034  1.00  0.00    -0.228 NA
HETATM    6  C20 UNL     1       2.694  -1.945  -0.934  1.00  0.00     0.235 A 
HETATM    7  N4  UNL     1       1.468  -1.642  -0.674  1.00  0.00    -0.246 NA
ENDROOT
BRANCH   1   8
HETATM    8  C9  UNL     1      -1.182  -1.133  -0.131  1.00  0.00     0.028 C 
HETATM    9  C8  UNL     1      -2.490  -0.990   0.126  1.00  0.00     0.027 C 
HETATM   10  N1  UNL     1      -3.090  -2.307   0.121  1.00  0.00    -0.388 N 
HETATM   11  C21 UNL     1      -2.867   0.421   0.322  1.00  0.00     0.166 C 
HETATM   12  C7  UNL     1      -4.393  -2.664   0.705  1.00  0.00     0.153 C 
HETATM   13  H11 UNL     1      -2.566  -3.079  -0.331  1.00  0.00     0.159 HD
HETATM   14  C4  UNL     1      -5.189  -1.411   0.775  1.00  0.00    -0.061 C 
HETATM   15  C3  UNL     1      -5.147  -0.395  -0.358  1.00  0.00     0.075 C 
HETATM   16  C5  UNL     1      -5.957  -1.079   1.822  1.00  0.00     0.004 C 
HETATM   17  C2  UNL     1      -4.324   0.738   0.272  1.00  0.00     0.083 C 
HETATM   18  C1  UNL     1      -4.610   1.965  -0.564  1.00  0.00     0.048 C 
HETATM   19  O1  UNL     1      -4.807   1.011   1.553  1.00  0.00    -0.375 OA
HETATM   20  C6  UNL     1      -6.010   0.404   1.847  1.00  0.00     0.196 C 
HETATM   21 CL2  UNL     1      -2.115   1.061   1.823  1.00  0.00    -0.115 Cl
ENDBRANCH   1   8
BRANCH   4  22
HETATM   22  N2  UNL     1       4.479   1.197  -0.988  1.00  0.00    -0.344 N 
HETATM   23  H16 UNL     1       4.293   2.133  -1.462  1.00  0.00     0.167 HD
BRANCH  22  24
HETATM   24  C14 UNL     1       5.807   0.972  -0.540  1.00  0.00     0.035 A 
HETATM   25  C15 UNL     1       6.259  -0.134   0.125  1.00  0.00     0.029 A 
HETATM   26  C16 UNL     1       7.547  -0.345   0.552  1.00  0.00     0.004 A 
HETATM   27  C17 UNL     1       8.495   0.622   0.304  1.00  0.00     0.024 A 
HETATM   28  C18 UNL     1       8.103   1.761  -0.363  1.00  0.00     0.036 A 
HETATM   29 CL1  UNL     1       9.277   3.037  -0.708  1.00  0.00    -0.084 Cl
HETATM   30  C19 UNL     1       6.798   1.921  -0.767  1.00  0.00     0.053 A 
ENDBRANCH  22  24
ENDBRANCH   4  22
TORSDOF 3
