REMARK  6 active torsions:
REMARK  status: ('A' for Active; 'I' for Inactive)
REMARK    1  A    between atoms: C2_3  and  C3_4 
REMARK    2  A    between atoms: C4_5  and  N1_6 
REMARK    3  A    between atoms: N1_6  and  C5_7 
REMARK    4  A    between atoms: C10_14  and  N4_15 
REMARK    5  A    between atoms: N4_15  and  C11_16 
REMARK    6  A    between atoms: C11_16  and  C12_17 
ROOT
HETATM    1 CL1  UNL     1       4.965  -2.474   2.714  1.00  0.00    -0.262 Cl
HETATM    2  C1  UNL     1       5.115  -0.745   2.594  1.00  0.00     0.202 C 
HETATM    3  C2  UNL     1       5.147   0.596   2.451  1.00  0.00     0.064 C 
ENDROOT
BRANCH   3   4
HETATM    4  C3  UNL     1       3.958   0.932   1.696  1.00  0.00     0.039 C 
HETATM    5  C4  UNL     1       3.555   2.126   1.309  1.00  0.00     0.068 C 
BRANCH   5   6
HETATM    6  N1  UNL     1       2.376   1.578   0.666  1.00  0.00    -0.353 N 
HETATM    7  H5  UNL     1       1.488   1.483   1.203  1.00  0.00     0.166 HD
BRANCH   6   8
HETATM    8  C5  UNL     1       2.568   1.211  -0.698  1.00  0.00     0.141 A 
HETATM    9  N2  UNL     1       3.764   1.387  -1.266  1.00  0.00    -0.224 NA
HETATM   10  C6  UNL     1       3.996   1.050  -2.571  1.00  0.00     0.236 A 
HETATM   11  N3  UNL     1       3.031   0.520  -3.357  1.00  0.00    -0.241 NA
HETATM   12  C7  UNL     1       1.811   0.325  -2.827  1.00  0.00     0.072 A 
HETATM   13  C8  UNL     1       0.819  -0.214  -3.617  1.00  0.00     0.035 A 
HETATM   14  C19 UNL     1       1.610   0.670  -1.527  1.00  0.00     0.041 A 
HETATM   15  C9  UNL     1      -0.431  -0.413  -3.069  1.00  0.00     0.031 A 
HETATM   16  C10 UNL     1      -0.683  -0.073  -1.738  1.00  0.00     0.029 A 
HETATM   17  C18 UNL     1       0.354   0.461  -1.005  1.00  0.00     0.046 A 
BRANCH  16  18
HETATM   18  N4  UNL     1      -1.973  -0.277  -1.169  1.00  0.00    -0.386 N 
HETATM   19  H9  UNL     1      -2.722  -0.685  -1.769  1.00  0.00     0.160 HD
BRANCH  18  20
HETATM   20  C11 UNL     1      -2.206   0.085   0.215  1.00  0.00     0.158 C 
BRANCH  20  21
HETATM   21  C12 UNL     1      -3.583  -0.182   0.664  1.00  0.00    -0.041 A 
HETATM   22  C13 UNL     1      -4.621   0.700   0.585  1.00  0.00     0.010 A 
HETATM   23  C14 UNL     1      -5.875   0.309   1.051  1.00  0.00     0.024 A 
HETATM   24  C15 UNL     1      -6.118  -0.938   1.592  1.00  0.00     0.034 A 
HETATM   25 CL2  UNL     1      -7.728  -1.353   2.157  1.00  0.00    -0.084 Cl
HETATM   26  C16 UNL     1      -5.070  -1.831   1.673  1.00  0.00     0.024 A 
HETATM   27  C17 UNL     1      -3.840  -1.425   1.208  1.00  0.00     0.010 A 
ENDBRANCH  20  21
ENDBRANCH  18  20
ENDBRANCH  16  18
ENDBRANCH   6   8
ENDBRANCH   5   6
ENDBRANCH   3   4
TORSDOF 6
