REMARK  5 active torsions:
REMARK  status: ('A' for Active; 'I' for Inactive)
REMARK    1  A    between atoms: O1_2  and  C2_3 
REMARK    2  A    between atoms: C8_9  and  N1_10 
REMARK    3  A    between atoms: N1_10  and  C9_11 
REMARK    4  A    between atoms: C13_16  and  N3_17 
REMARK    5  A    between atoms: N3_17  and  C14_18 
ROOT
HETATM    1  C9  UNL     1      -0.620   0.180  -0.548  1.00  0.00     0.019 C 
HETATM    2  C10 UNL     1      -0.931   0.076  -1.855  1.00  0.00     0.020 C 
HETATM    3  C11 UNL     1       0.145  -0.622  -2.658  1.00  0.00     0.178 C 
HETATM    4  N2  UNL     1       1.411   0.041  -2.345  1.00  0.00    -0.292 NA
HETATM    5  C12 UNL     1       1.682   0.233  -1.086  1.00  0.00     0.043 A 
HETATM    6  C13 UNL     1       1.825   0.367   0.352  1.00  0.00     0.145 A 
HETATM    7  C20 UNL     1       0.652  -0.388  -0.099  1.00  0.00     0.113 A 
ENDROOT
BRANCH   1   8
HETATM    8  N1  UNL     1      -1.529   0.813   0.341  1.00  0.00    -0.356 N 
HETATM    9  H10 UNL     1      -1.418   1.469   1.130  1.00  0.00     0.166 HD
BRANCH   8  10
HETATM   10  C8  UNL     1      -2.959   0.611   0.271  1.00  0.00     0.072 A 
HETATM   11  C2  UNL     1      -3.650  -0.454   0.866  1.00  0.00     0.095 A 
HETATM   12  C3  UNL     1      -5.009  -0.486   0.701  1.00  0.00     0.039 A 
HETATM   13  C4  UNL     1      -5.709   0.459  -0.007  1.00  0.00     0.003 A 
HETATM   14  C5  UNL     1      -5.020   1.507  -0.591  1.00  0.00     0.009 A 
HETATM   15  C6  UNL     1      -3.634   1.583  -0.450  1.00  0.00    -0.033 A 
HETATM   16  C7  UNL     1      -3.078   2.770  -1.131  1.00  0.00     0.050 C 
BRANCH  11  17
HETATM   17  O1  UNL     1      -2.760  -1.274   1.520  1.00  0.00    -0.354 OA
HETATM   18  C1  UNL     1      -3.218  -2.415   2.197  1.00  0.00     0.210 C 
ENDBRANCH  11  17
ENDBRANCH   8  10
ENDBRANCH   1   8
BRANCH   6  19
HETATM   19  N3  UNL     1       2.875  -0.433   0.973  1.00  0.00    -0.379 N 
HETATM   20  H15 UNL     1       2.500  -1.112   1.699  1.00  0.00     0.160 HD
BRANCH  19  21
HETATM   21  C14 UNL     1       4.257  -0.378   0.704  1.00  0.00     0.030 A 
HETATM   22  C15 UNL     1       5.129  -1.211   1.379  1.00  0.00     0.029 A 
HETATM   23  C16 UNL     1       6.483  -1.160   1.118  1.00  0.00     0.004 A 
HETATM   24  C17 UNL     1       6.965  -0.258   0.165  1.00  0.00     0.024 A 
HETATM   25  C18 UNL     1       6.085   0.575  -0.509  1.00  0.00     0.036 A 
HETATM   26 CL1  UNL     1       6.741   1.671  -1.678  1.00  0.00    -0.084 Cl
HETATM   27  C19 UNL     1       4.751   0.496  -0.224  1.00  0.00     0.052 A 
ENDBRANCH  19  21
ENDBRANCH   6  19
TORSDOF 5
