REMARK  3 active torsions:
REMARK  status: ('A' for Active; 'I' for Inactive)
REMARK    1  A    between atoms: C5_7  and  N3_8 
REMARK    2  A    between atoms: N4_19  and  C15_20 
REMARK    3  A    between atoms: C15_20  and  C16_21 
ROOT
HETATM    1  C1  UNL     1       1.905  -0.257  -1.469  1.00  0.00     0.045 C 
HETATM    2  C2  UNL     1       2.004  -0.649  -0.011  1.00  0.00     0.249 C 
HETATM    3  C3  UNL     1       0.835  -1.574   0.249  1.00  0.00     0.178 A 
HETATM    4  N1  UNL     1       0.766  -2.689  -0.638  1.00  0.00    -0.271 NA
HETATM    5  C4  UNL     1      -0.277  -3.029  -1.321  1.00  0.00     0.229 A 
HETATM    6  N2  UNL     1      -1.507  -2.279  -1.241  1.00  0.00    -0.224 NA
HETATM    7  C5  UNL     1      -1.623  -1.230  -0.482  1.00  0.00     0.136 A 
HETATM    8  C12 UNL     1      -0.445  -0.840   0.279  1.00  0.00     0.013 A 
HETATM    9  C13 UNL     1      -0.430   0.232   1.071  1.00  0.00     0.016 C 
HETATM   10  C14 UNL     1       0.877   0.488   1.778  1.00  0.00     0.301 C 
HETATM   11  N4  UNL     1       1.968   0.526   0.816  1.00  0.00     0.102 N 
ENDROOT
BRANCH   7  12
HETATM   12  N3  UNL     1      -2.823  -0.469  -0.379  1.00  0.00    -0.356 N 
HETATM   13  C6  UNL     1      -3.850  -0.982   0.530  1.00  0.00     0.149 C 
HETATM   14  C7  UNL     1      -5.162  -0.237   0.315  1.00  0.00     0.122 C 
HETATM   15 CL1  UNL     1      -6.335  -0.826   1.479  1.00  0.00    -0.119 Cl
HETATM   16  C8  UNL     1      -4.805   1.214   0.539  1.00  0.00    -0.007 C 
HETATM   17  C9  UNL     1      -3.780   1.683  -0.165  1.00  0.00    -0.005 C 
HETATM   18  C10 UNL     1      -3.087   0.748  -1.099  1.00  0.00     0.104 C 
HETATM   19  C11 UNL     1      -1.853   1.350  -1.699  1.00  0.00     0.037 C 
ENDBRANCH   7  12
BRANCH  11  20
HETATM   20  C15 UNL     1       3.184   0.587   1.599  1.00  0.00     0.311 C 
BRANCH  20  21
HETATM   21  C16 UNL     1       4.413   0.687   0.778  1.00  0.00    -0.030 A 
HETATM   22  C17 UNL     1       5.366   1.633   0.725  1.00  0.00     0.009 A 
HETATM   23  C18 UNL     1       6.114   0.916  -0.298  1.00  0.00     0.001 A 
HETATM   24  C19 UNL     1       5.179  -0.007  -0.243  1.00  0.00     0.009 A 
ENDBRANCH  20  21
ENDBRANCH  11  20
TORSDOF 3
