REMARK  3 active torsions:
REMARK  status: ('A' for Active; 'I' for Inactive)
REMARK    1  A    between atoms: C5_6  and  N1_7 
REMARK    2  A    between atoms: N1_7  and  C6_8 
REMARK    3  A    between atoms: C6_8  and  C7_9 
ROOT
HETATM    1 CL1  UNL     1      -5.214   2.837   0.437  1.00  0.00    -0.084 Cl
HETATM    2  C1  UNL     1      -4.185   1.604  -0.248  1.00  0.00     0.036 C 
HETATM    3  C2  UNL     1      -3.034   1.220   0.265  1.00  0.00     0.037 C 
HETATM    4  C3  UNL     1      -2.056   0.234  -0.149  1.00  0.00    -0.004 A 
HETATM    5  C4  UNL     1      -0.745   0.562   0.113  1.00  0.00     0.043 A 
HETATM    6  C5  UNL     1       0.341  -0.227  -0.200  1.00  0.00     0.029 A 
HETATM    7  C13 UNL     1       0.042  -1.419  -0.817  1.00  0.00     0.031 A 
HETATM    8  C14 UNL     1      -1.258  -1.776  -1.093  1.00  0.00     0.035 A 
HETATM    9  C15 UNL     1      -2.324  -0.965  -0.768  1.00  0.00     0.068 A 
HETATM   10  N2  UNL     1      -3.561  -1.527  -1.140  1.00  0.00    -0.242 NA
HETATM   11  C16 UNL     1      -4.634  -1.440  -0.436  1.00  0.00     0.226 C 
HETATM   12  N3  UNL     1      -4.923  -0.827   0.810  1.00  0.00    -0.265 N 
HETATM   13  N4  UNL     1      -5.844   0.117   1.185  1.00  0.00    -0.134 NA
HETATM   14  S1  UNL     1      -6.913   0.603   0.046  1.00  0.00     0.033 SA
HETATM   15  C17 UNL     1      -6.198   0.719  -1.422  1.00  0.00     0.045 C 
HETATM   16  C18 UNL     1      -4.974   1.229  -1.415  1.00  0.00     0.045 C 
HETATM   17  H13 UNL     1      -4.199  -1.334   1.360  1.00  0.00     0.190 HD
ENDROOT
BRANCH   6  18
HETATM   18  N1  UNL     1       1.685   0.153   0.091  1.00  0.00    -0.386 N 
HETATM   19  H3  UNL     1       1.826   1.073   0.561  1.00  0.00     0.160 HD
BRANCH  18  20
HETATM   20  C6  UNL     1       2.756  -0.738  -0.274  1.00  0.00     0.158 C 
BRANCH  20  21
HETATM   21  C7  UNL     1       4.092  -0.197   0.097  1.00  0.00    -0.041 A 
HETATM   22  C8  UNL     1       4.581  -0.520   1.366  1.00  0.00     0.010 A 
HETATM   23  C9  UNL     1       5.822   0.008   1.655  1.00  0.00     0.024 A 
HETATM   24  C10 UNL     1       6.606   0.794   0.854  1.00  0.00     0.034 A 
HETATM   25 CL2  UNL     1       8.163   1.381   1.380  1.00  0.00    -0.084 Cl
HETATM   26  C11 UNL     1       6.081   1.084  -0.386  1.00  0.00     0.024 A 
HETATM   27  C12 UNL     1       4.840   0.597  -0.764  1.00  0.00     0.010 A 
ENDBRANCH  20  21
ENDBRANCH  18  20
ENDBRANCH   6  18
TORSDOF 3
