REMARK  3 active torsions:
REMARK  status: ('A' for Active; 'I' for Inactive)
REMARK    1  A    between atoms: C5_6  and  N1_7 
REMARK    2  A    between atoms: N1_7  and  C6_8 
REMARK    3  A    between atoms: C6_8  and  C7_9 
ROOT
HETATM    1  C7  UNL     1       1.088  -0.055  -0.412  1.00  0.00    -0.015 C 
HETATM    2  C8  UNL     1       0.385   0.505   0.514  1.00  0.00    -0.015 C 
HETATM    3  C9  UNL     1      -0.636   0.888   1.448  1.00  0.00     0.033 C 
HETATM    4  C10 UNL     1      -1.153   2.231   1.517  1.00  0.00     0.002 C 
HETATM    5  C11 UNL     1      -2.454   2.256   1.307  1.00  0.00     0.021 C 
HETATM    6  C12 UNL     1      -3.539   3.213   1.256  1.00  0.00    -0.021 C 
HETATM    7  C13 UNL     1      -4.681   2.561   0.961  1.00  0.00    -0.004 C 
HETATM    8  C14 UNL     1      -4.826   1.161   0.691  1.00  0.00    -0.003 C 
HETATM    9  C15 UNL     1      -5.340   0.002   0.429  1.00  0.00    -0.007 C 
HETATM   10  C16 UNL     1      -5.327  -1.477   0.147  1.00  0.00     0.148 C 
HETATM   11  N2  UNL     1      -3.992  -1.894  -0.200  1.00  0.00    -0.373 N 
HETATM   12  C17 UNL     1      -2.648  -2.302  -0.517  1.00  0.00     0.102 C 
HETATM   13  C18 UNL     1      -1.750  -2.619   0.448  1.00  0.00     0.050 C 
HETATM   14  C19 UNL     1      -0.466  -1.877   0.420  1.00  0.00     0.036 C 
HETATM   15  C20 UNL     1       0.118  -1.121  -0.560  1.00  0.00     0.065 C 
HETATM   16  N3  UNL     1      -0.057  -1.200  -1.993  1.00  0.00    -0.244 NA
HETATM   17  C21 UNL     1      -0.991  -1.931  -2.568  1.00  0.00     0.209 C 
HETATM   18  N4  UNL     1      -2.251  -2.338  -1.925  1.00  0.00    -0.337 N 
HETATM   19  H18 UNL     1      -4.331  -2.213  -1.124  1.00  0.00     0.161 HD
HETATM   20  H22 UNL     1      -3.042  -2.721  -2.517  1.00  0.00     0.168 HD
ENDROOT
BRANCH   1  21
HETATM   21  C6  UNL     1       2.383  -0.067  -1.140  1.00  0.00     0.160 C 
BRANCH  21  22
HETATM   22  N1  UNL     1       3.283   0.903  -0.517  1.00  0.00    -0.386 N 
HETATM   23  H4  UNL     1       2.961   1.795  -0.100  1.00  0.00     0.160 HD
BRANCH  22  24
HETATM   24  C5  UNL     1       4.649   0.606  -0.494  1.00  0.00     0.029 A 
HETATM   25  C4  UNL     1       5.524   1.472   0.161  1.00  0.00     0.029 A 
HETATM   26  C3  UNL     1       6.898   1.233   0.251  1.00  0.00     0.004 A 
HETATM   27  C2  UNL     1       7.365   0.060  -0.356  1.00  0.00     0.024 A 
HETATM   28  C1  UNL     1       6.607  -0.901  -1.046  1.00  0.00     0.036 A 
HETATM   29 CL1  UNL     1       7.227  -2.337  -1.771  1.00  0.00    -0.084 Cl
HETATM   30  C22 UNL     1       5.317  -0.434  -0.989  1.00  0.00     0.052 A 
ENDBRANCH  22  24
ENDBRANCH  21  22
ENDBRANCH   1  21
TORSDOF 3
