REMARK  3 active torsions:
REMARK  status: ('A' for Active; 'I' for Inactive)
REMARK    1  A    between atoms: C4_4  and  C5_5 
REMARK    2  A    between atoms: C5_5  and  N1_6 
REMARK    3  A    between atoms: N1_6  and  C6_7 
ROOT
HETATM    1  C6  UNL     1       0.858  -0.455   0.242  1.00  0.00     0.025 C 
HETATM    2  C7  UNL     1      -0.098  -0.718  -0.677  1.00  0.00    -0.056 C 
HETATM    3  C8  UNL     1       0.363  -0.118  -1.985  1.00  0.00     0.046 C 
HETATM    4  C9  UNL     1      -1.371  -1.416  -0.823  1.00  0.00     0.076 C 
HETATM    5  C10 UNL     1      -2.584  -0.586  -0.963  1.00  0.00    -0.027 A 
HETATM    6  C11 UNL     1      -3.181   0.092  -1.994  1.00  0.00     0.011 A 
HETATM    7  C12 UNL     1      -4.342   0.816  -1.828  1.00  0.00     0.024 A 
HETATM    8  C13 UNL     1      -4.967   0.889  -0.582  1.00  0.00     0.036 A 
HETATM    9 CL1  UNL     1      -6.438   1.812  -0.376  1.00  0.00    -0.084 Cl
HETATM   10  C14 UNL     1      -4.420   0.229   0.506  1.00  0.00     0.053 A 
HETATM   11  C15 UNL     1      -3.257  -0.482   0.292  1.00  0.00     0.042 A 
HETATM   12  N2  UNL     1      -2.780  -1.162   1.432  1.00  0.00    -0.340 N 
HETATM   13  C16 UNL     1      -1.669  -0.846   2.169  1.00  0.00     0.135 C 
HETATM   14  N3  UNL     1      -2.014  -0.123   3.133  1.00  0.00    -0.225 NA
HETATM   15  C17 UNL     1      -0.977   0.292   4.074  1.00  0.00     0.229 C 
HETATM   16  N4  UNL     1       0.344  -0.003   4.129  1.00  0.00    -0.271 NA
HETATM   17  C18 UNL     1       0.803  -0.917   3.081  1.00  0.00     0.164 A 
HETATM   18  C19 UNL     1      -0.249  -0.822   2.120  1.00  0.00     0.011 A 
HETATM   19  C20 UNL     1       1.081  -0.686   1.686  1.00  0.00     0.077 A 
HETATM   20  H15 UNL     1      -3.409  -1.949   1.665  1.00  0.00     0.167 HD
ENDROOT
BRANCH   1  21
HETATM   21  N1  UNL     1       1.998   0.286  -0.264  1.00  0.00    -0.388 N 
HETATM   22  H6  UNL     1       2.087   1.057  -0.995  1.00  0.00     0.159 HD
BRANCH  21  23
HETATM   23  C5  UNL     1       3.327   0.017   0.277  1.00  0.00     0.159 C 
BRANCH  23  24
HETATM   24  C4  UNL     1       4.402   0.781  -0.350  1.00  0.00    -0.030 A 
HETATM   25  C2  UNL     1       5.222   1.156  -1.523  1.00  0.00    -0.037 A 
HETATM   26  C1  UNL     1       5.334   0.869  -2.816  1.00  0.00     0.024 C 
HETATM   27  C3  UNL     1       5.395   1.703  -0.200  1.00  0.00     0.021 A 
ENDBRANCH  23  24
ENDBRANCH  21  23
ENDBRANCH   1  21
TORSDOF 3
