REMARK  7 active torsions:
REMARK  status: ('A' for Active; 'I' for Inactive)
REMARK    1  A    between atoms: C6_8  and  C7_9 
REMARK    2  A    between atoms: C8_10  and  C9_11 
REMARK    3  A    between atoms: C8_10  and  N4_19 
REMARK    4  A    between atoms: C9_11  and  N3_12 
REMARK    5  A    between atoms: N4_19  and  C16_20 
REMARK    6  A    between atoms: C16_20  and  C17_21 
REMARK    7  A    between atoms: C17_21  and  C18_22 
ROOT
HETATM    1  C7  UNL     1      -2.074  -0.678   0.226  1.00  0.00     0.027 C 
HETATM    2  C8  UNL     1      -1.016   0.219   0.292  1.00  0.00     0.022 C 
ENDROOT
BRANCH   2   3
HETATM    3  C9  UNL     1      -0.617   1.637   0.576  1.00  0.00     0.174 C 
BRANCH   3   4
HETATM    4  N3  UNL     1      -0.000   2.312  -0.495  1.00  0.00    -0.401 N 
HETATM    5  C10 UNL     1      -0.835   2.584  -1.629  1.00  0.00     0.145 C 
HETATM    6  C11 UNL     1      -1.853   3.585  -1.214  1.00  0.00    -0.008 C 
HETATM    7  C12 UNL     1      -2.039   4.432  -0.192  1.00  0.00    -0.003 C 
HETATM    8  C13 UNL     1      -1.103   4.571   0.938  1.00  0.00    -0.003 C 
HETATM    9  C14 UNL     1       0.158   4.132   0.993  1.00  0.00    -0.008 C 
HETATM   10  C15 UNL     1       0.851   3.398  -0.127  1.00  0.00     0.145 C 
ENDBRANCH   3   4
ENDBRANCH   2   3
BRANCH   2  11
HETATM   11  N4  UNL     1       0.325  -0.286   0.011  1.00  0.00    -0.392 N 
HETATM   12  H17 UNL     1       0.703  -0.206  -0.963  1.00  0.00     0.159 HD
BRANCH  11  13
HETATM   13  C16 UNL     1       0.885  -0.829   1.232  1.00  0.00     0.124 C 
BRANCH  13  14
HETATM   14  C17 UNL     1       2.198  -1.531   1.044  1.00  0.00     0.053 C 
BRANCH  14  15
HETATM   15  C18 UNL     1       3.228  -0.623   0.492  1.00  0.00    -0.080 C 
HETATM   16  C19 UNL     1       3.197   0.630   0.147  1.00  0.00    -0.101 C 
HETATM   17  B1  UNL     1       3.467  -0.734  -2.091  1.00  0.00     0.239 B 
HETATM   18  C20 UNL     1       5.734  -0.085  -1.226  1.00  0.00    -0.037 C 
HETATM   19 CL1  UNL     1       6.143   0.780  -2.677  1.00  0.00    -0.103 Cl
HETATM   20  C21 UNL     1       5.650  -0.669  -0.057  1.00  0.00    -0.016 C 
HETATM   21  C22 UNL     1       4.449  -1.425   0.366  1.00  0.00     0.061 C 
ENDBRANCH  14  15
ENDBRANCH  13  14
ENDBRANCH  11  13
ENDBRANCH   2  11
BRANCH   1  22
HETATM   22  C6  UNL     1      -1.557  -2.000  -0.167  1.00  0.00     0.013 C 
HETATM   23  C5  UNL     1      -2.528  -2.876  -0.240  1.00  0.00    -0.007 C 
HETATM   24  C1  UNL     1      -3.937  -2.614   0.023  1.00  0.00     0.149 C 
HETATM   25  C4  UNL     1      -2.208  -4.294  -0.627  1.00  0.00     0.072 C 
HETATM   26  N1  UNL     1      -4.292  -1.377   0.100  1.00  0.00    -0.282 NA
HETATM   27  N2  UNL     1      -4.734  -3.810   0.161  1.00  0.00    -0.228 NA
HETATM   28  H1  UNL     1      -5.299  -1.186   0.287  1.00  0.00     0.188 HD
HETATM   29  C2  UNL     1      -4.131  -4.747   0.787  1.00  0.00     0.084 C 
HETATM   30  C3  UNL     1      -3.036  -5.194   0.225  1.00  0.00     0.012 C 
ENDBRANCH   1  22
TORSDOF 7
