REMARK  6 active torsions:
REMARK  status: ('A' for Active; 'I' for Inactive)
REMARK    1  A    between atoms: C2_2  and  C3_3 
REMARK    2  A    between atoms: C2_2  and  N4_17 
REMARK    3  A    between atoms: C7_9  and  N3_10 
REMARK    4  A    between atoms: N3_10  and  C8_11 
REMARK    5  A    between atoms: N4_17  and  C13_18 
REMARK    6  A    between atoms: C13_18  and  C14_19 
ROOT
HETATM    1  C3  UNL     1      -0.568   0.440   0.211  1.00  0.00     0.010 C 
HETATM    2  C4  UNL     1      -1.528   1.063  -0.444  1.00  0.00     0.006 A 
HETATM    3  C5  UNL     1      -1.137   1.902  -1.586  1.00  0.00     0.192 A 
HETATM    4  N1  UNL     1      -2.341   2.494  -2.159  1.00  0.00    -0.278 NA
HETATM    5  C6  UNL     1      -3.525   2.290  -1.709  1.00  0.00     0.229 A 
HETATM    6  N2  UNL     1      -3.838   1.464  -0.596  1.00  0.00    -0.224 NA
HETATM    7  C7  UNL     1      -2.882   0.845   0.050  1.00  0.00     0.137 A 
ENDROOT
BRANCH   1   8
HETATM    8  C2  UNL     1       0.896   0.554  -0.165  1.00  0.00     0.096 C 
HETATM    9  C1  UNL     1       1.353  -0.780  -0.632  1.00  0.00     0.036 C 
BRANCH   8  10
HETATM   10  N4  UNL     1       1.578   1.044   0.954  1.00  0.00    -0.410 N 
HETATM   11  H12 UNL     1       0.981   1.485   1.688  1.00  0.00     0.154 HD
BRANCH  10  12
HETATM   12  C13 UNL     1       2.910   1.469   0.902  1.00  0.00     0.153 C 
BRANCH  12  13
HETATM   13  C14 UNL     1       3.847   0.397   0.520  1.00  0.00    -0.041 A 
HETATM   14  C15 UNL     1       4.344  -0.446   1.519  1.00  0.00     0.010 A 
HETATM   15  C16 UNL     1       5.243  -1.479   1.358  1.00  0.00     0.024 A 
HETATM   16  C17 UNL     1       5.700  -1.707   0.087  1.00  0.00     0.034 A 
HETATM   17 CL2  UNL     1       6.842  -3.008  -0.159  1.00  0.00    -0.084 Cl
HETATM   18  C18 UNL     1       5.259  -0.922  -0.946  1.00  0.00     0.024 A 
HETATM   19  C19 UNL     1       4.363   0.097  -0.745  1.00  0.00     0.010 A 
ENDBRANCH  12  13
ENDBRANCH  10  12
ENDBRANCH   8  10
ENDBRANCH   1   8
BRANCH   7  20
HETATM   20  N3  UNL     1      -3.208   0.026   1.155  1.00  0.00    -0.340 N 
HETATM   21  H9  UNL     1      -2.472  -0.033   1.907  1.00  0.00     0.167 HD
BRANCH  20  22
HETATM   22  C8  UNL     1      -4.474  -0.652   1.189  1.00  0.00     0.046 A 
HETATM   23  C9  UNL     1      -5.460  -0.590   2.065  1.00  0.00     0.005 A 
HETATM   24  C10 UNL     1      -6.468  -1.369   1.787  1.00  0.00     0.038 A 
HETATM   25  C11 UNL     1      -6.163  -2.066   0.525  1.00  0.00     0.037 A 
HETATM   26 CL1  UNL     1      -7.104  -3.242  -0.409  1.00  0.00    -0.084 Cl
HETATM   27  C12 UNL     1      -4.963  -1.620   0.187  1.00  0.00     0.054 A 
ENDBRANCH  20  22
ENDBRANCH   7  20
TORSDOF 6
