REMARK  5 active torsions:
REMARK  status: ('A' for Active; 'I' for Inactive)
REMARK    1  A    between atoms: C4_5  and  C5_6 
REMARK    2  A    between atoms: C5_6  and  C6_7 
REMARK    3  A    between atoms: C6_7  and  N1_8 
REMARK    4  A    between atoms: N1_8  and  C7_9 
REMARK    5  A    between atoms: N4_17  and  C13_18 
ROOT
HETATM    1  C7  UNL     1       0.168  -1.150  -0.344  1.00  0.00     0.031 A 
HETATM    2  C8  UNL     1      -0.340  -2.300   0.134  1.00  0.00     0.044 A 
HETATM    3  C9  UNL     1      -1.722  -2.184   0.582  1.00  0.00     0.011 A 
HETATM    4  C10 UNL     1      -2.283  -3.280   1.065  1.00  0.00     0.131 C 
HETATM    5  N2  UNL     1      -3.613  -3.451   1.571  1.00  0.00    -0.253 NA
HETATM    6  C11 UNL     1      -4.629  -2.702   1.838  1.00  0.00     0.233 C 
HETATM    7  N3  UNL     1      -4.966  -1.323   1.772  1.00  0.00    -0.237 NA
HETATM    8  C12 UNL     1      -4.437  -0.259   1.270  1.00  0.00     0.216 C 
HETATM    9  N4  UNL     1      -3.225  -0.006   0.529  1.00  0.00    -0.305 N 
HETATM   10  C19 UNL     1      -2.039  -0.785   0.324  1.00  0.00     0.054 A 
HETATM   11  C20 UNL     1      -0.968  -0.214  -0.198  1.00  0.00     0.060 A 
ENDROOT
BRANCH   1  12
HETATM   12  N1  UNL     1       1.459  -0.857  -0.869  1.00  0.00    -0.390 N 
HETATM   13  H7  UNL     1       1.538   0.035  -1.398  1.00  0.00     0.159 HD
BRANCH  12  14
HETATM   14  C6  UNL     1       2.448  -1.858  -0.576  1.00  0.00     0.124 C 
BRANCH  14  15
HETATM   15  C5  UNL     1       3.797  -1.513  -1.133  1.00  0.00     0.058 C 
BRANCH  15  16
HETATM   16  C4  UNL     1       4.257  -0.239  -0.545  1.00  0.00    -0.057 A 
HETATM   17  C3  UNL     1       4.111   1.059  -0.982  1.00  0.00     0.009 A 
HETATM   18  C2  UNL     1       4.625   2.107  -0.254  1.00  0.00     0.024 A 
HETATM   19  C1  UNL     1       5.304   1.941   0.935  1.00  0.00     0.034 A 
HETATM   20 CL1  UNL     1       5.947   3.272   1.845  1.00  0.00    -0.084 Cl
HETATM   21  C22 UNL     1       5.459   0.649   1.388  1.00  0.00     0.024 A 
HETATM   22  C21 UNL     1       4.947  -0.403   0.662  1.00  0.00     0.009 A 
ENDBRANCH  15  16
ENDBRANCH  14  15
ENDBRANCH  12  14
ENDBRANCH   1  12
BRANCH   9  23
HETATM   23  C13 UNL     1      -3.155   1.244  -0.140  1.00  0.00     0.042 A 
HETATM   24  C14 UNL     1      -2.672   2.451   0.324  1.00  0.00     0.030 A 
HETATM   25  C15 UNL     1      -2.682   3.568  -0.469  1.00  0.00     0.004 A 
HETATM   26  C16 UNL     1      -3.189   3.464  -1.758  1.00  0.00     0.024 A 
HETATM   27  C17 UNL     1      -3.678   2.278  -2.253  1.00  0.00     0.036 A 
HETATM   28 CL2  UNL     1      -4.312   2.194  -3.895  1.00  0.00    -0.084 Cl
HETATM   29  C18 UNL     1      -3.666   1.140  -1.439  1.00  0.00     0.053 A 
ENDBRANCH   9  23
TORSDOF 5
