REMARK  6 active torsions:
REMARK  status: ('A' for Active; 'I' for Inactive)
REMARK    1  A    between atoms: C2_2  and  N4_18 
REMARK    2  A    between atoms: C3_3  and  C4_4 
REMARK    3  A    between atoms: C7_9  and  N3_10 
REMARK    4  A    between atoms: N3_10  and  C8_11 
REMARK    5  A    between atoms: N4_18  and  C14_19 
REMARK    6  A    between atoms: C14_19  and  C15_20 
ROOT
HETATM    1  C4  UNL     1       0.040   0.537  -0.099  1.00  0.00     0.037 C 
HETATM    2  C5  UNL     1       0.827   1.518   0.213  1.00  0.00     0.104 A 
HETATM    3  N1  UNL     1       0.456   2.736   0.894  1.00  0.00    -0.238 NA
HETATM    4  C6  UNL     1       1.515   3.442   1.009  1.00  0.00     0.236 A 
HETATM    5  N2  UNL     1       2.660   2.786   0.433  1.00  0.00    -0.222 NA
HETATM    6  C7  UNL     1       2.256   1.637  -0.044  1.00  0.00     0.158 A 
ENDROOT
BRANCH   1   7
HETATM    7  C3  UNL     1       0.278  -0.717  -0.767  1.00  0.00     0.026 C 
HETATM    8  C2  UNL     1      -0.752  -1.527  -0.945  1.00  0.00     0.001 C 
HETATM    9  C1  UNL     1      -0.987  -2.847  -1.544  1.00  0.00     0.068 C 
BRANCH   8  10
HETATM   10  N4  UNL     1      -2.074  -1.169  -0.485  1.00  0.00    -0.389 N 
HETATM   11  H12 UNL     1      -2.230  -1.430   0.517  1.00  0.00     0.159 HD
BRANCH  10  12
HETATM   12  C14 UNL     1      -3.123  -0.521  -1.254  1.00  0.00     0.158 C 
BRANCH  12  13
HETATM   13  C15 UNL     1      -4.344  -0.316  -0.441  1.00  0.00    -0.041 A 
HETATM   14  C16 UNL     1      -5.376  -1.228  -0.343  1.00  0.00     0.010 A 
HETATM   15  C17 UNL     1      -6.496  -0.981   0.436  1.00  0.00     0.019 A 
HETATM   16  C18 UNL     1      -6.609   0.207   1.145  1.00  0.00     0.011 A 
HETATM   17 BR1  UNL     1      -8.099   0.664   2.250  1.00  0.00    -0.051 Br
HETATM   18  C19 UNL     1      -5.602   1.173   1.090  1.00  0.00     0.019 A 
HETATM   19  C20 UNL     1      -4.518   0.832   0.283  1.00  0.00     0.010 A 
ENDBRANCH  12  13
ENDBRANCH  10  12
ENDBRANCH   8  10
ENDBRANCH   1   7
BRANCH   6  20
HETATM   20  N3  UNL     1       3.109   0.717  -0.695  1.00  0.00    -0.339 N 
HETATM   21  H7  UNL     1       2.659   0.256  -1.512  1.00  0.00     0.167 HD
BRANCH  20  22
HETATM   22  C8  UNL     1       4.435   0.453  -0.279  1.00  0.00     0.035 A 
HETATM   23  C9  UNL     1       5.175  -0.456  -1.008  1.00  0.00     0.029 A 
HETATM   24  C10 UNL     1       6.473  -0.815  -0.723  1.00  0.00     0.004 A 
HETATM   25  C11 UNL     1       7.044  -0.205   0.371  1.00  0.00     0.024 A 
HETATM   26  C12 UNL     1       6.366   0.726   1.163  1.00  0.00     0.036 A 
HETATM   27 CL1  UNL     1       7.069   1.513   2.555  1.00  0.00    -0.084 Cl
HETATM   28  C13 UNL     1       5.072   1.018   0.796  1.00  0.00     0.053 A 
ENDBRANCH  20  22
ENDBRANCH   6  20
TORSDOF 6
