REMARK  10 active torsions:
REMARK  status: ('A' for Active; 'I' for Inactive)
REMARK    1  A    between atoms: C7_7  and  N1_8 
REMARK    2  A    between atoms: N1_8  and  C8_9 
REMARK    3  A    between atoms: C12_15  and  O1_16 
REMARK    4  A    between atoms: O1_16  and  C13_17 
REMARK    5  A    between atoms: C13_17  and  C14_18 
REMARK    6  A    between atoms: C14_18  and  O2_19 
REMARK    7  A    between atoms: C16_21  and  O3_22 
REMARK    8  A    between atoms: O3_22  and  C17_23 
REMARK    9  A    between atoms: C17_23  and  C18_24 
REMARK   10  A    between atoms: C18_24  and  O4_25 
ROOT
HETATM    1  C1  UNL     1      -7.215   3.608   1.465  1.00  0.00     0.018 C 
HETATM    2  C2  UNL     1      -6.554   2.619   1.514  1.00  0.00    -0.078 C 
HETATM    3  C3  UNL     1      -5.764   1.394   1.585  1.00  0.00     0.019 A 
HETATM    4  C4  UNL     1      -6.249   0.247   2.209  1.00  0.00     0.021 A 
HETATM    5  C5  UNL     1      -5.396  -0.823   2.185  1.00  0.00     0.004 A 
HETATM    6  C6  UNL     1      -4.165  -0.741   1.586  1.00  0.00     0.029 A 
HETATM    7  C7  UNL     1      -3.673   0.387   0.967  1.00  0.00     0.035 A 
HETATM    8  C21 UNL     1      -4.525   1.460   0.988  1.00  0.00     0.050 A 
ENDROOT
BRANCH   7   9
HETATM    9  N1  UNL     1      -2.382   0.247   0.403  1.00  0.00    -0.340 N 
HETATM   10  H5  UNL     1      -1.928  -0.675   0.298  1.00  0.00     0.167 HD
BRANCH   9  11
HETATM   11  C8  UNL     1      -1.748   1.422  -0.015  1.00  0.00     0.141 C 
HETATM   12  N2  UNL     1      -1.947   2.675   0.345  1.00  0.00    -0.224 NA
HETATM   13  C9  UNL     1      -1.160   3.677  -0.269  1.00  0.00     0.230 C 
HETATM   14  N3  UNL     1      -0.224   3.571  -1.211  1.00  0.00    -0.269 NA
HETATM   15  C10 UNL     1       0.045   2.258  -1.725  1.00  0.00     0.174 A 
HETATM   16  C11 UNL     1       1.341   1.852  -2.149  1.00  0.00     0.045 A 
HETATM   17  C20 UNL     1      -0.435   1.285  -0.723  1.00  0.00     0.052 A 
HETATM   18  C12 UNL     1       1.600   0.713  -1.543  1.00  0.00     0.101 A 
HETATM   19  C16 UNL     1       0.501   0.305  -0.635  1.00  0.00     0.114 A 
BRANCH  18  20
HETATM   20  O1  UNL     1       2.757  -0.083  -1.658  1.00  0.00    -0.346 OA
BRANCH  20  21
HETATM   21  C13 UNL     1       4.040   0.526  -1.454  1.00  0.00     0.201 C 
BRANCH  21  22
HETATM   22  C14 UNL     1       4.769  -0.396  -0.486  1.00  0.00     0.193 C 
BRANCH  22  23
HETATM   23  O2  UNL     1       6.025   0.011  -0.153  1.00  0.00    -0.394 OA
HETATM   24  C15 UNL     1       6.939   0.112  -1.168  1.00  0.00     0.201 C 
ENDBRANCH  22  23
ENDBRANCH  21  22
ENDBRANCH  20  21
ENDBRANCH  18  20
BRANCH  19  25
HETATM   25  O3  UNL     1       0.373  -0.831   0.170  1.00  0.00    -0.345 OA
BRANCH  25  26
HETATM   26  C17 UNL     1       1.226  -1.924   0.216  1.00  0.00     0.202 C 
BRANCH  26  27
HETATM   27  C18 UNL     1       0.641  -3.163  -0.415  1.00  0.00     0.193 C 
BRANCH  27  28
HETATM   28  O4  UNL     1       1.500  -4.213  -0.357  1.00  0.00    -0.394 OA
HETATM   29  C19 UNL     1       1.843  -4.658   0.885  1.00  0.00     0.201 C 
ENDBRANCH  27  28
ENDBRANCH  26  27
ENDBRANCH  25  26
ENDBRANCH  19  25
ENDBRANCH   9  11
ENDBRANCH   7   9
TORSDOF 10
