REMARK  7 active torsions:
REMARK  status: ('A' for Active; 'I' for Inactive)
REMARK    1  A    between atoms: C2_2  and  C3_3 
REMARK    2  A    between atoms: C9_9  and  N1_10 
REMARK    3  A    between atoms: N1_10  and  C10_11 
REMARK    4  A    between atoms: C18_23  and  O3_24 
REMARK    5  A    between atoms: O3_24  and  C19_25 
REMARK    6  A    between atoms: C19_25  and  C20_26 
REMARK    7  A    between atoms: C20_26  and  O4_27 
ROOT
HETATM    1  C10 UNL     1      -0.634   0.444   0.921  1.00  0.00     0.041 A 
HETATM    2  P1  UNL     1      -0.254   1.497   2.287  1.00  0.00     0.012 P 
HETATM    3  C11 UNL     1       1.438   1.794   2.433  1.00  0.00     0.134 A 
HETATM    4  N2  UNL     1       1.947   1.104   1.422  1.00  0.00    -0.266 NA
HETATM    5  C12 UNL     1       1.441   0.382   0.524  1.00  0.00     0.039 A 
HETATM    6  C13 UNL     1       0.285  -0.085   0.070  1.00  0.00     0.085 A 
HETATM    7  C14 UNL     1      -0.474  -0.795  -0.732  1.00  0.00     0.173 C 
HETATM    8  O1  UNL     1       0.444  -1.338  -1.594  1.00  0.00    -0.380 OA
HETATM    9  C15 UNL     1       0.514  -1.209  -2.975  1.00  0.00     0.194 C 
HETATM   10  C16 UNL     1       1.778  -0.418  -3.278  1.00  0.00     0.194 C 
HETATM   11  O2  UNL     1       2.912  -1.079  -2.775  1.00  0.00    -0.379 OA
HETATM   12  C17 UNL     1       3.927  -0.344  -2.083  1.00  0.00     0.183 C 
HETATM   13  C18 UNL     1       3.269   0.082  -0.974  1.00  0.00     0.082 C 
HETATM   14  C22 UNL     1       1.799  -0.172  -0.583  1.00  0.00     0.169 A 
ENDROOT
BRANCH   1  15
HETATM   15  N1  UNL     1      -2.068   0.345   0.961  1.00  0.00    -0.366 N 
HETATM   16  H10 UNL     1      -2.345  -0.387   0.332  1.00  0.00     0.165 HD
BRANCH  15  17
HETATM   17  C9  UNL     1      -3.206   0.895   1.577  1.00  0.00     0.100 C 
HETATM   18  C8  UNL     1      -4.388   0.491   1.397  1.00  0.00    -0.014 C 
HETATM   19  C3  UNL     1      -5.357  -0.393   0.784  1.00  0.00    -0.036 C 
HETATM   20  C7  UNL     1      -5.047   1.189   2.590  1.00  0.00     0.013 C 
HETATM   21  C4  UNL     1      -6.310  -0.906   1.552  1.00  0.00    -0.018 C 
HETATM   22  C5  UNL     1      -7.112  -0.058   2.175  1.00  0.00     0.013 C 
HETATM   23  C6  UNL     1      -6.315   0.923   2.937  1.00  0.00     0.002 C 
BRANCH  19  24
HETATM   24  C2  UNL     1      -4.943  -0.429  -0.625  1.00  0.00     0.036 C 
HETATM   25  C1  UNL     1      -5.965  -1.323  -1.345  1.00  0.00     0.010 C 
ENDBRANCH  19  24
ENDBRANCH  15  17
ENDBRANCH   1  15
BRANCH  13  26
HETATM   26  O3  UNL     1       4.229   0.830  -0.252  1.00  0.00    -0.380 OA
BRANCH  26  27
HETATM   27  C19 UNL     1       5.531   1.044  -0.509  1.00  0.00     0.194 C 
BRANCH  27  28
HETATM   28  C20 UNL     1       6.185   1.365   0.866  1.00  0.00     0.193 C 
BRANCH  28  29
HETATM   29  O4  UNL     1       5.963   0.265   1.676  1.00  0.00    -0.394 OA
HETATM   30  C21 UNL     1       6.483  -0.875   1.166  1.00  0.00     0.201 C 
ENDBRANCH  28  29
ENDBRANCH  27  28
ENDBRANCH  26  27
ENDBRANCH  13  26
TORSDOF 7
