REMARK  2 active torsions:
REMARK  status: ('A' for Active; 'I' for Inactive)
REMARK    1  A    between atoms: N1_7  and  C6_8 
REMARK    2  A    between atoms: C15_20  and  O2_21 
ROOT
HETATM    1  O1  UNL     1       3.565  -4.410  -1.448  1.00  0.00    -0.289 OA
HETATM    2  C1  UNL     1       2.849  -3.447  -1.091  1.00  0.00     0.168 C 
HETATM    3  C2  UNL     1       1.440  -3.651  -1.641  1.00  0.00     0.034 C 
HETATM    4  C3  UNL     1       0.091  -3.337  -1.758  1.00  0.00     0.059 C 
HETATM    5  C4  UNL     1      -0.210  -2.173  -0.873  1.00  0.00     0.021 C 
HETATM    6  C5  UNL     1      -1.204  -1.353  -0.468  1.00  0.00     0.090 C 
HETATM    7  N1  UNL     1      -1.382  -0.246   0.407  1.00  0.00    -0.271 N 
HETATM    8  N2  UNL     1      -0.262   0.016   1.204  1.00  0.00    -0.294 N 
HETATM    9  C12 UNL     1       1.079   0.462   0.868  1.00  0.00     0.059 A 
HETATM   10  C13 UNL     1       0.764   1.802   0.849  1.00  0.00     0.034 A 
HETATM   11  C14 UNL     1       1.664   2.833   0.536  1.00  0.00     0.039 A 
HETATM   12  C15 UNL     1       2.970   2.542   0.219  1.00  0.00     0.066 A 
HETATM   13  C16 UNL     1       3.201   1.157   0.265  1.00  0.00     0.050 A 
HETATM   14  C17 UNL     1       2.354   0.057   0.569  1.00  0.00    -0.005 A 
HETATM   15  C18 UNL     1       3.240  -1.086   0.394  1.00  0.00     0.018 C 
HETATM   16  C19 UNL     1       3.196  -2.255  -0.269  1.00  0.00     0.055 C 
HETATM   17  H8  UNL     1      -0.622  -0.150   2.155  1.00  0.00     0.187 HD
ENDROOT
BRANCH   7  18
HETATM   18  C6  UNL     1      -2.629   0.371   0.311  1.00  0.00     0.057 A 
HETATM   19  C7  UNL     1      -2.857   1.210   1.357  1.00  0.00     0.034 A 
HETATM   20  C8  UNL     1      -4.074   1.905   1.388  1.00  0.00     0.046 A 
HETATM   21  C9  UNL     1      -5.025   1.753   0.392  1.00  0.00     0.138 A 
HETATM   22  F1  UNL     1      -6.207   2.409   0.394  1.00  0.00    -0.204 F 
HETATM   23  C10 UNL     1      -4.732   0.888  -0.638  1.00  0.00     0.074 A 
HETATM   24 CL1  UNL     1      -5.860   0.621  -1.946  1.00  0.00    -0.081 Cl
HETATM   25  C11 UNL     1      -3.542   0.192  -0.694  1.00  0.00     0.058 A 
ENDBRANCH   7  18
BRANCH  12  26
HETATM   26  O2  UNL     1       3.876   3.539  -0.093  1.00  0.00    -0.361 OA
HETATM   27  H11 UNL     1       3.826   4.061  -0.969  1.00  0.00     0.217 HD
ENDBRANCH  12  26
TORSDOF 2
