REMARK  0 active torsions:
REMARK  status: ('A' for Active; 'I' for Inactive)
ROOT
HETATM    1  F1  UNL     1      -3.303   2.745   1.333  1.00  0.00    -0.242 F 
HETATM    2  C1  UNL     1      -3.239   1.465   0.794  1.00  0.00     0.227 C 
HETATM    3  C2  UNL     1      -2.408   0.651   1.695  1.00  0.00     0.046 C 
HETATM    4 CL1  UNL     1      -1.631   1.581   2.993  1.00  0.00    -0.086 Cl
HETATM    5  C3  UNL     1      -2.030  -0.633   1.868  1.00  0.00     0.024 C 
HETATM    6  C4  UNL     1      -1.931  -1.730   0.869  1.00  0.00     0.026 C 
HETATM    7  C5  UNL     1      -2.289  -1.817  -0.427  1.00  0.00     0.012 C 
HETATM    8  C6  UNL     1      -3.369  -1.008  -1.123  1.00  0.00     0.112 C 
HETATM    9  C7  UNL     1      -2.626   0.305  -1.346  1.00  0.00     0.030 C 
HETATM   10  N1  UNL     1      -1.706   0.359  -2.302  1.00  0.00    -0.250 NA
HETATM   11  C8  UNL     1      -0.472  -0.306  -2.556  1.00  0.00     0.229 C 
HETATM   12  N2  UNL     1      -0.176  -1.552  -2.428  1.00  0.00    -0.256 NA
HETATM   13  C9  UNL     1      -0.018  -2.418  -1.289  1.00  0.00     0.224 C 
HETATM   14  C10 UNL     1       0.893  -1.786  -0.302  1.00  0.00     0.168 C 
HETATM   15  N3  UNL     1       1.833  -0.850  -0.937  1.00  0.00    -0.386 N 
HETATM   16  C11 UNL     1       2.701  -0.245   0.032  1.00  0.00     0.038 A 
HETATM   17  C12 UNL     1       3.474  -1.192   0.660  1.00  0.00     0.030 A 
HETATM   18  C13 UNL     1       4.388  -0.891   1.648  1.00  0.00     0.002 A 
HETATM   19  C14 UNL     1       4.578   0.399   2.066  1.00  0.00     0.001 A 
HETATM   20  C15 UNL     1       3.790   1.321   1.419  1.00  0.00     0.013 A 
HETATM   21  C16 UNL     1       2.850   1.070   0.412  1.00  0.00    -0.010 A 
HETATM   22  C17 UNL     1       2.146   2.220  -0.124  1.00  0.00     0.013 C 
HETATM   23  C18 UNL     1       0.925   2.547  -0.422  1.00  0.00     0.001 C 
HETATM   24  C19 UNL     1      -0.417   1.997  -0.407  1.00  0.00    -0.003 C 
HETATM   25  C20 UNL     1      -1.586   2.455  -0.746  1.00  0.00    -0.013 C 
HETATM   26  C21 UNL     1      -2.762   1.616  -0.602  1.00  0.00     0.096 C 
HETATM   27  N4  UNL     1      -1.303  -2.810  -0.682  1.00  0.00    -0.369 N 
HETATM   28  H10 UNL     1       2.092  -0.467  -1.867  1.00  0.00     0.159 HD
HETATM   29  H20 UNL     1      -1.410  -3.816  -0.473  1.00  0.00     0.161 HD
ENDROOT
TORSDOF 0
