REMARK  5 active torsions:
REMARK  status: ('A' for Active; 'I' for Inactive)
REMARK    1  A    between atoms: N1_1  and  C1_2 
REMARK    2  A    between atoms: C3_4  and  C4_5 
REMARK    3  A    between atoms: C4_5  and  N2_6 
REMARK    4  A    between atoms: C7_9  and  N3_10 
REMARK    5  A    between atoms: N3_10  and  C8_11 
ROOT
HETATM    1  C4  UNL     1      -1.925  -0.487  -0.152  1.00  0.00     0.246 C 
HETATM    2  C5  UNL     1      -0.934   0.382  -0.865  1.00  0.00     0.084 C 
HETATM    3  C6  UNL     1       0.338   0.533  -0.073  1.00  0.00     0.002 C 
HETATM    4  C7  UNL     1       1.282  -0.337   0.256  1.00  0.00     0.015 C 
HETATM    5  C14 UNL     1       1.477  -1.806  -0.017  1.00  0.00     0.131 C 
HETATM    6  S1  UNL     1       0.608  -2.254  -1.539  1.00  0.00    -0.156 SA
HETATM    7  C15 UNL     1      -0.995  -2.959  -1.078  1.00  0.00     0.155 C 
HETATM    8  C16 UNL     1      -1.970  -1.885  -0.704  1.00  0.00     0.179 C 
HETATM    9  O1  UNL     1      -3.114  -2.307  -0.928  1.00  0.00    -0.294 OA
ENDROOT
BRANCH   1  10
HETATM   10  C3  UNL     1      -3.289   0.078  -0.323  1.00  0.00     0.001 C 
HETATM   11  C2  UNL     1      -3.831   1.113  -0.922  1.00  0.00     0.013 C 
HETATM   12  C1  UNL     1      -5.033   1.408  -0.503  1.00  0.00     0.037 C 
HETATM   13  C18 UNL     1      -5.544   0.221   0.177  1.00  0.00     0.030 C 
HETATM   14  C17 UNL     1      -4.469  -0.578   0.278  1.00  0.00     0.013 C 
BRANCH  12  15
HETATM   15  N1  UNL     1      -5.819   2.606  -0.614  1.00  0.00    -0.398 N 
HETATM   16  H1  UNL     1      -6.137   2.734  -1.600  1.00  0.00     0.156 HD
HETATM   17  H2  UNL     1      -5.946   3.148   0.288  1.00  0.00     0.156 HD
ENDBRANCH  12  15
ENDBRANCH   1  10
BRANCH   1  18
HETATM   18  N2  UNL     1      -1.712  -0.533   1.294  1.00  0.00     0.100 N 
HETATM   19  H3  UNL     1      -0.808  -0.124   1.544  1.00  0.00     0.314 HD
HETATM   20  H4  UNL     1      -1.901  -1.495   1.633  1.00  0.00     0.314 HD
ENDBRANCH   1  18
BRANCH   4  21
HETATM   21  N3  UNL     1       2.277   0.329   1.020  1.00  0.00    -0.359 N 
HETATM   22  H8  UNL     1       1.795   0.544   1.923  1.00  0.00     0.166 HD
BRANCH  21  23
HETATM   23  C8  UNL     1       3.612   0.694   0.798  1.00  0.00     0.034 A 
HETATM   24  C9  UNL     1       4.314   1.354   1.786  1.00  0.00     0.032 A 
HETATM   25  C10 UNL     1       5.620   1.671   1.472  1.00  0.00     0.046 A 
HETATM   26  C11 UNL     1       6.234   1.376   0.272  1.00  0.00     0.138 A 
HETATM   27  F1  UNL     1       7.545   1.757   0.106  1.00  0.00    -0.204 F 
HETATM   28  C12 UNL     1       5.520   0.722  -0.693  1.00  0.00     0.074 A 
HETATM   29 CL1  UNL     1       6.266   0.337  -2.212  1.00  0.00    -0.081 Cl
HETATM   30  C13 UNL     1       4.208   0.390  -0.409  1.00  0.00     0.056 A 
ENDBRANCH  21  23
ENDBRANCH   4  21
TORSDOF 5
