REMARK  3 active torsions:
REMARK  status: ('A' for Active; 'I' for Inactive)
REMARK    1  A    between atoms: C6_9  and  N3_10 
REMARK    2  A    between atoms: C9_13  and  C10_14 
REMARK    3  A    between atoms: C17_22  and  C18_23 
ROOT
HETATM    1  C1  UNL     1      -2.012   2.478  -1.765  1.00  0.00     0.022 C 
HETATM    2  C2  UNL     1      -2.327   2.139  -0.533  1.00  0.00    -0.031 C 
HETATM    3  C3  UNL     1      -2.748   2.421   0.862  1.00  0.00     0.115 C 
HETATM    4  S1  UNL     1      -2.927   4.216   1.139  1.00  0.00    -0.143 SA
HETATM    5  C4  UNL     1      -1.308   5.016   0.912  1.00  0.00     0.224 C 
HETATM    6  N1  UNL     1      -0.338   4.434   1.835  1.00  0.00    -0.273 NA
HETATM    7  C5  UNL     1       0.206   3.283   1.549  1.00  0.00     0.229 C 
HETATM    8  N2  UNL     1       0.640   2.082   1.046  1.00  0.00    -0.224 NA
HETATM    9  C6  UNL     1       0.084   1.125   0.504  1.00  0.00     0.144 C 
HETATM   10  C15 UNL     1      -0.939   0.255  -0.071  1.00  0.00     0.018 C 
HETATM   11  C16 UNL     1      -2.098   0.677  -0.578  1.00  0.00     0.045 C 
HETATM   12  N4  UNL     1      -2.823  -0.440  -1.051  1.00  0.00    -0.381 N 
HETATM   13  C17 UNL     1      -2.216  -1.692  -0.587  1.00  0.00     0.109 C 
HETATM   14  C21 UNL     1      -0.872  -1.229  -0.179  1.00  0.00     0.074 C 
HETATM   15  H20 UNL     1      -3.664  -0.186  -1.653  1.00  0.00     0.160 HD
ENDROOT
BRANCH   9  16
HETATM   16  N3  UNL     1       1.395   0.506   0.413  1.00  0.00    -0.311 N 
HETATM   17  C7  UNL     1       2.061   0.600  -0.864  1.00  0.00     0.095 A 
HETATM   18  C8  UNL     1       3.263   0.051  -1.107  1.00  0.00    -0.001 A 
HETATM   19  C9  UNL     1       4.022  -0.696  -0.113  1.00  0.00     0.033 A 
HETATM   20  C12 UNL     1       3.298  -0.760   1.168  1.00  0.00     0.007 A 
HETATM   21  C13 UNL     1       2.100  -0.222   1.438  1.00  0.00     0.011 A 
HETATM   22  C14 UNL     1       1.423  -0.309   2.733  1.00  0.00     0.068 C 
BRANCH  19  23
HETATM   23  C10 UNL     1       4.409  -2.078  -0.595  1.00  0.00     0.008 C 
HETATM   24  C11 UNL     1       5.254  -1.946  -1.826  1.00  0.00     0.006 C 
ENDBRANCH  19  23
ENDBRANCH   9  16
BRANCH  13  25
HETATM   25  C18 UNL     1      -2.989  -2.375   0.448  1.00  0.00    -0.006 C 
HETATM   26  C19 UNL     1      -4.007  -3.185   0.179  1.00  0.00    -0.033 C 
HETATM   27  C20 UNL     1      -4.527  -3.532  -1.162  1.00  0.00     0.036 C 
ENDBRANCH  13  25
TORSDOF 3
