REMARK  4 active torsions:
REMARK  status: ('A' for Active; 'I' for Inactive)
REMARK    1  A    between atoms: C4_5  and  O1_6 
REMARK    2  A    between atoms: O1_6  and  C5_7 
REMARK    3  A    between atoms: C7_9  and  N2_10 
REMARK    4  A    between atoms: N2_10  and  C8_11 
ROOT
HETATM    1  C5  UNL     1      -0.262   0.461  -0.000  1.00  0.00     0.103 A 
HETATM    2  C6  UNL     1       0.945   1.104   0.138  1.00  0.00     0.089 A 
HETATM    3  C7  UNL     1       2.159   0.475   0.238  1.00  0.00     0.133 A 
HETATM    4  N3  UNL     1       2.097  -0.857   0.191  1.00  0.00    -0.211 NA
HETATM    5  C14 UNL     1       0.982  -1.583   0.059  1.00  0.00     0.160 A 
HETATM    6  C15 UNL     1      -0.231  -0.914  -0.039  1.00  0.00     0.114 A 
HETATM    7  N4  UNL     1      -0.189  -2.341  -0.079  1.00  0.00    -0.334 N 
HETATM    8  H14 UNL     1      -0.833  -3.172  -0.167  1.00  0.00     0.168 HD
ENDROOT
BRANCH   3   9
HETATM    9  N2  UNL     1       3.328   1.237   0.376  1.00  0.00    -0.341 N 
HETATM   10  H10 UNL     1       3.215   2.295   0.396  1.00  0.00     0.167 HD
BRANCH   9  11
HETATM   11  C8  UNL     1       4.670   0.798   0.494  1.00  0.00     0.035 A 
HETATM   12  C9  UNL     1       5.085  -0.512   0.498  1.00  0.00     0.032 A 
HETATM   13  C10 UNL     1       6.387  -0.945   0.613  1.00  0.00     0.046 A 
HETATM   14  C11 UNL     1       7.379  -0.003   0.736  1.00  0.00     0.138 A 
HETATM   15  F1  UNL     1       8.669  -0.378   0.852  1.00  0.00    -0.204 F 
HETATM   16  C12 UNL     1       7.026   1.312   0.739  1.00  0.00     0.074 A 
HETATM   17 CL1  UNL     1       8.271   2.536   0.895  1.00  0.00    -0.081 Cl
HETATM   18  C13 UNL     1       5.709   1.690   0.621  1.00  0.00     0.056 A 
ENDBRANCH   9  11
ENDBRANCH   3   9
BRANCH   1  19
HETATM   19  O1  UNL     1      -1.451   1.154  -0.096  1.00  0.00    -0.343 OA
BRANCH  19  20
HETATM   20  C4  UNL     1      -2.649   0.452  -0.235  1.00  0.00     0.132 C 
HETATM   21  C3  UNL     1      -3.655   0.847   0.828  1.00  0.00     0.052 C 
HETATM   22  C2  UNL     1      -4.788  -0.121   0.779  1.00  0.00     0.119 C 
HETATM   23  N1  UNL     1      -4.996  -0.687  -0.499  1.00  0.00    -0.416 N 
HETATM   24  C1  UNL     1      -4.916  -2.100  -0.613  1.00  0.00     0.143 C 
HETATM   25  C17 UNL     1      -4.673   0.082  -1.640  1.00  0.00     0.119 C 
HETATM   26  C16 UNL     1      -3.347   0.794  -1.559  1.00  0.00     0.052 C 
ENDBRANCH  19  20
ENDBRANCH   1  19
TORSDOF 4
