REMARK  0 active torsions:
REMARK  status: ('A' for Active; 'I' for Inactive)
ROOT
HETATM    1  O1  UNL     1       0.956   4.101  -0.437  1.00  0.00    -0.289 OA
HETATM    2  C1  UNL     1       0.633   2.985   0.087  1.00  0.00     0.193 C 
HETATM    3  C2  UNL     1       1.628   2.733   1.136  1.00  0.00     0.055 C 
HETATM    4  C3  UNL     1       1.834   1.337   1.191  1.00  0.00     0.036 C 
HETATM    5  C4  UNL     1       0.997   0.808   0.141  1.00  0.00     0.019 C 
HETATM    6  C5  UNL     1       1.996  -0.086  -0.159  1.00  0.00     0.137 C 
HETATM    7  N1  UNL     1       3.372   0.118  -0.120  1.00  0.00    -0.224 NA
HETATM    8  C6  UNL     1       3.756   1.408   0.090  1.00  0.00     0.235 C 
HETATM    9  N2  UNL     1       4.576   1.707   1.149  1.00  0.00    -0.247 NA
HETATM   10  C7  UNL     1       4.469   2.928   1.798  1.00  0.00     0.168 C 
HETATM   11  S1  UNL     1       2.830   3.465   2.244  1.00  0.00    -0.079 SA
HETATM   12  N3  UNL     1       1.939  -1.395  -0.624  1.00  0.00    -0.350 N 
HETATM   13  C8  UNL     1       1.052  -2.340  -1.143  1.00  0.00     0.090 C 
HETATM   14  C9  UNL     1       0.101  -3.140  -1.560  1.00  0.00     0.020 C 
HETATM   15  C10 UNL     1      -1.367  -3.384  -1.558  1.00  0.00     0.044 C 
HETATM   16  C11 UNL     1      -2.512  -2.934  -1.152  1.00  0.00     0.126 C 
HETATM   17  F1  UNL     1      -3.677  -3.574  -1.438  1.00  0.00    -0.205 F 
HETATM   18  C12 UNL     1      -2.970  -1.774  -0.372  1.00  0.00     0.005 A 
HETATM   19  C13 UNL     1      -3.964  -1.646   0.550  1.00  0.00     0.014 A 
HETATM   20  C14 UNL     1      -4.103  -0.410   1.172  1.00  0.00     0.003 A 
HETATM   21  C15 UNL     1      -3.219   0.604   0.812  1.00  0.00     0.029 A 
HETATM   22  C16 UNL     1      -2.218   0.488  -0.112  1.00  0.00     0.029 A 
HETATM   23  C17 UNL     1      -2.085  -0.729  -0.726  1.00  0.00     0.043 A 
HETATM   24  N4  UNL     1      -1.326   1.596  -0.323  1.00  0.00    -0.374 N 
HETATM   25  C18 UNL     1      -0.094   1.697   0.375  1.00  0.00     0.194 C 
HETATM   26  H4  UNL     1       2.666  -2.135  -0.725  1.00  0.00     0.166 HD
HETATM   27  H12 UNL     1      -1.990   2.024  -1.012  1.00  0.00     0.160 HD
ENDROOT
TORSDOF 0
