REMARK  7 active torsions:
REMARK  status: ('A' for Active; 'I' for Inactive)
REMARK    1  A    between atoms: O1_1  and  C1_2 
REMARK    2  A    between atoms: C3_4  and  O2_5 
REMARK    3  A    between atoms: O2_5  and  C4_6 
REMARK    4  A    between atoms: C4_6  and  C5_7 
REMARK    5  A    between atoms: C5_7  and  C6_8 
REMARK    6  A    between atoms: C9_11  and  N1_12 
REMARK    7  A    between atoms: N1_12  and  C10_13 
ROOT
HETATM    1  C6  UNL     1       0.153  -0.167   1.496  1.00  0.00    -0.012 A 
HETATM    2  C7  UNL     1       1.170  -0.444   0.625  1.00  0.00     0.033 A 
HETATM    3  C8  UNL     1       1.947  -1.551   0.727  1.00  0.00     0.047 A 
HETATM    4  C9  UNL     1       2.982  -1.920  -0.090  1.00  0.00     0.142 A 
HETATM    5  N2  UNL     1       3.660  -3.043   0.132  1.00  0.00    -0.223 NA
HETATM    6  C16 UNL     1       3.389  -3.875   1.142  1.00  0.00     0.236 A 
HETATM    7  N3  UNL     1       2.406  -3.632   2.008  1.00  0.00    -0.234 NA
HETATM    8  C17 UNL     1       1.651  -2.449   1.820  1.00  0.00     0.113 A 
HETATM    9  S1  UNL     1       0.209  -1.566   2.635  1.00  0.00    -0.074 SA
ENDROOT
BRANCH   1  10
HETATM   10  C5  UNL     1      -0.842   0.809   1.745  1.00  0.00     0.073 C 
BRANCH  10  11
HETATM   11  C4  UNL     1      -2.115   0.458   1.006  1.00  0.00     0.180 C 
BRANCH  11  12
HETATM   12  O2  UNL     1      -3.148   1.396   1.215  1.00  0.00    -0.355 OA
BRANCH  12  13
HETATM   13  C3  UNL     1      -4.378   1.299   0.547  1.00  0.00     0.051 C 
HETATM   14  C2  UNL     1      -4.993  -0.051   0.254  1.00  0.00     0.128 C 
HETATM   15  C1  UNL     1      -5.995  -0.141  -0.732  1.00  0.00     0.166 A 
HETATM   16  C20 UNL     1      -6.809   1.131  -0.974  1.00  0.00     0.131 A 
HETATM   17  N4  UNL     1      -7.219  -0.280  -1.241  1.00  0.00    -0.370 N 
HETATM   18  C19 UNL     1      -6.192   2.187  -0.534  1.00  0.00     0.014 C 
HETATM   19  C18 UNL     1      -4.962   2.432   0.193  1.00  0.00     0.031 C 
HETATM   20  H16 UNL     1      -8.002  -0.863  -1.598  1.00  0.00     0.157 HD
BRANCH  15  21
HETATM   21  O1  UNL     1      -5.139  -0.151  -2.108  1.00  0.00    -0.368 OA
HETATM   22  H1  UNL     1      -4.785  -1.065  -1.984  1.00  0.00     0.212 HD
ENDBRANCH  15  21
ENDBRANCH  12  13
ENDBRANCH  11  12
ENDBRANCH  10  11
ENDBRANCH   1  10
BRANCH   4  23
HETATM   23  N1  UNL     1       3.399  -1.145  -1.205  1.00  0.00    -0.340 N 
HETATM   24  H9  UNL     1       2.936  -1.276  -2.133  1.00  0.00     0.167 HD
BRANCH  23  25
HETATM   25  C10 UNL     1       4.443  -0.189  -1.068  1.00  0.00     0.035 A 
HETATM   26  C11 UNL     1       5.082  -0.030   0.145  1.00  0.00     0.032 A 
HETATM   27  C12 UNL     1       6.097   0.898   0.273  1.00  0.00     0.046 A 
HETATM   28  C13 UNL     1       6.517   1.698  -0.783  1.00  0.00     0.138 A 
HETATM   29  F1  UNL     1       7.510   2.610  -0.667  1.00  0.00    -0.204 F 
HETATM   30  C14 UNL     1       5.857   1.512  -1.977  1.00  0.00     0.074 A 
HETATM   31 CL1  UNL     1       6.318   2.480  -3.373  1.00  0.00    -0.081 Cl
HETATM   32  C15 UNL     1       4.835   0.589  -2.134  1.00  0.00     0.056 A 
ENDBRANCH  23  25
ENDBRANCH   4  23
TORSDOF 7
