REMARK  0 active torsions:
REMARK  status: ('A' for Active; 'I' for Inactive)
ROOT
HETATM    1  O1  UNL     1       0.864  -3.680  -0.646  1.00  0.00    -0.266 OA
HETATM    2  C1  UNL     1       0.154  -2.731  -0.532  1.00  0.00     0.273 C 
HETATM    3  N1  UNL     1      -1.312  -2.267  -0.493  1.00  0.00    -0.321 N 
HETATM    4  C2  UNL     1      -1.795  -0.886  -0.097  1.00  0.00     0.042 A 
HETATM    5  C3  UNL     1      -2.868  -1.359   0.632  1.00  0.00     0.033 A 
HETATM    6  C4  UNL     1      -3.601  -0.389   1.267  1.00  0.00     0.044 A 
HETATM    7  C5  UNL     1      -3.283   0.939   1.177  1.00  0.00     0.117 A 
HETATM    8  F1  UNL     1      -4.004   1.898   1.804  1.00  0.00    -0.206 F 
HETATM    9  C6  UNL     1      -2.222   1.376   0.451  1.00  0.00     0.052 A 
HETATM   10  C7  UNL     1      -1.404   0.526  -0.236  1.00  0.00    -0.018 A 
HETATM   11  C8  UNL     1      -0.343   1.229  -1.087  1.00  0.00     0.074 C 
HETATM   12  C9  UNL     1       0.191   0.066  -1.885  1.00  0.00     0.144 C 
HETATM   13  N2  UNL     1       0.926  -0.479  -0.572  1.00  0.00    -0.340 N 
HETATM   14  C10 UNL     1       1.246  -1.747  -0.364  1.00  0.00     0.104 A 
HETATM   15  C11 UNL     1       2.445  -1.611   0.310  1.00  0.00     0.049 A 
HETATM   16  C12 UNL     1       2.668  -0.220   0.438  1.00  0.00    -0.006 A 
HETATM   17  C13 UNL     1       3.540   0.712   0.936  1.00  0.00     0.014 A 
HETATM   18  C14 UNL     1       3.129   2.059   0.725  1.00  0.00     0.002 A 
HETATM   19  C15 UNL     1       1.947   2.507   0.077  1.00  0.00     0.010 A 
HETATM   20  C16 UNL     1       0.944   1.664  -0.491  1.00  0.00    -0.020 A 
HETATM   21  C17 UNL     1       1.626   0.539  -0.139  1.00  0.00     0.052 A 
HETATM   22  H1  UNL     1      -1.864  -3.067  -0.735  1.00  0.00     0.169 HD
ENDROOT
TORSDOF 0
