REMARK  3 active torsions:
REMARK  status: ('A' for Active; 'I' for Inactive)
REMARK    1  A    between atoms: O1_2  and  C2_3 
REMARK    2  A    between atoms: C9_11  and  N1_12 
REMARK    3  A    between atoms: C19_27  and  N4_28 
ROOT
HETATM    1  C2  UNL     1       2.849   0.792   0.055  1.00  0.00     0.181 C 
HETATM    2  C3  UNL     1       1.566   1.516  -0.155  1.00  0.00     0.017 C 
HETATM    3  C4  UNL     1       0.471   0.983  -0.674  1.00  0.00    -0.029 C 
HETATM    4  C5  UNL     1       0.903  -0.344  -1.177  1.00  0.00     0.077 C 
HETATM    5  C6  UNL     1       1.229  -1.089   0.064  1.00  0.00    -0.037 C 
HETATM    6  C7  UNL     1       0.811  -1.780   1.161  1.00  0.00     0.059 C 
HETATM    7  C8  UNL     1      -0.650  -2.114   1.638  1.00  0.00     0.203 C 
HETATM    8  O2  UNL     1      -0.951  -2.821   2.602  1.00  0.00    -0.289 OA
HETATM    9  C9  UNL     1      -1.354  -1.365   0.658  1.00  0.00     0.298 C 
HETATM   10  S1  UNL     1      -0.649   0.114   1.300  1.00  0.00    -0.101 SA
HETATM   11  C10 UNL     1      -1.239   1.708   1.440  1.00  0.00     0.115 C 
HETATM   12  C11 UNL     1      -2.720   1.883   1.452  1.00  0.00     0.106 C 
HETATM   13  N2  UNL     1      -3.342   1.059   0.774  1.00  0.00    -0.264 NA
HETATM   14  C12 UNL     1      -3.061   0.361  -0.431  1.00  0.00     0.176 A 
HETATM   15  C13 UNL     1      -4.346  -0.037  -0.989  1.00  0.00     0.060 A 
HETATM   16  C14 UNL     1      -4.667  -1.317  -0.850  1.00  0.00     0.073 A 
HETATM   17 CL1  UNL     1      -6.178  -1.938  -1.461  1.00  0.00    -0.081 Cl
HETATM   18  C15 UNL     1      -3.492  -1.875  -0.190  1.00  0.00     0.148 A 
HETATM   19  F1  UNL     1      -3.487  -3.214   0.102  1.00  0.00    -0.204 F 
HETATM   20  C16 UNL     1      -2.525  -0.968   0.056  1.00  0.00     0.071 A 
HETATM   21  N3  UNL     1      -2.128   1.046  -1.354  1.00  0.00    -0.355 N 
HETATM   22  C17 UNL     1      -0.926   1.465  -0.719  1.00  0.00     0.034 C 
HETATM   23  C18 UNL     1      -0.907   2.517   0.160  1.00  0.00     0.023 C 
HETATM   24  C19 UNL     1       2.697  -0.726   0.235  1.00  0.00     0.279 C 
HETATM   25  H14 UNL     1      -2.374   1.188  -2.377  1.00  0.00     0.163 HD
ENDROOT
BRANCH   9  26
HETATM   26  N1  UNL     1      -0.866  -2.180  -0.464  1.00  0.00     0.110 N 
HETATM   27  H9  UNL     1      -1.398  -2.186  -1.326  1.00  0.00     0.315 HD
HETATM   28  H10 UNL     1      -0.620  -3.142  -0.281  1.00  0.00     0.315 HD
ENDBRANCH   9  26
BRANCH  24  29
HETATM   29  N4  UNL     1       3.374  -1.341  -0.892  1.00  0.00     0.089 N 
HETATM   30  H17 UNL     1       3.409  -2.384  -0.748  1.00  0.00     0.313 HD
HETATM   31  H18 UNL     1       4.369  -1.017  -0.864  1.00  0.00     0.313 HD
ENDBRANCH  24  29
BRANCH   1  32
HETATM   32  O1  UNL     1       3.781   1.120  -0.909  1.00  0.00    -0.384 OA
HETATM   33  C1  UNL     1       4.851   1.726  -0.224  1.00  0.00     0.202 C 
ENDBRANCH   1  32
TORSDOF 3
