REMARK  3 active torsions:
REMARK  status: ('A' for Active; 'I' for Inactive)
REMARK    1  A    between atoms: C1_2  and  C2_3 
REMARK    2  A    between atoms: C5_6  and  N1_7 
REMARK    3  A    between atoms: N1_7  and  C6_8 
ROOT
HETATM    1  C2  UNL     1       3.427  -0.289   0.859  1.00  0.00     0.045 A 
HETATM    2  C3  UNL     1       2.234  -0.297   0.098  1.00  0.00     0.040 A 
HETATM    3  C4  UNL     1       1.588   0.902  -0.028  1.00  0.00     0.047 A 
HETATM    4  C5  UNL     1       0.420   1.130  -0.723  1.00  0.00     0.142 A 
HETATM    5  N2  UNL     1      -0.086   2.363  -0.756  1.00  0.00    -0.223 NA
HETATM    6  C12 UNL     1       0.440   3.443  -0.164  1.00  0.00     0.236 A 
HETATM    7  N3  UNL     1       1.580   3.220   0.513  1.00  0.00    -0.234 NA
HETATM    8  C13 UNL     1       2.126   2.016   0.578  1.00  0.00     0.113 A 
HETATM    9  S1  UNL     1       3.577   1.396   1.355  1.00  0.00    -0.067 SA
ENDROOT
BRANCH   4  10
HETATM   10  N1  UNL     1      -0.299   0.109  -1.404  1.00  0.00    -0.340 N 
HETATM   11  H3  UNL     1       0.117  -0.123  -2.315  1.00  0.00     0.167 HD
BRANCH  10  12
HETATM   12  C6  UNL     1      -1.461  -0.487  -0.826  1.00  0.00     0.035 A 
HETATM   13  C7  UNL     1      -2.079  -1.556  -1.465  1.00  0.00     0.032 A 
HETATM   14  C8  UNL     1      -3.218  -2.116  -0.907  1.00  0.00     0.046 A 
HETATM   15  C9  UNL     1      -3.699  -1.589   0.270  1.00  0.00     0.138 A 
HETATM   16  F1  UNL     1      -4.808  -2.159   0.777  1.00  0.00    -0.204 F 
HETATM   17  C10 UNL     1      -3.098  -0.532   0.913  1.00  0.00     0.074 A 
HETATM   18 CL1  UNL     1      -3.745   0.125   2.427  1.00  0.00    -0.081 Cl
HETATM   19  C11 UNL     1      -1.951   0.037   0.359  1.00  0.00     0.056 A 
ENDBRANCH  10  12
ENDBRANCH   4  10
BRANCH   1  20
HETATM   20  C1  UNL     1       4.331  -1.365   1.177  1.00  0.00     0.277 C 
HETATM   21  O1  UNL     1       5.331  -1.078   1.878  1.00  0.00    -0.301 OA
ENDBRANCH   1  20
TORSDOF 3
