REMARK  5 active torsions:
REMARK  status: ('A' for Active; 'I' for Inactive)
REMARK    1  A    between atoms: C12_17  and  N4_18 
REMARK    2  A    between atoms: N4_18  and  C13_19 
REMARK    3  A    between atoms: C16_22  and  O2_23 
REMARK    4  A    between atoms: O2_23  and  C17_24 
REMARK    5  A    between atoms: C17_24  and  C18_25 
ROOT
HETATM    1  C1  UNL     1      -4.779   3.163   1.871  1.00  0.00     0.036 C 
HETATM    2  C2  UNL     1      -4.406   2.225   0.728  1.00  0.00     0.099 C 
HETATM    3  C3  UNL     1      -2.996   1.814   1.002  1.00  0.00     0.010 C 
HETATM    4  C4  UNL     1      -2.458   0.663   0.522  1.00  0.00    -0.018 C 
HETATM    5  C5  UNL     1      -3.519   0.071   0.066  1.00  0.00    -0.017 C 
HETATM    6  C6  UNL     1      -4.658  -0.043   1.085  1.00  0.00     0.158 C 
HETATM    7  N1  UNL     1      -5.369   1.173   0.710  1.00  0.00    -0.394 N 
HETATM    8  C7  UNL     1      -6.305   1.082  -0.298  1.00  0.00     0.202 C 
HETATM    9  C8  UNL     1      -5.916   0.687  -1.677  1.00  0.00     0.184 C 
HETATM   10  O1  UNL     1      -6.703   0.790  -2.648  1.00  0.00    -0.290 OA
HETATM   11  C9  UNL     1      -4.559   0.119  -2.111  1.00  0.00     0.066 A 
HETATM   12  S1  UNL     1      -4.177  -0.192  -3.691  1.00  0.00    -0.065 SA
HETATM   13  C10 UNL     1      -2.448  -0.840  -3.329  1.00  0.00     0.114 A 
HETATM   14  N2  UNL     1      -1.423  -1.326  -4.091  1.00  0.00    -0.234 NA
HETATM   15  C11 UNL     1      -0.291  -1.726  -3.518  1.00  0.00     0.236 A 
HETATM   16  N3  UNL     1      -0.235  -1.623  -2.181  1.00  0.00    -0.223 NA
HETATM   17  C12 UNL     1      -1.201  -1.157  -1.378  1.00  0.00     0.143 A 
HETATM   18  C25 UNL     1      -2.382  -0.725  -1.912  1.00  0.00     0.058 A 
HETATM   19  C26 UNL     1      -3.428  -0.245  -1.306  1.00  0.00     0.010 A 
ENDROOT
BRANCH  17  20
HETATM   20  N4  UNL     1      -0.827  -1.309  -0.024  1.00  0.00    -0.343 N 
HETATM   21  H11 UNL     1      -0.926  -1.281   1.008  1.00  0.00     0.167 HD
BRANCH  20  22
HETATM   22  C13 UNL     1       0.495  -1.846   0.205  1.00  0.00     0.017 A 
HETATM   23  C14 UNL     1       0.963  -3.064   0.454  1.00  0.00     0.028 A 
HETATM   24  C15 UNL     1       2.406  -3.143   0.617  1.00  0.00     0.034 A 
HETATM   25  C16 UNL     1       2.837  -1.914   0.458  1.00  0.00     0.052 A 
HETATM   26  C24 UNL     1       1.724  -1.005   0.192  1.00  0.00     0.121 A 
BRANCH  25  27
HETATM   27  O2  UNL     1       4.156  -1.511   0.528  1.00  0.00    -0.351 OA
BRANCH  27  28
HETATM   28  C17 UNL     1       4.508  -0.389   1.336  1.00  0.00     0.214 C 
BRANCH  28  29
HETATM   29  C18 UNL     1       5.919   0.004   1.119  1.00  0.00    -0.031 A 
HETATM   30  C19 UNL     1       6.044   0.926   0.099  1.00  0.00     0.009 A 
HETATM   31  C20 UNL     1       7.280   1.439  -0.283  1.00  0.00     0.004 A 
HETATM   32  C21 UNL     1       8.400   1.003   0.387  1.00  0.00     0.042 A 
HETATM   33  C22 UNL     1       8.280   0.080   1.410  1.00  0.00     0.117 A 
HETATM   34  F1  UNL     1       9.373  -0.378   2.099  1.00  0.00    -0.206 F 
HETATM   35  C23 UNL     1       7.033  -0.416   1.770  1.00  0.00     0.051 A 
ENDBRANCH  28  29
ENDBRANCH  27  28
ENDBRANCH  25  27
ENDBRANCH  20  22
ENDBRANCH  17  20
TORSDOF 5
