REMARK  3 active torsions:
REMARK  status: ('A' for Active; 'I' for Inactive)
REMARK    1  A    between atoms: C7_7  and  N1_8 
REMARK    2  A    between atoms: N1_8  and  C8_9 
REMARK    3  A    between atoms: C14_18  and  C15_19 
ROOT
HETATM    1  C1  UNL     1      -7.254  -2.499  -0.183  1.00  0.00     0.018 C 
HETATM    2  C2  UNL     1      -6.570  -1.519  -0.044  1.00  0.00    -0.078 C 
HETATM    3  C3  UNL     1      -5.768  -0.345   0.141  1.00  0.00     0.019 A 
HETATM    4  C4  UNL     1      -6.441   0.839   0.337  1.00  0.00     0.021 A 
HETATM    5  C5  UNL     1      -5.704   1.985   0.519  1.00  0.00     0.004 A 
HETATM    6  C6  UNL     1      -4.334   1.921   0.502  1.00  0.00     0.029 A 
HETATM    7  C7  UNL     1      -3.585   0.763   0.310  1.00  0.00     0.035 A 
HETATM    8  C19 UNL     1      -4.393  -0.328   0.137  1.00  0.00     0.050 A 
ENDROOT
BRANCH   7   9
HETATM    9  N1  UNL     1      -2.171   0.678   0.292  1.00  0.00    -0.340 N 
HETATM   10  H5  UNL     1      -1.842   1.598   0.628  1.00  0.00     0.167 HD
BRANCH   9  11
HETATM   11  C8  UNL     1      -1.387  -0.422  -0.065  1.00  0.00     0.142 A 
HETATM   12  N2  UNL     1      -1.813  -1.650  -0.344  1.00  0.00    -0.223 NA
HETATM   13  C9  UNL     1      -1.066  -2.698  -0.682  1.00  0.00     0.236 A 
HETATM   14  N3  UNL     1       0.267  -2.545  -0.762  1.00  0.00    -0.234 NA
HETATM   15  C10 UNL     1       0.823  -1.331  -0.499  1.00  0.00     0.111 A 
HETATM   16  C11 UNL     1      -0.027  -0.275  -0.152  1.00  0.00     0.047 A 
HETATM   17  S1  UNL     1       2.609  -1.426  -0.663  1.00  0.00    -0.078 SA
HETATM   18  C12 UNL     1       0.516   1.041   0.094  1.00  0.00     0.035 C 
HETATM   19  C13 UNL     1       1.639   1.621   0.471  1.00  0.00     0.085 C 
HETATM   20  N4  UNL     1       2.828   0.890   0.783  1.00  0.00    -0.380 N 
HETATM   21  C14 UNL     1       3.422  -0.367   0.518  1.00  0.00     0.200 C 
HETATM   22  H9  UNL     1       3.504   1.430   1.405  1.00  0.00     0.160 HD
BRANCH  21  23
HETATM   23  C15 UNL     1       4.813  -0.120   0.012  1.00  0.00     0.042 A 
HETATM   24  C16 UNL     1       5.396   1.048  -0.200  1.00  0.00     0.010 A 
HETATM   25  C17 UNL     1       6.791   0.941  -0.706  1.00  0.00     0.132 A 
HETATM   26  C18 UNL     1       7.011  -0.531  -0.785  1.00  0.00     0.225 A 
HETATM   27  O1  UNL     1       8.003  -1.181  -1.145  1.00  0.00    -0.273 OA
HETATM   28  N5  UNL     1       5.786  -1.104  -0.341  1.00  0.00    -0.328 N 
HETATM   29  H14 UNL     1       5.602  -2.138  -0.272  1.00  0.00     0.168 HD
ENDBRANCH  21  23
ENDBRANCH   9  11
ENDBRANCH   7   9
TORSDOF 3
