REMARK  6 active torsions:
REMARK  status: ('A' for Active; 'I' for Inactive)
REMARK    1  A    between atoms: B1_1  and  C1_2 
REMARK    2  A    between atoms: C1_2  and  O1_4 
REMARK    3  A    between atoms: O1_4  and  C3_5 
REMARK    4  A    between atoms: C5_7  and  O2_8 
REMARK    5  A    between atoms: C10_13  and  N1_14 
REMARK    6  A    between atoms: N1_14  and  C11_15 
ROOT
HETATM    1  C3  UNL     1      -1.418  -0.389  -0.078  1.00  0.00     0.084 A 
HETATM    2  C4  UNL     1      -2.725  -0.121   0.281  1.00  0.00     0.074 A 
HETATM    3  C5  UNL     1      -3.166   1.189   0.488  1.00  0.00     0.071 A 
HETATM    4  C7  UNL     1      -2.317   2.280   0.343  1.00  0.00     0.046 A 
HETATM    5  C8  UNL     1      -1.011   2.028  -0.015  1.00  0.00    -0.020 A 
HETATM    6  C9  UNL     1      -0.611   0.727  -0.209  1.00  0.00     0.035 A 
HETATM    7  C10 UNL     1       0.772   0.561  -0.581  1.00  0.00     0.077 C 
HETATM    8  C17 UNL     1       1.363   1.541  -1.242  1.00  0.00     0.109 C 
HETATM    9  N2  UNL     1       0.970   2.717  -1.128  1.00  0.00    -0.280 NA
HETATM   10  C18 UNL     1      -0.045   3.139  -0.189  1.00  0.00     0.189 C 
ENDROOT
BRANCH   7  11
HETATM   11  N1  UNL     1       1.511  -0.608  -0.266  1.00  0.00    -0.353 N 
HETATM   12  H12 UNL     1       1.445  -1.639  -0.171  1.00  0.00     0.166 HD
BRANCH  11  13
HETATM   13  C11 UNL     1       2.892  -0.320   0.049  1.00  0.00     0.034 A 
HETATM   14  C12 UNL     1       3.594  -0.264  -1.150  1.00  0.00     0.032 A 
HETATM   15  C13 UNL     1       4.968   0.006  -1.172  1.00  0.00     0.046 A 
HETATM   16  C14 UNL     1       5.595   0.215   0.050  1.00  0.00     0.138 A 
HETATM   17  F1  UNL     1       6.924   0.482   0.092  1.00  0.00    -0.204 F 
HETATM   18  C15 UNL     1       4.874   0.154   1.231  1.00  0.00     0.074 A 
HETATM   19 CL1  UNL     1       5.608   0.407   2.804  1.00  0.00    -0.081 Cl
HETATM   20  C16 UNL     1       3.538  -0.110   1.249  1.00  0.00     0.056 A 
ENDBRANCH  11  13
ENDBRANCH   7  11
BRANCH   1  21
HETATM   21  O1  UNL     1      -0.869  -1.621  -0.307  1.00  0.00    -0.356 OA
BRANCH  21  22
HETATM   22  C1  UNL     1      -1.515  -2.854  -0.230  1.00  0.00     0.070 C 
HETATM   23  C2  UNL     1      -1.566  -3.569  -1.583  1.00  0.00     0.027 C 
BRANCH  22  24
HETATM   24  B1  UNL     1      -0.874  -3.860   0.812  1.00  0.00     0.172 B 
HETATM   25  H1  UNL     1       0.046  -4.524   0.488  1.00  0.00    -0.029 HD
HETATM   26  H2  UNL     1      -1.438  -4.211   1.806  1.00  0.00    -0.029 HD
ENDBRANCH  22  24
ENDBRANCH  21  22
ENDBRANCH   1  21
BRANCH   3  27
HETATM   27  O2  UNL     1      -4.497   1.419   0.851  1.00  0.00    -0.356 OA
HETATM   28  C6  UNL     1      -4.941   2.761   1.064  1.00  0.00     0.210 C 
ENDBRANCH   3  27
TORSDOF 6
