REMARK  0 active torsions:
REMARK  status: ('A' for Active; 'I' for Inactive)
ROOT
HETATM    1  O1  UNL     1       1.540  -2.865  -0.515  1.00  0.00    -0.288 OA
HETATM    2  C1  UNL     1       1.427  -1.630  -0.411  1.00  0.00     0.181 C 
HETATM    3  C2  UNL     1       0.040  -1.926  -0.256  1.00  0.00     0.051 C 
HETATM    4  C3  UNL     1      -1.007  -2.693  -0.181  1.00  0.00    -0.022 C 
HETATM    5  C4  UNL     1      -2.449  -2.690   0.004  1.00  0.00     0.003 C 
HETATM    6  C5  UNL     1      -2.975  -1.439   0.172  1.00  0.00     0.051 C 
HETATM    7  C6  UNL     1      -4.402  -1.046   0.383  1.00  0.00    -0.024 C 
HETATM    8  C7  UNL     1      -4.564   0.276   0.516  1.00  0.00    -0.024 C 
HETATM    9  C8  UNL     1      -4.034   1.637   0.569  1.00  0.00     0.096 C 
HETATM   10  C9  UNL     1      -2.559   1.690   0.443  1.00  0.00     0.095 C 
HETATM   11  F1  UNL     1      -2.129   0.970   1.505  1.00  0.00    -0.211 F 
HETATM   12  C10 UNL     1      -1.360   1.969  -0.018  1.00  0.00     0.041 C 
HETATM   13  C11 UNL     1       0.091   1.787   0.217  1.00  0.00     0.303 C 
HETATM   14  N1  UNL     1       0.585   1.082  -0.979  1.00  0.00     0.116 N 
HETATM   15  C12 UNL     1       2.007   0.843  -0.846  1.00  0.00     0.380 C 
HETATM   16  N2  UNL     1       2.645   1.805  -0.004  1.00  0.00    -0.245 NA
HETATM   17  C13 UNL     1       3.695   1.670   0.714  1.00  0.00     0.199 C 
HETATM   18  N3  UNL     1       4.644   0.658   1.018  1.00  0.00    -0.381 N 
HETATM   19  C14 UNL     1       4.783  -0.508   0.153  1.00  0.00     0.148 C 
HETATM   20  C15 UNL     1       3.443  -1.122  -0.034  1.00  0.00     0.008 C 
HETATM   21  C16 UNL     1       2.301  -0.547  -0.445  1.00  0.00     0.043 C 
HETATM   22  H12 UNL     1       0.448   1.762  -1.765  1.00  0.00     0.319 HD
HETATM   23  H15 UNL     1       5.185   0.857   1.885  1.00  0.00     0.160 HD
ENDROOT
TORSDOF 0
