REMARK  3 active torsions:
REMARK  status: ('A' for Active; 'I' for Inactive)
REMARK    1  A    between atoms: C2_2  and  C3_3 
REMARK    2  A    between atoms: C3_3  and  C4_5 
REMARK    3  A    between atoms: C9_11  and  O2_12 
ROOT
HETATM    1  C1  UNL     1      -0.248  -1.993  -0.702  1.00  0.00     0.042 C 
HETATM    2  C2  UNL     1      -0.431  -0.495  -0.681  1.00  0.00     0.105 C 
HETATM    3  S1  UNL     1      -1.067   0.022  -2.314  1.00  0.00    -0.087 SA
HETATM    4  C11 UNL     1      -2.825  -0.395  -2.583  1.00  0.00     0.097 C 
HETATM    5  N2  UNL     1      -3.820   0.447  -2.987  1.00  0.00    -0.233 NA
HETATM    6  C12 UNL     1      -4.863   0.871  -1.973  1.00  0.00     0.256 C 
HETATM    7  N3  UNL     1      -5.210   0.239  -0.753  1.00  0.00    -0.161 NA
HETATM    8  N4  UNL     1      -4.297  -0.872  -0.408  1.00  0.00    -0.244 N 
HETATM    9  C13 UNL     1      -4.427  -2.014  -1.308  1.00  0.00     0.121 C 
HETATM   10  C14 UNL     1      -3.661  -1.685  -2.439  1.00  0.00     0.058 C 
HETATM   11  C15 UNL     1      -3.401  -0.428   0.687  1.00  0.00     0.060 A 
HETATM   12  C16 UNL     1      -3.792   0.422   1.641  1.00  0.00     0.058 A 
HETATM   13  C17 UNL     1      -2.582   1.068   1.976  1.00  0.00     0.075 A 
HETATM   14 CL1  UNL     1      -2.815   2.240   3.231  1.00  0.00    -0.081 Cl
HETATM   15  C18 UNL     1      -1.370   0.794   1.374  1.00  0.00     0.146 A 
HETATM   16  F1  UNL     1      -0.231   1.429   1.693  1.00  0.00    -0.204 F 
HETATM   17  C19 UNL     1      -1.393  -0.174   0.403  1.00  0.00     0.011 A 
HETATM   18  C20 UNL     1      -2.403  -0.955  -0.094  1.00  0.00     0.044 A 
ENDROOT
BRANCH   2  19
HETATM   19  C3  UNL     1       0.851   0.205  -0.523  1.00  0.00     0.173 C 
HETATM   20  O1  UNL     1       1.297   1.074  -1.352  1.00  0.00    -0.291 OA
BRANCH  19  21
HETATM   21  C4  UNL     1       1.707  -0.087   0.654  1.00  0.00     0.058 C 
HETATM   22  C5  UNL     1       2.856   0.461   0.903  1.00  0.00    -0.043 C 
HETATM   23  C6  UNL     1       3.717   0.125   2.145  1.00  0.00     0.075 C 
HETATM   24  C10 UNL     1       3.686   1.477   0.207  1.00  0.00     0.165 C 
HETATM   25  C7  UNL     1       4.898   0.830   1.627  1.00  0.00    -0.060 C 
HETATM   26  B1  UNL     1       6.844   0.978   0.987  1.00  0.00     0.231 B 
HETATM   27  N1  UNL     1       4.316   2.141   1.363  1.00  0.00    -0.392 N 
HETATM   28  C8  UNL     1       6.016   0.850  -1.146  1.00  0.00    -0.045 C 
HETATM   29  C9  UNL     1       4.714   0.837  -0.681  1.00  0.00     0.056 C 
HETATM   30  H10 UNL     1       4.102   3.206   1.503  1.00  0.00     0.159 HD
BRANCH  29  31
HETATM   31  O2  UNL     1       4.079  -0.254  -1.331  1.00  0.00    -0.364 OA
HETATM   32  H8  UNL     1       3.647  -0.121  -2.237  1.00  0.00     0.217 HD
ENDBRANCH  29  31
ENDBRANCH  19  21
ENDBRANCH   2  19
TORSDOF 3
