REMARK  6 active torsions:
REMARK  status: ('A' for Active; 'I' for Inactive)
REMARK    1  A    between atoms: C7_7  and  C8_8 
REMARK    2  A    between atoms: C11_13  and  N3_14 
REMARK    3  A    between atoms: C13_16  and  O1_17 
REMARK    4  A    between atoms: O1_17  and  C14_18 
REMARK    5  A    between atoms: C14_18  and  C15_19 
REMARK    6  A    between atoms: C15_19  and  O2_20 
ROOT
HETATM    1  C1  UNL     1       5.378   2.695   2.812  1.00  0.00     0.018 C 
HETATM    2  C2  UNL     1       4.794   2.117   1.920  1.00  0.00    -0.077 C 
HETATM    3  C3  UNL     1       4.104   1.438   0.880  1.00  0.00     0.023 A 
HETATM    4  C4  UNL     1       4.402   1.713  -0.449  1.00  0.00     0.021 A 
HETATM    5  C5  UNL     1       3.719   1.042  -1.466  1.00  0.00     0.002 A 
HETATM    6  C6  UNL     1       2.754   0.111  -1.107  1.00  0.00     0.014 A 
HETATM    7  C7  UNL     1       2.458  -0.162   0.234  1.00  0.00    -0.004 A 
HETATM    8  C18 UNL     1       3.141   0.509   1.216  1.00  0.00    -0.031 A 
HETATM    9  C19 UNL     1       2.768   0.163   2.614  1.00  0.00     0.050 C 
ENDROOT
BRANCH   7  10
HETATM   10  C8  UNL     1       1.408  -1.176   0.415  1.00  0.00     0.052 C 
HETATM   11  N1  UNL     1       1.750  -2.301  -0.122  1.00  0.00    -0.246 NA
HETATM   12  C9  UNL     1       1.161  -3.578  -0.252  1.00  0.00     0.227 C 
HETATM   13  N2  UNL     1      -0.076  -3.889  -0.372  1.00  0.00    -0.277 NA
HETATM   14  C10 UNL     1      -1.410  -3.392  -0.447  1.00  0.00     0.209 C 
HETATM   15  C11 UNL     1      -1.580  -1.960  -0.200  1.00  0.00     0.054 C 
HETATM   16  C13 UNL     1      -1.057  -0.880   0.369  1.00  0.00     0.076 C 
HETATM   17  C17 UNL     1       0.207  -0.746   1.144  1.00  0.00     0.126 C 
BRANCH  15  18
HETATM   18  N3  UNL     1      -2.814  -1.553  -0.826  1.00  0.00    -0.394 N 
HETATM   19  C12 UNL     1      -3.147  -1.962  -2.171  1.00  0.00     0.146 C 
HETATM   20  H8  UNL     1      -3.460  -0.945  -0.260  1.00  0.00     0.159 HD
ENDBRANCH  15  18
BRANCH  16  21
HETATM   21  O1  UNL     1      -1.788   0.293   0.224  1.00  0.00    -0.351 OA
BRANCH  21  22
HETATM   22  C14 UNL     1      -1.677   1.201  -0.828  1.00  0.00     0.201 C 
BRANCH  22  23
HETATM   23  C15 UNL     1      -2.684   2.319  -0.534  1.00  0.00     0.193 C 
BRANCH  23  24
HETATM   24  O2  UNL     1      -3.955   1.752  -0.474  1.00  0.00    -0.394 OA
HETATM   25  C16 UNL     1      -4.920   2.716  -0.209  1.00  0.00     0.201 C 
ENDBRANCH  23  24
ENDBRANCH  22  23
ENDBRANCH  21  22
ENDBRANCH  16  21
ENDBRANCH   7  10
TORSDOF 6
