REMARK  8 active torsions:
REMARK  status: ('A' for Active; 'I' for Inactive)
REMARK    1  A    between atoms: O1_2  and  C2_3 
REMARK    2  A    between atoms: C2_3  and  C3_4 
REMARK    3  A    between atoms: C3_4  and  O2_5 
REMARK    4  A    between atoms: O2_5  and  C4_6 
REMARK    5  A    between atoms: C9_11  and  O3_12 
REMARK    6  A    between atoms: O3_12  and  C10_13 
REMARK    7  A    between atoms: C10_13  and  C11_14 
REMARK    8  A    between atoms: C11_14  and  O4_15 
ROOT
HETATM    1  C4  UNL     1       0.452  -0.619  -0.111  1.00  0.00     0.104 A 
HETATM    2  C5  UNL     1       1.463  -1.484  -0.419  1.00  0.00     0.069 A 
HETATM    3  C6  UNL     1       1.074  -2.829  -0.399  1.00  0.00     0.045 A 
HETATM    4  C7  UNL     1      -0.256  -3.328  -0.090  1.00  0.00     0.028 A 
HETATM    5  C8  UNL     1      -1.152  -2.261   0.200  1.00  0.00     0.053 A 
HETATM    6  C9  UNL     1      -0.883  -0.912   0.211  1.00  0.00     0.102 A 
HETATM    7  C13 UNL     1      -0.500  -4.852  -0.094  1.00  0.00     0.227 A 
HETATM    8  N1  UNL     1       0.460  -5.144  -0.343  1.00  0.00    -0.228 N 
HETATM    9  C14 UNL     1       1.481  -5.453  -0.608  1.00  0.00     0.290 A 
HETATM   10  N2  UNL     1       0.537  -5.166  -0.363  1.00  0.00    -0.228 N 
HETATM   11  N3  UNL     1       1.943  -4.005  -0.663  1.00  0.00    -0.338 N 
HETATM   12  H17 UNL     1       2.947  -3.582  -0.892  1.00  0.00     0.164 HD
ENDROOT
BRANCH   1  13
HETATM   13  O2  UNL     1       0.821   0.712  -0.135  1.00  0.00    -0.346 OA
BRANCH  13  14
HETATM   14  C3  UNL     1       2.174   1.062  -0.453  1.00  0.00     0.201 C 
BRANCH  14  15
HETATM   15  C2  UNL     1       2.290   2.572  -0.500  1.00  0.00     0.193 C 
BRANCH  15  16
HETATM   16  O1  UNL     1       3.554   2.999  -0.812  1.00  0.00    -0.394 OA
HETATM   17  C1  UNL     1       4.508   2.615   0.087  1.00  0.00     0.201 C 
ENDBRANCH  15  16
ENDBRANCH  14  15
ENDBRANCH  13  14
ENDBRANCH   1  13
BRANCH   6  18
HETATM   18  O3  UNL     1      -1.597   0.064   0.449  1.00  0.00    -0.346 OA
BRANCH  18  19
HETATM   19  C10 UNL     1      -2.374   1.068   0.704  1.00  0.00     0.201 C 
BRANCH  19  20
HETATM   20  C11 UNL     1      -3.485   1.207  -0.347  1.00  0.00     0.193 C 
BRANCH  20  21
HETATM   21  O4  UNL     1      -4.289   2.258  -0.071  1.00  0.00    -0.394 OA
HETATM   22  C12 UNL     1      -5.068   2.282   1.033  1.00  0.00     0.201 C 
ENDBRANCH  20  21
ENDBRANCH  19  20
ENDBRANCH  18  19
ENDBRANCH   6  18
TORSDOF 8
