REMARK  11 active torsions:
REMARK  status: ('A' for Active; 'I' for Inactive)
REMARK    1  A    between atoms: O1_2  and  C2_3 
REMARK    2  A    between atoms: C2_3  and  C3_4 
REMARK    3  A    between atoms: C3_4  and  O2_5 
REMARK    4  A    between atoms: O2_5  and  C4_6 
REMARK    5  A    between atoms: C4_6  and  C5_7 
REMARK    6  A    between atoms: C9_11  and  N1_12 
REMARK    7  A    between atoms: N1_12  and  C10_13 
REMARK    8  A    between atoms: C17_20  and  O3_21 
REMARK    9  A    between atoms: O3_21  and  C18_22 
REMARK   10  A    between atoms: C18_22  and  C19_23 
REMARK   11  A    between atoms: C19_23  and  O4_24 
ROOT
HETATM    1  C5  UNL     1       1.555  -0.722  -0.001  1.00  0.00     0.002 A 
HETATM    2  C6  UNL     1       1.396  -2.071  -0.216  1.00  0.00     0.023 A 
HETATM    3  C7  UNL     1       0.271  -2.619  -0.780  1.00  0.00    -0.009 A 
HETATM    4  C8  UNL     1      -0.764  -1.788  -1.154  1.00  0.00     0.095 A 
HETATM    5  C9  UNL     1      -0.642  -0.420  -0.953  1.00  0.00     0.096 A 
HETATM    6  C17 UNL     1       0.509   0.131  -0.378  1.00  0.00     0.106 A 
HETATM    7  N2  UNL     1      -1.894  -2.432  -1.729  1.00  0.00    -0.241 NA
HETATM    8  C21 UNL     1      -1.947  -3.691  -1.888  1.00  0.00     0.203 A 
HETATM    9  N3  UNL     1      -0.908  -4.557  -1.514  1.00  0.00    -0.380 N 
HETATM   10  C22 UNL     1       0.318  -4.109  -0.919  1.00  0.00     0.161 A 
HETATM   11  H27 UNL     1      -0.897  -5.594  -1.619  1.00  0.00     0.160 HD
ENDROOT
BRANCH   5  12
HETATM   12  N1  UNL     1      -1.797   0.281  -1.398  1.00  0.00    -0.352 N 
HETATM   13  H11 UNL     1      -1.676   0.631  -2.393  1.00  0.00     0.166 HD
BRANCH  12  14
HETATM   14  C10 UNL     1      -3.033   0.571  -0.740  1.00  0.00     0.033 A 
HETATM   15  C11 UNL     1      -4.016   1.333  -1.335  1.00  0.00     0.029 A 
HETATM   16  C12 UNL     1      -5.160   1.531  -0.592  1.00  0.00     0.003 A 
HETATM   17  C13 UNL     1      -5.365   1.020   0.678  1.00  0.00     0.007 A 
HETATM   18  C14 UNL     1      -4.365   0.260   1.252  1.00  0.00    -0.060 A 
HETATM   19  C15 UNL     1      -4.454  -0.350   2.613  1.00  0.00     0.048 C 
HETATM   20  C16 UNL     1      -3.194   0.042   0.524  1.00  0.00     0.036 A 
ENDBRANCH  12  14
ENDBRANCH   5  12
BRANCH   6  21
HETATM   21  O3  UNL     1       0.389   1.497  -0.286  1.00  0.00    -0.346 OA
BRANCH  21  22
HETATM   22  C18 UNL     1      -0.132   2.253   0.753  1.00  0.00     0.201 C 
BRANCH  22  23
HETATM   23  C19 UNL     1      -0.011   3.721   0.314  1.00  0.00     0.193 C 
BRANCH  23  24
HETATM   24  O4  UNL     1      -0.496   4.592   1.260  1.00  0.00    -0.394 OA
HETATM   25  C20 UNL     1      -0.352   5.883   0.791  1.00  0.00     0.201 C 
ENDBRANCH  23  24
ENDBRANCH  22  23
ENDBRANCH  21  22
ENDBRANCH   6  21
BRANCH   1  26
HETATM   26  C4  UNL     1       2.667   0.077   0.589  1.00  0.00     0.209 C 
BRANCH  26  27
HETATM   27  O2  UNL     1       3.371   0.774  -0.342  1.00  0.00    -0.384 OA
BRANCH  27  28
HETATM   28  C3  UNL     1       4.042   0.138  -1.320  1.00  0.00     0.194 C 
BRANCH  28  29
HETATM   29  C2  UNL     1       5.191  -0.745  -0.909  1.00  0.00     0.193 C 
BRANCH  29  30
HETATM   30  O1  UNL     1       4.747  -1.743  -0.080  1.00  0.00    -0.394 OA
HETATM   31  C1  UNL     1       5.784  -2.595   0.332  1.00  0.00     0.201 C 
ENDBRANCH  29  30
ENDBRANCH  28  29
ENDBRANCH  27  28
ENDBRANCH  26  27
ENDBRANCH   1  26
TORSDOF 11
