REMARK  5 active torsions:
REMARK  status: ('A' for Active; 'I' for Inactive)
REMARK    1  A    between atoms: C2_2  and  C3_3 
REMARK    2  A    between atoms: C3_3  and  N1_4 
REMARK    3  A    between atoms: N1_4  and  C4_5 
REMARK    4  A    between atoms: C10_12  and  C11_13 
REMARK    5  A    between atoms: C11_13  and  C12_15 
ROOT
HETATM    1  C4  UNL     1       1.554   0.927   0.296  1.00  0.00     0.130 C 
HETATM    2  C5  UNL     1       2.629   1.050   1.297  1.00  0.00     0.019 C 
HETATM    3  C6  UNL     1       3.212   0.176   2.131  1.00  0.00     0.081 C 
HETATM    4  N2  UNL     1       2.948  -1.223   2.309  1.00  0.00    -0.399 N 
HETATM    5  C7  UNL     1       2.362  -2.014   1.273  1.00  0.00     0.123 C 
HETATM    6  C8  UNL     1       0.949  -1.660   0.943  1.00  0.00     0.056 C 
HETATM    7  C9  UNL     1       0.688  -0.289   0.522  1.00  0.00    -0.049 C 
HETATM    8  C10 UNL     1      -0.627  -0.105   0.296  1.00  0.00     0.061 C 
HETATM    9  H10 UNL     1       3.228  -1.591   3.261  1.00  0.00     0.158 HD
ENDROOT
BRANCH   1  10
HETATM   10  N1  UNL     1       1.964   1.091  -1.054  1.00  0.00    -0.407 N 
HETATM   11  H6  UNL     1       1.216   1.274  -1.727  1.00  0.00     0.154 HD
BRANCH  10  12
HETATM   12  C3  UNL     1       2.936   0.192  -1.565  1.00  0.00     0.141 C 
BRANCH  12  13
HETATM   13  C2  UNL     1       4.286   0.324  -0.994  1.00  0.00    -0.018 C 
HETATM   14  C1  UNL     1       5.372   0.605  -1.706  1.00  0.00     0.008 C 
ENDBRANCH  12  13
ENDBRANCH  10  12
ENDBRANCH   1  10
BRANCH   8  15
HETATM   15  C11 UNL     1      -1.729  -1.061   0.417  1.00  0.00     0.189 C 
HETATM   16  O1  UNL     1      -1.635  -2.265   0.765  1.00  0.00    -0.287 OA
BRANCH  15  17
HETATM   17  C12 UNL     1      -3.076  -0.651   0.125  1.00  0.00     0.058 A 
HETATM   18  C13 UNL     1      -3.570   0.538  -0.270  1.00  0.00     0.038 A 
HETATM   19  C14 UNL     1      -4.905   0.727  -0.499  1.00  0.00     0.019 A 
HETATM   20  C15 UNL     1      -5.633   1.822  -0.898  1.00  0.00     0.132 A 
HETATM   21  C17 UNL     1      -5.709  -0.416  -0.288  1.00  0.00     0.111 A 
HETATM   22  N3  UNL     1      -6.942   1.765  -1.055  1.00  0.00    -0.253 NA
HETATM   23  C16 UNL     1      -7.694   0.693  -0.857  1.00  0.00     0.233 A 
HETATM   24  N4  UNL     1      -7.077  -0.432  -0.464  1.00  0.00    -0.234 NA
HETATM   25  S1  UNL     1      -4.458  -1.706   0.235  1.00  0.00    -0.066 SA
ENDBRANCH  15  17
ENDBRANCH   8  15
TORSDOF 5
