REMARK  0 active torsions:
REMARK  status: ('A' for Active; 'I' for Inactive)
ROOT
HETATM    1 CL1  UNL     1      -6.184  -0.195  -1.180  1.00  0.00    -0.084 Cl
HETATM    2  C1  UNL     1      -4.695   0.254  -0.519  1.00  0.00     0.041 A 
HETATM    3  C2  UNL     1      -3.821  -0.266   0.462  1.00  0.00     0.049 A 
HETATM    4  C3  UNL     1      -2.662   0.453   0.689  1.00  0.00     0.016 A 
HETATM    5  C4  UNL     1      -2.145   1.644   0.133  1.00  0.00     0.086 A 
HETATM    6  C5  UNL     1      -2.942   2.293  -0.901  1.00  0.00     0.072 A 
HETATM    7  C6  UNL     1      -3.874   1.301  -0.767  1.00  0.00    -0.014 A 
HETATM    8  C7  UNL     1      -2.450   0.891  -1.406  1.00  0.00     0.124 A 
HETATM    9  N1  UNL     1      -2.569  -0.429  -1.417  1.00  0.00    -0.161 NA
HETATM   10  C8  UNL     1      -1.628  -1.328  -1.860  1.00  0.00     0.193 A 
HETATM   11  N2  UNL     1      -1.740  -0.919  -0.700  1.00  0.00    -0.273 N 
HETATM   12  C9  UNL     1      -1.174  -1.037   0.572  1.00  0.00     0.254 C 
HETATM   13  N3  UNL     1      -1.486   0.122   1.410  1.00  0.00    -0.365 N 
HETATM   14  C10 UNL     1       0.338  -1.219   0.409  1.00  0.00     0.076 C 
HETATM   15  C11 UNL     1       1.159  -2.212   0.865  1.00  0.00     0.008 C 
HETATM   16  C12 UNL     1       2.424  -1.783   0.366  1.00  0.00     0.056 C 
HETATM   17  C13 UNL     1       3.633  -1.447   1.032  1.00  0.00    -0.027 C 
HETATM   18  C14 UNL     1       4.245  -0.219   1.278  1.00  0.00    -0.030 C 
HETATM   19  C15 UNL     1       3.777   1.243   0.917  1.00  0.00     0.028 C 
HETATM   20  C16 UNL     1       2.495   0.872   0.396  1.00  0.00     0.026 C 
HETATM   21  C17 UNL     1       1.211   1.355  -0.017  1.00  0.00     0.157 C 
HETATM   22  N4  UNL     1       0.612   0.000  -0.418  1.00  0.00    -0.246 N 
HETATM   23  O1  UNL     1       0.242  -0.075  -1.767  1.00  0.00    -0.199 OA
HETATM   24  S1  UNL     1      -0.817   1.243  -2.146  1.00  0.00     0.051 SA
HETATM   25  H6  UNL     1      -1.074   0.596   2.236  1.00  0.00     0.162 HD
ENDROOT
TORSDOF 0
