REMARK  4 active torsions:
REMARK  status: ('A' for Active; 'I' for Inactive)
REMARK    1  A    between atoms: S1_9  and  C19_25 
REMARK    2  A    between atoms: C11_15  and  C12_16 
REMARK    3  A    between atoms: C13_17  and  C14_18 
REMARK    4  A    between atoms: C18_23  and  N3_26 
ROOT
HETATM    1  C1  UNL     1       3.841   0.152   1.652  1.00  0.00     0.037 C 
HETATM    2  C2  UNL     1       2.555   0.541   1.063  1.00  0.00    -0.011 C 
HETATM    3  C3  UNL     1       1.558   1.356   0.901  1.00  0.00     0.017 C 
HETATM    4  C4  UNL     1       1.523   2.672   1.632  1.00  0.00     0.048 C 
HETATM    5 CL1  UNL     1       1.952   2.614   3.368  1.00  0.00    -0.083 Cl
HETATM    6  C5  UNL     1       1.236   3.779   1.025  1.00  0.00     0.013 C 
HETATM    7  C6  UNL     1       0.969   3.529  -0.436  1.00  0.00     0.127 C 
HETATM    8  N1  UNL     1      -0.267   2.859  -0.501  1.00  0.00    -0.274 NA
HETATM    9  S1  UNL     1       0.242   1.032  -0.093  1.00  0.00    -0.133 SA
HETATM   10  O1  UNL     1       0.631   0.359  -1.835  1.00  0.00     0.000 OA
HETATM   11  C7  UNL     1       0.075  -1.040  -2.014  1.00  0.00     0.012 A 
HETATM   12  C8  UNL     1       1.228  -1.698  -2.360  1.00  0.00    -0.016 A 
HETATM   13  C9  UNL     1       0.258  -2.863  -2.292  1.00  0.00    -0.003 A 
HETATM   14  C10 UNL     1      -1.271  -2.929  -1.939  1.00  0.00     0.058 A 
HETATM   15  C11 UNL     1      -0.964  -1.433  -1.818  1.00  0.00     0.014 A 
HETATM   16  C12 UNL     1      -0.718   0.022  -1.688  1.00  0.00     0.114 A 
HETATM   17  C13 UNL     1      -1.608  -2.470  -0.941  1.00  0.00     0.116 A 
HETATM   18  N3  UNL     1      -2.744  -2.279  -1.469  1.00  0.00    -0.277 N 
HETATM   19  H8  UNL     1      -0.851   3.057   0.346  1.00  0.00     0.134 HD
ENDROOT
BRANCH   9  20
HETATM   20  C19 UNL     1      -1.239   0.242   0.335  1.00  0.00     0.005 A 
HETATM   21  C15 UNL     1      -2.260  -0.083   0.972  1.00  0.00     0.052 A 
HETATM   22  C14 UNL     1      -1.464  -1.462   0.202  1.00  0.00     0.150 A 
HETATM   23  C16 UNL     1      -3.344  -0.410   1.673  1.00  0.00     0.016 A 
HETATM   24  N2  UNL     1      -2.346  -0.492   0.496  1.00  0.00     0.000 N 
HETATM   25  O2  UNL     1      -0.333  -1.951   0.667  1.00  0.00    -0.223 OA
HETATM   26  C18 UNL     1      -3.056  -1.566  -0.215  1.00  0.00     0.080 A 
HETATM   27  C17 UNL     1      -3.830  -1.220   1.075  1.00  0.00     0.026 A 
ENDBRANCH   9  20
TORSDOF 4
