REMARK  1 active torsions:
REMARK  status: ('A' for Active; 'I' for Inactive)
REMARK    1  A    between atoms: C13_16  and  N3_17 
ROOT
HETATM    1  C1  UNL     1       1.452   2.292  -2.292  1.00  0.00     0.044 C 
HETATM    2  C2  UNL     1       1.389   0.837  -2.237  1.00  0.00     0.237 C 
HETATM    3  N1  UNL     1       2.272   0.131  -1.347  1.00  0.00     0.092 N 
HETATM    4  C3  UNL     1       3.610   0.418  -1.106  1.00  0.00     0.297 C 
HETATM    5  C4  UNL     1       4.164  -0.549  -0.020  1.00  0.00     0.003 C 
HETATM    6  C5  UNL     1       3.847  -1.513   0.867  1.00  0.00    -0.002 C 
HETATM    7  C6  UNL     1       2.798  -2.334   1.466  1.00  0.00    -0.000 C 
HETATM    8  C7  UNL     1       1.572  -2.758   1.687  1.00  0.00     0.002 C 
HETATM    9  C8  UNL     1       0.199  -2.488   1.305  1.00  0.00     0.029 C 
HETATM   10  C9  UNL     1      -0.333  -1.475   0.539  1.00  0.00     0.057 C 
HETATM   11  N2  UNL     1       1.016  -0.998   0.494  1.00  0.00    -0.257 NA
HETATM   12  C10 UNL     1       1.196   0.384   0.753  1.00  0.00     0.162 C 
HETATM   13  S1  UNL     1       0.381   1.500  -0.423  1.00  0.00    -0.108 SA
HETATM   14  C11 UNL     1      -0.028   0.351  -1.838  1.00  0.00     0.070 C 
HETATM   15  C12 UNL     1      -1.216   0.085  -1.239  1.00  0.00     0.045 C 
HETATM   16  C13 UNL     1      -1.508  -0.889  -0.148  1.00  0.00     0.138 C 
HETATM   17  H5  UNL     1       2.262  -0.924  -1.717  1.00  0.00     0.316 HD
ENDROOT
BRANCH  16  18
HETATM   18  N3  UNL     1      -2.478  -0.491   0.791  1.00  0.00    -0.397 N 
HETATM   19  C14 UNL     1      -2.182   0.439   1.799  1.00  0.00     0.145 C 
HETATM   20  C15 UNL     1      -2.538   1.845   1.437  1.00  0.00    -0.010 C 
HETATM   21  C16 UNL     1      -3.588   1.795   0.608  1.00  0.00    -0.008 C 
HETATM   22  C17 UNL     1      -4.411   0.723   0.019  1.00  0.00     0.122 C 
HETATM   23 CL1  UNL     1      -6.123   0.884   0.514  1.00  0.00    -0.119 Cl
HETATM   24  C18 UNL     1      -3.848  -0.611   0.428  1.00  0.00     0.142 C 
ENDBRANCH  16  18
TORSDOF 1
