REMARK  7 active torsions:
REMARK  status: ('A' for Active; 'I' for Inactive)
REMARK    1  A    between atoms: C7_7  and  N1_8 
REMARK    2  A    between atoms: N1_8  and  C8_9 
REMARK    3  A    between atoms: C12_15  and  N3_16 
REMARK       I    between atoms: N3_16  and  C14_18 
REMARK    4  A    between atoms: C14_18  and  C15_20 
REMARK    5  A    between atoms: C15_20  and  C16_21 
REMARK    6  A    between atoms: C16_21  and  C17_22 
REMARK    7  A    between atoms: C17_22  and  N4_23 
ROOT
HETATM    1  C8  UNL     1      -2.725   0.451   0.197  1.00  0.00     0.151 C 
HETATM    2  N2  UNL     1      -3.262  -0.784   0.478  1.00  0.00    -0.255 NA
HETATM    3  C9  UNL     1      -2.159  -1.479   1.314  1.00  0.00     0.112 C 
HETATM    4  C10 UNL     1      -0.881  -1.957   1.736  1.00  0.00     0.098 C 
HETATM    5  C11 UNL     1       0.435  -2.316   1.962  1.00  0.00     0.124 C 
HETATM    6  F1  UNL     1      -0.257  -2.905   2.936  1.00  0.00    -0.208 F 
HETATM    7  C12 UNL     1       1.364  -1.830   1.087  1.00  0.00     0.051 C 
HETATM    8  C20 UNL     1       1.126  -0.777   0.101  1.00  0.00     0.083 C 
HETATM    9  C21 UNL     1       0.974  -1.073  -1.304  1.00  0.00     0.235 C 
HETATM   10  N5  UNL     1       0.218  -0.426  -2.203  1.00  0.00    -0.311 NA
HETATM   11  C22 UNL     1      -0.513   0.695  -1.616  1.00  0.00     0.082 C 
HETATM   12  C23 UNL     1      -1.557   0.495  -0.761  1.00  0.00     0.084 C 
HETATM   13  N6  UNL     1      -1.706  -0.898  -0.868  1.00  0.00    -0.384 N 
HETATM   14  C24 UNL     1      -1.876  -2.048  -0.112  1.00  0.00     0.156 C 
HETATM   15  H27 UNL     1      -1.725  -1.393  -1.828  1.00  0.00     0.159 HD
ENDROOT
BRANCH   7  16
HETATM   16  N3  UNL     1       2.712  -2.280   1.373  1.00  0.00    -0.320 N 
HETATM   17  C13 UNL     1       2.780  -3.243   2.487  1.00  0.00     0.159 C 
HETATM   18  C14 UNL     1       3.851  -1.869   0.663  1.00  0.00     0.247 C 
HETATM   19  O1  UNL     1       4.680  -2.618   1.282  1.00  0.00    -0.268 OA
BRANCH  18  20
HETATM   20  C15 UNL     1       4.861  -1.285  -0.201  1.00  0.00     0.072 C 
BRANCH  20  21
HETATM   21  C16 UNL     1       4.708  -0.328  -1.161  1.00  0.00    -0.002 C 
BRANCH  21  22
HETATM   22  C17 UNL     1       4.068   0.685  -2.056  1.00  0.00     0.143 C 
BRANCH  22  23
HETATM   23  N4  UNL     1       4.615   2.005  -1.925  1.00  0.00    -0.418 N 
HETATM   24  C18 UNL     1       4.399   2.643  -0.676  1.00  0.00     0.142 C 
HETATM   25  C19 UNL     1       5.865   2.234  -2.559  1.00  0.00     0.142 C 
ENDBRANCH  22  23
ENDBRANCH  21  22
ENDBRANCH  20  21
ENDBRANCH  18  20
ENDBRANCH   7  16
BRANCH   1  26
HETATM   26  N1  UNL     1      -3.155   1.710   0.689  1.00  0.00    -0.339 N 
HETATM   27  H8  UNL     1      -2.445   2.472   0.733  1.00  0.00     0.167 HD
BRANCH  26  28
HETATM   28  C7  UNL     1      -4.552   1.707   1.060  1.00  0.00     0.039 A 
HETATM   29  C2  UNL     1      -5.494   1.651   0.043  1.00  0.00    -0.035 A 
HETATM   30  C1  UNL     1      -5.084   1.576  -1.368  1.00  0.00     0.050 C 
HETATM   31  C3  UNL     1      -6.842   1.661   0.386  1.00  0.00     0.009 A 
HETATM   32  C4  UNL     1      -7.103   1.727   1.740  1.00  0.00     0.001 A 
HETATM   33  C5  UNL     1      -6.213   1.784   2.792  1.00  0.00     0.002 A 
HETATM   34  C6  UNL     1      -4.866   1.772   2.400  1.00  0.00     0.030 A 
ENDBRANCH  26  28
ENDBRANCH   1  26
TORSDOF 7
