REMARK  2 active torsions:
REMARK  status: ('A' for Active; 'I' for Inactive)
REMARK    1  A    between atoms: C5_5  and  N1_6 
REMARK    2  A    between atoms: N2_8  and  C7_9 
ROOT
HETATM    1  C7  UNL     1      -0.104   0.022  -0.090  1.00  0.00     0.373 C 
HETATM    2  N3  UNL     1       0.536  -0.381  -1.388  1.00  0.00     0.152 N 
HETATM    3  C8  UNL     1       1.931  -0.509  -1.003  1.00  0.00     0.276 C 
HETATM    4  C9  UNL     1       2.556   0.752  -1.536  1.00  0.00     0.008 C 
HETATM    5  C10 UNL     1       1.950   1.968  -1.388  1.00  0.00    -0.007 C 
HETATM    6  C11 UNL     1       0.490   2.065  -0.955  1.00  0.00     0.182 C 
HETATM    7  N4  UNL     1       0.482   1.142   0.231  1.00  0.00    -0.224 N 
HETATM    8  O1  UNL     1       1.235   1.823   1.039  1.00  0.00    -0.245 OA
HETATM    9  C12 UNL     1       2.658   1.818   1.142  1.00  0.00     0.209 C 
HETATM   10  C13 UNL     1       3.851   1.301   1.090  1.00  0.00     0.140 C 
HETATM   11  F1  UNL     1       4.798   2.258   1.420  1.00  0.00    -0.204 F 
HETATM   12  C14 UNL     1       4.432   0.012   0.770  1.00  0.00     0.042 C 
HETATM   13  C15 UNL     1       3.729  -1.105   0.386  1.00  0.00     0.004 C 
HETATM   14  C16 UNL     1       2.295  -0.961   0.294  1.00  0.00     0.150 C 
HETATM   15  N5  UNL     1       1.282  -1.877   0.693  1.00  0.00    -0.327 N 
HETATM   16  C17 UNL     1       1.195  -3.113   1.210  1.00  0.00     0.210 A 
HETATM   17  N6  UNL     1      -0.138  -3.373   1.369  1.00  0.00    -0.254 NA
HETATM   18  C18 UNL     1      -0.844  -2.311   0.955  1.00  0.00     0.149 A 
HETATM   19  C19 UNL     1       0.030  -1.339   0.516  1.00  0.00     0.114 A 
HETATM   20  H12 UNL     1       0.140  -1.246  -1.759  1.00  0.00     0.323 HD
ENDROOT
BRANCH   1  21
HETATM   21  N2  UNL     1      -1.507   0.324  -0.289  1.00  0.00    -0.346 N 
HETATM   22  C2  UNL     1      -2.290  -0.370  -1.177  1.00  0.00     0.083 C 
HETATM   23  C1  UNL     1      -2.285   0.053  -2.637  1.00  0.00     0.032 C 
HETATM   24  C3  UNL     1      -3.747  -0.212  -0.772  1.00  0.00     0.054 C 
HETATM   25  C4  UNL     1      -4.013  -0.339   0.651  1.00  0.00     0.001 C 
HETATM   26  C5  UNL     1      -3.177   0.189   1.521  1.00  0.00     0.017 C 
HETATM   27  C6  UNL     1      -2.040   0.857   0.910  1.00  0.00     0.178 C 
BRANCH  26  28
HETATM   28  N1  UNL     1      -3.426   0.072   2.912  1.00  0.00    -0.401 N 
HETATM   29  H8  UNL     1      -3.725  -0.896   3.200  1.00  0.00     0.156 HD
HETATM   30  H9  UNL     1      -3.372   0.749   3.702  1.00  0.00     0.156 HD
ENDBRANCH  26  28
ENDBRANCH   1  21
TORSDOF 2
