REMARK  8 active torsions:
REMARK  status: ('A' for Active; 'I' for Inactive)
REMARK    1  A    between atoms: C4_4  and  C5_5 
REMARK    2  A    between atoms: C5_5  and  N1_6 
REMARK    3  A    between atoms: N1_6  and  C6_8 
REMARK    4  A    between atoms: C6_8  and  C7_9 
REMARK    5  A    between atoms: C8_10  and  C9_11 
REMARK    6  A    between atoms: C9_11  and  N2_12 
REMARK    7  A    between atoms: C16_21  and  N5_22 
REMARK    8  A    between atoms: N5_22  and  C17_23 
ROOT
HETATM    1  C1  UNL     1      -0.416   3.425   0.267  1.00  0.00     0.036 C 
HETATM    2  C2  UNL     1      -1.320   2.335   0.631  1.00  0.00    -0.021 C 
HETATM    3  C3  UNL     1      -1.457   1.147   1.181  1.00  0.00    -0.025 C 
HETATM    4  C4  UNL     1      -0.386   0.348   1.759  1.00  0.00    -0.018 C 
HETATM    5  C12 UNL     1      -0.672  -0.783   2.381  1.00  0.00     0.107 C 
HETATM    6  N3  UNL     1      -2.007  -1.250   2.497  1.00  0.00    -0.316 N 
HETATM    7  C13 UNL     1      -2.429  -2.348   3.142  1.00  0.00     0.213 A 
HETATM    8  N4  UNL     1      -3.752  -2.321   3.006  1.00  0.00    -0.254 NA
HETATM    9  C14 UNL     1      -4.123  -1.255   2.307  1.00  0.00     0.146 A 
HETATM   10  C15 UNL     1      -3.011  -0.546   1.964  1.00  0.00     0.061 A 
HETATM   11  C16 UNL     1      -2.897   0.689   1.163  1.00  0.00     0.167 C 
ENDROOT
BRANCH   4  12
HETATM   12  C5  UNL     1       1.015   0.772   1.637  1.00  0.00     0.166 C 
BRANCH  12  13
HETATM   13  N1  UNL     1       1.372   0.929   0.244  1.00  0.00    -0.147 NA
HETATM   14  F1  UNL     1       1.211  -0.164  -0.493  1.00  0.00    -0.133 F 
BRANCH  13  15
HETATM   15  C6  UNL     1       2.762   1.335   0.181  1.00  0.00     0.153 C 
BRANCH  15  16
HETATM   16  C7  UNL     1       3.630   0.198   0.631  1.00  0.00    -0.012 C 
HETATM   17  C8  UNL     1       4.536  -0.311  -0.199  1.00  0.00     0.000 C 
BRANCH  17  18
HETATM   18  C9  UNL     1       5.534  -1.389  -0.122  1.00  0.00     0.298 C 
BRANCH  18  19
HETATM   19  N2  UNL     1       6.898  -0.947  -0.317  1.00  0.00     0.083 N 
HETATM   20  C10 UNL     1       7.134  -0.502  -1.675  1.00  0.00     0.309 C 
HETATM   21  C11 UNL     1       7.737  -2.140  -0.116  1.00  0.00     0.309 C 
ENDBRANCH  18  19
ENDBRANCH  17  18
ENDBRANCH  15  16
ENDBRANCH  13  15
ENDBRANCH  12  13
ENDBRANCH   4  12
BRANCH  11  22
HETATM   22  N5  UNL     1      -3.281   0.397  -0.226  1.00  0.00    -0.375 N 
HETATM   23  H23 UNL     1      -2.449   0.304  -0.882  1.00  0.00     0.160 HD
BRANCH  22  24
HETATM   24  C17 UNL     1      -4.491   0.198  -0.947  1.00  0.00     0.034 A 
HETATM   25  C18 UNL     1      -5.662   0.346  -0.236  1.00  0.00     0.029 A 
HETATM   26  C19 UNL     1      -6.919   0.213  -0.791  1.00  0.00     0.002 A 
HETATM   27  C20 UNL     1      -7.001  -0.087  -2.150  1.00  0.00     0.001 A 
HETATM   28  C21 UNL     1      -5.818  -0.229  -2.838  1.00  0.00     0.009 A 
HETATM   29  C22 UNL     1      -4.559  -0.103  -2.312  1.00  0.00    -0.036 A 
HETATM   30  C23 UNL     1      -3.281  -0.248  -3.048  1.00  0.00     0.050 C 
ENDBRANCH  22  24
ENDBRANCH  11  22
TORSDOF 8
