REMARK  0 active torsions:
REMARK  status: ('A' for Active; 'I' for Inactive)
ROOT
HETATM    1  O1  UNL     1      -0.643  -1.411   0.387  1.00  0.00    -0.291 OA
HETATM    2  C1  UNL     1       0.215  -1.877  -0.460  1.00  0.00     0.166 C 
HETATM    3  C2  UNL     1       1.227  -1.667   0.489  1.00  0.00     0.053 C 
HETATM    4  C3  UNL     1       2.441  -1.939   0.131  1.00  0.00     0.020 C 
HETATM    5  C4  UNL     1       3.757  -1.880   0.746  1.00  0.00     0.029 A 
HETATM    6  C5  UNL     1       4.798  -2.720   1.009  1.00  0.00     0.133 A 
HETATM    7  N1  UNL     1       5.916  -2.242   1.632  1.00  0.00    -0.253 NA
HETATM    8  C6  UNL     1       5.948  -0.919   1.973  1.00  0.00     0.235 A 
HETATM    9  N2  UNL     1       4.937  -0.061   1.728  1.00  0.00    -0.222 NA
HETATM   10  C7  UNL     1       3.811  -0.527   1.105  1.00  0.00     0.162 A 
HETATM   11  N3  UNL     1       2.852   0.476   0.949  1.00  0.00    -0.241 NA
HETATM   12  C8  UNL     1       2.807   1.644   1.419  1.00  0.00     0.119 C 
HETATM   13  C9  UNL     1       1.798   2.669   1.248  1.00  0.00     0.019 C 
HETATM   14  C10 UNL     1       0.687   3.237   0.820  1.00  0.00     0.001 C 
HETATM   15  C11 UNL     1      -0.522   3.075   0.019  1.00  0.00    -0.004 C 
HETATM   16  C12 UNL     1      -1.352   2.385  -0.789  1.00  0.00    -0.022 C 
HETATM   17  C13 UNL     1      -1.701   1.167  -1.550  1.00  0.00     0.068 C 
HETATM   18  C14 UNL     1      -2.949   0.500  -1.185  1.00  0.00    -0.028 A 
HETATM   19  C15 UNL     1      -4.017   1.343  -1.027  1.00  0.00     0.010 A 
HETATM   20  C16 UNL     1      -5.279   0.894  -0.700  1.00  0.00     0.001 A 
HETATM   21  C17 UNL     1      -5.582  -0.437  -0.501  1.00  0.00     0.002 A 
HETATM   22  C18 UNL     1      -4.539  -1.339  -0.646  1.00  0.00     0.029 A 
HETATM   23  C19 UNL     1      -3.310  -0.846  -0.971  1.00  0.00     0.035 A 
HETATM   24  N4  UNL     1      -2.078  -1.467  -1.222  1.00  0.00    -0.382 N 
HETATM   25  C20 UNL     1      -0.823  -2.106  -1.469  1.00  0.00     0.202 C 
HETATM   26  H16 UNL     1      -2.191  -2.002  -0.296  1.00  0.00     0.160 HD
ENDROOT
TORSDOF 0
