REMARK  6 active torsions:
REMARK  status: ('A' for Active; 'I' for Inactive)
REMARK    1  A    between atoms: C7_7  and  N1_8 
REMARK    2  A    between atoms: N1_8  and  C8_9 
REMARK    3  A    between atoms: C12_15  and  N3_16 
REMARK       I    between atoms: N3_16  and  C14_18 
REMARK    4  A    between atoms: C14_18  and  C15_20 
REMARK    5  A    between atoms: C16_21  and  C17_22 
REMARK    6  A    between atoms: C17_22  and  N4_23 
ROOT
HETATM    1  C8  UNL     1       3.416  -0.122   0.560  1.00  0.00     0.157 A 
HETATM    2  N2  UNL     1       2.550   0.126   1.583  1.00  0.00    -0.227 NA
HETATM    3  C9  UNL     1       1.312   0.591   1.347  1.00  0.00     0.089 A 
HETATM    4  C10 UNL     1       0.487   0.819   2.429  1.00  0.00     0.078 A 
HETATM    5  C11 UNL     1      -0.798   1.302   2.176  1.00  0.00     0.145 A 
HETATM    6  F1  UNL     1      -1.569   1.510   3.280  1.00  0.00    -0.204 F 
HETATM    7  C12 UNL     1      -1.223   1.542   0.867  1.00  0.00     0.078 A 
HETATM    8  C20 UNL     1      -0.378   1.305  -0.198  1.00  0.00     0.065 A 
HETATM    9  C21 UNL     1       0.890   0.828   0.060  1.00  0.00     0.072 A 
HETATM   10  N5  UNL     1       1.712   0.597  -0.979  1.00  0.00    -0.299 N 
HETATM   11  C22 UNL     1       1.566   0.737  -2.302  1.00  0.00     0.215 A 
HETATM   12  N6  UNL     1       2.695   0.368  -2.931  1.00  0.00    -0.253 NA
HETATM   13  C23 UNL     1       3.540  -0.003  -1.949  1.00  0.00     0.151 A 
HETATM   14  C24 UNL     1       2.953   0.129  -0.709  1.00  0.00     0.104 A 
ENDROOT
BRANCH   7  15
HETATM   15  N3  UNL     1      -2.557   2.031   0.798  1.00  0.00    -0.316 N 
HETATM   16  C13 UNL     1      -2.719   3.477   0.847  1.00  0.00     0.159 C 
HETATM   17  C14 UNL     1      -3.558   1.028   0.690  1.00  0.00     0.247 C 
HETATM   18  O1  UNL     1      -3.007  -0.092   0.680  1.00  0.00    -0.268 OA
BRANCH  17  19
HETATM   19  C15 UNL     1      -4.966   1.373   0.611  1.00  0.00     0.072 C 
HETATM   20  C16 UNL     1      -5.934   0.485   0.511  1.00  0.00     0.008 C 
BRANCH  20  21
HETATM   21  C17 UNL     1      -5.902  -0.996   0.451  1.00  0.00     0.299 C 
BRANCH  21  22
HETATM   22  N4  UNL     1      -6.510  -1.378  -0.819  1.00  0.00     0.083 N 
HETATM   23  C18 UNL     1      -6.524  -2.824  -0.971  1.00  0.00     0.309 C 
HETATM   24  C19 UNL     1      -7.864  -0.837  -0.842  1.00  0.00     0.309 C 
ENDBRANCH  21  22
ENDBRANCH  20  21
ENDBRANCH  17  19
ENDBRANCH   7  15
BRANCH   1  25
HETATM   25  N1  UNL     1       4.705  -0.608   0.845  1.00  0.00    -0.338 N 
HETATM   26  H8  UNL     1       4.998  -0.779   1.831  1.00  0.00     0.167 HD
BRANCH  25  27
HETATM   27  C7  UNL     1       5.791  -0.949   0.035  1.00  0.00     0.049 A 
HETATM   28  C2  UNL     1       6.163  -2.216  -0.629  1.00  0.00    -0.018 A 
HETATM   29  C1  UNL     1       5.414  -3.297  -0.513  1.00  0.00     0.026 C 
HETATM   30  C3  UNL     1       7.407  -2.046  -1.367  1.00  0.00     0.013 A 
HETATM   31  C4  UNL     1       7.736  -0.764  -1.147  1.00  0.00     0.010 A 
HETATM   32  C5  UNL     1       6.757  -0.092  -0.295  1.00  0.00    -0.034 A 
HETATM   33  C6  UNL     1       6.841   1.337   0.132  1.00  0.00     0.050 C 
ENDBRANCH  25  27
ENDBRANCH   1  25
TORSDOF 6
