REMARK  4 active torsions:
REMARK  status: ('A' for Active; 'I' for Inactive)
REMARK    1  A    between atoms: C2_2  and  C3_3 
REMARK    2  A    between atoms: C3_3  and  N1_4 
REMARK    3  A    between atoms: C14_19  and  N4_20 
REMARK    4  A    between atoms: N4_20  and  C15_21 
ROOT
HETATM    1  N1  UNL     1      -2.622  -0.877  -0.250  1.00  0.00    -0.304 N 
HETATM    2  C4  UNL     1      -4.002  -0.371  -0.434  1.00  0.00     0.120 C 
HETATM    3  C5  UNL     1      -4.637   0.668  -1.130  1.00  0.00     0.225 A 
HETATM    4  C6  UNL     1      -3.848   1.650  -1.966  1.00  0.00     0.219 A 
HETATM    5  O1  UNL     1      -3.264   0.878  -1.279  1.00  0.00    -0.338 OA
HETATM    6  N2  UNL     1      -2.466   2.063  -2.271  1.00  0.00    -0.362 N 
HETATM    7  C7  UNL     1      -2.269   2.957  -3.367  1.00  0.00     0.148 C 
HETATM    8  C8  UNL     1      -1.124   1.756  -1.678  1.00  0.00     0.125 A 
HETATM    9  C9  UNL     1      -1.206   0.348  -1.542  1.00  0.00     0.073 A 
HETATM   10  C10 UNL     1      -0.265   0.561  -0.659  1.00  0.00     0.133 A 
HETATM   11  C11 UNL     1       0.674   1.037   0.170  1.00  0.00     0.071 A 
HETATM   12  C12 UNL     1       0.521   2.367  -0.203  1.00  0.00     0.070 A 
HETATM   13  C13 UNL     1      -0.401   2.782  -1.154  1.00  0.00     0.127 A 
HETATM   14  F1  UNL     1      -0.646   4.053  -1.596  1.00  0.00    -0.208 F 
HETATM   15  N3  UNL     1       1.531   0.431   1.038  1.00  0.00    -0.251 NA
HETATM   16  C14 UNL     1       1.619  -0.277   2.041  1.00  0.00     0.054 C 
HETATM   17  B1  UNL     1       0.887  -1.219   3.384  1.00  0.00     0.299 B 
HETATM   18  C22 UNL     1      -1.013  -0.827   3.635  1.00  0.00     0.001 C 
HETATM   19  N5  UNL     1      -1.671  -0.889   2.552  1.00  0.00    -0.285 NA
HETATM   20  C23 UNL     1      -1.025  -0.722   1.385  1.00  0.00     0.291 C 
HETATM   21  N6  UNL     1      -1.307  -0.323   0.076  1.00  0.00    -0.287 N 
ENDROOT
BRANCH  16  22
HETATM   22  N4  UNL     1       3.056  -0.420   2.248  1.00  0.00    -0.354 N 
HETATM   23  H15 UNL     1       3.654  -0.770   3.068  1.00  0.00     0.166 HD
BRANCH  22  24
HETATM   24  C15 UNL     1       4.027  -0.094   1.234  1.00  0.00     0.038 A 
HETATM   25  C16 UNL     1       3.705  -0.604  -0.033  1.00  0.00     0.030 A 
HETATM   26  C17 UNL     1       4.525  -0.352  -1.111  1.00  0.00     0.002 A 
HETATM   27  C18 UNL     1       5.653   0.403  -0.912  1.00  0.00     0.001 A 
HETATM   28  C19 UNL     1       5.979   0.904   0.320  1.00  0.00     0.009 A 
HETATM   29  C20 UNL     1       5.164   0.658   1.406  1.00  0.00    -0.035 A 
HETATM   30  C21 UNL     1       5.427   1.164   2.763  1.00  0.00     0.050 C 
ENDBRANCH  22  24
ENDBRANCH  16  22
BRANCH   1  31
HETATM   31  C3  UNL     1      -2.374  -2.259  -0.496  1.00  0.00     0.147 C 
BRANCH  31  32
HETATM   32  C2  UNL     1      -2.891  -3.292   0.407  1.00  0.00     0.017 C 
HETATM   33  C1  UNL     1      -4.366  -3.416   0.584  1.00  0.00     0.007 C 
ENDBRANCH  31  32
ENDBRANCH   1  31
TORSDOF 4
