REMARK  3 active torsions:
REMARK  status: ('A' for Active; 'I' for Inactive)
REMARK    1  A    between atoms: C2_3  and  C3_4 
REMARK    2  A    between atoms: C4_5  and  N1_7 
REMARK    3  A    between atoms: N1_7  and  C6_9 
ROOT
HETATM    1  B1  UNL     1       8.615  -1.756  -0.341  1.00  0.00     0.190 B 
HETATM    2  C1  UNL     1       7.467  -0.103  -0.841  1.00  0.00    -0.253 C 
HETATM    3  C2  UNL     1       6.667   1.007  -1.172  1.00  0.00     0.090 C 
ENDROOT
BRANCH   3   4
HETATM    4  C3  UNL     1       5.413   1.021  -0.969  1.00  0.00     0.219 A 
HETATM    5  C4  UNL     1       4.354   0.207  -0.452  1.00  0.00     0.152 A 
HETATM    6  O1  UNL     1       5.419  -0.402  -0.370  1.00  0.00    -0.322 OA
BRANCH   5   7
HETATM    7  N1  UNL     1       2.992   0.504  -0.353  1.00  0.00    -0.331 N 
HETATM    8  C5  UNL     1       2.562   1.787  -0.834  1.00  0.00     0.158 C 
BRANCH   7   9
HETATM    9  C6  UNL     1       2.072  -0.405   0.159  1.00  0.00     0.077 C 
HETATM   10  C7  UNL     1       2.351  -1.640   0.516  1.00  0.00     0.144 C 
HETATM   11  F1  UNL     1       3.655  -1.911   0.320  1.00  0.00    -0.204 F 
HETATM   12  C8  UNL     1       1.745  -2.838   1.046  1.00  0.00     0.064 C 
HETATM   13  C9  UNL     1       0.469  -3.268   1.090  1.00  0.00     0.122 C 
HETATM   14  N2  UNL     1      -0.808  -2.759   0.650  1.00  0.00    -0.241 NA
HETATM   15  C10 UNL     1      -1.173  -1.541   0.384  1.00  0.00     0.155 C 
HETATM   16  N3  UNL     1      -2.518  -1.899   0.040  1.00  0.00    -0.339 N 
HETATM   17  C21 UNL     1      -0.527  -0.211   0.392  1.00  0.00     0.088 C 
HETATM   18  C11 UNL     1      -3.690  -1.151  -0.258  1.00  0.00     0.040 A 
HETATM   19  H8  UNL     1      -2.563  -2.939   0.027  1.00  0.00     0.167 HD
HETATM   20  C12 UNL     1      -4.691  -2.088  -0.114  1.00  0.00     0.030 A 
HETATM   21  C16 UNL     1      -3.830   0.194  -0.611  1.00  0.00    -0.026 A 
HETATM   22  C13 UNL     1      -5.968  -1.651  -0.342  1.00  0.00     0.002 A 
HETATM   23  C14 UNL     1      -6.215  -0.359  -0.691  1.00  0.00     0.001 A 
HETATM   24  C15 UNL     1      -5.182   0.515  -0.816  1.00  0.00     0.010 A 
HETATM   25  C17 UNL     1      -3.161   1.455  -0.871  1.00  0.00     0.100 C 
HETATM   26  C18 UNL     1      -2.007   1.803  -0.020  1.00  0.00     0.040 A 
HETATM   27  C19 UNL     1      -1.804   3.097   0.480  1.00  0.00     0.143 A 
HETATM   28  N5  UNL     1      -0.974   1.138   0.478  1.00  0.00    -0.304 N 
HETATM   29  N4  UNL     1      -0.677   3.113   1.234  1.00  0.00    -0.254 NA
HETATM   30  C20 UNL     1      -0.107   1.866   1.262  1.00  0.00     0.214 A 
HETATM   31  C22 UNL     1       0.755   0.217   0.292  1.00  0.00     0.066 C 
ENDBRANCH   7   9
ENDBRANCH   5   7
ENDBRANCH   3   4
TORSDOF 3
