REMARK  7 active torsions:
REMARK  status: ('A' for Active; 'I' for Inactive)
REMARK    1  A    between atoms: C7_8  and  N1_9 
REMARK    2  A    between atoms: N1_9  and  C8_10 
REMARK    3  A    between atoms: C11_14  and  C12_15 
REMARK    4  A    between atoms: N3_19  and  C15_20 
REMARK    5  A    between atoms: C15_20  and  C17_22 
REMARK    6  A    between atoms: C18_23  and  C19_24 
REMARK    7  A    between atoms: C19_24  and  N4_25 
ROOT
HETATM    1  C8  UNL     1      -4.104   0.007   1.084  1.00  0.00     0.152 A 
HETATM    2  N2  UNL     1      -3.333  -0.933   0.787  1.00  0.00    -0.265 NA
HETATM    3  C9  UNL     1      -1.937  -0.980   0.738  1.00  0.00     0.208 A 
HETATM    4  C10 UNL     1      -1.290   0.368   0.947  1.00  0.00     0.040 A 
HETATM    5  C11 UNL     1      -0.020   0.443   0.771  1.00  0.00     0.058 C 
HETATM    6  N5  UNL     1      -2.203   1.388   1.297  1.00  0.00    -0.303 N 
HETATM    7  C22 UNL     1      -1.974   2.665   1.629  1.00  0.00     0.214 A 
HETATM    8  N6  UNL     1      -3.092   3.357   1.908  1.00  0.00    -0.253 NA
HETATM    9  C23 UNL     1      -4.132   2.484   1.751  1.00  0.00     0.151 A 
HETATM   10  C24 UNL     1      -3.525   1.307   1.380  1.00  0.00     0.103 A 
ENDROOT
BRANCH   5  11
HETATM   11  C12 UNL     1       1.209   1.182   0.751  1.00  0.00     0.052 A 
HETATM   12  C13 UNL     1       1.697   2.382   0.947  1.00  0.00     0.056 A 
HETATM   13 CL1  UNL     1       1.541   4.082   1.354  1.00  0.00    -0.085 Cl
HETATM   14  C14 UNL     1       3.066   2.012   0.628  1.00  0.00     0.177 A 
HETATM   15  N3  UNL     1       2.521   0.709   0.451  1.00  0.00    -0.367 N 
BRANCH  15  16
HETATM   16  C15 UNL     1       3.370  -0.411   0.092  1.00  0.00     0.103 C 
HETATM   17  C16 UNL     1       4.466  -0.648   1.094  1.00  0.00     0.037 C 
BRANCH  16  18
HETATM   18  C17 UNL     1       3.957  -0.139  -1.234  1.00  0.00    -0.004 C 
HETATM   19  C18 UNL     1       5.114   0.414  -1.630  1.00  0.00     0.001 C 
BRANCH  19  20
HETATM   20  C19 UNL     1       6.353   1.014  -1.138  1.00  0.00     0.298 C 
BRANCH  20  21
HETATM   21  N4  UNL     1       7.565   0.354  -1.545  1.00  0.00     0.083 N 
HETATM   22  C20 UNL     1       7.756  -0.944  -0.977  1.00  0.00     0.309 C 
HETATM   23  C21 UNL     1       7.755   0.298  -2.977  1.00  0.00     0.309 C 
ENDBRANCH  20  21
ENDBRANCH  19  20
ENDBRANCH  16  18
ENDBRANCH  15  16
ENDBRANCH   5  11
BRANCH   1  24
HETATM   24  N1  UNL     1      -5.489  -0.216   1.059  1.00  0.00    -0.339 N 
HETATM   25  H7  UNL     1      -6.051   0.309   1.779  1.00  0.00     0.167 HD
BRANCH  24  26
HETATM   26  C7  UNL     1      -6.154  -1.071   0.145  1.00  0.00     0.042 A 
HETATM   27  C2  UNL     1      -7.519  -1.246   0.256  1.00  0.00    -0.035 A 
HETATM   28  C1  UNL     1      -8.316  -0.559   1.329  1.00  0.00     0.050 C 
HETATM   29  C3  UNL     1      -8.227  -2.058  -0.605  1.00  0.00     0.012 A 
HETATM   30  C4  UNL     1      -7.613  -2.744  -1.631  1.00  0.00     0.043 A 
HETATM   31  C5  UNL     1      -6.248  -2.589  -1.768  1.00  0.00     0.118 A 
HETATM   32  F1  UNL     1      -5.596  -3.240  -2.759  1.00  0.00    -0.206 F 
HETATM   33  C6  UNL     1      -5.581  -1.769  -0.887  1.00  0.00     0.072 A 
ENDBRANCH  24  26
ENDBRANCH   1  24
TORSDOF 7
