REMARK  2 active torsions:
REMARK  status: ('A' for Active; 'I' for Inactive)
REMARK    1  A    between atoms: N1_2  and  C3_4 
REMARK    2  A    between atoms: C3_4  and  C4_5 
ROOT
HETATM    1  C4  UNL     1      -1.828   0.566  -0.430  1.00  0.00    -0.023 A 
HETATM    2  C5  UNL     1      -2.368   1.717  -0.731  1.00  0.00    -0.017 A 
HETATM    3  C6  UNL     1      -1.730   3.040  -0.868  1.00  0.00     0.032 A 
HETATM    4  C7  UNL     1      -0.256   3.049  -0.614  1.00  0.00     0.039 A 
HETATM    5  C8  UNL     1       0.311   1.717  -0.277  1.00  0.00    -0.064 A 
HETATM    6  C9  UNL     1      -0.392   0.581  -0.189  1.00  0.00    -0.024 A 
HETATM    7  C10 UNL     1       0.295  -0.657   0.153  1.00  0.00     0.042 A 
HETATM    8  C11 UNL     1       1.598  -0.691   0.380  1.00  0.00     0.040 A 
HETATM    9  N2  UNL     1       2.225  -1.918   0.710  1.00  0.00    -0.364 N 
HETATM   10  C12 UNL     1       3.310  -2.682   0.201  1.00  0.00     0.107 C 
HETATM   11  C13 UNL     1       4.476  -2.959   0.759  1.00  0.00     0.135 C 
HETATM   12  N3  UNL     1       4.635  -2.399   2.055  1.00  0.00    -0.255 NA
HETATM   13  C14 UNL     1       4.692  -1.089   2.068  1.00  0.00     0.206 C 
HETATM   14  N4  UNL     1       4.596  -0.341   0.855  1.00  0.00    -0.360 N 
HETATM   15  C15 UNL     1       3.603   0.612   0.499  1.00  0.00     0.098 C 
HETATM   16  C16 UNL     1       2.325   0.538   0.282  1.00  0.00    -0.012 A 
HETATM   17  C17 UNL     1       1.772   1.862  -0.063  1.00  0.00     0.077 A 
HETATM   18  H15 UNL     1       1.729  -2.318   1.537  1.00  0.00     0.165 HD
HETATM   19  H19 UNL     1       5.421  -0.658   0.299  1.00  0.00     0.166 HD
ENDROOT
BRANCH   1  20
HETATM   20  C3  UNL     1      -2.521  -0.719  -0.309  1.00  0.00     0.310 C 
BRANCH  20  21
HETATM   21  N1  UNL     1      -3.949  -0.647  -0.553  1.00  0.00     0.084 N 
HETATM   22  C1  UNL     1      -4.423  -2.034  -0.406  1.00  0.00     0.309 C 
HETATM   23  C2  UNL     1      -4.598   0.100   0.536  1.00  0.00     0.309 C 
ENDBRANCH  20  21
ENDBRANCH   1  20
TORSDOF 2
