REMARK  8 active torsions:
REMARK  status: ('A' for Active; 'I' for Inactive)
REMARK    1  A    between atoms: C7_8  and  N1_9 
REMARK    2  A    between atoms: N1_9  and  C8_10 
REMARK    3  A    between atoms: C8_10  and  C9_11 
REMARK    4  A    between atoms: N3_15  and  C12_16 
REMARK    5  A    between atoms: C12_16  and  C13_17 
REMARK    6  A    between atoms: C13_17  and  C16_21 
REMARK    7  A    between atoms: C14_18  and  C15_19 
REMARK    8  A    between atoms: C16_21  and  N4_22 
ROOT
HETATM    1  C9  UNL     1      -0.935  -0.531  -1.463  1.00  0.00     0.048 A 
HETATM    2  C10 UNL     1      -1.383  -0.485  -2.764  1.00  0.00     0.144 A 
HETATM    3  N2  UNL     1      -2.020  -1.652  -2.966  1.00  0.00    -0.254 NA
HETATM    4  C11 UNL     1      -1.948  -2.352  -1.831  1.00  0.00     0.209 A 
HETATM    5  N3  UNL     1      -1.285  -1.705  -0.860  1.00  0.00    -0.338 N 
ENDROOT
BRANCH   1   6
HETATM    6  C8  UNL     1      -0.173   0.641  -0.922  1.00  0.00     0.178 C 
BRANCH   6   7
HETATM    7  N1  UNL     1       1.221   0.405  -1.194  1.00  0.00    -0.384 N 
HETATM    8  H7  UNL     1       1.588  -0.452  -1.687  1.00  0.00     0.160 HD
BRANCH   7   9
HETATM    9  C7  UNL     1       2.203   1.363  -0.789  1.00  0.00     0.037 A 
HETATM   10  C2  UNL     1       3.555   1.232  -1.002  1.00  0.00    -0.035 A 
HETATM   11  C1  UNL     1       3.979  -0.024  -1.712  1.00  0.00     0.050 C 
HETATM   12  C3  UNL     1       4.435   2.204  -0.579  1.00  0.00     0.012 A 
HETATM   13  C4  UNL     1       4.007   3.343   0.070  1.00  0.00     0.043 A 
HETATM   14  C5  UNL     1       2.677   3.519   0.304  1.00  0.00     0.118 A 
HETATM   15  F1  UNL     1       2.161   4.605   0.934  1.00  0.00    -0.206 F 
HETATM   16  C6  UNL     1       1.811   2.513  -0.138  1.00  0.00     0.072 A 
ENDBRANCH   7   9
ENDBRANCH   6   7
ENDBRANCH   1   6
BRANCH   5  17
HETATM   17  C12 UNL     1      -0.908  -1.967   0.499  1.00  0.00     0.165 C 
BRANCH  17  18
HETATM   18  C13 UNL     1      -1.920  -1.470   1.506  1.00  0.00    -0.037 C 
HETATM   19  C14 UNL     1      -1.647  -0.571   2.451  1.00  0.00    -0.006 C 
BRANCH  19  20
HETATM   20  C15 UNL     1      -2.139   0.224   3.591  1.00  0.00     0.142 C 
HETATM   21 CL1  UNL     1      -3.861  -0.051   3.966  1.00  0.00    -0.126 Cl
ENDBRANCH  19  20
BRANCH  18  22
HETATM   22  C16 UNL     1      -3.281  -2.081   1.371  1.00  0.00     0.302 C 
BRANCH  22  23
HETATM   23  N4  UNL     1      -3.884  -1.800   0.095  1.00  0.00     0.082 N 
HETATM   24  H19 UNL     1      -4.509  -2.562  -0.245  1.00  0.00     0.313 HD
HETATM   25  H20 UNL     1      -4.376  -0.876   0.129  1.00  0.00     0.313 HD
ENDBRANCH  22  23
ENDBRANCH  18  22
ENDBRANCH  17  18
ENDBRANCH   5  17
TORSDOF 8
