REMARK  4 active torsions:
REMARK  status: ('A' for Active; 'I' for Inactive)
REMARK    1  A    between atoms: C2_2  and  C3_3 
REMARK    2  A    between atoms: C3_3  and  C4_5 
REMARK    3  A    between atoms: C7_9  and  N2_10 
REMARK    4  A    between atoms: N2_10  and  C8_11 
ROOT
HETATM    1  C4  UNL     1       3.501   0.358  -0.034  1.00  0.00     0.059 C 
HETATM    2  C5  UNL     1       2.197   0.209  -0.282  1.00  0.00     0.040 A 
HETATM    3  C6  UNL     1       1.228   0.710   0.705  1.00  0.00     0.208 A 
HETATM    4  N1  UNL     1      -0.123   0.486   0.285  1.00  0.00    -0.265 NA
HETATM    5  C7  UNL     1      -0.449  -0.078  -0.806  1.00  0.00     0.153 A 
HETATM    6  C15 UNL     1       0.472  -0.588  -1.808  1.00  0.00     0.110 A 
HETATM    7  C16 UNL     1       0.019  -1.158  -2.911  1.00  0.00     0.204 A 
HETATM    8  O1  UNL     1       0.965  -1.618  -3.815  1.00  0.00    -0.222 OA
HETATM    9  N3  UNL     1       2.324  -1.488  -3.577  1.00  0.00    -0.123 NA
HETATM   10  C17 UNL     1       2.736  -0.928  -2.493  1.00  0.00     0.245 A 
HETATM   11  N4  UNL     1       1.841  -0.424  -1.503  1.00  0.00    -0.301 N 
ENDROOT
BRANCH   5  12
HETATM   12  N2  UNL     1      -1.843  -0.181  -0.988  1.00  0.00    -0.339 N 
HETATM   13  H6  UNL     1      -2.256  -0.180  -1.974  1.00  0.00     0.167 HD
BRANCH  12  14
HETATM   14  C8  UNL     1      -2.917  -0.314  -0.073  1.00  0.00     0.042 A 
HETATM   15  C9  UNL     1      -3.607  -1.533  -0.032  1.00  0.00     0.072 A 
HETATM   16  C10 UNL     1      -4.656  -1.772   0.798  1.00  0.00     0.118 A 
HETATM   17  F1  UNL     1      -5.321  -2.982   0.815  1.00  0.00    -0.206 F 
HETATM   18  C11 UNL     1      -5.096  -0.802   1.653  1.00  0.00     0.043 A 
HETATM   19  C12 UNL     1      -4.416   0.422   1.624  1.00  0.00     0.012 A 
HETATM   20  C13 UNL     1      -3.350   0.673   0.785  1.00  0.00    -0.035 A 
HETATM   21  C14 UNL     1      -2.664   1.984   0.815  1.00  0.00     0.050 C 
ENDBRANCH  12  14
ENDBRANCH   5  12
BRANCH   1  22
HETATM   22  C3  UNL     1       4.108   0.977   1.129  1.00  0.00     0.076 C 
HETATM   23 CL1  UNL     1       3.525   2.257   2.125  1.00  0.00    -0.075 Cl
BRANCH  22  24
HETATM   24  C2  UNL     1       5.290   0.635   1.628  1.00  0.00    -0.131 C 
HETATM   25  C1  UNL     1       6.529   0.186   1.831  1.00  0.00     0.098 C 
ENDBRANCH  22  24
ENDBRANCH   1  22
TORSDOF 4
