REMARK  8 active torsions:
REMARK  status: ('A' for Active; 'I' for Inactive)
REMARK    1  A    between atoms: N1_2  and  C2_3 
REMARK    2  A    between atoms: C2_3  and  C3_4 
REMARK    3  A    between atoms: C3_4  and  C4_5 
REMARK    4  A    between atoms: C4_5  and  O1_6 
REMARK    5  A    between atoms: O1_6  and  C5_7 
REMARK       I    between atoms: C5_7  and  N2_9 
REMARK    6  A    between atoms: N2_9  and  C7_11 
REMARK    7  A    between atoms: C13_19  and  N4_20 
REMARK    8  A    between atoms: N4_20  and  C14_21 
ROOT
HETATM    1  C7  UNL     1       0.940   1.306  -0.040  1.00  0.00     0.063 A 
HETATM    2  C8  UNL     1       0.395   0.132  -0.561  1.00  0.00     0.064 A 
HETATM    3  C9  UNL     1      -0.877  -0.294  -0.298  1.00  0.00     0.071 A 
HETATM    4  C10 UNL     1      -1.669   0.468   0.522  1.00  0.00     0.088 A 
HETATM    5  C11 UNL     1      -1.151   1.647   1.058  1.00  0.00     0.060 A 
HETATM    6  C12 UNL     1       0.131   2.055   0.780  1.00  0.00     0.063 A 
HETATM    7 CL1  UNL     1       0.857   3.521   1.412  1.00  0.00    -0.082 Cl
HETATM    8  N3  UNL     1      -2.923   0.107   0.819  1.00  0.00    -0.227 NA
HETATM    9  C13 UNL     1      -3.478  -1.008   0.340  1.00  0.00     0.154 A 
HETATM   10  C20 UNL     1      -2.668  -1.752  -0.477  1.00  0.00     0.104 A 
HETATM   11  C21 UNL     1      -2.911  -2.944  -1.137  1.00  0.00     0.151 A 
HETATM   12  N5  UNL     1      -1.798  -3.277  -1.819  1.00  0.00    -0.253 NA
HETATM   13  C22 UNL     1      -0.880  -2.320  -1.593  1.00  0.00     0.215 A 
HETATM   14  N6  UNL     1      -1.419  -1.405  -0.781  1.00  0.00    -0.299 N 
ENDROOT
BRANCH   1  15
HETATM   15  N2  UNL     1       2.263   1.560  -0.439  1.00  0.00    -0.296 N 
HETATM   16  C5  UNL     1       3.420   1.114   0.245  1.00  0.00     0.371 C 
HETATM   17  O2  UNL     1       4.016   0.512   1.171  1.00  0.00    -0.238 OA
HETATM   18  C6  UNL     1       2.475   2.330  -1.631  1.00  0.00     0.162 C 
BRANCH  16  19
HETATM   19  O1  UNL     1       4.709   1.390  -0.184  1.00  0.00    -0.274 OA
BRANCH  19  20
HETATM   20  C4  UNL     1       5.814   0.942   0.502  1.00  0.00     0.145 C 
BRANCH  20  21
HETATM   21  C3  UNL     1       6.687   0.753   1.467  1.00  0.00     0.027 C 
BRANCH  21  22
HETATM   22  C2  UNL     1       7.935  -0.052   1.473  1.00  0.00     0.298 C 
BRANCH  22  23
HETATM   23  N1  UNL     1       8.152  -0.697   0.189  1.00  0.00     0.082 N 
HETATM   24  C1  UNL     1       7.194  -1.734  -0.084  1.00  0.00     0.307 C 
HETATM   25  H4  UNL     1       8.136   0.030  -0.562  1.00  0.00     0.315 HD
ENDBRANCH  22  23
ENDBRANCH  21  22
ENDBRANCH  20  21
ENDBRANCH  19  20
ENDBRANCH  16  19
ENDBRANCH   1  15
BRANCH   9  26
HETATM   26  N4  UNL     1      -4.808  -1.405   0.645  1.00  0.00    -0.358 N 
HETATM   27  H14 UNL     1      -5.089  -2.326   0.202  1.00  0.00     0.162 HD
BRANCH  26  28
HETATM   28  C14 UNL     1      -5.789  -0.741   1.452  1.00  0.00     0.174 A 
HETATM   29  C15 UNL     1      -6.216   0.513   0.791  1.00  0.00    -0.055 A 
HETATM   30  C16 UNL     1      -5.753   1.868   0.357  1.00  0.00     0.046 C 
HETATM   31  C17 UNL     1      -7.514   0.399   0.456  1.00  0.00     0.008 A 
HETATM   32  C18 UNL     1      -8.028  -0.901   0.862  1.00  0.00     0.040 A 
HETATM   33  C19 UNL     1      -7.034  -1.551   1.434  1.00  0.00     0.120 A 
HETATM   34  F1  UNL     1      -6.817  -2.773   2.021  1.00  0.00    -0.208 F 
ENDBRANCH  26  28
ENDBRANCH   9  26
TORSDOF 8
