REMARK  6 active torsions:
REMARK  status: ('A' for Active; 'I' for Inactive)
REMARK    1  A    between atoms: C7_8  and  N1_9 
REMARK    2  A    between atoms: N1_9  and  C8_10 
REMARK    3  A    between atoms: C11_16  and  N4_17 
REMARK       I    between atoms: N4_17  and  C13_19 
REMARK    4  A    between atoms: C13_19  and  C14_21 
REMARK    5  A    between atoms: C15_22  and  C16_23 
REMARK    6  A    between atoms: C16_23  and  N5_24 
ROOT
HETATM    1  C8  UNL     1      -3.874  -0.769   0.111  1.00  0.00     0.154 C 
HETATM    2  N2  UNL     1      -3.270  -0.287  -0.925  1.00  0.00    -0.238 NA
HETATM    3  C9  UNL     1      -1.933  -0.747  -1.157  1.00  0.00     0.260 C 
HETATM    4  N3  UNL     1      -1.109  -0.033  -2.045  1.00  0.00    -0.351 N 
HETATM    5  C10 UNL     1       0.302  -0.054  -1.940  1.00  0.00     0.128 C 
HETATM    6 CL1  UNL     1       0.993   0.678  -3.341  1.00  0.00    -0.062 Cl
HETATM    7  C11 UNL     1       0.973  -0.561  -0.932  1.00  0.00     0.077 C 
HETATM    8  C19 UNL     1       0.113  -1.176   0.054  1.00  0.00     0.062 C 
HETATM    9  C20 UNL     1      -1.200  -1.271  -0.004  1.00  0.00     0.064 C 
HETATM   10  N6  UNL     1      -1.957  -1.804   1.087  1.00  0.00    -0.301 N 
HETATM   11  C21 UNL     1      -1.619  -2.553   2.151  1.00  0.00     0.214 A 
HETATM   12  N7  UNL     1      -2.689  -2.799   2.920  1.00  0.00    -0.253 NA
HETATM   13  C22 UNL     1      -3.746  -2.191   2.333  1.00  0.00     0.151 A 
HETATM   14  C23 UNL     1      -3.301  -1.567   1.188  1.00  0.00     0.104 A 
HETATM   15  H9  UNL     1      -1.725   0.461  -2.724  1.00  0.00     0.163 HD
ENDROOT
BRANCH   1  16
HETATM   16  N1  UNL     1      -5.208  -0.323   0.321  1.00  0.00    -0.339 N 
HETATM   17  H7  UNL     1      -5.844  -1.006   0.836  1.00  0.00     0.167 HD
BRANCH  16  18
HETATM   18  C7  UNL     1      -5.769   0.919  -0.076  1.00  0.00     0.042 A 
HETATM   19  C2  UNL     1      -7.126   1.159   0.178  1.00  0.00    -0.035 A 
HETATM   20  C1  UNL     1      -7.940   0.096   0.858  1.00  0.00     0.050 C 
HETATM   21  C3  UNL     1      -7.737   2.340  -0.175  1.00  0.00     0.012 A 
HETATM   22  C4  UNL     1      -7.046   3.353  -0.800  1.00  0.00     0.043 A 
HETATM   23  C5  UNL     1      -5.703   3.146  -1.065  1.00  0.00     0.118 A 
HETATM   24  F1  UNL     1      -5.006   4.122  -1.675  1.00  0.00    -0.206 F 
HETATM   25  C6  UNL     1      -5.138   1.945  -0.691  1.00  0.00     0.072 A 
ENDBRANCH  16  18
ENDBRANCH   1  16
BRANCH   7  26
HETATM   26  N4  UNL     1       2.357  -0.573  -0.823  1.00  0.00    -0.316 N 
HETATM   27  C12 UNL     1       2.909  -1.357   0.276  1.00  0.00     0.159 C 
HETATM   28  C13 UNL     1       3.412  -0.041  -1.596  1.00  0.00     0.247 C 
HETATM   29  O1  UNL     1       3.442   0.588  -2.684  1.00  0.00    -0.268 OA
BRANCH  28  30
HETATM   30  C14 UNL     1       4.833  -0.150  -1.193  1.00  0.00     0.072 C 
HETATM   31  C15 UNL     1       5.733  -0.586  -0.273  1.00  0.00     0.008 C 
BRANCH  31  32
HETATM   32  C16 UNL     1       7.221  -0.487  -0.241  1.00  0.00     0.299 C 
BRANCH  32  33
HETATM   33  N5  UNL     1       7.604   0.259   0.932  1.00  0.00     0.083 N 
HETATM   34  C17 UNL     1       9.039   0.352   0.936  1.00  0.00     0.309 C 
HETATM   35  C18 UNL     1       7.053   1.587   0.920  1.00  0.00     0.309 C 
ENDBRANCH  32  33
ENDBRANCH  31  32
ENDBRANCH  28  30
ENDBRANCH   7  26
TORSDOF 6
