REMARK  7 active torsions:
REMARK  status: ('A' for Active; 'I' for Inactive)
REMARK    1  A    between atoms: N1_2  and  C3_4 
REMARK    2  A    between atoms: C3_4  and  C4_5 
REMARK    3  A    between atoms: C5_6  and  C6_7 
REMARK    4  A    between atoms: C6_7  and  C7_9 
REMARK    5  A    between atoms: C7_9  and  C8_10 
REMARK    6  A    between atoms: C8_10  and  C9_11 
REMARK    7  A    between atoms: C9_11  and  C10_12 
ROOT
HETATM    1  C10 UNL     1      -0.730   1.354   0.576  1.00  0.00    -0.020 C 
HETATM    2  C11 UNL     1      -1.541   0.346   0.272  1.00  0.00    -0.043 C 
HETATM    3  C12 UNL     1      -1.959  -0.654  -0.640  1.00  0.00     0.264 C 
HETATM    4  N2  UNL     1      -2.892  -1.542  -0.376  1.00  0.00    -0.310 NA
HETATM    5  C13 UNL     1      -3.212  -2.517  -1.417  1.00  0.00     0.050 C 
HETATM    6  C14 UNL     1      -4.488  -2.543  -1.680  1.00  0.00     0.022 C 
HETATM    7  C15 UNL     1      -5.647  -1.821  -1.172  1.00  0.00    -0.034 C 
HETATM    8  C16 UNL     1      -5.396  -1.758   0.144  1.00  0.00     0.016 C 
HETATM    9  C17 UNL     1      -6.034  -0.408   0.392  1.00  0.00     0.168 C 
HETATM   10  N3  UNL     1      -6.027  -0.082   1.776  1.00  0.00    -0.371 N 
HETATM   11  C18 UNL     1      -4.600  -0.203   1.965  1.00  0.00     0.197 C 
HETATM   12  N4  UNL     1      -3.690   0.560   1.372  1.00  0.00    -0.281 NA
HETATM   13  C19 UNL     1      -2.300   0.348   1.638  1.00  0.00     0.185 C 
HETATM   14  C20 UNL     1      -7.386  -0.687  -0.200  1.00  0.00     0.121 C 
HETATM   15  F1  UNL     1      -8.736  -0.685  -0.096  1.00  0.00    -0.208 F 
HETATM   16  C21 UNL     1      -6.916  -1.140  -1.389  1.00  0.00     0.051 C 
HETATM   17  H23 UNL     1      -6.777   0.165   2.471  1.00  0.00     0.161 HD
ENDROOT
BRANCH   1  18
HETATM   18  C9  UNL     1       0.383   2.074  -0.073  1.00  0.00     0.028 C 
BRANCH  18  19
HETATM   19  C8  UNL     1       0.774   1.558  -1.413  1.00  0.00     0.011 C 
BRANCH  19  20
HETATM   20  C7  UNL     1       1.432   0.218  -1.445  1.00  0.00     0.083 C 
BRANCH  20  21
HETATM   21  C6  UNL     1       2.757   0.267  -0.757  1.00  0.00     0.149 C 
HETATM   22  O1  UNL     1       3.303   1.168  -0.047  1.00  0.00    -0.293 OA
BRANCH  21  23
HETATM   23  C5  UNL     1       3.928  -0.546  -0.568  1.00  0.00     0.048 C 
HETATM   24  C4  UNL     1       5.033  -0.387   0.068  1.00  0.00     0.007 C 
BRANCH  24  25
HETATM   25  C3  UNL     1       5.769   0.564   0.920  1.00  0.00     0.299 C 
BRANCH  25  26
HETATM   26  N1  UNL     1       6.968   1.060   0.320  1.00  0.00     0.083 N 
HETATM   27  C1  UNL     1       8.015   0.090   0.137  1.00  0.00     0.309 C 
HETATM   28  C2  UNL     1       6.740   1.830  -0.900  1.00  0.00     0.309 C 
ENDBRANCH  25  26
ENDBRANCH  24  25
ENDBRANCH  21  23
ENDBRANCH  20  21
ENDBRANCH  19  20
ENDBRANCH  18  19
ENDBRANCH   1  18
TORSDOF 7
