REMARK  0 active torsions:
REMARK  status: ('A' for Active; 'I' for Inactive)
ROOT
HETATM    1  C1  UNL     1      -1.602  -3.487   1.545  1.00  0.00     0.045 C 
HETATM    2  C2  UNL     1      -1.695  -2.908   0.213  1.00  0.00    -0.056 C 
HETATM    3  C3  UNL     1      -0.605  -2.762  -0.467  1.00  0.00     0.007 C 
HETATM    4  C4  UNL     1       0.802  -2.919  -0.510  1.00  0.00     0.038 C 
HETATM    5  C5  UNL     1       1.972  -3.239  -0.072  1.00  0.00     0.099 C 
HETATM    6  F1  UNL     1       1.281  -3.591   1.016  1.00  0.00    -0.210 F 
HETATM    7  C6  UNL     1       3.231  -3.092  -0.832  1.00  0.00     0.128 C 
HETATM    8  C7  UNL     1       4.058  -1.954  -0.324  1.00  0.00     0.057 C 
HETATM    9  N1  UNL     1       3.106  -1.142  -0.705  1.00  0.00    -0.288 NA
HETATM   10  C8  UNL     1       2.638  -0.051   0.121  1.00  0.00     0.206 C 
HETATM   11  C9  UNL     1       3.691   1.019  -0.040  1.00  0.00     0.037 C 
HETATM   12  C10 UNL     1       3.716   2.324  -0.017  1.00  0.00     0.068 C 
HETATM   13  C11 UNL     1       2.797   3.470   0.166  1.00  0.00     0.188 C 
HETATM   14  C12 UNL     1       3.165   4.740   0.136  1.00  0.00     0.125 C 
HETATM   15 CL1  UNL     1       2.087   6.064   0.348  1.00  0.00    -0.095 Cl
HETATM   16  N2  UNL     1       1.386   3.284   0.416  1.00  0.00     0.138 N 
HETATM   17  C13 UNL     1       0.401   2.725  -0.444  1.00  0.00     0.312 A 
HETATM   18  O1  UNL     1       1.499   2.778  -0.924  1.00  0.00    -0.120 OA
HETATM   19  C14 UNL     1      -0.982   2.483  -0.276  1.00  0.00     0.067 C 
HETATM   20  C15 UNL     1      -2.040   2.536   0.415  1.00  0.00     0.007 C 
HETATM   21  C16 UNL     1      -3.436   2.328   0.682  1.00  0.00     0.299 C 
HETATM   22  N3  UNL     1      -4.187   1.596  -0.351  1.00  0.00     0.089 N 
HETATM   23  C17 UNL     1      -5.538   1.466   0.112  1.00  0.00     0.310 C 
HETATM   24  C18 UNL     1      -3.507   0.349  -0.465  1.00  0.00     0.302 C 
HETATM   25  C19 UNL     1      -4.078  -0.681  -1.409  1.00  0.00     0.300 C 
HETATM   26  N4  UNL     1      -3.057  -1.748  -1.398  1.00  0.00     0.088 N 
HETATM   27  C20 UNL     1      -3.081  -2.424  -0.149  1.00  0.00     0.303 C 
HETATM   28  N5  UNL     1       4.948   0.333  -0.274  1.00  0.00    -0.315 N 
HETATM   29  C21 UNL     1       6.268   0.239  -0.798  1.00  0.00     0.208 A 
HETATM   30  N6  UNL     1       6.350  -0.950  -0.332  1.00  0.00    -0.252 NA
HETATM   31  C22 UNL     1       5.066  -1.028   0.254  1.00  0.00     0.263 A 
HETATM   32  H12 UNL     1       1.149   3.641   1.388  1.00  0.00     0.335 HD
HETATM   33  H24 UNL     1      -3.217  -2.343  -2.237  1.00  0.00     0.316 HD
ENDROOT
TORSDOF 0
