REMARK  2 active torsions:
REMARK  status: ('A' for Active; 'I' for Inactive)
REMARK    1  A    between atoms: N1_2  and  C2_3 
REMARK    2  A    between atoms: P1_18  and  C14_19 
ROOT
HETATM    1  C2  UNL     1      -2.695   0.321   0.470  1.00  0.00     0.152 C 
HETATM    2  C3  UNL     1      -2.362  -0.960   0.121  1.00  0.00     0.080 C 
HETATM    3  C4  UNL     1      -1.333  -1.901   0.436  1.00  0.00     0.126 A 
HETATM    4  C5  UNL     1      -0.797  -2.149  -0.849  1.00  0.00     0.017 C 
HETATM    5  C6  UNL     1      -0.994  -1.683  -2.212  1.00  0.00     0.012 C 
HETATM    6  C7  UNL     1      -1.713  -0.736  -2.970  1.00  0.00     0.082 C 
HETATM    7  N2  UNL     1      -2.694   0.353  -2.551  1.00  0.00    -0.191 NA
HETATM    8  N3  UNL     1      -2.027   0.966  -1.641  1.00  0.00    -0.174 NA
HETATM    9  C8  UNL     1      -1.799   1.169  -0.372  1.00  0.00     0.176 C 
HETATM   10  O1  UNL     1      -0.730   2.142  -0.400  1.00  0.00    -0.335 OA
HETATM   11  C9  UNL     1      -0.086   2.448  -1.632  1.00  0.00     0.177 C 
HETATM   12  C10 UNL     1       1.310   2.911  -1.431  1.00  0.00     0.027 C 
HETATM   13  C11 UNL     1       2.294   1.970  -0.853  1.00  0.00     0.008 C 
HETATM   14  C12 UNL     1       1.883   1.470   0.488  1.00  0.00     0.028 C 
HETATM   15  C13 UNL     1       1.841   0.103   0.607  1.00  0.00     0.008 C 
HETATM   16  P1  UNL     1       1.681  -1.772   1.094  1.00  0.00    -0.094 P 
HETATM   17  C16 UNL     1       0.094  -1.616   2.146  1.00  0.00     0.027 C 
HETATM   18  C17 UNL     1      -1.304  -1.666   1.910  1.00  0.00     0.161 A 
HETATM   19  F1  UNL     1      -0.212  -1.798   1.306  1.00  0.00    -0.370 F 
HETATM   20  H9  UNL     1      -3.092  -0.210  -3.264  1.00  0.00     0.154 HD
ENDROOT
BRANCH   1  21
HETATM   21  N1  UNL     1      -3.011   0.859   1.746  1.00  0.00    -0.419 NA
HETATM   22  C1  UNL     1      -4.215   1.379   1.991  1.00  0.00     0.305 C 
ENDBRANCH   1  21
BRANCH  16  23
HETATM   23  C14 UNL     1       3.116  -2.005   2.235  1.00  0.00     0.034 C 
HETATM   24  C15 UNL     1       4.309  -1.144   1.744  1.00  0.00     0.010 C 
ENDBRANCH  16  23
TORSDOF 2
