REMARK  9 active torsions:
REMARK  status: ('A' for Active; 'I' for Inactive)
REMARK    1  A    between atoms: N1_2  and  C2_3 
REMARK    2  A    between atoms: C2_3  and  C3_4 
REMARK    3  A    between atoms: C3_4  and  C4_5 
REMARK    4  A    between atoms: C3_4  and  C11_14 
REMARK    5  A    between atoms: C4_5  and  C5_6 
REMARK    6  A    between atoms: C5_6  and  C6_8 
REMARK    7  A    between atoms: C7_9  and  C8_10 
REMARK    8  A    between atoms: C8_10  and  N2_11 
REMARK    9  A    between atoms: C16_20  and  C17_21 
ROOT
HETATM    1  C11 UNL     1      -0.271  -0.258  -0.263  1.00  0.00     0.111 C 
HETATM    2  C12 UNL     1      -0.442   0.936  -1.208  1.00  0.00     0.174 C 
HETATM    3  N3  UNL     1      -1.790   1.236  -1.570  1.00  0.00    -0.294 NA
HETATM    4  C13 UNL     1      -2.833   0.595  -1.235  1.00  0.00     0.028 C 
HETATM    5  C14 UNL     1      -4.179   1.029  -0.874  1.00  0.00     0.091 C 
HETATM    6  C15 UNL     1      -4.691   0.333   0.348  1.00  0.00    -0.055 C 
HETATM    7  C16 UNL     1      -5.898   0.890   0.518  1.00  0.00     0.007 C 
HETATM    8  C19 UNL     1      -4.476  -0.673   1.423  1.00  0.00     0.184 C 
HETATM    9  N4  UNL     1      -3.142  -0.735   1.939  1.00  0.00    -0.281 NA
HETATM   10  C20 UNL     1      -1.962  -0.831   1.446  1.00  0.00     0.199 C 
HETATM   11  N5  UNL     1      -1.582  -0.702   0.083  1.00  0.00    -0.364 N 
HETATM   12  C21 UNL     1      -2.378  -0.868  -1.179  1.00  0.00     0.178 C 
ENDROOT
BRANCH   1  13
HETATM   13  C3  UNL     1       0.578  -1.325  -0.849  1.00  0.00     0.045 C 
BRANCH  13  14
HETATM   14  C2  UNL     1       0.808  -2.539  -0.016  1.00  0.00     0.276 C 
BRANCH  14  15
HETATM   15  N1  UNL     1      -0.334  -3.231   0.463  1.00  0.00     0.079 N 
HETATM   16  C1  UNL     1      -1.129  -3.914  -0.504  1.00  0.00     0.306 C 
HETATM   17  H4  UNL     1      -0.082  -3.846   1.243  1.00  0.00     0.315 HD
ENDBRANCH  14  15
ENDBRANCH  13  14
BRANCH  13  18
HETATM   18  C4  UNL     1       1.963  -0.810  -1.233  1.00  0.00     0.091 C 
BRANCH  18  19
HETATM   19  C5  UNL     1       2.803  -0.457  -0.083  1.00  0.00     0.149 C 
HETATM   20  O1  UNL     1       2.771  -0.420   1.174  1.00  0.00    -0.293 OA
BRANCH  19  21
HETATM   21  C6  UNL     1       4.131   0.009  -0.539  1.00  0.00     0.048 C 
HETATM   22  C7  UNL     1       4.986   0.355   0.429  1.00  0.00     0.007 C 
BRANCH  22  23
HETATM   23  C8  UNL     1       6.360   0.847   0.225  1.00  0.00     0.299 C 
BRANCH  23  24
HETATM   24  N2  UNL     1       6.529   2.173   0.787  1.00  0.00     0.083 N 
HETATM   25  C9  UNL     1       6.435   2.016   2.240  1.00  0.00     0.309 C 
HETATM   26  C10 UNL     1       5.497   3.072   0.327  1.00  0.00     0.309 C 
ENDBRANCH  23  24
ENDBRANCH  22  23
ENDBRANCH  19  21
ENDBRANCH  18  19
ENDBRANCH  13  18
ENDBRANCH   1  13
BRANCH   7  27
HETATM   27  C17 UNL     1      -6.877   1.839   0.044  1.00  0.00     0.030 C 
HETATM   28  C18 UNL     1      -8.102   2.325   0.316  1.00  0.00     0.188 C 
HETATM   29  F1  UNL     1      -8.246   1.519   1.418  1.00  0.00    -0.219 F 
ENDBRANCH   7  27
TORSDOF 9
