REMARK  4 active torsions:
REMARK  status: ('A' for Active; 'I' for Inactive)
REMARK    1  A    between atoms: N1_2  and  C2_3 
REMARK    2  A    between atoms: C8_11  and  N3_12 
REMARK    3  A    between atoms: N3_12  and  C9_13 
REMARK    4  A    between atoms: C13_17  and  C14_18 
ROOT
HETATM    1  C2  UNL     1       4.096   0.969  -1.069  1.00  0.00     0.051 A 
HETATM    2  C3  UNL     1       3.553   0.627   0.129  1.00  0.00     0.063 A 
HETATM    3  C4  UNL     1       2.226   0.346   0.181  1.00  0.00     0.071 A 
HETATM    4  C5  UNL     1       1.457   0.419  -0.950  1.00  0.00     0.088 A 
HETATM    5  C6  UNL     1       1.904   0.766  -2.236  1.00  0.00     0.060 A 
HETATM    6  C7  UNL     1       3.259   1.010  -2.140  1.00  0.00     0.062 A 
HETATM    7 CL1  UNL     1       3.784   1.363  -3.815  1.00  0.00    -0.082 Cl
HETATM    8  N2  UNL     1       0.170   0.031  -0.732  1.00  0.00    -0.227 NA
HETATM    9  C8  UNL     1      -0.326  -0.381   0.426  1.00  0.00     0.157 A 
HETATM   10  C16 UNL     1       0.526  -0.428   1.508  1.00  0.00     0.104 A 
HETATM   11  C17 UNL     1       0.326  -0.827   2.847  1.00  0.00     0.151 A 
HETATM   12  N4  UNL     1       1.509  -0.687   3.487  1.00  0.00    -0.253 NA
HETATM   13  C18 UNL     1       2.411  -0.232   2.625  1.00  0.00     0.215 A 
HETATM   14  N5  UNL     1       1.818  -0.075   1.439  1.00  0.00    -0.299 N 
ENDROOT
BRANCH   9  15
HETATM   15  N3  UNL     1      -1.625  -0.779   0.547  1.00  0.00    -0.339 N 
HETATM   16  H7  UNL     1      -1.591  -1.707   0.029  1.00  0.00     0.167 HD
BRANCH  15  17
HETATM   17  C9  UNL     1      -2.933  -0.747   0.915  1.00  0.00     0.034 A 
HETATM   18  C10 UNL     1      -3.599  -0.762   2.037  1.00  0.00     0.029 A 
HETATM   19  C11 UNL     1      -4.759  -0.746   2.713  1.00  0.00     0.003 A 
HETATM   20  C12 UNL     1      -5.669  -0.694   1.630  1.00  0.00     0.010 A 
HETATM   21  C13 UNL     1      -5.348  -0.668   0.262  1.00  0.00    -0.028 A 
HETATM   22  C15 UNL     1      -3.981  -0.695  -0.091  1.00  0.00     0.039 A 
BRANCH  21  23
HETATM   23  C14 UNL     1      -6.377  -0.645  -0.825  1.00  0.00     0.261 C 
HETATM   24  F1  UNL     1      -6.540  -1.928  -1.335  1.00  0.00    -0.251 F 
ENDBRANCH  21  23
ENDBRANCH  15  17
ENDBRANCH   9  15
BRANCH   1  25
HETATM   25  N1  UNL     1       5.438   1.306  -1.593  1.00  0.00    -0.393 N 
HETATM   26  C1  UNL     1       6.656   1.607  -2.039  1.00  0.00     0.146 C 
HETATM   27  H4  UNL     1       5.793   1.264  -0.614  1.00  0.00     0.159 HD
ENDBRANCH   1  25
TORSDOF 4
