REMARK  4 active torsions:
REMARK  status: ('A' for Active; 'I' for Inactive)
REMARK    1  A    between atoms: N1_2  and  C2_3 
REMARK    2  A    between atoms: C2_3  and  C3_4 
REMARK    3  A    between atoms: C12_16  and  C13_17 
REMARK    4  A    between atoms: N5_26  and  O1_27 
ROOT
HETATM    1  C3  UNL     1      -2.722   0.953   0.678  1.00  0.00    -0.002 C 
HETATM    2  C4  UNL     1      -1.993  -0.146   1.044  1.00  0.00    -0.042 C 
HETATM    3  C5  UNL     1      -0.623   0.378   1.369  1.00  0.00     0.141 C 
HETATM    4 CL1  UNL     1       0.155  -0.494   2.718  1.00  0.00    -0.118 Cl
HETATM    5  C6  UNL     1       0.283   0.575   0.185  1.00  0.00     0.153 C 
HETATM    6  C7  UNL     1      -0.671   0.478  -1.022  1.00  0.00     0.001 C 
HETATM    7  C8  UNL     1      -1.275  -0.698  -1.371  1.00  0.00     0.014 C 
HETATM    8  C9  UNL     1      -1.307  -2.025  -0.641  1.00  0.00     0.207 C 
HETATM    9  N2  UNL     1      -0.677  -3.089  -1.266  1.00  0.00    -0.363 N 
HETATM   10  C10 UNL     1       0.712  -3.226  -0.835  1.00  0.00     0.198 C 
HETATM   11  N3  UNL     1       1.937  -3.187  -0.477  1.00  0.00    -0.279 NA
HETATM   12  C11 UNL     1       2.839  -2.106  -0.367  1.00  0.00     0.209 C 
HETATM   13  C12 UNL     1       2.304  -0.754  -0.233  1.00  0.00     0.060 C 
HETATM   14  N4  UNL     1       1.101  -0.600   0.005  1.00  0.00    -0.281 NA
HETATM   15  N5  UNL     1      -2.653  -2.195  -0.186  1.00  0.00    -0.164 NA
HETATM   16  C20 UNL     1      -2.910  -1.326   0.959  1.00  0.00     0.115 C 
HETATM   17  C21 UNL     1      -2.861  -2.197   2.194  1.00  0.00     0.033 C 
HETATM   18  H13 UNL     1      -0.757  -3.873  -1.939  1.00  0.00     0.162 HD
ENDROOT
BRANCH  13  19
HETATM   19  C13 UNL     1       3.268   0.332  -0.374  1.00  0.00    -0.001 A 
HETATM   20  C14 UNL     1       3.233   0.831  -1.678  1.00  0.00     0.056 A 
HETATM   21  C15 UNL     1       4.069   1.881  -2.058  1.00  0.00     0.117 A 
HETATM   22  F1  UNL     1       4.090   2.414  -3.298  1.00  0.00    -0.206 F 
HETATM   23  C16 UNL     1       4.941   2.433  -1.141  1.00  0.00     0.043 A 
HETATM   24  C17 UNL     1       4.956   1.927   0.127  1.00  0.00     0.011 A 
HETATM   25  C18 UNL     1       4.142   0.891   0.532  1.00  0.00    -0.050 A 
HETATM   26  C19 UNL     1       4.066   0.261   1.868  1.00  0.00     0.049 C 
ENDBRANCH  13  19
BRANCH   1  27
HETATM   27  C2  UNL     1      -2.684   2.435   0.480  1.00  0.00     0.141 C 
BRANCH  27  28
HETATM   28  N1  UNL     1      -3.001   2.883  -0.821  1.00  0.00    -0.422 N 
HETATM   29  C1  UNL     1      -4.327   2.725  -1.283  1.00  0.00     0.140 C 
HETATM   30  H4  UNL     1      -2.276   3.197  -1.447  1.00  0.00     0.153 HD
ENDBRANCH  27  28
ENDBRANCH   1  27
BRANCH  15  31
HETATM   31  O1  UNL     1      -3.594  -2.136  -1.128  1.00  0.00    -0.310 OA
HETATM   32  H23 UNL     1      -3.266  -2.266  -2.035  1.00  0.00     0.237 HD
ENDBRANCH  15  31
TORSDOF 4
