REMARK  4 active torsions:
REMARK  status: ('A' for Active; 'I' for Inactive)
REMARK    1  A    between atoms: N1_2  and  C3_4 
REMARK    2  A    between atoms: C3_4  and  C4_5 
REMARK    3  A    between atoms: C5_6  and  C6_7 
REMARK       I    between atoms: C6_7  and  N2_9 
REMARK    4  A    between atoms: N2_9  and  C8_11 
ROOT
HETATM    1  C8  UNL     1       0.181   0.801  -0.456  1.00  0.00     0.075 A 
HETATM    2  C9  UNL     1      -0.648   1.700  -0.883  1.00  0.00     0.138 A 
HETATM    3  F1  UNL     1      -0.269   2.942  -1.232  1.00  0.00    -0.207 F 
HETATM    4  C10 UNL     1      -2.093   1.715  -1.095  1.00  0.00     0.198 A 
HETATM    5  N3  UNL     1      -2.712   0.444  -0.874  1.00  0.00    -0.331 N 
HETATM    6  C11 UNL     1      -1.848  -0.589  -0.392  1.00  0.00     0.077 A 
HETATM    7  C12 UNL     1      -0.548  -0.455  -0.197  1.00  0.00     0.062 A 
HETATM    8  C13 UNL     1      -3.049  -1.465  -0.320  1.00  0.00     0.335 A 
HETATM    9  N4  UNL     1      -3.358  -2.152   0.888  1.00  0.00    -0.356 N 
HETATM   10  C14 UNL     1      -4.305  -1.871   1.914  1.00  0.00     0.086 C 
HETATM   11  C15 UNL     1      -5.379  -1.112   1.789  1.00  0.00     0.029 C 
HETATM   12  C16 UNL     1      -5.872  -0.388   0.637  1.00  0.00    -0.024 A 
HETATM   13  C17 UNL     1      -7.190   0.021   0.819  1.00  0.00     0.012 A 
HETATM   14  C18 UNL     1      -7.790   0.726  -0.208  1.00  0.00     0.001 A 
HETATM   15  C19 UNL     1      -7.102   1.001  -1.350  1.00  0.00     0.001 A 
HETATM   16  C20 UNL     1      -5.796   0.602  -1.542  1.00  0.00     0.012 A 
HETATM   17  C21 UNL     1      -5.164  -0.113  -0.521  1.00  0.00     0.016 A 
HETATM   18  C22 UNL     1      -3.797  -0.463  -0.869  1.00  0.00     0.325 A 
HETATM   19  N5  UNL     1      -3.687  -1.737  -1.562  1.00  0.00     0.163 N 
HETATM   20  H17 UNL     1      -2.775  -3.008   1.025  1.00  0.00     0.162 HD
HETATM   21  H24 UNL     1      -3.142  -1.659  -2.450  1.00  0.00     0.324 HD
ENDROOT
BRANCH   1  22
HETATM   22  N2  UNL     1       1.556   0.804  -0.240  1.00  0.00    -0.316 N 
HETATM   23  C6  UNL     1       2.562   1.785  -0.438  1.00  0.00     0.247 C 
HETATM   24  O1  UNL     1       2.063   2.838  -0.890  1.00  0.00    -0.268 OA
HETATM   25  C7  UNL     1       2.237  -0.320   0.296  1.00  0.00     0.159 C 
BRANCH  23  26
HETATM   26  C5  UNL     1       3.998   1.788  -0.222  1.00  0.00     0.072 C 
HETATM   27  C4  UNL     1       5.070   1.076   0.187  1.00  0.00     0.008 C 
BRANCH  27  28
HETATM   28  C3  UNL     1       5.734  -0.120   0.702  1.00  0.00     0.299 C 
BRANCH  28  29
HETATM   29  N1  UNL     1       6.763  -0.667  -0.171  1.00  0.00     0.083 N 
HETATM   30  C1  UNL     1       7.276  -1.834   0.517  1.00  0.00     0.309 C 
HETATM   31  C2  UNL     1       7.853   0.234  -0.401  1.00  0.00     0.309 C 
ENDBRANCH  28  29
ENDBRANCH  27  28
ENDBRANCH  23  26
ENDBRANCH   1  22
TORSDOF 4
