REMARK  7 active torsions:
REMARK  status: ('A' for Active; 'I' for Inactive)
REMARK    1  A    between atoms: C7_7  and  N1_8 
REMARK    2  A    between atoms: N1_8  and  C8_9 
REMARK    3  A    between atoms: C12_15  and  N3_16 
REMARK       I    between atoms: N3_16  and  C14_18 
REMARK    4  A    between atoms: C14_18  and  C15_20 
REMARK    5  A    between atoms: C15_20  and  C16_21 
REMARK    6  A    between atoms: C16_21  and  C17_22 
REMARK    7  A    between atoms: C17_22  and  N4_23 
ROOT
HETATM    1  C8  UNL     1      -3.554   0.246   0.708  1.00  0.00     0.157 A 
HETATM    2  N2  UNL     1      -2.732   0.916   1.531  1.00  0.00    -0.227 NA
HETATM    3  C9  UNL     1      -1.458   1.193   1.207  1.00  0.00     0.089 A 
HETATM    4  C10 UNL     1      -0.727   1.900   2.171  1.00  0.00     0.078 A 
HETATM    5  C11 UNL     1       0.573   2.181   1.837  1.00  0.00     0.145 A 
HETATM    6  F1  UNL     1       1.415   2.857   2.654  1.00  0.00    -0.204 F 
HETATM    7  C12 UNL     1       1.109   1.788   0.629  1.00  0.00     0.078 A 
HETATM    8  C20 UNL     1       0.355   1.092  -0.295  1.00  0.00     0.065 A 
HETATM    9  C21 UNL     1      -0.960   0.780  -0.014  1.00  0.00     0.072 A 
HETATM   10  N5  UNL     1      -1.789   0.107  -0.837  1.00  0.00    -0.299 N 
HETATM   11  C22 UNL     1      -1.522  -0.387  -2.060  1.00  0.00     0.215 A 
HETATM   12  N6  UNL     1      -2.650  -0.977  -2.495  1.00  0.00    -0.253 NA
HETATM   13  C23 UNL     1      -3.630  -0.860  -1.556  1.00  0.00     0.151 A 
HETATM   14  C24 UNL     1      -3.063  -0.169  -0.510  1.00  0.00     0.104 A 
ENDROOT
BRANCH   7  15
HETATM   15  N3  UNL     1       2.436   2.031   0.195  1.00  0.00    -0.316 N 
HETATM   16  C13 UNL     1       3.298   2.962  -0.506  1.00  0.00     0.159 C 
HETATM   17  C14 UNL     1       3.163   0.907   0.637  1.00  0.00     0.247 C 
HETATM   18  O1  UNL     1       3.182  -0.195   1.230  1.00  0.00    -0.268 OA
BRANCH  17  19
HETATM   19  C15 UNL     1       4.543   0.550   0.512  1.00  0.00     0.072 C 
BRANCH  19  20
HETATM   20  C16 UNL     1       5.790   0.174   0.428  1.00  0.00     0.008 C 
BRANCH  20  21
HETATM   21  C17 UNL     1       7.206   0.352   0.005  1.00  0.00     0.299 C 
BRANCH  21  22
HETATM   22  N4  UNL     1       7.552  -0.753  -0.854  1.00  0.00     0.083 N 
HETATM   23  C18 UNL     1       7.593  -1.963  -0.065  1.00  0.00     0.309 C 
HETATM   24  C19 UNL     1       6.546  -0.890  -1.873  1.00  0.00     0.309 C 
ENDBRANCH  21  22
ENDBRANCH  20  21
ENDBRANCH  19  20
ENDBRANCH  17  19
ENDBRANCH   7  15
BRANCH   1  25
HETATM   25  N1  UNL     1      -4.883  -0.001   1.132  1.00  0.00    -0.338 N 
HETATM   26  H8  UNL     1      -5.226   0.324   2.060  1.00  0.00     0.167 HD
BRANCH  25  27
HETATM   27  C7  UNL     1      -5.977  -0.654   0.531  1.00  0.00     0.049 A 
HETATM   28  C2  UNL     1      -6.973  -0.040  -0.364  1.00  0.00    -0.018 A 
HETATM   29  C1  UNL     1      -6.962   1.250  -0.731  1.00  0.00     0.026 C 
HETATM   30  C3  UNL     1      -7.945  -1.075  -0.765  1.00  0.00     0.013 A 
HETATM   31  C4  UNL     1      -7.552  -2.185  -0.160  1.00  0.00     0.010 A 
HETATM   32  C5  UNL     1      -6.350  -1.922   0.630  1.00  0.00    -0.034 A 
HETATM   33  C6  UNL     1      -5.654  -2.982   1.440  1.00  0.00     0.050 C 
ENDBRANCH  25  27
ENDBRANCH   1  25
TORSDOF 7
