REMARK  3 active torsions:
REMARK  status: ('A' for Active; 'I' for Inactive)
REMARK    1  A    between atoms: C3_3  and  C5_5 
REMARK    2  A    between atoms: C5_5  and  N1_6 
REMARK    3  A    between atoms: N1_6  and  C6_7 
ROOT
HETATM    1  C6  UNL     1       0.973  -0.502  -0.788  1.00  0.00     0.132 C 
HETATM    2  N2  UNL     1       0.409  -0.481   0.414  1.00  0.00    -0.232 NA
HETATM    3  C7  UNL     1      -0.341  -1.711   0.668  1.00  0.00     0.057 C 
HETATM    4  C8  UNL     1      -0.255  -2.556  -0.375  1.00  0.00     0.010 C 
HETATM    5  C9  UNL     1      -0.843  -1.654  -1.436  1.00  0.00     0.073 C 
HETATM    6  C10 UNL     1      -0.462  -0.218  -1.102  1.00  0.00     0.009 C 
HETATM    7  C11 UNL     1      -1.172   0.910  -1.129  1.00  0.00     0.127 C 
HETATM    8  N3  UNL     1      -2.561   0.646  -1.484  1.00  0.00    -0.274 NA
HETATM    9  C12 UNL     1      -3.421   0.570  -0.475  1.00  0.00     0.127 C 
HETATM   10  C13 UNL     1      -4.692   0.405   0.284  1.00  0.00     0.228 C 
HETATM   11  F1  UNL     1      -5.761   0.304  -0.651  1.00  0.00    -0.242 F 
HETATM   12  C14 UNL     1      -4.740  -0.853   1.088  1.00  0.00     0.162 C 
HETATM   13  N4  UNL     1      -3.674  -1.056   2.025  1.00  0.00    -0.396 N 
HETATM   14  C15 UNL     1      -2.308  -1.309   1.735  1.00  0.00     0.085 C 
HETATM   15  C16 UNL     1      -1.019  -1.508   1.971  1.00  0.00     0.048 C 
HETATM   16  H19 UNL     1      -3.777  -1.042   3.078  1.00  0.00     0.159 HD
ENDROOT
BRANCH   1  17
HETATM   17  N1  UNL     1       2.217  -0.694  -1.380  1.00  0.00    -0.370 N 
HETATM   18  H10 UNL     1       1.918  -0.915  -2.366  1.00  0.00     0.161 HD
BRANCH  17  19
HETATM   19  C5  UNL     1       3.243  -0.505  -0.412  1.00  0.00     0.154 C 
BRANCH  19  20
HETATM   20  C3  UNL     1       3.446   0.882   0.061  1.00  0.00    -0.070 C 
HETATM   21  C2  UNL     1       4.674   1.419  -0.170  1.00  0.00    -0.027 C 
HETATM   22  C1  UNL     1       4.945   2.818   0.296  1.00  0.00     0.036 C 
HETATM   23  C4  UNL     1       2.483   1.760   0.767  1.00  0.00     0.044 C 
ENDBRANCH  19  20
ENDBRANCH  17  19
ENDBRANCH   1  17
TORSDOF 3
