REMARK  5 active torsions:
REMARK  status: ('A' for Active; 'I' for Inactive)
REMARK    1  A    between atoms: N1_2  and  C2_3 
REMARK    2  A    between atoms: N1_2  and  C3_5 
REMARK    3  A    between atoms: C3_5  and  C4_6 
REMARK    4  A    between atoms: C4_6  and  N2_7 
REMARK    5  A    between atoms: N2_7  and  C5_8 
ROOT
HETATM    1  C5  UNL     1       1.907  -0.097   0.414  1.00  0.00     0.200 A 
HETATM    2  C6  UNL     1       1.020   0.457  -0.394  1.00  0.00     0.184 A 
HETATM    3  F1  UNL     1       2.359   0.538  -0.461  1.00  0.00    -0.350 F 
HETATM    4  C7  UNL     1       0.743   1.287  -1.558  1.00  0.00     0.041 C 
HETATM    5  C8  UNL     1      -0.569   1.429  -1.818  1.00  0.00     0.115 C 
HETATM    6  N3  UNL     1      -1.954   1.284  -1.682  1.00  0.00    -0.272 NA
HETATM    7  C9  UNL     1      -2.698   1.891  -0.802  1.00  0.00     0.130 C 
HETATM    8  C10 UNL     1      -4.067   1.439  -1.029  1.00  0.00     0.009 A 
HETATM    9  C11 UNL     1      -4.920   2.237  -1.766  1.00  0.00     0.015 A 
HETATM   10  C12 UNL     1      -6.261   1.957  -2.093  1.00  0.00     0.001 A 
HETATM   11  C13 UNL     1      -6.758   0.756  -1.618  1.00  0.00     0.002 A 
HETATM   12  C14 UNL     1      -5.903  -0.057  -0.871  1.00  0.00     0.032 A 
HETATM   13  C15 UNL     1      -4.586   0.250  -0.568  1.00  0.00     0.059 A 
HETATM   14  N4  UNL     1      -4.079  -0.826   0.217  1.00  0.00    -0.298 N 
HETATM   15  N5  UNL     1      -3.482  -0.865   1.476  1.00  0.00    -0.284 N 
HETATM   16  C16 UNL     1      -2.130  -1.120   1.817  1.00  0.00     0.137 A 
HETATM   17  C17 UNL     1      -1.899  -1.888   2.863  1.00  0.00     0.141 A 
HETATM   18  N6  UNL     1      -0.506  -2.056   3.086  1.00  0.00    -0.344 N 
HETATM   19  C18 UNL     1       0.362  -2.744   4.019  1.00  0.00     0.157 C 
HETATM   20  C19 UNL     1       0.156  -1.320   2.079  1.00  0.00     0.109 A 
HETATM   21  C20 UNL     1       1.298  -0.890   1.505  1.00  0.00     0.087 C 
HETATM   22  N7  UNL     1      -0.873  -0.739   1.291  1.00  0.00    -0.326 N 
HETATM   23  H17 UNL     1      -4.120  -1.809  -0.124  1.00  0.00     0.187 HD
HETATM   24  H18 UNL     1      -4.248  -0.663   2.132  1.00  0.00     0.188 HD
HETATM   25  H24 UNL     1      -1.105  -0.150   0.488  1.00  0.00     0.169 HD
ENDROOT
BRANCH   1  26
HETATM   26  N2  UNL     1       3.342  -0.152   0.538  1.00  0.00    -0.382 N 
HETATM   27  H9  UNL     1       3.800   0.570   1.190  1.00  0.00     0.156 HD
BRANCH  26  28
HETATM   28  C4  UNL     1       4.279  -1.032  -0.059  1.00  0.00     0.137 C 
BRANCH  28  29
HETATM   29  C3  UNL     1       4.495  -0.878  -1.526  1.00  0.00     0.141 C 
BRANCH  29  30
HETATM   30  N1  UNL     1       5.018   0.455  -1.815  1.00  0.00    -0.384 N 
HETATM   31  C1  UNL     1       6.375   0.741  -1.343  1.00  0.00     0.149 C 
BRANCH  30  32
HETATM   32  C2  UNL     1       4.588   1.670  -2.466  1.00  0.00     0.167 C 
HETATM   33  S1  UNL     1       4.318   2.994  -1.523  1.00  0.00    -0.074 SA
ENDBRANCH  30  32
ENDBRANCH  29  30
ENDBRANCH  28  29
ENDBRANCH  26  28
ENDBRANCH   1  26
TORSDOF 5
