REMARK  7 active torsions:
REMARK  status: ('A' for Active; 'I' for Inactive)
REMARK    1  A    between atoms: C7_7  and  N1_8 
REMARK    2  A    between atoms: N1_8  and  C8_9 
REMARK    3  A    between atoms: C11_13  and  N3_14 
REMARK    4  A    between atoms: N3_14  and  C12_15 
REMARK       I    between atoms: N3_14  and  C13_17 
REMARK    5  A    between atoms: C13_17  and  C14_19 
REMARK    6  A    between atoms: C15_20  and  C16_21 
REMARK    7  A    between atoms: C16_21  and  N4_22 
ROOT
HETATM    1  C8  UNL     1       3.541   1.170   0.132  1.00  0.00     0.122 A 
HETATM    2  N2  UNL     1       2.620   0.330  -0.248  1.00  0.00    -0.232 NA
HETATM    3  C9  UNL     1       1.351   0.420   0.407  1.00  0.00     0.083 A 
HETATM    4  C10 UNL     1       0.239  -0.254   0.272  1.00  0.00     0.036 A 
HETATM    5  C11 UNL     1      -0.837   0.233   1.214  1.00  0.00     0.140 A 
HETATM    6  C19 UNL     1      -0.128   1.322   1.924  1.00  0.00     0.034 A 
HETATM    7  C20 UNL     1       1.105   1.413   1.455  1.00  0.00     0.055 A 
HETATM    8  N5  UNL     1       2.203   2.252   1.751  1.00  0.00    -0.381 N 
HETATM    9  C21 UNL     1       3.525   2.241   1.156  1.00  0.00     0.198 A 
HETATM   10  H24 UNL     1       2.078   2.982   2.485  1.00  0.00     0.160 HD
ENDROOT
BRANCH   5  11
HETATM   11  N3  UNL     1      -1.925   0.830   0.423  1.00  0.00    -0.311 N 
HETATM   12  C13 UNL     1      -3.250   0.329   0.536  1.00  0.00     0.245 C 
HETATM   13  O1  UNL     1      -3.167  -0.595   1.375  1.00  0.00    -0.268 OA
BRANCH  11  14
HETATM   14  C12 UNL     1      -1.608   1.951  -0.461  1.00  0.00     0.351 C 
HETATM   15  F1  UNL     1      -1.275   1.545  -1.729  1.00  0.00    -0.234 F 
ENDBRANCH  11  14
BRANCH  12  16
HETATM   16  C14 UNL     1      -4.318   0.912  -0.247  1.00  0.00     0.072 C 
HETATM   17  C15 UNL     1      -5.583   0.554  -0.256  1.00  0.00     0.008 C 
BRANCH  17  18
HETATM   18  C16 UNL     1      -6.229  -0.543   0.542  1.00  0.00     0.299 C 
BRANCH  18  19
HETATM   19  N4  UNL     1      -6.820  -1.536  -0.298  1.00  0.00     0.083 N 
HETATM   20  C17 UNL     1      -7.458  -2.585   0.452  1.00  0.00     0.309 C 
HETATM   21  C18 UNL     1      -7.678  -1.021  -1.332  1.00  0.00     0.309 C 
ENDBRANCH  18  19
ENDBRANCH  17  18
ENDBRANCH  12  16
ENDBRANCH   5  11
BRANCH   1  22
HETATM   22  N1  UNL     1       4.746   0.965  -0.608  1.00  0.00    -0.343 N 
HETATM   23  H8  UNL     1       5.295   1.786  -1.008  1.00  0.00     0.167 HD
BRANCH  22  24
HETATM   24  C7  UNL     1       5.354  -0.317  -0.893  1.00  0.00     0.039 A 
HETATM   25  C2  UNL     1       6.472  -0.529  -0.090  1.00  0.00    -0.035 A 
HETATM   26  C1  UNL     1       6.984   0.456   0.922  1.00  0.00     0.050 C 
HETATM   27  C3  UNL     1       7.223  -1.696  -0.173  1.00  0.00     0.009 A 
HETATM   28  C4  UNL     1       6.811  -2.654  -1.097  1.00  0.00     0.001 A 
HETATM   29  C5  UNL     1       5.708  -2.423  -1.877  1.00  0.00     0.002 A 
HETATM   30  C6  UNL     1       4.953  -1.265  -1.802  1.00  0.00     0.030 A 
ENDBRANCH  22  24
ENDBRANCH   1  22
TORSDOF 7
