REMARK  8 active torsions:
REMARK  status: ('A' for Active; 'I' for Inactive)
REMARK    1  A    between atoms: C3_3  and  C4_4 
REMARK    2  A    between atoms: C4_4  and  C5_5 
REMARK    3  A    between atoms: C6_7  and  N1_8 
REMARK       I    between atoms: N1_8  and  C8_10 
REMARK    4  A    between atoms: C8_10  and  C9_12 
REMARK    5  A    between atoms: C10_13  and  C11_14 
REMARK    6  A    between atoms: C11_14  and  N2_15 
REMARK    7  A    between atoms: C14_19  and  N4_20 
REMARK    8  A    between atoms: N4_20  and  C15_21 
ROOT
HETATM    1  C1  UNL     1      -1.795  -1.033  -4.569  1.00  0.00     0.066 C 
HETATM    2  C2  UNL     1      -2.233  -0.426  -3.509  1.00  0.00     0.047 A 
HETATM    3  C3  UNL     1      -1.384  -0.262  -2.440  1.00  0.00     0.085 A 
HETATM    4  N3  UNL     1      -1.891   0.374  -1.367  1.00  0.00    -0.227 NA
HETATM    5  C14 UNL     1      -3.162   0.809  -1.380  1.00  0.00     0.157 A 
HETATM    6  C22 UNL     1      -3.988   0.628  -2.468  1.00  0.00     0.104 A 
HETATM    7  C23 UNL     1      -5.301   0.989  -2.686  1.00  0.00     0.151 A 
HETATM    8  N5  UNL     1      -5.567   0.549  -3.926  1.00  0.00    -0.253 NA
HETATM    9  C24 UNL     1      -4.482  -0.056  -4.460  1.00  0.00     0.214 A 
HETATM   10  N6  UNL     1      -3.502  -0.004  -3.548  1.00  0.00    -0.303 N 
ENDROOT
BRANCH   3  11
HETATM   11  C4  UNL     1      -0.133  -0.661  -2.359  1.00  0.00     0.077 C 
BRANCH  11  12
HETATM   12  C5  UNL     1       0.681  -0.434  -1.173  1.00  0.00     0.134 C 
HETATM   13  F1  UNL     1       0.032   0.216  -0.164  1.00  0.00    -0.205 F 
HETATM   14  C6  UNL     1       1.917  -0.772  -0.978  1.00  0.00     0.136 C 
BRANCH  14  15
HETATM   15  N1  UNL     1       3.103  -1.372  -1.443  1.00  0.00    -0.326 N 
HETATM   16  C7  UNL     1       2.722  -1.800  -2.797  1.00  0.00     0.159 C 
HETATM   17  C8  UNL     1       4.453  -1.654  -1.006  1.00  0.00     0.246 C 
HETATM   18  O1  UNL     1       5.155  -2.264  -1.881  1.00  0.00    -0.268 OA
BRANCH  17  19
HETATM   19  C9  UNL     1       4.988  -1.287   0.299  1.00  0.00     0.072 C 
HETATM   20  C10 UNL     1       4.708  -0.697   1.472  1.00  0.00     0.008 C 
BRANCH  20  21
HETATM   21  C11 UNL     1       5.606  -0.506   2.655  1.00  0.00     0.299 C 
BRANCH  21  22
HETATM   22  N2  UNL     1       5.759   0.894   2.968  1.00  0.00     0.083 N 
HETATM   23  C12 UNL     1       6.632   1.015   4.096  1.00  0.00     0.309 C 
HETATM   24  C13 UNL     1       6.191   1.669   1.835  1.00  0.00     0.309 C 
ENDBRANCH  21  22
ENDBRANCH  20  21
ENDBRANCH  17  19
ENDBRANCH  14  15
ENDBRANCH  11  12
ENDBRANCH   3  11
BRANCH   5  25
HETATM   25  N4  UNL     1      -3.695   1.479  -0.244  1.00  0.00    -0.339 N 
HETATM   26  H18 UNL     1      -3.647   2.506  -0.070  1.00  0.00     0.167 HD
BRANCH  25  27
HETATM   27  C15 UNL     1      -4.349   0.685   0.738  1.00  0.00     0.039 A 
HETATM   28  C16 UNL     1      -4.477  -0.682   0.615  1.00  0.00     0.030 A 
HETATM   29  C17 UNL     1      -5.084  -1.554   1.492  1.00  0.00     0.002 A 
HETATM   30  C18 UNL     1      -5.630  -0.962   2.638  1.00  0.00     0.001 A 
HETATM   31  C19 UNL     1      -5.534   0.410   2.823  1.00  0.00     0.009 A 
HETATM   32  C20 UNL     1      -4.899   1.228   1.881  1.00  0.00    -0.035 A 
HETATM   33  C21 UNL     1      -4.818   2.681   2.115  1.00  0.00     0.050 C 
ENDBRANCH  25  27
ENDBRANCH   5  25
TORSDOF 8
