REMARK  1 active torsions:
REMARK  status: ('A' for Active; 'I' for Inactive)
REMARK    1  A    between atoms: C12_14  and  C13_15 
ROOT
HETATM    1  C1  UNL     1       3.697   2.144  -0.743  1.00  0.00     0.012 C 
HETATM    2  C2  UNL     1       2.793   0.996  -0.414  1.00  0.00    -0.032 C 
HETATM    3  C3  UNL     1       3.355  -0.209  -0.723  1.00  0.00     0.036 C 
HETATM    4  C4  UNL     1       2.964  -1.697  -0.601  1.00  0.00     0.001 C 
HETATM    5  C5  UNL     1       2.004  -2.552  -0.129  1.00  0.00     0.009 C 
HETATM    6  C6  UNL     1       0.798  -3.036   0.525  1.00  0.00     0.101 C 
HETATM    7  N1  UNL     1      -0.099  -3.557  -0.637  1.00  0.00    -0.261 NA
HETATM    8  C7  UNL     1      -0.368  -2.199  -1.396  1.00  0.00     0.203 C 
HETATM    9  N2  UNL     1      -1.307  -1.652  -0.860  1.00  0.00    -0.218 NA
HETATM   10  C8  UNL     1      -1.535  -0.392  -0.122  1.00  0.00     0.109 A 
HETATM   11  C9  UNL     1      -0.542   0.625  -0.372  1.00  0.00     0.062 A 
HETATM   12  C10 UNL     1      -1.243   1.462   0.313  1.00  0.00     0.052 A 
HETATM   13  C11 UNL     1      -2.357   1.757   1.038  1.00  0.00     0.266 A 
HETATM   14  C12 UNL     1      -3.399   0.914   1.275  1.00  0.00     0.275 A 
HETATM   15  C14 UNL     1      -2.900  -0.653   0.576  1.00  0.00     0.294 A 
HETATM   16  N3  UNL     1      -2.934   0.315   0.878  1.00  0.00     0.148 N 
HETATM   17  O1  UNL     1      -3.736  -1.161   1.395  1.00  0.00     0.000 OA
HETATM   18  N4  UNL     1       0.633   0.669  -0.985  1.00  0.00    -0.340 N 
HETATM   19  C15 UNL     1       0.758  -0.222  -2.134  1.00  0.00     0.213 C 
HETATM   20  N5  UNL     1      -0.067  -1.210  -2.521  1.00  0.00    -0.213 NA
HETATM   21  C16 UNL     1       1.389   1.707  -0.246  1.00  0.00     0.135 C 
HETATM   22  H9  UNL     1      -0.644  -3.477  -1.556  1.00  0.00     0.130 HD
HETATM   23  H13 UNL     1      -3.356  -1.326   2.344  1.00  0.00     0.000 HD
ENDROOT
BRANCH  14  24
HETATM   24  C13 UNL     1      -4.438   2.002   1.963  1.00  0.00     0.270 C 
HETATM   25  F1  UNL     1      -4.112   2.175   3.266  1.00  0.00    -0.253 F 
ENDBRANCH  14  24
TORSDOF 1
