REMARK  2 active torsions:
REMARK  status: ('A' for Active; 'I' for Inactive)
REMARK    1  A    between atoms: C7_7  and  N1_8 
REMARK    2  A    between atoms: N1_8  and  C8_9 
ROOT
HETATM    1  C8  UNL     1       0.292   0.450   0.463  1.00  0.00     0.157 A 
HETATM    2  N2  UNL     1       1.326   0.658   1.327  1.00  0.00    -0.227 NA
HETATM    3  C9  UNL     1       2.580   0.370   1.038  1.00  0.00     0.086 A 
HETATM    4  C10 UNL     1       3.583   0.601   1.956  1.00  0.00     0.037 A 
HETATM    5  C11 UNL     1       4.882   0.285   1.615  1.00  0.00     0.045 A 
HETATM    6  C12 UNL     1       5.170  -0.254   0.374  1.00  0.00     0.118 A 
HETATM    7  F1  UNL     1       6.437  -0.557   0.055  1.00  0.00    -0.206 F 
HETATM    8  C13 UNL     1       4.151  -0.479  -0.530  1.00  0.00     0.074 A 
HETATM    9  C14 UNL     1       2.850  -0.165  -0.197  1.00  0.00     0.072 A 
HETATM   10  N3  UNL     1       1.887  -0.400  -1.103  1.00  0.00    -0.299 N 
HETATM   11  C15 UNL     1       1.925  -0.901  -2.348  1.00  0.00     0.215 A 
HETATM   12  N4  UNL     1       0.645  -0.906  -2.808  1.00  0.00    -0.253 NA
HETATM   13  C16 UNL     1      -0.133  -0.406  -1.823  1.00  0.00     0.151 A 
HETATM   14  C17 UNL     1       0.636  -0.079  -0.732  1.00  0.00     0.104 A 
ENDROOT
BRANCH   1  15
HETATM   15  N1  UNL     1      -0.978   0.804   0.895  1.00  0.00    -0.339 N 
HETATM   16  H8  UNL     1      -1.108   1.276   1.826  1.00  0.00     0.167 HD
BRANCH  15  17
HETATM   17  C7  UNL     1      -2.320   0.751   0.489  1.00  0.00     0.039 A 
HETATM   18  C2  UNL     1      -2.986  -0.466   0.282  1.00  0.00    -0.035 A 
HETATM   19  C1  UNL     1      -2.261  -1.757   0.480  1.00  0.00     0.050 C 
HETATM   20  C3  UNL     1      -4.306  -0.562  -0.105  1.00  0.00     0.009 A 
HETATM   21  C4  UNL     1      -4.981   0.610  -0.290  1.00  0.00     0.001 A 
HETATM   22  C5  UNL     1      -4.451   1.848  -0.122  1.00  0.00     0.002 A 
HETATM   23  C6  UNL     1      -3.133   1.868   0.263  1.00  0.00     0.030 A 
ENDBRANCH  15  17
ENDBRANCH   1  15
TORSDOF 2
