REMARK  10 active torsions:
REMARK  status: ('A' for Active; 'I' for Inactive)
REMARK    1  A    between atoms: C2_2  and  C3_3 
REMARK    2  A    between atoms: C2_2  and  N2_8 
REMARK    3  A    between atoms: C3_3  and  C4_4 
REMARK    4  A    between atoms: C4_4  and  N1_5 
REMARK    5  A    between atoms: N2_8  and  C8_10 
REMARK    6  A    between atoms: C8_10  and  C9_11 
REMARK    7  A    between atoms: C14_18  and  N5_19 
REMARK    8  A    between atoms: C17_22  and  N6_23 
REMARK    9  A    between atoms: C19_25  and  C20_26 
REMARK   10  A    between atoms: C22_29  and  C23_30 
ROOT
HETATM    1  C9  UNL     1       0.247   0.398  -0.377  1.00  0.00    -0.006 A 
HETATM    2  C10 UNL     1       0.247   1.685  -0.161  1.00  0.00     0.107 A 
HETATM    3  N3  UNL     1       1.310   2.612  -0.224  1.00  0.00    -0.316 N 
HETATM    4  C11 UNL     1       1.420   3.927  -0.022  1.00  0.00     0.213 A 
HETATM    5  N4  UNL     1       2.698   4.290  -0.221  1.00  0.00    -0.254 NA
HETATM    6  C12 UNL     1       3.370   3.190  -0.545  1.00  0.00     0.146 A 
HETATM    7  C13 UNL     1       2.489   2.114  -0.549  1.00  0.00     0.062 A 
HETATM    8  C14 UNL     1       2.795   0.694  -0.856  1.00  0.00     0.174 A 
HETATM    9  C21 UNL     1       1.585  -0.154  -0.720  1.00  0.00    -0.022 A 
HETATM   10  C22 UNL     1       1.740  -1.478  -0.920  1.00  0.00    -0.002 C 
ENDROOT
BRANCH   8  11
HETATM   11  N5  UNL     1       3.896   0.318  -0.022  1.00  0.00    -0.344 N 
HETATM   12  C15 UNL     1       3.610   0.217   1.383  1.00  0.00     0.090 A 
HETATM   13  C16 UNL     1       4.624  -0.110   2.179  1.00  0.00     0.029 A 
HETATM   14  C17 UNL     1       6.031  -0.388   1.802  1.00  0.00     0.266 A 
HETATM   15  C18 UNL     1       6.137  -0.239   0.329  1.00  0.00     0.040 A 
HETATM   16  C19 UNL     1       5.197   0.080  -0.543  1.00  0.00     0.039 A 
BRANCH  14  17
HETATM   17  N6  UNL     1       6.445  -1.711   2.209  1.00  0.00     0.090 N 
HETATM   18  H27 UNL     1       6.864  -2.216   1.417  1.00  0.00     0.314 HD
HETATM   19  H28 UNL     1       7.020  -1.711   3.069  1.00  0.00     0.314 HD
ENDBRANCH  14  17
BRANCH  16  20
HETATM   20  C20 UNL     1       5.496   0.190  -1.975  1.00  0.00     0.279 C 
HETATM   21  F1  UNL     1       5.245   1.446  -2.503  1.00  0.00    -0.249 F 
ENDBRANCH  16  20
ENDBRANCH   8  11
BRANCH   1  22
HETATM   22  C8  UNL     1      -0.849  -0.584  -0.320  1.00  0.00     0.313 C 
BRANCH  22  23
HETATM   23  N2  UNL     1      -2.145  -0.003   0.005  1.00  0.00     0.092 N 
HETATM   24  C7  UNL     1      -2.563   0.920  -1.038  1.00  0.00     0.310 C 
BRANCH  23  25
HETATM   25  C2  UNL     1      -3.130  -1.052   0.196  1.00  0.00     0.220 C 
HETATM   26  C1  UNL     1      -3.489  -1.830  -1.018  1.00  0.00     0.043 C 
BRANCH  25  27
HETATM   27  C3  UNL     1      -4.304  -0.692   1.023  1.00  0.00     0.065 C 
BRANCH  27  28
HETATM   28  C4  UNL     1      -5.366   0.129   0.396  1.00  0.00     0.273 C 
BRANCH  28  29
HETATM   29  N1  UNL     1      -6.421   0.356   1.405  1.00  0.00     0.080 N 
HETATM   30  C5  UNL     1      -7.443   1.216   0.779  1.00  0.00     0.309 C 
HETATM   31  C6  UNL     1      -7.131  -0.892   1.676  1.00  0.00     0.309 C 
ENDBRANCH  28  29
ENDBRANCH  27  28
ENDBRANCH  25  27
ENDBRANCH  23  25
ENDBRANCH  22  23
ENDBRANCH   1  22
BRANCH  10  32
HETATM   32  C23 UNL     1       2.680  -2.539  -1.247  1.00  0.00     0.142 C 
HETATM   33 CL1  UNL     1       2.191  -3.401  -2.727  1.00  0.00    -0.126 Cl
ENDBRANCH  10  32
TORSDOF 10
