REMARK  7 active torsions:
REMARK  status: ('A' for Active; 'I' for Inactive)
REMARK    1  A    between atoms: C4_6  and  C5_7 
REMARK    2  A    between atoms: C9_11  and  C10_12 
REMARK    3  A    between atoms: C10_12  and  N3_16 
REMARK    4  A    between atoms: N3_16  and  C14_18 
REMARK    5  A    between atoms: C15_20  and  C16_21 
REMARK    6  A    between atoms: C16_21  and  C17_22 
REMARK    7  A    between atoms: C17_22  and  N4_23 
ROOT
HETATM    1  C5  UNL     1      -2.227  -0.790   0.363  1.00  0.00     0.044 A 
HETATM    2  C6  UNL     1      -3.101  -1.451   1.106  1.00  0.00     0.027 A 
HETATM    3  C7  UNL     1      -2.676  -2.442   2.083  1.00  0.00     0.000 A 
HETATM    4  C8  UNL     1      -1.365  -2.604   2.143  1.00  0.00     0.004 A 
HETATM    5  C9  UNL     1      -0.265  -1.973   1.407  1.00  0.00     0.158 A 
HETATM    6  N5  UNL     1      -0.824  -0.986   0.474  1.00  0.00    -0.378 N 
HETATM    7  H27 UNL     1      -0.198  -0.411  -0.127  1.00  0.00     0.160 HD
ENDROOT
BRANCH   5   8
HETATM    8  C10 UNL     1       0.513  -2.994   0.673  1.00  0.00     0.074 C 
HETATM    9  C11 UNL     1       0.105  -4.186   0.279  1.00  0.00     0.115 C 
HETATM   10  C12 UNL     1      -1.203  -4.828   0.445  1.00  0.00     0.084 C 
HETATM   11  F1  UNL     1       0.932  -5.030  -0.377  1.00  0.00    -0.209 F 
BRANCH   8  12
HETATM   12  N3  UNL     1       1.847  -2.599   0.322  1.00  0.00    -0.333 N 
HETATM   13  C13 UNL     1       2.987  -3.095  -0.376  1.00  0.00     0.158 C 
BRANCH  12  14
HETATM   14  C14 UNL     1       2.267  -1.293   0.770  1.00  0.00     0.151 A 
HETATM   15  O1  UNL     1       2.186  -0.172   1.330  1.00  0.00    -0.323 OA
HETATM   16  C15 UNL     1       3.516  -0.588   0.608  1.00  0.00     0.211 A 
BRANCH  16  17
HETATM   17  C16 UNL     1       3.801   0.601   1.054  1.00  0.00     0.060 C 
BRANCH  17  18
HETATM   18  C17 UNL     1       5.125   1.187   0.807  1.00  0.00     0.279 C 
BRANCH  18  19
HETATM   19  N4  UNL     1       4.965   2.415   0.063  1.00  0.00     0.080 N 
HETATM   20  C18 UNL     1       4.499   2.229  -1.276  1.00  0.00     0.309 C 
HETATM   21  C19 UNL     1       6.097   3.298   0.168  1.00  0.00     0.309 C 
ENDBRANCH  18  19
ENDBRANCH  17  18
ENDBRANCH  16  17
ENDBRANCH  12  14
ENDBRANCH   8  12
ENDBRANCH   5   8
BRANCH   1  22
HETATM   22  C4  UNL     1      -2.760   0.207  -0.613  1.00  0.00     0.315 C 
HETATM   23  N2  UNL     1      -2.331   1.542  -0.365  1.00  0.00     0.134 N 
HETATM   24  C3  UNL     1      -1.967   2.144  -1.650  1.00  0.00     0.423 C 
HETATM   25  C22 UNL     1      -3.333   2.455   0.092  1.00  0.00     0.292 C 
HETATM   26  N1  UNL     1      -3.178   2.736  -2.146  1.00  0.00    -0.267 NA
HETATM   27  C2  UNL     1      -3.995   2.932  -1.173  1.00  0.00     0.040 C 
HETATM   28  C1  UNL     1      -5.350   3.510  -1.189  1.00  0.00     0.067 C 
HETATM   29  C21 UNL     1      -4.393   1.778   0.906  1.00  0.00     0.190 C 
HETATM   30  N6  UNL     1      -5.061   0.856  -0.004  1.00  0.00    -0.301 NA
HETATM   31  C20 UNL     1      -4.238   0.138  -0.698  1.00  0.00     0.125 C 
ENDBRANCH   1  22
TORSDOF 7
