REMARK  5 active torsions:
REMARK  status: ('A' for Active; 'I' for Inactive)
REMARK    1  A    between atoms: C8_8  and  N1_9 
REMARK       I    between atoms: N1_9  and  C10_11 
REMARK    2  A    between atoms: C10_11  and  C11_13 
REMARK    3  A    between atoms: C12_14  and  C13_15 
REMARK    4  A    between atoms: C13_15  and  N2_16 
REMARK    5  A    between atoms: C19_23  and  N3_24 
ROOT
HETATM    1  C1  UNL     1      -6.879   0.611   0.906  1.00  0.00     0.011 C 
HETATM    2  C2  UNL     1      -5.664   0.791   0.122  1.00  0.00    -0.005 C 
HETATM    3  C3  UNL     1      -4.363   0.997   0.810  1.00  0.00     0.006 A 
HETATM    4  C4  UNL     1      -4.709   0.932   2.151  1.00  0.00     0.007 A 
HETATM    5  C5  UNL     1      -4.036   0.117   1.402  1.00  0.00    -0.011 A 
HETATM    6  C6  UNL     1      -2.461  -0.267   1.396  1.00  0.00     0.015 A 
HETATM    7  C7  UNL     1      -1.235  -0.371   0.724  1.00  0.00     0.019 C 
HETATM    8  C8  UNL     1      -0.655  -0.082  -0.711  1.00  0.00     0.072 C 
HETATM    9  C16 UNL     1      -1.406   0.156  -1.819  1.00  0.00     0.142 C 
HETATM   10  F1  UNL     1      -0.542   0.332  -2.695  1.00  0.00    -0.204 F 
HETATM   11  C17 UNL     1      -2.911   0.199  -1.971  1.00  0.00     0.041 C 
HETATM   12  C18 UNL     1      -4.068  -0.007  -1.257  1.00  0.00    -0.018 C 
HETATM   13  C19 UNL     1      -4.876  -0.367  -0.005  1.00  0.00     0.023 C 
HETATM   14  N3  UNL     1      -3.606  -0.397   0.945  1.00  0.00     0.000 N 
HETATM   15  H24 UNL     1      -3.361  -1.577   0.907  1.00  0.00     0.000 HD
ENDROOT
BRANCH   8  16
HETATM   16  N1  UNL     1       0.619  -0.295  -0.421  1.00  0.00    -0.316 N 
HETATM   17  C9  UNL     1       1.240  -0.644  -1.648  1.00  0.00     0.159 C 
HETATM   18  C10 UNL     1       1.472  -0.373   0.695  1.00  0.00     0.247 C 
HETATM   19  O1  UNL     1       0.969  -0.217   1.862  1.00  0.00    -0.268 OA
BRANCH  18  20
HETATM   20  C11 UNL     1       2.881  -0.619   0.571  1.00  0.00     0.072 C 
HETATM   21  C12 UNL     1       4.075  -0.850  -0.022  1.00  0.00    -0.002 C 
BRANCH  21  22
HETATM   22  C13 UNL     1       5.432  -1.055   0.536  1.00  0.00     0.143 C 
BRANCH  22  23
HETATM   23  N2  UNL     1       6.384  -0.104   0.119  1.00  0.00    -0.418 N 
HETATM   24  C14 UNL     1       7.691  -0.258   0.654  1.00  0.00     0.142 C 
HETATM   25  C15 UNL     1       5.928   1.240   0.004  1.00  0.00     0.142 C 
ENDBRANCH  22  23
ENDBRANCH  21  22
ENDBRANCH  18  20
ENDBRANCH   8  16
TORSDOF 5
