REMARK  7 active torsions:
REMARK  status: ('A' for Active; 'I' for Inactive)
REMARK    1  A    between atoms: C7_7  and  N1_8 
REMARK    2  A    between atoms: N1_8  and  C8_9 
REMARK    3  A    between atoms: C8_9  and  N2_10 
REMARK    4  A    between atoms: N2_10  and  C10_12 
REMARK    5  A    between atoms: C10_12  and  C11_13 
REMARK    6  A    between atoms: C12_14  and  C13_15 
REMARK       I    between atoms: C13_15  and  N3_17 
REMARK    7  A    between atoms: N3_17  and  C15_19 
ROOT
HETATM    1  C13 UNL     1       0.900  -2.409   1.355  1.00  0.00     0.247 C 
HETATM    2  O1  UNL     1       0.070  -3.147   1.894  1.00  0.00    -0.268 OA
HETATM    3  N3  UNL     1       2.253  -2.838   1.517  1.00  0.00    -0.316 N 
HETATM    4  C14 UNL     1       2.666  -4.019   2.242  1.00  0.00     0.159 C 
ENDROOT
BRANCH   1   5
HETATM    5  C12 UNL     1       0.635  -1.191   0.600  1.00  0.00     0.072 C 
HETATM    6  C11 UNL     1      -0.570  -0.694   0.381  1.00  0.00     0.008 C 
BRANCH   6   7
HETATM    7  C10 UNL     1      -1.920  -1.146   0.778  1.00  0.00     0.301 C 
BRANCH   7   8
HETATM    8  N2  UNL     1      -2.732  -1.402  -0.373  1.00  0.00     0.104 N 
HETATM    9  C9  UNL     1      -3.924  -2.158   0.010  1.00  0.00     0.312 C 
BRANCH   8  10
HETATM   10  C8  UNL     1      -3.078  -0.222  -1.117  1.00  0.00     0.395 C 
BRANCH  10  11
HETATM   11  N1  UNL     1      -3.899   0.704  -0.329  1.00  0.00    -0.365 N 
HETATM   12  H8  UNL     1      -4.205   0.517   0.656  1.00  0.00     0.161 HD
BRANCH  11  13
HETATM   13  C7  UNL     1      -4.325   1.947  -0.914  1.00  0.00     0.035 A 
HETATM   14  C2  UNL     1      -5.096   2.864  -0.236  1.00  0.00    -0.036 A 
HETATM   15  C1  UNL     1      -5.471   2.501   1.143  1.00  0.00     0.050 C 
HETATM   16  C3  UNL     1      -5.478   4.044  -0.842  1.00  0.00     0.009 A 
HETATM   17  C4  UNL     1      -5.078   4.297  -2.138  1.00  0.00     0.001 A 
HETATM   18  C5  UNL     1      -4.294   3.403  -2.877  1.00  0.00     0.002 A 
HETATM   19  C6  UNL     1      -3.938   2.238  -2.228  1.00  0.00     0.029 A 
ENDBRANCH  11  13
ENDBRANCH  10  11
ENDBRANCH   8  10
ENDBRANCH   7   8
ENDBRANCH   6   7
ENDBRANCH   1   5
BRANCH   3  20
HETATM   20  C15 UNL     1       3.326  -2.070   0.932  1.00  0.00     0.078 A 
HETATM   21  C16 UNL     1       4.000  -1.036   1.547  1.00  0.00     0.064 A 
HETATM   22  C17 UNL     1       5.009  -0.394   0.849  1.00  0.00     0.063 A 
HETATM   23  C18 UNL     1       5.356  -0.756  -0.436  1.00  0.00     0.086 A 
HETATM   24  N5  UNL     1       5.572   0.642   1.670  1.00  0.00    -0.364 N 
HETATM   25  C19 UNL     1       4.650  -1.807  -1.026  1.00  0.00     0.078 A 
HETATM   26  N4  UNL     1       6.363  -0.179  -1.250  1.00  0.00    -0.259 NA
HETATM   27  C20 UNL     1       3.637  -2.475  -0.364  1.00  0.00     0.145 A 
HETATM   28  F1  UNL     1       3.003  -3.487  -1.015  1.00  0.00    -0.204 F 
HETATM   29  C21 UNL     1       7.000   0.926  -1.038  1.00  0.00     0.118 C 
HETATM   30  C22 UNL     1       6.931   1.918   0.033  1.00  0.00     0.036 C 
HETATM   31  C23 UNL     1       6.305   1.786   1.212  1.00  0.00     0.090 C 
HETATM   32  H26 UNL     1       5.414   0.517   2.676  1.00  0.00     0.165 HD
ENDBRANCH   3  20
TORSDOF 7
