REMARK  1 active torsions:
REMARK  status: ('A' for Active; 'I' for Inactive)
REMARK    1  A    between atoms: C3_3  and  N1_5 
ROOT
HETATM    1  N1  UNL     1      -2.144  -1.044  -1.655  1.00  0.00    -0.361 N 
HETATM    2  C4  UNL     1      -3.361  -0.327  -1.566  1.00  0.00     0.128 C 
HETATM    3  C5  UNL     1      -3.489   1.138  -1.492  1.00  0.00     0.047 C 
HETATM    4  C6  UNL     1      -2.792   1.877  -0.473  1.00  0.00    -0.029 C 
HETATM    5  C7  UNL     1      -1.982   2.040   0.500  1.00  0.00    -0.029 C 
HETATM    6  C8  UNL     1      -1.656   3.252   1.252  1.00  0.00     0.003 C 
HETATM    7  C9  UNL     1      -1.036   3.946   2.156  1.00  0.00     0.053 C 
HETATM    8  C10 UNL     1       0.019   3.551   3.163  1.00  0.00     0.004 C 
HETATM    9  C11 UNL     1       0.848   2.710   3.785  1.00  0.00     0.139 C 
HETATM   10  O2  UNL     1       1.726   1.703   4.407  1.00  0.00    -0.323 OA
HETATM   11  C12 UNL     1       1.841   0.614   3.455  1.00  0.00     0.074 A 
HETATM   12  C13 UNL     1       1.999   1.156   2.172  1.00  0.00     0.038 A 
HETATM   13  C14 UNL     1       2.158   1.053   0.820  1.00  0.00     0.016 A 
HETATM   14  C15 UNL     1       2.137  -0.354   0.838  1.00  0.00    -0.004 A 
HETATM   15  C16 UNL     1       1.996  -1.075   1.992  1.00  0.00     0.016 A 
HETATM   16  C17 UNL     1       1.845  -0.752   3.312  1.00  0.00     0.038 A 
HETATM   17  C18 UNL     1       2.193  -0.877  -0.501  1.00  0.00     0.103 A 
HETATM   18  N2  UNL     1       1.030  -0.527  -1.053  1.00  0.00    -0.169 NA
HETATM   19  N3  UNL     1       0.936  -0.940  -2.285  1.00  0.00    -0.249 N 
HETATM   20  C19 UNL     1       2.113  -1.598  -2.549  1.00  0.00     0.161 A 
HETATM   21  N4  UNL     1       2.686  -2.264  -3.600  1.00  0.00    -0.222 NA
HETATM   22  C20 UNL     1       3.924  -2.807  -3.471  1.00  0.00     0.235 A 
HETATM   23  N5  UNL     1       4.657  -2.731  -2.329  1.00  0.00    -0.253 NA
HETATM   24  C21 UNL     1       4.173  -2.093  -1.234  1.00  0.00     0.135 A 
HETATM   25  C22 UNL     1       2.924  -1.572  -1.438  1.00  0.00     0.060 A 
HETATM   26  C23 UNL     1      -0.192  -0.760  -3.214  1.00  0.00     0.173 C 
HETATM   27  C24 UNL     1      -1.400  -1.499  -2.796  1.00  0.00     0.146 C 
ENDROOT
BRANCH   1  28
HETATM   28  C3  UNL     1      -1.638  -1.477  -0.390  1.00  0.00     0.147 A 
HETATM   29  C2  UNL     1      -1.210  -1.870   0.927  1.00  0.00     0.204 A 
HETATM   30  C1  UNL     1      -1.912  -1.565   1.991  1.00  0.00     0.044 C 
HETATM   31  O1  UNL     1      -2.462  -1.094   0.481  1.00  0.00    -0.323 OA
ENDBRANCH   1  28
TORSDOF 1
