REMARK  9 active torsions:
REMARK  status: ('A' for Active; 'I' for Inactive)
REMARK    1  A    between atoms: C2_2  and  C3_3 
REMARK    2  A    between atoms: C3_3  and  C4_4 
REMARK    3  A    between atoms: C4_4  and  C5_5 
REMARK    4  A    between atoms: C12_14  and  C13_16 
REMARK    5  A    between atoms: C13_16  and  C15_18 
REMARK    6  A    between atoms: C15_18  and  C16_20 
REMARK    7  A    between atoms: C16_20  and  C17_21 
REMARK    8  A    between atoms: C17_21  and  C18_22 
REMARK    9  A    between atoms: C18_22  and  N3_23 
ROOT
HETATM    1  C5  UNL     1      -3.221   1.975   1.976  1.00  0.00     0.109 A 
HETATM    2  N1  UNL     1      -4.523   1.596   1.848  1.00  0.00    -0.245 NA
HETATM    3  C6  UNL     1      -4.435   0.242   2.031  1.00  0.00     0.143 A 
HETATM    4  C7  UNL     1      -3.081  -0.164   2.261  1.00  0.00     0.030 A 
HETATM    5  N2  UNL     1      -2.311   0.940   2.227  1.00  0.00    -0.337 N 
HETATM    6  C8  UNL     1      -0.971   1.408   2.324  1.00  0.00     0.130 C 
HETATM    7  C9  UNL     1      -0.064   1.002   1.156  1.00  0.00     0.025 C 
HETATM    8  C10 UNL     1       0.468  -0.381   1.226  1.00  0.00     0.038 C 
HETATM    9  C11 UNL     1       0.722  -1.094  -0.044  1.00  0.00    -0.045 C 
HETATM   10  C12 UNL     1       1.916  -0.927  -0.673  1.00  0.00     0.107 C 
HETATM   11  F1  UNL     1       2.365  -1.484  -1.850  1.00  0.00    -0.210 F 
HETATM   12  C19 UNL     1      -0.006  -2.114  -0.824  1.00  0.00     0.037 C 
HETATM   13  C20 UNL     1      -1.510  -2.008  -0.920  1.00  0.00     0.004 C 
HETATM   14  C21 UNL     1      -1.935  -1.920   0.476  1.00  0.00     0.001 C 
HETATM   15  C22 UNL     1      -3.315  -2.210   0.977  1.00  0.00     0.006 C 
HETATM   16  C23 UNL     1      -3.164  -1.642   2.439  1.00  0.00     0.059 C 
ENDROOT
BRANCH  10  17
HETATM   17  C13 UNL     1       3.187  -0.169  -0.320  1.00  0.00     0.118 C 
HETATM   18  C14 UNL     1       3.570   0.838  -1.346  1.00  0.00     0.025 C 
BRANCH  17  19
HETATM   19  C15 UNL     1       4.295  -1.190  -0.202  1.00  0.00     0.159 C 
HETATM   20  O1  UNL     1       4.999  -1.850   0.615  1.00  0.00    -0.292 OA
BRANCH  19  21
HETATM   21  C16 UNL     1       4.726  -1.565  -1.528  1.00  0.00     0.048 C 
BRANCH  21  22
HETATM   22  C17 UNL     1       5.462  -2.272  -2.413  1.00  0.00    -0.004 C 
BRANCH  22  23
HETATM   23  C18 UNL     1       6.104  -2.871  -3.565  1.00  0.00     0.138 C 
BRANCH  23  24
HETATM   24  N3  UNL     1       7.544  -2.685  -3.575  1.00  0.00    -0.427 N 
HETATM   25  H23 UNL     1       8.088  -3.520  -3.382  1.00  0.00     0.150 HD
HETATM   26  H24 UNL     1       7.858  -2.089  -4.341  1.00  0.00     0.150 HD
ENDBRANCH  23  24
ENDBRANCH  22  23
ENDBRANCH  21  22
ENDBRANCH  19  21
ENDBRANCH  17  19
ENDBRANCH  10  17
BRANCH   1  27
HETATM   27  C4  UNL     1      -3.168   3.493   1.799  1.00  0.00     0.105 C 
BRANCH  27  28
HETATM   28  C3  UNL     1      -2.959   3.747   0.337  1.00  0.00    -0.024 C 
BRANCH  28  29
HETATM   29  C2  UNL     1      -3.962   4.341  -0.278  1.00  0.00    -0.035 C 
HETATM   30  C1  UNL     1      -5.215   4.984  -0.627  1.00  0.00     0.036 C 
ENDBRANCH  28  29
ENDBRANCH  27  28
ENDBRANCH   1  27
TORSDOF 9
