REMARK  8 active torsions:
REMARK  status: ('A' for Active; 'I' for Inactive)
REMARK    1  A    between atoms: N1_2  and  C3_5 
REMARK    2  A    between atoms: C3_5  and  C4_6 
REMARK    3  A    between atoms: C5_7  and  N2_8 
REMARK    4  A    between atoms: N2_8  and  C6_9 
REMARK    5  A    between atoms: C6_9  and  C7_10 
REMARK    6  A    between atoms: C12_15  and  N3_16 
REMARK    7  A    between atoms: N3_16  and  C13_17 
REMARK    8  A    between atoms: C14_19  and  C15_20 
ROOT
HETATM    1  C1  UNL     1       4.627  -0.974  -2.136  1.00  0.00     0.151 C 
HETATM    2  N1  UNL     1       4.663   0.073  -1.140  1.00  0.00    -0.371 N 
HETATM    3  C2  UNL     1       5.726  -0.231  -0.260  1.00  0.00     0.471 C 
HETATM    4  O1  UNL     1       6.688  -0.585   0.466  1.00  0.00    -0.392 OA
ENDROOT
BRANCH   2   5
HETATM    5  C3  UNL     1       3.929   1.269  -0.850  1.00  0.00     0.152 C 
BRANCH   5   6
HETATM    6  C4  UNL     1       2.790   0.996   0.051  1.00  0.00     0.009 C 
HETATM    7  C5  UNL     1       1.499   0.999   0.313  1.00  0.00     0.080 C 
BRANCH   7   8
HETATM    8  N2  UNL     1       0.744   0.587   1.467  1.00  0.00    -0.395 N 
HETATM    9  H9  UNL     1       0.247   1.338   2.004  1.00  0.00     0.159 HD
BRANCH   8  10
HETATM   10  C6  UNL     1       0.946  -0.826   1.490  1.00  0.00     0.160 C 
BRANCH  10  11
HETATM   11  C7  UNL     1       0.471  -1.551   0.303  1.00  0.00    -0.014 A 
HETATM   12  C8  UNL     1       1.297  -2.026  -0.700  1.00  0.00     0.011 A 
HETATM   13  C9  UNL     1       0.707  -2.691  -1.754  1.00  0.00     0.001 A 
HETATM   14  C10 UNL     1      -0.630  -2.911  -1.873  1.00  0.00     0.002 A 
HETATM   15  C11 UNL     1      -1.461  -2.428  -0.855  1.00  0.00     0.030 A 
HETATM   16  C12 UNL     1      -0.890  -1.749   0.227  1.00  0.00     0.041 A 
BRANCH  16  17
HETATM   17  N3  UNL     1      -1.906  -1.344   1.136  1.00  0.00    -0.339 N 
HETATM   18  H16 UNL     1      -2.098  -1.998   1.951  1.00  0.00     0.167 HD
BRANCH  17  19
HETATM   19  C13 UNL     1      -2.647  -0.149   1.009  1.00  0.00     0.154 A 
HETATM   20  N4  UNL     1      -2.246   0.894   0.408  1.00  0.00    -0.242 NA
HETATM   21  C14 UNL     1      -3.267   1.944   0.470  1.00  0.00     0.245 A 
HETATM   22  N5  UNL     1      -4.354   1.365   1.197  1.00  0.00    -0.311 N 
HETATM   23  C16 UNL     1      -5.582   1.572   1.680  1.00  0.00     0.211 A 
HETATM   24  C18 UNL     1      -4.005   0.093   1.542  1.00  0.00     0.101 A 
HETATM   25  N6  UNL     1      -5.983   0.452   2.309  1.00  0.00    -0.253 NA
HETATM   26  C17 UNL     1      -5.017  -0.495   2.242  1.00  0.00     0.151 A 
BRANCH  21  27
HETATM   27  C15 UNL     1      -3.669   2.370  -0.909  1.00  0.00     0.271 C 
HETATM   28  F1  UNL     1      -4.180   1.329  -1.618  1.00  0.00    -0.251 F 
ENDBRANCH  21  27
ENDBRANCH  17  19
ENDBRANCH  16  17
ENDBRANCH  10  11
ENDBRANCH   8  10
ENDBRANCH   7   8
ENDBRANCH   5   6
ENDBRANCH   2   5
TORSDOF 8
