REMARK  8 active torsions:
REMARK  status: ('A' for Active; 'I' for Inactive)
REMARK    1  A    between atoms: C2_2  and  N5_22 
REMARK    2  A    between atoms: C3_3  and  C4_5 
REMARK    3  A    between atoms: C9_12  and  N3_13 
REMARK    4  A    between atoms: N3_13  and  C10_14 
REMARK    5  A    between atoms: N5_22  and  C18_24 
REMARK    6  A    between atoms: C19_26  and  C20_27 
REMARK    7  A    between atoms: C20_27  and  C21_28 
REMARK    8  A    between atoms: C21_28  and  N6_29 
ROOT
HETATM    1  C4  UNL     1      -1.292   0.247  -0.186  1.00  0.00     0.096 C 
HETATM    2  C5  UNL     1      -1.891   0.622   0.954  1.00  0.00     0.157 C 
HETATM    3  N1  UNL     1      -1.043   1.133   1.974  1.00  0.00    -0.206 NA
HETATM    4  C6  UNL     1      -1.106   2.096   2.818  1.00  0.00     0.199 C 
HETATM    5  N2  UNL     1      -2.018   3.007   2.745  1.00  0.00    -0.238 NA
HETATM    6  C7  UNL     1      -3.443   2.965   2.986  1.00  0.00     0.123 C 
HETATM    7  C8  UNL     1      -4.374   2.149   2.484  1.00  0.00     0.070 C 
HETATM    8  C9  UNL     1      -4.287   1.035   1.539  1.00  0.00     0.131 C 
HETATM    9  N4  UNL     1      -3.298   0.436   0.936  1.00  0.00    -0.212 NA
ENDROOT
BRANCH   1  10
HETATM   10  C3  UNL     1       0.140   0.329  -0.443  1.00  0.00     0.142 C 
HETATM   11  C2  UNL     1       0.740   1.483  -0.460  1.00  0.00     0.048 C 
HETATM   12  C1  UNL     1       0.126   2.823  -0.267  1.00  0.00     0.071 C 
HETATM   13  F1  UNL     1       0.504  -0.989  -0.596  1.00  0.00    -0.204 F 
BRANCH  11  14
HETATM   14  N5  UNL     1       2.136   1.594  -0.682  1.00  0.00    -0.335 N 
HETATM   15  C17 UNL     1       2.970   2.772  -0.736  1.00  0.00     0.158 C 
BRANCH  14  16
HETATM   16  C18 UNL     1       2.649   0.299  -0.856  1.00  0.00     0.151 A 
HETATM   17  O1  UNL     1       3.026  -0.875  -0.999  1.00  0.00    -0.323 OA
HETATM   18  C19 UNL     1       4.074   0.203  -1.099  1.00  0.00     0.211 A 
BRANCH  18  19
HETATM   19  C20 UNL     1       5.077  -0.606  -1.320  1.00  0.00     0.060 C 
BRANCH  19  20
HETATM   20  C21 UNL     1       6.508  -0.834  -1.574  1.00  0.00     0.279 C 
BRANCH  20  21
HETATM   21  N6  UNL     1       7.127  -1.651  -0.549  1.00  0.00     0.080 N 
HETATM   22  C22 UNL     1       6.655  -2.997  -0.544  1.00  0.00     0.309 C 
HETATM   23  C23 UNL     1       7.112  -0.973   0.709  1.00  0.00     0.309 C 
ENDBRANCH  20  21
ENDBRANCH  19  20
ENDBRANCH  18  19
ENDBRANCH  14  16
ENDBRANCH  11  14
ENDBRANCH   1  10
BRANCH   8  24
HETATM   24  N3  UNL     1      -5.552   0.447   1.168  1.00  0.00    -0.340 N 
HETATM   25  H7  UNL     1      -6.359   1.121   1.249  1.00  0.00     0.167 HD
BRANCH  24  26
HETATM   26  C10 UNL     1      -5.553  -0.935   0.749  1.00  0.00     0.039 A 
HETATM   27  C11 UNL     1      -5.727  -1.884   1.759  1.00  0.00     0.030 A 
HETATM   28  C12 UNL     1      -5.732  -3.229   1.381  1.00  0.00     0.002 A 
HETATM   29  C13 UNL     1      -5.569  -3.546   0.049  1.00  0.00     0.001 A 
HETATM   30  C14 UNL     1      -5.396  -2.591  -0.957  1.00  0.00     0.009 A 
HETATM   31  C15 UNL     1      -5.391  -1.268  -0.579  1.00  0.00    -0.035 A 
HETATM   32  C16 UNL     1      -5.208  -0.207  -1.614  1.00  0.00     0.050 C 
ENDBRANCH  24  26
ENDBRANCH   8  24
TORSDOF 8
