REMARK  7 active torsions:
REMARK  status: ('A' for Active; 'I' for Inactive)
REMARK    1  A    between atoms: C2_2  and  C3_3 
REMARK    2  A    between atoms: C3_3  and  C4_4 
REMARK    3  A    between atoms: C4_4  and  C5_6 
REMARK    4  A    between atoms: C5_6  and  C7_8 
REMARK    5  A    between atoms: C7_8  and  C8_9 
REMARK    6  A    between atoms: C8_9  and  N1_10 
REMARK    7  A    between atoms: N1_10  and  C10_12 
ROOT
HETATM    1  N1  UNL     1      -1.844  -1.554  -0.359  1.00  0.00    -0.369 N 
HETATM    2  C9  UNL     1      -2.132  -2.962  -0.033  1.00  0.00     0.151 C 
ENDROOT
BRANCH   1   3
HETATM    3  C8  UNL     1      -0.425  -1.369  -0.543  1.00  0.00     0.125 C 
BRANCH   3   4
HETATM    4  C7  UNL     1       0.394  -1.542   0.692  1.00  0.00     0.032 C 
BRANCH   4   5
HETATM    5  C5  UNL     1       1.854  -1.313   0.295  1.00  0.00     0.053 C 
HETATM    6  C6  UNL     1       2.767  -1.565   1.480  1.00  0.00     0.018 C 
BRANCH   5   7
HETATM    7  C4  UNL     1       2.013   0.056  -0.253  1.00  0.00     0.130 C 
HETATM    8  O1  UNL     1       1.619   1.154  -0.551  1.00  0.00    -0.298 OA
BRANCH   7   9
HETATM    9  C3  UNL     1       3.411   0.222  -0.697  1.00  0.00     0.078 C 
BRANCH   9  10
HETATM   10  C2  UNL     1       3.680   1.593  -1.254  1.00  0.00     0.003 C 
HETATM   11  C1  UNL     1       3.419   2.644  -0.209  1.00  0.00     0.005 C 
ENDBRANCH   9  10
ENDBRANCH   7   9
ENDBRANCH   5   7
ENDBRANCH   4   5
ENDBRANCH   3   4
ENDBRANCH   1   3
BRANCH   1  12
HETATM   12  C10 UNL     1      -2.992  -0.715  -0.436  1.00  0.00     0.146 A 
HETATM   13  N2  UNL     1      -4.085  -1.167  -0.882  1.00  0.00    -0.222 NA
HETATM   14  C11 UNL     1      -5.344  -0.560  -1.060  1.00  0.00     0.245 A 
HETATM   15  N3  UNL     1      -5.548   0.721  -0.737  1.00  0.00    -0.196 NA
HETATM   16  S1  UNL     1      -4.146   1.524  -0.099  1.00  0.00     0.035 SA
HETATM   17  C12 UNL     1      -2.689   0.666   0.061  1.00  0.00     0.079 A 
HETATM   18  N4  UNL     1      -3.536   3.175   0.563  1.00  0.00    -0.328 N 
HETATM   19  C13 UNL     1      -1.765   1.604   0.601  1.00  0.00     0.042 A 
HETATM   20  C14 UNL     1      -2.188   2.820   0.841  1.00  0.00     0.098 A 
HETATM   21  H22 UNL     1      -4.203   3.949   0.603  1.00  0.00     0.174 HD
ENDBRANCH   1  12
TORSDOF 7
