REMARK  5 active torsions:
REMARK  status: ('A' for Active; 'I' for Inactive)
REMARK    1  A    between atoms: O1_2  and  N1_3 
REMARK    2  A    between atoms: C3_5  and  C4_6 
REMARK    3  A    between atoms: C4_6  and  C5_7 
REMARK    4  A    between atoms: C7_10  and  C8_11 
REMARK    5  A    between atoms: C8_11  and  C9_12 
ROOT
HETATM    1  C5  UNL     1      -1.894  -2.724   0.814  1.00  0.00     0.124 C 
HETATM    2  C6  UNL     1      -2.047  -3.898   1.710  1.00  0.00     0.059 C 
HETATM    3  N2  UNL     1      -2.174  -4.815   2.416  1.00  0.00    -0.197 NA
ENDROOT
BRANCH   1   4
HETATM    4  C4  UNL     1      -2.038  -1.520   1.681  1.00  0.00     0.020 C 
BRANCH   4   5
HETATM    5  C3  UNL     1      -1.915  -0.222   0.952  1.00  0.00     0.007 C 
HETATM    6  C2  UNL     1      -2.924  -0.019  -0.121  1.00  0.00     0.125 C 
HETATM    7  N1  UNL     1      -2.384   1.073  -0.899  1.00  0.00    -0.197 NA
HETATM    8  C15 UNL     1      -0.964   1.171  -0.610  1.00  0.00     0.125 C 
HETATM    9  C7  UNL     1      -0.620  -0.119   0.126  1.00  0.00     0.007 C 
BRANCH   7  10
HETATM   10  O1  UNL     1      -3.044   2.220  -0.589  1.00  0.00    -0.308 OA
HETATM   11  C1  UNL     1      -3.408   2.810  -1.802  1.00  0.00     0.229 C 
ENDBRANCH   7  10
BRANCH   9  12
HETATM   12  C8  UNL     1       0.489   0.012   1.099  1.00  0.00     0.018 C 
BRANCH  12  13
HETATM   13  C9  UNL     1       1.866   0.120   0.563  1.00  0.00     0.034 C 
HETATM   14  C10 UNL     1       2.265  -1.060  -0.252  1.00  0.00     0.001 C 
HETATM   15  C11 UNL     1       3.337  -1.634  -0.759  1.00  0.00     0.114 C 
HETATM   16  N3  UNL     1       4.722  -1.231  -0.672  1.00  0.00    -0.256 NA
HETATM   17  C12 UNL     1       5.273  -0.039  -0.632  1.00  0.00     0.206 C 
HETATM   18  N4  UNL     1       4.742   1.304  -0.658  1.00  0.00    -0.361 N 
HETATM   19  C13 UNL     1       3.376   1.771  -0.583  1.00  0.00     0.085 C 
HETATM   20  H18 UNL     1       5.471   2.045  -0.744  1.00  0.00     0.166 HD
HETATM   21  C14 UNL     1       2.194   1.381  -0.129  1.00  0.00    -0.001 C 
ENDBRANCH  12  13
ENDBRANCH   9  12
ENDBRANCH   4   5
ENDBRANCH   1   4
TORSDOF 5
