REMARK  7 active torsions:
REMARK  status: ('A' for Active; 'I' for Inactive)
REMARK    1  A    between atoms: C2_2  and  C3_3 
REMARK    2  A    between atoms: N2_13  and  C11_14 
REMARK    3  A    between atoms: C11_14  and  C12_15 
REMARK    4  A    between atoms: C12_15  and  N3_16 
REMARK    5  A    between atoms: N3_16  and  C14_18 
REMARK    6  A    between atoms: C14_18  and  C15_19 
REMARK    7  A    between atoms: C19_26  and  N6_27 
ROOT
HETATM    1  C15 UNL     1       5.362  -1.121   1.486  1.00  0.00    -0.002 C 
HETATM    2  C16 UNL     1       5.795  -2.472   1.918  1.00  0.00     0.049 C 
HETATM    3  C17 UNL     1       6.271  -0.280   1.936  1.00  0.00     0.225 C 
HETATM    4  O2  UNL     1       7.007   0.635   2.317  1.00  0.00    -0.284 OA
ENDROOT
BRANCH   1   5
HETATM    5  C14 UNL     1       4.224  -0.556   0.728  1.00  0.00     0.310 C 
BRANCH   5   6
HETATM    6  N3  UNL     1       2.953  -0.664   1.416  1.00  0.00     0.089 N 
HETATM    7  C13 UNL     1       2.599  -2.048   1.590  1.00  0.00     0.310 C 
BRANCH   6   8
HETATM    8  C12 UNL     1       1.992   0.013   0.575  1.00  0.00     0.295 C 
BRANCH   8   9
HETATM    9  C11 UNL     1       0.648   0.206   1.165  1.00  0.00     0.202 C 
BRANCH   9  10
HETATM   10  N2  UNL     1      -0.254   0.923   0.236  1.00  0.00    -0.205 N 
HETATM   11  N1  UNL     1      -0.407   0.243  -0.958  1.00  0.00    -0.161 NA
HETATM   12  C10 UNL     1      -0.350  -0.993  -1.256  1.00  0.00     0.060 C 
HETATM   13  C9  UNL     1      -0.595  -1.256  -2.734  1.00  0.00     0.091 C 
HETATM   14  C22 UNL     1      -0.157  -2.429  -0.879  1.00  0.00     0.032 C 
HETATM   15  C8  UNL     1      -1.418  -2.518  -2.759  1.00  0.00     0.016 C 
HETATM   16  C7  UNL     1      -2.442  -2.876  -2.017  1.00  0.00     0.071 C 
HETATM   17  O1  UNL     1      -3.691  -3.275  -1.405  1.00  0.00    -0.323 OA
HETATM   18  C23 UNL     1      -1.434  -2.757  -0.918  1.00  0.00     0.039 C 
HETATM   19  C6  UNL     1      -3.772  -2.846  -0.022  1.00  0.00     0.142 C 
HETATM   20  C5  UNL     1      -3.472  -1.538  -0.005  1.00  0.00     0.025 C 
HETATM   21  C4  UNL     1      -3.174  -0.135   0.233  1.00  0.00     0.011 C 
HETATM   22  C3  UNL     1      -2.887   0.995  -0.333  1.00  0.00    -0.030 C 
HETATM   23  C21 UNL     1      -2.410   1.935   0.670  1.00  0.00     0.170 A 
HETATM   24  N4  UNL     1      -0.952   2.173   0.390  1.00  0.00    -0.255 N 
HETATM   25  C20 UNL     1      -3.084   3.219   0.599  1.00  0.00     0.055 A 
HETATM   26  C18 UNL     1      -0.275   3.410   0.215  1.00  0.00     0.231 A 
HETATM   27  N5  UNL     1      -1.054   4.449   0.219  1.00  0.00    -0.226 NA
HETATM   28  C19 UNL     1      -2.435   4.326   0.401  1.00  0.00     0.121 A 
BRANCH  22  29
HETATM   29  C2  UNL     1      -2.746   1.393  -1.702  1.00  0.00    -0.001 C 
HETATM   30  C1  UNL     1      -2.440   2.567  -2.187  1.00  0.00     0.012 C 
ENDBRANCH  22  29
BRANCH  28  31
HETATM   31  N6  UNL     1      -3.245   5.515   0.373  1.00  0.00    -0.384 N 
HETATM   32  H23 UNL     1      -4.245   5.528   0.084  1.00  0.00     0.157 HD
HETATM   33  H24 UNL     1      -2.935   6.481   0.633  1.00  0.00     0.157 HD
ENDBRANCH  28  31
ENDBRANCH   9  10
ENDBRANCH   8   9
ENDBRANCH   6   8
ENDBRANCH   5   6
ENDBRANCH   1   5
TORSDOF 7
