REMARK  7 active torsions:
REMARK  status: ('A' for Active; 'I' for Inactive)
REMARK    1  A    between atoms: N1_1  and  C1_2 
REMARK    2  A    between atoms: C5_8  and  C6_9 
REMARK    3  A    between atoms: C9_12  and  O1_13 
REMARK    4  A    between atoms: O1_13  and  C10_14 
REMARK    5  A    between atoms: N5_21  and  C16_22 
REMARK    6  A    between atoms: C16_22  and  C17_23 
REMARK    7  A    between atoms: C17_23  and  N6_24 
ROOT
HETATM    1  C1  UNL     1      -1.425  -2.608  -1.259  1.00  0.00     0.139 A 
HETATM    2  N2  UNL     1      -1.935  -3.644  -1.948  1.00  0.00    -0.224 NA
HETATM    3  C2  UNL     1      -2.064  -3.508  -3.301  1.00  0.00     0.237 A 
HETATM    4  N3  UNL     1      -1.698  -2.373  -3.967  1.00  0.00    -0.222 NA
HETATM    5  C3  UNL     1      -1.183  -1.309  -3.310  1.00  0.00     0.164 A 
HETATM    6  C4  UNL     1      -1.065  -1.478  -1.947  1.00  0.00     0.088 A 
HETATM    7  C5  UNL     1      -0.537  -0.345  -1.372  1.00  0.00     0.105 A 
HETATM    8  N4  UNL     1      -0.341   0.509  -2.417  1.00  0.00    -0.169 NA
HETATM    9  N5  UNL     1      -0.727  -0.074  -3.557  1.00  0.00    -0.249 N 
ENDROOT
BRANCH   7  10
HETATM   10  C6  UNL     1      -0.175   0.136  -0.049  1.00  0.00    -0.004 A 
HETATM   11  C7  UNL     1      -0.669   1.395   0.317  1.00  0.00     0.016 A 
HETATM   12  C8  UNL     1      -0.360   1.950   1.567  1.00  0.00     0.037 A 
HETATM   13  C9  UNL     1       0.442   1.265   2.467  1.00  0.00     0.069 A 
HETATM   14  C14 UNL     1       0.921   0.032   2.097  1.00  0.00     0.037 A 
HETATM   15  C15 UNL     1       0.615  -0.496   0.885  1.00  0.00     0.016 A 
BRANCH  13  16
HETATM   16  O1  UNL     1       0.604   2.008   3.620  1.00  0.00    -0.342 OA
BRANCH  16  17
HETATM   17  C10 UNL     1       1.366   1.553   4.691  1.00  0.00     0.155 A 
HETATM   18  C11 UNL     1       2.254   2.572   5.323  1.00  0.00     0.002 A 
HETATM   19  C12 UNL     1       1.652   2.632   6.503  1.00  0.00    -0.025 A 
HETATM   20  C13 UNL     1       0.680   1.626   6.046  1.00  0.00     0.063 A 
ENDBRANCH  16  17
ENDBRANCH  13  16
ENDBRANCH   7  10
BRANCH   1  21
HETATM   21  N1  UNL     1      -1.313  -2.760   0.148  1.00  0.00    -0.383 N 
HETATM   22  H1  UNL     1      -1.758  -2.315   0.981  1.00  0.00     0.157 HD
HETATM   23  H2  UNL     1      -0.684  -3.430   0.658  1.00  0.00     0.157 HD
ENDBRANCH   1  21
BRANCH   9  24
HETATM   24  C16 UNL     1      -0.691   0.475  -4.893  1.00  0.00     0.177 C 
BRANCH  24  25
HETATM   25  C17 UNL     1       0.646   0.151  -5.563  1.00  0.00     0.204 C 
BRANCH  25  26
HETATM   26  N6  UNL     1       0.797  -1.281  -5.627  1.00  0.00    -0.139 NA
HETATM   27  O2  UNL     1       1.762  -1.817  -5.199  1.00  0.00    -0.067 OA
ENDBRANCH  25  26
ENDBRANCH  24  25
ENDBRANCH   9  24
TORSDOF 7
