REMARK  4 active torsions:
REMARK  status: ('A' for Active; 'I' for Inactive)
REMARK    1  A    between atoms: N1_1  and  C1_2 
REMARK    2  A    between atoms: C8_9  and  O1_10 
REMARK    3  A    between atoms: O1_10  and  C9_11 
REMARK    4  A    between atoms: N3_18  and  N4_19 
ROOT
HETATM    1  C1  UNL     1      -1.033   1.709  -0.767  1.00  0.00     0.123 C 
HETATM    2  C2  UNL     1       0.041   1.134  -1.291  1.00  0.00     0.064 C 
HETATM    3  C3  UNL     1      -0.293  -0.222  -0.938  1.00  0.00     0.002 A 
HETATM    4  C4  UNL     1      -1.439  -0.803  -1.424  1.00  0.00     0.027 A 
HETATM    5  C5  UNL     1      -1.704  -2.066  -0.948  1.00  0.00    -0.016 A 
HETATM    6  C6  UNL     1      -0.885  -2.719  -0.058  1.00  0.00     0.016 A 
HETATM    7  C7  UNL     1       0.282  -2.091   0.411  1.00  0.00     0.038 A 
HETATM    8  C8  UNL     1       0.589  -0.788  -0.046  1.00  0.00     0.080 A 
HETATM    9  C14 UNL     1      -3.022  -2.473  -1.458  1.00  0.00     0.151 C 
HETATM   10  N2  UNL     1      -3.814  -1.683  -0.766  1.00  0.00    -0.167 NA
HETATM   11  N3  UNL     1      -3.365  -0.752   0.171  1.00  0.00    -0.192 N 
HETATM   12  C15 UNL     1      -3.025   0.669   0.205  1.00  0.00     0.251 C 
HETATM   13  N5  UNL     1      -2.221   1.588  -0.107  1.00  0.00    -0.224 NA
ENDROOT
BRANCH   8  14
HETATM   14  O1  UNL     1       1.726  -0.402   0.530  1.00  0.00    -0.337 OA
BRANCH  14  15
HETATM   15  C9  UNL     1       2.406   0.783   0.509  1.00  0.00     0.174 A 
HETATM   16  C10 UNL     1       3.677   0.522  -0.290  1.00  0.00     0.009 A 
HETATM   17  C11 UNL     1       4.743   0.633   0.475  1.00  0.00    -0.001 A 
HETATM   18  C12 UNL     1       4.365   0.970   1.842  1.00  0.00    -0.001 A 
HETATM   19  C13 UNL     1       3.049   1.050   1.842  1.00  0.00     0.009 A 
ENDBRANCH  14  15
ENDBRANCH   8  14
BRANCH   1  20
HETATM   20  N1  UNL     1      -0.642   3.032  -1.145  1.00  0.00    -0.384 N 
HETATM   21  H1  UNL     1      -0.649   3.539  -2.067  1.00  0.00     0.157 HD
HETATM   22  H2  UNL     1      -0.294   3.520  -0.269  1.00  0.00     0.157 HD
ENDBRANCH   1  20
BRANCH  11  23
HETATM   23  N4  UNL     1      -3.030  -0.708   1.555  1.00  0.00    -0.225 NA
HETATM   24  H13 UNL     1      -2.605  -1.602   1.888  1.00  0.00     0.145 HD
HETATM   25  H14 UNL     1      -3.890  -0.474   2.135  1.00  0.00     0.145 HD
ENDBRANCH  11  23
TORSDOF 4
