REMARK  7 active torsions:
REMARK  status: ('A' for Active; 'I' for Inactive)
REMARK    1  A    between atoms: O1_2  and  C2_3 
REMARK    2  A    between atoms: C4_5  and  O2_6 
REMARK    3  A    between atoms: O2_6  and  C5_7 
REMARK    4  A    between atoms: C11_15  and  N3_16 
REMARK    5  A    between atoms: N3_16  and  C12_17 
REMARK    6  A    between atoms: C13_18  and  C14_19 
REMARK    7  A    between atoms: C15_20  and  C17_22 
ROOT
HETATM    1  C2  UNL     1      -4.200  -0.518  -1.215  1.00  0.00     0.070 A 
HETATM    2  C3  UNL     1      -2.941  -0.882  -0.887  1.00  0.00     0.062 A 
HETATM    3  C4  UNL     1      -2.157   0.303  -0.919  1.00  0.00     0.186 A 
HETATM    4  C8  UNL     1      -3.045   1.390  -1.345  1.00  0.00     0.085 A 
HETATM    5  C9  UNL     1      -4.292   0.930  -1.513  1.00  0.00     0.067 A 
HETATM    6  N1  UNL     1      -2.628   2.709  -1.766  1.00  0.00    -0.242 NA
HETATM    7  C10 UNL     1      -1.323   2.758  -2.060  1.00  0.00     0.235 C 
HETATM    8  N2  UNL     1      -0.497   1.643  -1.898  1.00  0.00    -0.225 NA
HETATM    9  C11 UNL     1      -0.825   0.476  -1.404  1.00  0.00     0.150 C 
ENDROOT
BRANCH   9  10
HETATM   10  N3  UNL     1       0.281  -0.410  -1.485  1.00  0.00    -0.351 N 
HETATM   11  H14 UNL     1       0.056  -1.426  -1.261  1.00  0.00     0.166 HD
BRANCH  10  12
HETATM   12  C12 UNL     1       1.617  -0.089  -1.832  1.00  0.00     0.089 C 
HETATM   13  C13 UNL     1       2.434  -0.028  -0.812  1.00  0.00     0.017 C 
BRANCH  13  14
HETATM   14  C14 UNL     1       3.763   0.197  -0.293  1.00  0.00     0.007 C 
HETATM   15  C15 UNL     1       4.732   0.307   0.576  1.00  0.00    -0.051 C 
HETATM   16  C16 UNL     1       6.138   0.651   0.172  1.00  0.00     0.046 C 
BRANCH  15  17
HETATM   17  C17 UNL     1       4.731   0.141   2.029  1.00  0.00     0.194 C 
HETATM   18  C18 UNL     1       3.394  -0.191   2.630  1.00  0.00     0.050 C 
HETATM   19  F1  UNL     1       5.190   1.295   2.664  1.00  0.00    -0.245 F 
ENDBRANCH  15  17
ENDBRANCH  13  14
ENDBRANCH  10  12
ENDBRANCH   9  10
BRANCH   3  20
HETATM   20  O2  UNL     1      -2.063   0.715   0.549  1.00  0.00    -0.357 OA
BRANCH  20  21
HETATM   21  C5  UNL     1      -1.515  -0.324   1.242  1.00  0.00     0.116 C 
HETATM   22  C6  UNL     1      -2.374  -0.752   2.428  1.00  0.00     0.039 C 
HETATM   23  C7  UNL     1      -0.204   0.182   1.845  1.00  0.00     0.039 C 
ENDBRANCH  20  21
ENDBRANCH   3  20
BRANCH   1  24
HETATM   24  O1  UNL     1      -5.289  -1.380  -1.288  1.00  0.00    -0.356 OA
HETATM   25  C1  UNL     1      -5.916  -1.609  -2.530  1.00  0.00     0.210 C 
ENDBRANCH   1  24
TORSDOF 7
