REMARK  4 active torsions:
REMARK  status: ('A' for Active; 'I' for Inactive)
REMARK    1  A    between atoms: C2_2  and  C3_3 
REMARK       I    between atoms: C3_3  and  N1_5 
REMARK    2  A    between atoms: C7_9  and  N2_10 
REMARK    3  A    between atoms: C8_12  and  C9_13 
REMARK    4  A    between atoms: C21_26  and  N4_27 
ROOT
HETATM    1  N2  UNL     1      -1.233  -1.231   0.469  1.00  0.00    -0.244 N 
HETATM    2  N3  UNL     1      -0.330  -0.316   0.198  1.00  0.00    -0.169 NA
HETATM    3  C8  UNL     1       0.908  -0.764   0.433  1.00  0.00     0.102 A 
HETATM    4  C20 UNL     1       0.685  -2.044   0.869  1.00  0.00     0.088 A 
HETATM    5  C21 UNL     1       1.484  -3.083   1.233  1.00  0.00     0.139 A 
HETATM    6  N5  UNL     1       1.043  -4.289   1.598  1.00  0.00    -0.224 NA
HETATM    7  C22 UNL     1      -0.285  -4.568   1.628  1.00  0.00     0.237 A 
HETATM    8  N6  UNL     1      -1.085  -3.554   1.266  1.00  0.00    -0.222 NA
HETATM    9  C23 UNL     1      -0.641  -2.358   0.903  1.00  0.00     0.164 A 
ENDROOT
BRANCH   3  10
HETATM   10  C9  UNL     1       2.194  -0.067   0.183  1.00  0.00    -0.018 C 
HETATM   11  C10 UNL     1       3.335  -0.100   0.753  1.00  0.00     0.057 C 
HETATM   12  C11 UNL     1       4.543  -0.274   1.531  1.00  0.00     0.008 C 
HETATM   13  C12 UNL     1       5.617   0.398   1.171  1.00  0.00     0.132 C 
HETATM   14  O2  UNL     1       6.455   1.298   0.411  1.00  0.00    -0.350 OA
HETATM   15  C13 UNL     1       5.658   2.042  -0.434  1.00  0.00     0.174 C 
HETATM   16  C14 UNL     1       6.141   2.916  -1.467  1.00  0.00     0.010 C 
HETATM   17  C17 UNL     1       4.814   1.152  -1.317  1.00  0.00     0.020 C 
HETATM   18  C15 UNL     1       4.886   3.347  -1.843  1.00  0.00     0.010 C 
HETATM   19  C16 UNL     1       4.020   2.131  -1.714  1.00  0.00    -0.037 C 
HETATM   20  C18 UNL     1       2.643   1.656  -1.798  1.00  0.00     0.012 C 
HETATM   21  C19 UNL     1       2.119   0.795  -0.956  1.00  0.00     0.011 C 
ENDBRANCH   3  10
BRANCH   1  22
HETATM   22  C7  UNL     1      -2.663  -0.986   0.299  1.00  0.00     0.130 C 
HETATM   23  C6  UNL     1      -3.159  -1.751  -0.908  1.00  0.00     0.030 C 
HETATM   24  C5  UNL     1      -4.411  -1.112  -1.492  1.00  0.00     0.022 C 
HETATM   25  C4  UNL     1      -5.140  -0.490  -0.295  1.00  0.00     0.126 C 
HETATM   26  N1  UNL     1      -4.379   0.674   0.090  1.00  0.00    -0.347 N 
HETATM   27  C3  UNL     1      -4.946   1.967   0.327  1.00  0.00     0.242 C 
HETATM   28  C24 UNL     1      -2.963   0.485   0.235  1.00  0.00     0.153 C 
HETATM   29  O1  UNL     1      -4.501   3.100   0.661  1.00  0.00    -0.268 OA
BRANCH  27  30
HETATM   30  C2  UNL     1      -6.379   2.116   0.170  1.00  0.00     0.064 C 
HETATM   31  C1  UNL     1      -6.859   3.317   0.396  1.00  0.00     0.017 C 
ENDBRANCH  27  30
ENDBRANCH   1  22
BRANCH   5  32
HETATM   32  N4  UNL     1       2.891  -3.059   1.186  1.00  0.00    -0.383 N 
HETATM   33  H20 UNL     1       3.189  -3.019   0.206  1.00  0.00     0.157 HD
HETATM   34  H21 UNL     1       3.924  -3.041   1.152  1.00  0.00     0.157 HD
ENDBRANCH   5  32
TORSDOF 4
