REMARK  4 active torsions:
REMARK  status: ('A' for Active; 'I' for Inactive)
REMARK    1  A    between atoms: C2_2  and  N1_3 
REMARK    2  A    between atoms: C5_7  and  N3_9 
REMARK    3  A    between atoms: N3_9  and  C7_10 
REMARK    4  A    between atoms: C7_10  and  C8_11 
ROOT
HETATM    1  C7  UNL     1      -1.708  -1.101   0.135  1.00  0.00     0.175 C 
HETATM    2  C9  UNL     1      -2.039  -1.252  -1.361  1.00  0.00     0.195 C 
HETATM    3  O2  UNL     1      -1.040  -1.765  -1.993  1.00  0.00    -0.289 OA
HETATM    4  C10 UNL     1      -3.435  -0.679  -1.247  1.00  0.00    -0.005 C 
HETATM    5  C11 UNL     1      -3.846   0.640  -1.494  1.00  0.00     0.012 C 
HETATM    6  C12 UNL     1      -3.855   1.160  -0.037  1.00  0.00     0.008 C 
HETATM    7  C13 UNL     1      -3.584   0.572   1.218  1.00  0.00    -0.053 C 
HETATM    8  C14 UNL     1      -3.875   1.458   2.414  1.00  0.00     0.049 C 
HETATM    9  C15 UNL     1      -3.086  -0.812   0.787  1.00  0.00    -0.013 C 
HETATM   10  C16 UNL     1      -3.919  -1.898   0.827  1.00  0.00    -0.011 C 
HETATM   11  C17 UNL     1      -4.357  -1.763  -0.647  1.00  0.00     0.070 C 
ENDROOT
BRANCH   1  12
HETATM   12  N3  UNL     1      -0.814  -0.070   0.281  1.00  0.00    -0.364 N 
HETATM   13  H14 UNL     1      -1.067   0.653   1.021  1.00  0.00     0.157 HD
BRANCH  12  14
HETATM   14  C5  UNL     1       0.359   0.180  -0.397  1.00  0.00     0.225 C 
HETATM   15  N2  UNL     1       1.272  -0.926  -0.495  1.00  0.00     0.113 NA
HETATM   16  C4  UNL     1       2.320  -0.856  -1.429  1.00  0.00     0.303 C 
HETATM   17  H10 UNL     1       1.662  -1.175   0.416  1.00  0.00     0.319 HD
HETATM   18  C3  UNL     1       3.235   0.326  -1.344  1.00  0.00     0.302 C 
HETATM   19  N1  UNL     1       3.502   0.818  -0.060  1.00  0.00     0.089 NA
HETATM   20  C19 UNL     1       2.448   0.907   0.889  1.00  0.00     0.277 C 
HETATM   21  C18 UNL     1       1.099   1.254   0.410  1.00  0.00     0.093 C 
HETATM   22  C6  UNL     1       0.054   0.794  -1.745  1.00  0.00     0.073 C 
BRANCH  19  23
HETATM   23  C2  UNL     1       4.647   0.250   0.587  1.00  0.00     0.268 C 
HETATM   24  C1  UNL     1       5.952   0.631  -0.059  1.00  0.00     0.037 C 
ENDBRANCH  19  23
ENDBRANCH  12  14
ENDBRANCH   1  12
BRANCH   1  25
HETATM   25  C8  UNL     1      -1.107  -2.354   0.541  1.00  0.00     0.275 C 
HETATM   26  O1  UNL     1      -1.535  -3.518   0.568  1.00  0.00    -0.303 OA
ENDBRANCH   1  25
TORSDOF 4
