REMARK  2 active torsions:
REMARK  status: ('A' for Active; 'I' for Inactive)
REMARK       I    between atoms: N1_5  and  C5_6 
REMARK    1  A    between atoms: C5_6  and  C6_8 
REMARK    2  A    between atoms: C9_12  and  N3_13 
ROOT
HETATM    1  C6  UNL     1       2.950   3.068  -0.458  1.00  0.00     0.226 C 
HETATM    2  C7  UNL     1       3.897   4.090  -0.024  1.00  0.00     0.068 C 
HETATM    3  N2  UNL     1       4.634   4.897   0.302  1.00  0.00    -0.197 NA
ENDROOT
BRANCH   1   4
HETATM    4  C5  UNL     1       3.397   1.713   0.000  1.00  0.00     0.232 C 
HETATM    5  N1  UNL     1       2.696   0.488  -0.255  1.00  0.00    -0.350 N 
HETATM    6  C4  UNL     1       3.368  -0.648   0.320  1.00  0.00     0.126 C 
HETATM    7  C8  UNL     1       1.437   0.440  -1.017  1.00  0.00     0.147 C 
HETATM    8  C3  UNL     1       2.458  -1.827   0.544  1.00  0.00     0.026 C 
HETATM    9  C2  UNL     1       1.372  -1.900  -0.505  1.00  0.00     0.004 C 
HETATM   10  C1  UNL     1       0.634  -3.176  -0.389  1.00  0.00     0.011 C 
HETATM   11  C9  UNL     1       0.578  -0.627  -0.439  1.00  0.00     0.096 C 
HETATM   12  O1  UNL     1       4.413   1.390   0.661  1.00  0.00    -0.272 OA
BRANCH  11  13
HETATM   13  N3  UNL     1      -0.745  -0.758  -0.970  1.00  0.00    -0.245 NA
HETATM   14  C10 UNL     1      -1.421   0.529  -1.220  1.00  0.00     0.112 C 
HETATM   15  C11 UNL     1      -1.783   1.147   0.119  1.00  0.00     0.044 C 
HETATM   16  C12 UNL     1      -2.790   2.223   0.010  1.00  0.00    -0.009 C 
HETATM   17  C13 UNL     1      -3.963   1.748   0.523  1.00  0.00     0.079 C 
HETATM   18  N4  UNL     1      -3.865   0.386   0.997  1.00  0.00    -0.398 N 
HETATM   19  C14 UNL     1      -3.974  -1.049   0.739  1.00  0.00     0.134 C 
HETATM   20  H20 UNL     1      -3.626   0.753   1.969  1.00  0.00     0.158 HD
HETATM   21  C15 UNL     1      -2.899  -1.507  -0.274  1.00  0.00     0.124 C 
HETATM   22  N5  UNL     1      -1.591  -1.213   0.137  1.00  0.00    -0.257 NA
HETATM   23  H25 UNL     1      -1.106  -1.858   0.705  1.00  0.00     0.140 HD
ENDBRANCH  11  13
ENDBRANCH   1   4
TORSDOF 2
