REMARK  1 active torsions:
REMARK  status: ('A' for Active; 'I' for Inactive)
REMARK       I    between atoms: N4_16  and  C13_17 
REMARK    1  A    between atoms: C13_17  and  C14_19 
ROOT
HETATM    1  C14 UNL     1       4.369  -0.390   0.602  1.00  0.00     0.226 C 
HETATM    2  C15 UNL     1       5.101  -0.844  -0.589  1.00  0.00     0.068 C 
HETATM    3  N5  UNL     1       5.674  -1.188  -1.535  1.00  0.00    -0.197 NA
ENDROOT
BRANCH   1   4
HETATM    4  C13 UNL     1       2.962  -0.159   0.174  1.00  0.00     0.235 C 
HETATM    5  N4  UNL     1       1.999   0.291   1.119  1.00  0.00    -0.318 N 
HETATM    6  C11 UNL     1       0.580   0.635   1.156  1.00  0.00     0.133 A 
HETATM    7  C12 UNL     1       1.337   0.750   2.399  1.00  0.00     0.183 A 
HETATM    8  C2  UNL     1       0.098   1.880   0.525  1.00  0.00     0.057 C 
HETATM    9  N3  UNL     1      -0.324  -0.498   1.034  1.00  0.00    -0.350 N 
HETATM   10  C1  UNL     1       1.233   2.791   0.079  1.00  0.00     0.018 C 
HETATM   11  C3  UNL     1      -0.875   1.781  -0.557  1.00  0.00     0.008 C 
HETATM   12  C4  UNL     1      -1.125   0.815  -1.415  1.00  0.00     0.022 C 
HETATM   13  C5  UNL     1      -0.400  -0.275  -2.174  1.00  0.00     0.207 C 
HETATM   14  N2  UNL     1      -2.588   0.827  -1.600  1.00  0.00    -0.385 N 
HETATM   15  N1  UNL     1      -0.390  -1.393  -1.178  1.00  0.00    -0.271 NA
HETATM   16  C6  UNL     1      -0.944  -1.360   0.033  1.00  0.00     0.096 C 
HETATM   17  C7  UNL     1      -2.092  -1.897   0.791  1.00  0.00     0.078 C 
HETATM   18  C8  UNL     1      -3.111  -2.600  -0.102  1.00  0.00     0.010 C 
HETATM   19  C9  UNL     1      -3.467  -1.555  -1.173  1.00  0.00    -0.001 C 
HETATM   20  C10 UNL     1      -3.409  -0.365  -1.840  1.00  0.00     0.131 C 
HETATM   21  H14 UNL     1      -3.036   1.769  -1.549  1.00  0.00     0.160 HD
HETATM   22  H15 UNL     1      -0.634  -0.793   2.003  1.00  0.00     0.163 HD
HETATM   23  O1  UNL     1       2.968  -0.450  -1.052  1.00  0.00    -0.272 OA
ENDBRANCH   1   4
TORSDOF 1
