REMARK  11 active torsions:
REMARK  status: ('A' for Active; 'I' for Inactive)
REMARK    1  A    between atoms: C2_2  and  C3_3 
REMARK    2  A    between atoms: C3_3  and  N1_4 
REMARK    3  A    between atoms: N1_4  and  C4_5 
REMARK    4  A    between atoms: N1_4  and  C6_7 
REMARK    5  A    between atoms: C6_7  and  C7_8 
REMARK    6  A    between atoms: C7_8  and  N2_9 
REMARK    7  A    between atoms: C14_19  and  N4_20 
REMARK    8  A    between atoms: N4_20  and  C15_21 
REMARK    9  A    between atoms: C15_21  and  C16_22 
REMARK   10  A    between atoms: C16_22  and  C17_23 
REMARK   11  A    between atoms: C17_23  and  C18_24 
ROOT
HETATM    1  N2  UNL     1      -0.211   1.196   0.255  1.00  0.00    -0.325 N 
HETATM    2  C8  UNL     1      -0.835   2.472   0.424  1.00  0.00     0.246 C 
HETATM    3  O1  UNL     1      -2.083   2.374   0.421  1.00  0.00    -0.268 OA
HETATM    4  C9  UNL     1      -0.528   3.912   0.608  1.00  0.00     0.099 C 
HETATM    5  C10 UNL     1       0.622   4.566   0.760  1.00  0.00     0.013 C 
HETATM    6  C11 UNL     1       0.443   6.033   0.913  1.00  0.00     0.068 C 
HETATM    7  N3  UNL     1       1.997   4.117   0.803  1.00  0.00    -0.331 N 
HETATM    8  C12 UNL     1       2.614   2.932   0.240  1.00  0.00     0.225 C 
HETATM    9  O2  UNL     1       3.824   2.932   0.600  1.00  0.00    -0.273 OA
HETATM   10  C13 UNL     1       2.049   1.837  -0.620  1.00  0.00     0.149 C 
HETATM   11  C14 UNL     1       1.183   0.883   0.058  1.00  0.00     0.195 C 
HETATM   12  H21 UNL     1       2.583   4.807   1.342  1.00  0.00     0.168 HD
ENDROOT
BRANCH   1  13
HETATM   13  C7  UNL     1      -1.176   0.171   0.392  1.00  0.00     0.158 C 
BRANCH  13  14
HETATM   14  C6  UNL     1      -2.055  -0.313  -0.641  1.00  0.00     0.292 C 
BRANCH  14  15
HETATM   15  N1  UNL     1      -2.851  -1.433  -0.035  1.00  0.00     0.089 N 
BRANCH  15  16
HETATM   16  C3  UNL     1      -4.001  -1.639  -0.913  1.00  0.00     0.272 C 
BRANCH  16  17
HETATM   17  C2  UNL     1      -5.228  -0.894  -0.575  1.00  0.00     0.026 C 
HETATM   18  C1  UNL     1      -5.239   0.576  -0.538  1.00  0.00     0.007 C 
ENDBRANCH  16  17
ENDBRANCH  15  16
BRANCH  15  19
HETATM   19  C4  UNL     1      -1.924  -2.570  -0.294  1.00  0.00     0.268 C 
HETATM   20  C5  UNL     1      -2.488  -3.881   0.193  1.00  0.00     0.037 C 
ENDBRANCH  15  19
ENDBRANCH  14  15
ENDBRANCH  13  14
ENDBRANCH   1  13
BRANCH  11  21
HETATM   21  N4  UNL     1       1.307  -0.418  -0.561  1.00  0.00    -0.377 N 
HETATM   22  H25 UNL     1       0.578  -0.679  -1.246  1.00  0.00     0.161 HD
BRANCH  21  23
HETATM   23  C15 UNL     1       2.347  -1.293  -0.309  1.00  0.00     0.085 C 
BRANCH  23  24
HETATM   24  C16 UNL     1       3.557  -1.734  -0.107  1.00  0.00     0.019 C 
BRANCH  24  25
HETATM   25  C17 UNL     1       4.379  -2.884   0.165  1.00  0.00     0.038 C 
BRANCH  25  26
HETATM   26  C18 UNL     1       5.663  -2.631   0.265  1.00  0.00     0.090 C 
HETATM   27  C19 UNL     1       6.478  -3.813   0.543  1.00  0.00     0.082 C 
HETATM   28  F1  UNL     1       6.230  -1.418   0.133  1.00  0.00    -0.211 F 
ENDBRANCH  25  26
ENDBRANCH  24  25
ENDBRANCH  23  24
ENDBRANCH  21  23
ENDBRANCH  11  21
TORSDOF 11
