REMARK  5 active torsions:
REMARK  status: ('A' for Active; 'I' for Inactive)
REMARK    1  A    between atoms: N1_2  and  C3_4 
REMARK    2  A    between atoms: C3_4  and  C4_5 
REMARK    3  A    between atoms: N2_6  and  C5_7 
REMARK    4  A    between atoms: C6_8  and  C7_9 
REMARK    5  A    between atoms: C7_9  and  C8_10 
ROOT
HETATM    1  C5  UNL     1      -0.189  -0.122  -0.599  1.00  0.00     0.122 C 
HETATM    2  C6  UNL     1      -1.008  -1.114   0.230  1.00  0.00     0.020 C 
HETATM    3  C9  UNL     1      -1.896  -0.984   1.249  1.00  0.00     0.108 A 
HETATM    4  N3  UNL     1      -2.769  -1.736   2.130  1.00  0.00    -0.411 N 
HETATM    5  C10 UNL     1      -3.437  -1.566   0.869  1.00  0.00     0.147 A 
HETATM    6  C11 UNL     1      -3.788  -0.148   0.724  1.00  0.00     0.010 C 
HETATM    7  C12 UNL     1      -3.468   1.050   0.270  1.00  0.00     0.043 A 
HETATM    8  C13 UNL     1      -4.421   2.181   0.457  1.00  0.00     0.256 A 
HETATM    9  O1  UNL     1      -5.594   2.271   0.966  1.00  0.00    -0.267 OA
HETATM   10  N4  UNL     1      -3.763   3.298  -0.078  1.00  0.00    -0.322 N 
HETATM   11  C14 UNL     1      -2.492   2.924  -0.566  1.00  0.00     0.046 A 
HETATM   12  C15 UNL     1      -1.645   3.863  -1.120  1.00  0.00     0.030 A 
HETATM   13  C16 UNL     1      -0.412   3.363  -1.516  1.00  0.00     0.003 A 
HETATM   14  C17 UNL     1      -0.151   2.008  -1.319  1.00  0.00     0.010 A 
HETATM   15  C18 UNL     1      -1.049   1.135  -0.754  1.00  0.00    -0.021 A 
HETATM   16  C19 UNL     1      -2.293   1.578  -0.359  1.00  0.00     0.015 A 
HETATM   17  H18 UNL     1      -2.293  -1.860   3.035  1.00  0.00     0.153 HD
HETATM   18  H22 UNL     1      -4.245   4.226  -0.061  1.00  0.00     0.169 HD
ENDROOT
BRANCH   1  19
HETATM   19  N2  UNL     1       0.952   0.072   0.195  1.00  0.00    -0.411 N 
HETATM   20  C4  UNL     1       2.088   0.796   0.030  1.00  0.00     0.144 C 
HETATM   21  H11 UNL     1       0.675   0.008   1.223  1.00  0.00     0.154 HD
BRANCH  20  22
HETATM   22  C3  UNL     1       3.075   0.316  -1.041  1.00  0.00     0.290 C 
BRANCH  22  23
HETATM   23  N1  UNL     1       3.542  -0.997  -0.656  1.00  0.00     0.081 N 
HETATM   24  C1  UNL     1       4.377  -0.839   0.519  1.00  0.00     0.309 C 
HETATM   25  C2  UNL     1       4.306  -1.595  -1.710  1.00  0.00     0.309 C 
ENDBRANCH  22  23
ENDBRANCH  20  22
ENDBRANCH   1  19
BRANCH   2  26
HETATM   26  C7  UNL     1      -0.671  -2.515   0.125  1.00  0.00     0.046 C 
BRANCH  26  27
HETATM   27  C8  UNL     1       0.819  -2.792   0.131  1.00  0.00     0.223 C 
HETATM   28  F1  UNL     1       1.034  -4.150   0.076  1.00  0.00    -0.255 F 
ENDBRANCH  26  27
ENDBRANCH   2  26
TORSDOF 5
