REMARK  2 active torsions:
REMARK  status: ('A' for Active; 'I' for Inactive)
REMARK    1  A    between atoms: C4_7  and  C5_8 
REMARK    2  A    between atoms: C10_14  and  C11_15 
ROOT
HETATM    1  O1  UNL     1       5.900   0.864  -0.924  1.00  0.00    -0.253 OA
HETATM    2  S1  UNL     1       5.446   0.337   0.434  1.00  0.00     0.043 S 
HETATM    3  C1  UNL     1       3.852   1.033   0.745  1.00  0.00     0.089 C 
HETATM    4  C2  UNL     1       2.613   0.596   0.697  1.00  0.00    -0.006 C 
HETATM    5  C3  UNL     1       1.884   1.785   1.095  1.00  0.00     0.127 C 
HETATM    6  N1  UNL     1       0.610   1.984   1.052  1.00  0.00    -0.257 NA
HETATM    7  C4  UNL     1      -0.428   1.100   0.605  1.00  0.00     0.094 C 
HETATM    8  C10 UNL     1      -0.385  -0.129   0.127  1.00  0.00     0.069 C 
HETATM    9  N3  UNL     1       0.812  -0.881  -0.063  1.00  0.00    -0.375 N 
HETATM   10  C17 UNL     1       2.187  -0.752   0.326  1.00  0.00     0.140 C 
HETATM   11  C18 UNL     1       3.023  -1.354  -0.772  1.00  0.00    -0.000 C 
HETATM   12  C19 UNL     1       4.309  -1.678  -0.872  1.00  0.00    -0.016 C 
HETATM   13  C20 UNL     1       5.233  -1.447   0.284  1.00  0.00     0.140 C 
HETATM   14  H11 UNL     1       0.657  -1.763  -0.634  1.00  0.00     0.160 HD
ENDROOT
BRANCH   8  15
HETATM   15  C11 UNL     1      -1.582  -0.881  -0.273  1.00  0.00    -0.007 A 
HETATM   16  C12 UNL     1      -2.703  -0.887   0.535  1.00  0.00     0.017 A 
HETATM   17  C13 UNL     1      -3.886  -1.561   0.252  1.00  0.00     0.043 A 
HETATM   18  C14 UNL     1      -3.948  -2.279  -0.929  1.00  0.00     0.116 A 
HETATM   19  F1  UNL     1      -5.092  -2.947  -1.233  1.00  0.00    -0.206 F 
HETATM   20  C15 UNL     1      -2.863  -2.297  -1.753  1.00  0.00     0.043 A 
HETATM   21  C16 UNL     1      -1.671  -1.618  -1.466  1.00  0.00     0.017 A 
ENDBRANCH   8  15
BRANCH   7  22
HETATM   22  C5  UNL     1      -1.723   1.763   0.649  1.00  0.00    -0.002 A 
HETATM   23  C6  UNL     1      -2.383   2.445   1.652  1.00  0.00     0.033 A 
HETATM   24  C7  UNL     1      -3.627   3.010   1.356  1.00  0.00     0.117 A 
HETATM   25  N2  UNL     1      -4.167   2.896   0.143  1.00  0.00    -0.273 NA
HETATM   26  C8  UNL     1      -3.593   2.256  -0.869  1.00  0.00     0.117 A 
HETATM   27  C9  UNL     1      -2.342   1.677  -0.608  1.00  0.00     0.033 A 
ENDBRANCH   7  22
TORSDOF 2
