REMARK  3 active torsions:
REMARK  status: ('A' for Active; 'I' for Inactive)
REMARK    1  A    between atoms: C2_2  and  C3_3 
REMARK    2  A    between atoms: C14_15  and  S1_16 
REMARK    3  A    between atoms: S1_16  and  C15_18 
ROOT
HETATM    1  C3  UNL     1      -2.405  -1.289   1.738  1.00  0.00     0.029 C 
HETATM    2  C4  UNL     1      -1.925  -0.183   1.218  1.00  0.00     0.035 A 
HETATM    3  C5  UNL     1      -1.914   1.179   1.803  1.00  0.00     0.061 A 
HETATM    4  C6  UNL     1      -1.374   2.191   1.098  1.00  0.00     0.061 A 
HETATM    5  C7  UNL     1      -1.622   3.210   2.105  1.00  0.00     0.033 C 
HETATM    6  C8  UNL     1      -0.290   3.533   2.238  1.00  0.00     0.022 C 
HETATM    7  C9  UNL     1       1.137   3.294   1.824  1.00  0.00     0.128 C 
HETATM    8  N1  UNL     1       2.410   3.189   1.551  1.00  0.00    -0.210 NA
HETATM    9  C10 UNL     1       2.746   2.210   0.634  1.00  0.00     0.034 C 
HETATM   10  C11 UNL     1       3.010   1.379  -0.132  1.00  0.00    -0.080 C 
HETATM   11  C12 UNL     1       3.314   0.353  -1.053  1.00  0.00     0.060 C 
HETATM   12  C13 UNL     1       2.102   0.330  -1.656  1.00  0.00     0.094 C 
HETATM   13  C14 UNL     1       1.577  -0.493  -2.739  1.00  0.00     0.014 C 
HETATM   14  C16 UNL     1       0.355   0.105  -2.749  1.00  0.00    -0.002 C 
HETATM   15  C17 UNL     1      -0.081   1.227  -1.882  1.00  0.00     0.106 C 
HETATM   16  C18 UNL     1      -0.812   0.802  -0.713  1.00  0.00     0.108 A 
HETATM   17  N2  UNL     1      -0.848   1.939  -0.146  1.00  0.00    -0.235 NA
HETATM   18  N3  UNL     1      -1.346  -0.345  -0.087  1.00  0.00    -0.344 N 
HETATM   19  H16 UNL     1      -1.214  -1.152  -0.727  1.00  0.00     0.167 HD
ENDROOT
BRANCH  13  20
HETATM   20  S1  UNL     1       1.722  -1.799  -3.970  1.00  0.00     0.074 S 
HETATM   21  O1  UNL     1       0.563  -1.795  -4.901  1.00  0.00    -0.251 OA
BRANCH  20  22
HETATM   22  C15 UNL     1       2.029  -3.329  -3.126  1.00  0.00     0.335 C 
HETATM   23  F1  UNL     1       1.017  -3.647  -2.258  1.00  0.00    -0.242 F 
ENDBRANCH  20  22
ENDBRANCH  13  20
BRANCH   1  24
HETATM   24  C2  UNL     1      -2.374  -2.578   1.096  1.00  0.00    -0.008 C 
HETATM   25  C1  UNL     1      -2.900  -3.581   1.758  1.00  0.00     0.011 C 
ENDBRANCH   1  24
TORSDOF 3
