REMARK  6 active torsions:
REMARK  status: ('A' for Active; 'I' for Inactive)
REMARK    1  A    between atoms: C2_2  and  C3_3 
REMARK    2  A    between atoms: C4_4  and  P1_5 
REMARK    3  A    between atoms: P1_5  and  C5_6 
REMARK    4  A    between atoms: C5_6  and  C6_7 
REMARK    5  A    between atoms: C9_13  and  C10_14 
REMARK    6  A    between atoms: C15_20  and  C16_21 
ROOT
HETATM    1  C6  UNL     1       1.672  -0.765   0.753  1.00  0.00     0.069 C 
HETATM    2  C7  UNL     1       2.280  -0.129   1.907  1.00  0.00     0.181 C 
HETATM    3  S1  UNL     1       2.194   1.629   1.946  1.00  0.00     0.063 S 
HETATM    4  O1  UNL     1       3.327   2.368   1.307  1.00  0.00    -0.252 OA
HETATM    5  C8  UNL     1       0.622   2.322   1.775  1.00  0.00     0.196 C 
HETATM    6  N1  UNL     1      -0.554   2.082   1.311  1.00  0.00    -0.249 NA
HETATM    7  C9  UNL     1      -1.150   0.984   0.643  1.00  0.00     0.095 C 
HETATM    8  C15 UNL     1      -0.794  -0.156   0.090  1.00  0.00     0.073 C 
HETATM    9  N3  UNL     1       0.503  -0.775  -0.051  1.00  0.00    -0.350 N 
HETATM   10  H17 UNL     1       0.577  -1.340  -0.923  1.00  0.00     0.166 HD
ENDROOT
BRANCH   8  11
HETATM   11  C16 UNL     1      -1.844  -0.976  -0.488  1.00  0.00    -0.007 A 
HETATM   12  C17 UNL     1      -1.649  -1.501  -1.755  1.00  0.00     0.017 A 
HETATM   13  C18 UNL     1      -2.588  -2.325  -2.365  1.00  0.00     0.043 A 
HETATM   14  C19 UNL     1      -3.757  -2.663  -1.748  1.00  0.00     0.116 A 
HETATM   15  F1  UNL     1      -4.684  -3.452  -2.304  1.00  0.00    -0.206 F 
HETATM   16  C20 UNL     1      -3.989  -2.161  -0.486  1.00  0.00     0.043 A 
HETATM   17  C21 UNL     1      -3.058  -1.353   0.100  1.00  0.00     0.017 A 
ENDBRANCH   8  11
BRANCH   7  18
HETATM   18  C10 UNL     1      -2.563   1.370   0.549  1.00  0.00    -0.002 A 
HETATM   19  C11 UNL     1      -3.197   1.834   1.713  1.00  0.00     0.033 A 
HETATM   20  C12 UNL     1      -4.503   2.268   1.802  1.00  0.00     0.117 A 
HETATM   21  N2  UNL     1      -5.214   2.238   0.664  1.00  0.00    -0.273 NA
HETATM   22  C13 UNL     1      -4.690   1.809  -0.503  1.00  0.00     0.117 A 
HETATM   23  C14 UNL     1      -3.390   1.384  -0.561  1.00  0.00     0.033 A 
ENDBRANCH   7  18
BRANCH   1  24
HETATM   24  C5  UNL     1       2.515  -1.665   0.261  1.00  0.00    -0.089 C 
BRANCH  24  25
HETATM   25  P1  UNL     1       3.712  -2.444  -0.580  1.00  0.00     0.025 P 
BRANCH  25  26
HETATM   26  C4  UNL     1       4.685  -1.442  -1.749  1.00  0.00     0.025 C 
HETATM   27  C3  UNL     1       5.500  -0.435  -1.534  1.00  0.00     0.001 C 
BRANCH  27  28
HETATM   28  C2  UNL     1       5.747   0.049  -0.192  1.00  0.00    -0.010 C 
HETATM   29  C1  UNL     1       6.591   1.083  -0.033  1.00  0.00     0.011 C 
ENDBRANCH  27  28
ENDBRANCH  25  26
ENDBRANCH  24  25
ENDBRANCH   1  24
TORSDOF 6
