REMARK  5 active torsions:
REMARK  status: ('A' for Active; 'I' for Inactive)
REMARK    1  A    between atoms: C4_5  and  N2_6 
REMARK    2  A    between atoms: N2_6  and  C5_7 
REMARK    3  A    between atoms: C5_7  and  C6_8 
REMARK    4  A    between atoms: C9_11  and  S1_12 
REMARK    5  A    between atoms: C15_19  and  C16_20 
ROOT
HETATM    1  C1  UNL     1      -3.139  -0.321  -2.671  1.00  0.00     0.046 C 
HETATM    2  C2  UNL     1      -2.623  -0.191  -1.262  1.00  0.00    -0.056 C 
HETATM    3  C3  UNL     1      -1.292  -0.387  -1.211  1.00  0.00     0.121 C 
HETATM    4  N1  UNL     1      -0.489  -0.333  -0.012  1.00  0.00    -0.247 NA
HETATM    5  C4  UNL     1      -0.600  -0.863   1.171  1.00  0.00     0.103 C 
HETATM    6  C12 UNL     1      -1.622  -1.770   1.812  1.00  0.00     0.105 C 
HETATM    7  C13 UNL     1      -2.896  -1.008   1.950  1.00  0.00    -0.022 C 
HETATM    8  C14 UNL     1      -3.595  -0.332   1.024  1.00  0.00    -0.019 C 
HETATM    9  C15 UNL     1      -3.748   0.121  -0.360  1.00  0.00     0.066 C 
ENDROOT
BRANCH   5  10
HETATM   10  N2  UNL     1       0.468  -0.504   2.025  1.00  0.00    -0.374 N 
HETATM   11  H5  UNL     1       0.783  -1.225   2.726  1.00  0.00     0.161 HD
BRANCH  10  12
HETATM   12  C5  UNL     1       1.054   0.814   1.885  1.00  0.00     0.155 C 
BRANCH  12  13
HETATM   13  C6  UNL     1       1.779   0.913   0.592  1.00  0.00    -0.058 A 
HETATM   14  C7  UNL     1       1.694   1.678  -0.510  1.00  0.00     0.006 A 
HETATM   15  C8  UNL     1       2.743   1.245  -1.453  1.00  0.00     0.017 A 
HETATM   16  C9  UNL     1       3.399   0.262  -0.892  1.00  0.00     0.013 A 
HETATM   17  C11 UNL     1       2.891  -0.083   0.461  1.00  0.00     0.084 A 
BRANCH  16  18
HETATM   18  S1  UNL     1       4.743  -0.513  -1.742  1.00  0.00     0.042 S 
HETATM   19  C10 UNL     1       6.287  -0.321  -0.840  1.00  0.00     0.132 C 
HETATM   20  O1  UNL     1       4.451  -1.970  -2.042  1.00  0.00    -0.253 OA
ENDBRANCH  16  18
ENDBRANCH  12  13
ENDBRANCH  10  12
ENDBRANCH   5  10
BRANCH   9  21
HETATM   21  C16 UNL     1      -3.875   1.643  -0.316  1.00  0.00     0.235 C 
HETATM   22  F1  UNL     1      -4.919   2.036   0.516  1.00  0.00    -0.254 F 
ENDBRANCH   9  21
TORSDOF 5
