REMARK  3 active torsions:
REMARK  status: ('A' for Active; 'I' for Inactive)
REMARK    1  A    between atoms: C3_4  and  C4_5 
REMARK    2  A    between atoms: C4_5  and  C5_6 
REMARK    3  A    between atoms: C11_14  and  S2_15 
ROOT
HETATM    1  B1  UNL     1       7.201   2.562   1.445  1.00  0.00     0.195 B 
HETATM    2  C1  UNL     1       6.534   0.893   1.451  1.00  0.00    -0.236 C 
HETATM    3  C2  UNL     1       5.997  -0.452   1.430  1.00  0.00     0.030 C 
HETATM    4  C3  UNL     1       5.173  -0.816   0.462  1.00  0.00    -0.014 C 
ENDROOT
BRANCH   4   5
HETATM    5  C4  UNL     1       4.431  -2.080   0.103  1.00  0.00     0.087 C 
BRANCH   5   6
HETATM    6  C5  UNL     1       2.970  -1.699   0.112  1.00  0.00     0.046 C 
HETATM    7  C6  UNL     1       2.130  -2.323   0.929  1.00  0.00     0.143 C 
HETATM    8  N1  UNL     1       0.837  -2.462   1.396  1.00  0.00    -0.264 NA
HETATM    9  C7  UNL     1       0.061  -3.443   1.518  1.00  0.00     0.166 C 
HETATM   10  S1  UNL     1      -1.419  -2.667   2.216  1.00  0.00    -0.083 SA
HETATM   11  C8  UNL     1      -1.872  -1.311   1.119  1.00  0.00     0.005 C 
HETATM   12  C9  UNL     1      -2.569  -0.214   1.487  1.00  0.00    -0.001 C 
HETATM   13  C19 UNL     1      -1.225  -1.627  -0.165  1.00  0.00     0.049 C 
HETATM   14  C10 UNL     1      -3.294   1.102   1.517  1.00  0.00     0.088 C 
HETATM   15  C11 UNL     1      -3.390   1.869   0.406  1.00  0.00     0.033 C 
HETATM   16  C13 UNL     1      -2.781   2.303  -0.951  1.00  0.00     0.002 C 
HETATM   17  C14 UNL     1      -1.578   2.051  -1.637  1.00  0.00     0.089 A 
HETATM   18  C15 UNL     1      -0.597   1.245  -0.930  1.00  0.00    -0.019 A 
HETATM   19  C17 UNL     1      -1.485   0.689  -2.140  1.00  0.00     0.202 A 
HETATM   20  C16 UNL     1       0.358   0.518  -0.393  1.00  0.00     0.113 C 
HETATM   21  N2  UNL     1       1.565  -0.073  -0.627  1.00  0.00    -0.311 N 
HETATM   22  N3  UNL     1       2.739  -0.641  -0.852  1.00  0.00    -0.304 N 
HETATM   23  H15 UNL     1       2.052   0.764  -0.170  1.00  0.00     0.186 HD
HETATM   24  H16 UNL     1       3.419  -0.405  -1.603  1.00  0.00     0.186 HD
HETATM   25  N4  UNL     1      -1.157  -0.415  -1.822  1.00  0.00    -0.450 NA
HETATM   26  C18 UNL     1      -0.756  -1.597  -1.417  1.00  0.00     0.177 C 
BRANCH  15  27
HETATM   27  S2  UNL     1      -4.339   3.318   0.754  1.00  0.00     0.016 S 
HETATM   28  C12 UNL     1      -5.568   3.523  -0.552  1.00  0.00     0.127 C 
HETATM   29  O1  UNL     1      -5.096   3.244   2.062  1.00  0.00    -0.258 OA
ENDBRANCH  15  27
ENDBRANCH   5   6
ENDBRANCH   4   5
TORSDOF 3
