REMARK  5 active torsions:
REMARK  status: ('A' for Active; 'I' for Inactive)
REMARK    1  A    between atoms: C3_3  and  C4_4 
REMARK    2  A    between atoms: C8_9  and  C9_10 
REMARK    3  A    between atoms: N3_18  and  C15_19 
REMARK    4  A    between atoms: C15_19  and  C16_20 
REMARK    5  A    between atoms: C19_23  and  S1_24 
ROOT
HETATM    1  C1  UNL     1      -1.733  -0.388  -2.774  1.00  0.00     0.041 C 
HETATM    2  C2  UNL     1      -1.119  -1.200  -1.925  1.00  0.00     0.038 C 
HETATM    3  C3  UNL     1      -1.436  -2.295  -1.010  1.00  0.00     0.161 C 
HETATM    4  N2  UNL     1      -0.158  -2.158  -0.483  1.00  0.00    -0.223 NA
HETATM    5  N3  UNL     1       0.233  -1.355  -1.519  1.00  0.00    -0.310 N 
HETATM    6  H11 UNL     1       0.126  -1.923   0.429  1.00  0.00     0.148 HD
ENDROOT
BRANCH   3   7
HETATM    7  C4  UNL     1      -2.565  -2.205  -0.132  1.00  0.00    -0.019 A 
HETATM    8  C5  UNL     1      -3.318  -3.352   0.158  1.00  0.00     0.029 A 
HETATM    9  C6  UNL     1      -4.410  -3.475   0.986  1.00  0.00     0.117 A 
HETATM   10  N1  UNL     1      -4.838  -2.358   1.618  1.00  0.00    -0.272 NA
HETATM   11  C7  UNL     1      -4.153  -1.202   1.384  1.00  0.00     0.129 A 
HETATM   12  C8  UNL     1      -3.047  -1.108   0.536  1.00  0.00    -0.000 A 
BRANCH  12  13
HETATM   13  C9  UNL     1      -2.475   0.209   0.411  1.00  0.00    -0.024 A 
HETATM   14  C10 UNL     1      -1.277   0.844   0.609  1.00  0.00     0.015 A 
HETATM   15  C11 UNL     1      -1.040   2.169   0.351  1.00  0.00     0.043 A 
HETATM   16  C12 UNL     1      -2.027   2.987  -0.143  1.00  0.00     0.116 A 
HETATM   17  F1  UNL     1      -1.627   4.260  -0.340  1.00  0.00    -0.206 F 
HETATM   18  C13 UNL     1      -3.252   2.427  -0.366  1.00  0.00     0.043 A 
HETATM   19  C14 UNL     1      -3.466   1.077  -0.096  1.00  0.00     0.015 A 
ENDBRANCH  12  13
ENDBRANCH   3   7
BRANCH   5  20
HETATM   20  C15 UNL     1       1.563  -0.930  -1.912  1.00  0.00     0.181 C 
BRANCH  20  21
HETATM   21  C16 UNL     1       2.247  -0.189  -0.861  1.00  0.00    -0.039 A 
HETATM   22  C17 UNL     1       3.005  -0.902   0.049  1.00  0.00     0.010 A 
HETATM   23  C18 UNL     1       3.654  -0.190   1.042  1.00  0.00     0.021 A 
HETATM   24  C19 UNL     1       3.573   1.183   1.155  1.00  0.00     0.031 A 
HETATM   25  C21 UNL     1       2.822   1.911   0.256  1.00  0.00     0.021 A 
HETATM   26  C22 UNL     1       2.179   1.178  -0.733  1.00  0.00     0.010 A 
BRANCH  24  27
HETATM   27  S1  UNL     1       4.435   2.035   2.459  1.00  0.00     0.045 S 
HETATM   28  C20 UNL     1       6.076   2.446   1.798  1.00  0.00     0.133 C 
HETATM   29  O1  UNL     1       4.626   1.074   3.622  1.00  0.00    -0.253 OA
ENDBRANCH  24  27
ENDBRANCH  20  21
ENDBRANCH   5  20
TORSDOF 5
