REMARK  5 active torsions:
REMARK  status: ('A' for Active; 'I' for Inactive)
REMARK    1  A    between atoms: C2_5  and  C3_6 
REMARK    2  A    between atoms: C8_12  and  N3_13 
REMARK    3  A    between atoms: N3_13  and  C9_14 
REMARK    4  A    between atoms: C9_14  and  C10_15 
REMARK    5  A    between atoms: C11_16  and  C12_17 
ROOT
HETATM    1  O1  UNL     1      -5.737   0.644  -1.167  1.00  0.00    -0.247 OA
HETATM    2  S1  UNL     1      -4.493   1.567  -1.299  1.00  0.00     0.088 S 
HETATM    3  C1  UNL     1      -3.151   0.378  -1.657  1.00  0.00     0.200 C 
HETATM    4  N1  UNL     1      -2.319   0.307  -0.596  1.00  0.00    -0.250 NA
HETATM    5  C2  UNL     1      -1.262  -0.500  -0.625  1.00  0.00     0.078 C 
HETATM    6  C8  UNL     1      -0.917  -0.241   0.686  1.00  0.00    -0.002 C 
HETATM    7  B1  UNL     1      -0.946   0.377   2.166  1.00  0.00     0.277 B 
HETATM    8  S2  UNL     1      -0.687   2.296   2.263  1.00  0.00    -0.240 SA
HETATM    9  C16 UNL     1      -2.204   2.982   1.430  1.00  0.00     0.028 A 
HETATM   10  C17 UNL     1      -3.033   3.006   2.428  1.00  0.00    -0.005 A 
HETATM   11  C18 UNL     1      -3.991   2.515   1.638  1.00  0.00     0.015 A 
HETATM   12  C19 UNL     1      -4.080   2.141   0.325  1.00  0.00     0.021 A 
HETATM   13  C20 UNL     1      -2.711   2.519   0.239  1.00  0.00     0.064 A 
HETATM   14  C21 UNL     1      -1.380   2.936   0.351  1.00  0.00     0.059 A 
HETATM   15  H13 UNL     1      -1.830  -0.040   2.878  1.00  0.00    -0.007 HD
ENDROOT
BRANCH   6  16
HETATM   16  N3  UNL     1       0.275  -0.952   1.244  1.00  0.00    -0.396 N 
HETATM   17  H6  UNL     1       0.775  -0.367   0.482  1.00  0.00     0.158 HD
BRANCH  16  18
HETATM   18  C9  UNL     1       1.410  -1.635   1.782  1.00  0.00     0.158 C 
BRANCH  18  19
HETATM   19  C10 UNL     1       2.680  -1.177   1.188  1.00  0.00    -0.034 A 
HETATM   20  C11 UNL     1       3.269  -0.309   0.421  1.00  0.00    -0.043 A 
HETATM   21  C14 UNL     1       4.619  -0.935   0.551  1.00  0.00     0.009 A 
HETATM   22  C15 UNL     1       3.926  -1.763   1.309  1.00  0.00     0.010 A 
BRANCH  20  23
HETATM   23  C12 UNL     1       2.678   0.856  -0.310  1.00  0.00     0.130 C 
HETATM   24  C13 UNL     1       3.604   1.517  -1.058  1.00  0.00     0.366 C 
HETATM   25  F1  UNL     1       4.850   1.731  -1.556  1.00  0.00    -0.461 F 
ENDBRANCH  20  23
ENDBRANCH  18  19
ENDBRANCH  16  18
ENDBRANCH   6  16
BRANCH   5  26
HETATM   26  C3  UNL     1      -0.370  -1.481  -1.282  1.00  0.00    -0.004 A 
HETATM   27  C4  UNL     1      -0.160  -2.757  -0.741  1.00  0.00     0.033 A 
HETATM   28  C5  UNL     1       0.680  -3.688  -1.352  1.00  0.00     0.117 A 
HETATM   29  N2  UNL     1       1.239  -3.267  -2.440  1.00  0.00    -0.273 NA
HETATM   30  C6  UNL     1       1.127  -2.109  -3.039  1.00  0.00     0.117 A 
HETATM   31  C7  UNL     1       0.311  -1.170  -2.477  1.00  0.00     0.033 A 
ENDBRANCH   5  26
TORSDOF 5
