REMARK  9 active torsions:
REMARK  status: ('A' for Active; 'I' for Inactive)
REMARK    1  A    between atoms: O1_2  and  C2_3 
REMARK    2  A    between atoms: C2_3  and  C3_4 
REMARK    3  A    between atoms: C4_5  and  C5_6 
REMARK    4  A    between atoms: C5_6  and  C6_7 
REMARK    5  A    between atoms: C5_6  and  C7_9 
REMARK    6  A    between atoms: C6_7  and  N1_8 
REMARK    7  A    between atoms: C7_9  and  N2_10 
REMARK    8  A    between atoms: C7_9  and  C8_11 
REMARK    9  A    between atoms: C7_9  and  C13_18 
ROOT
HETATM    1  C7  UNL     1      -0.971  -0.297   0.584  1.00  0.00     0.216 C 
ENDROOT
BRANCH   1   2
HETATM    2  C5  UNL     1       0.453  -0.846   0.739  1.00  0.00     0.034 C 
BRANCH   2   3
HETATM    3  C4  UNL     1       1.885  -1.401   0.897  1.00  0.00    -0.018 C 
HETATM    4  C3  UNL     1       2.853  -0.644   0.418  1.00  0.00    -0.004 C 
BRANCH   4   5
HETATM    5  C2  UNL     1       3.237   0.611  -0.262  1.00  0.00     0.194 C 
BRANCH   5   6
HETATM    6  O1  UNL     1       4.098   1.337   0.603  1.00  0.00    -0.392 OA
HETATM    7  C1  UNL     1       4.422   2.514  -0.105  1.00  0.00     0.201 C 
ENDBRANCH   5   6
ENDBRANCH   4   5
ENDBRANCH   2   3
BRANCH   2   8
HETATM    8  C6  UNL     1      -0.120  -1.974   1.382  1.00  0.00     0.152 C 
BRANCH   8   9
HETATM    9  N1  UNL     1      -0.353  -3.224   2.057  1.00  0.00    -0.423 N 
HETATM   10  H9  UNL     1       0.010  -3.755   1.235  1.00  0.00     0.150 HD
HETATM   11  H10 UNL     1      -0.751  -2.895   2.982  1.00  0.00     0.150 HD
ENDBRANCH   8   9
ENDBRANCH   2   8
ENDBRANCH   1   2
BRANCH   1  12
HETATM   12  N2  UNL     1      -1.491  -0.104   1.914  1.00  0.00     0.097 N 
HETATM   13  H11 UNL     1      -2.492   0.038   1.995  1.00  0.00     0.314 HD
HETATM   14  H12 UNL     1      -0.916   0.587   2.401  1.00  0.00     0.314 HD
ENDBRANCH   1  12
BRANCH   1  15
HETATM   15  C8  UNL     1      -1.804  -1.181  -0.256  1.00  0.00    -0.014 C 
HETATM   16  C9  UNL     1      -1.441  -2.266  -0.935  1.00  0.00     0.052 C 
HETATM   17  C10 UNL     1      -2.328  -3.112  -1.760  1.00  0.00     0.147 C 
HETATM   18  F1  UNL     1      -1.779  -3.946  -2.672  1.00  0.00    -0.204 F 
HETATM   19  C11 UNL     1      -3.598  -2.914  -1.463  1.00  0.00     0.121 C 
HETATM   20  N3  UNL     1      -4.014  -1.792  -1.082  1.00  0.00    -0.280 NA
HETATM   21  C12 UNL     1      -3.210  -0.790  -0.391  1.00  0.00     0.187 C 
ENDBRANCH   1  15
BRANCH   1  22
HETATM   22  C13 UNL     1      -0.937   1.032  -0.136  1.00  0.00    -0.012 A 
HETATM   23  C14 UNL     1      -0.287   1.361  -1.292  1.00  0.00     0.029 A 
HETATM   24  C15 UNL     1      -0.360   2.622  -1.819  1.00  0.00     0.117 A 
HETATM   25  N4  UNL     1      -1.065   3.605  -1.242  1.00  0.00    -0.273 NA
HETATM   26  C16 UNL     1      -1.737   3.356  -0.092  1.00  0.00     0.117 A 
HETATM   27  C17 UNL     1      -1.657   2.084   0.429  1.00  0.00     0.029 A 
ENDBRANCH   1  22
TORSDOF 9
