REMARK  3 active torsions:
REMARK  status: ('A' for Active; 'I' for Inactive)
REMARK    1  A    between atoms: S1_2  and  C1_3 
REMARK    2  A    between atoms: S1_2  and  C2_5 
REMARK    3  A    between atoms: C7_11  and  C8_12 
ROOT
HETATM    1  C2  UNL     1       3.696  -0.561  -0.269  1.00  0.00     0.033 C 
HETATM    2  C3  UNL     1       3.428  -1.658  -0.984  1.00  0.00     0.021 C 
HETATM    3  C4  UNL     1       2.242  -2.234  -1.603  1.00  0.00     0.003 C 
HETATM    4  C5  UNL     1       1.025  -1.744  -1.749  1.00  0.00     0.028 C 
HETATM    5  C6  UNL     1       0.227  -0.560  -1.453  1.00  0.00     0.042 A 
HETATM    6  N1  UNL     1      -0.960  -1.012  -1.456  1.00  0.00    -0.279 NA
HETATM    7  C7  UNL     1      -2.174  -0.292  -1.223  1.00  0.00     0.175 A 
HETATM    8  C13 UNL     1      -1.858   1.085  -0.824  1.00  0.00    -0.022 A 
HETATM    9  C14 UNL     1      -2.904   1.892  -0.439  1.00  0.00     0.010 A 
HETATM   10  C15 UNL     1      -2.773   3.205  -0.038  1.00  0.00     0.001 A 
HETATM   11  C16 UNL     1      -1.492   3.762  -0.019  1.00  0.00     0.001 A 
HETATM   12  C17 UNL     1      -0.437   2.953  -0.405  1.00  0.00     0.009 A 
HETATM   13  C18 UNL     1      -0.598   1.639  -0.802  1.00  0.00    -0.036 A 
HETATM   14  C19 UNL     1       0.592   0.844  -1.201  1.00  0.00     0.093 A 
HETATM   15  C20 UNL     1       1.689   1.005  -0.214  1.00  0.00    -0.010 C 
HETATM   16  C21 UNL     1       2.848   0.531   0.184  1.00  0.00     0.018 C 
ENDROOT
BRANCH   7  17
HETATM   17  C8  UNL     1      -3.013  -0.999  -0.214  1.00  0.00    -0.026 A 
HETATM   18  C9  UNL     1      -4.370  -1.176  -0.400  1.00  0.00     0.029 A 
HETATM   19  C10 UNL     1      -5.149  -1.829   0.528  1.00  0.00     0.117 A 
HETATM   20  N2  UNL     1      -4.560  -2.298   1.634  1.00  0.00    -0.273 NA
HETATM   21  C11 UNL     1      -3.243  -2.125   1.810  1.00  0.00     0.117 A 
HETATM   22  C12 UNL     1      -2.387  -1.479   0.924  1.00  0.00     0.029 A 
ENDBRANCH   7  17
BRANCH   1  23
HETATM   23  S1  UNL     1       5.406  -0.497   0.167  1.00  0.00     0.078 S 
HETATM   24  O1  UNL     1       6.055   0.776  -0.372  1.00  0.00    -0.250 OA
BRANCH  23  25
HETATM   25  C1  UNL     1       5.548  -0.529   1.956  1.00  0.00     0.336 C 
HETATM   26  F1  UNL     1       4.919   0.522   2.567  1.00  0.00    -0.242 F 
ENDBRANCH  23  25
ENDBRANCH   1  23
TORSDOF 3
