REMARK  2 active torsions:
REMARK  status: ('A' for Active; 'I' for Inactive)
REMARK    1  A    between atoms: O1_1  and  C1_2 
REMARK    2  A    between atoms: C11_17  and  N5_18 
ROOT
HETATM    1  C1  UNL     1      -3.301   0.982  -0.492  1.00  0.00     0.120 C 
HETATM    2  C2  UNL     1      -3.993  -0.273  -0.108  1.00  0.00     0.051 C 
HETATM    3  C3  UNL     1      -3.029  -1.108   0.795  1.00  0.00     0.117 C 
HETATM    4  N1  UNL     1      -1.868  -1.292   0.006  1.00  0.00    -0.411 N 
HETATM    5  C4  UNL     1      -0.725  -1.963   0.557  1.00  0.00     0.135 C 
HETATM    6  C5  UNL     1      -0.280  -2.893  -0.576  1.00  0.00     0.199 C 
HETATM    7  O2  UNL     1      -0.426  -2.316  -1.812  1.00  0.00    -0.370 OA
HETATM    8  C6  UNL     1       0.686  -1.633  -2.325  1.00  0.00     0.296 C 
HETATM    9  N2  UNL     1       1.024  -0.645  -1.324  1.00  0.00    -0.328 N 
HETATM   10  C7  UNL     1       0.575   0.634  -1.824  1.00  0.00     0.210 C 
HETATM   11  N3  UNL     1       0.327   1.748  -1.162  1.00  0.00    -0.229 NA
HETATM   12  C8  UNL     1      -0.480   1.916   0.038  1.00  0.00     0.127 C 
HETATM   13  N4  UNL     1      -0.378   1.382   1.242  1.00  0.00    -0.245 NA
HETATM   14  C9  UNL     1       0.111   0.091   1.692  1.00  0.00     0.127 C 
HETATM   15  C10 UNL     1       0.356  -0.897   0.819  1.00  0.00     0.004 C 
HETATM   16  C11 UNL     1       1.637  -0.938  -0.013  1.00  0.00     0.228 C 
HETATM   17  C17 UNL     1      -1.691   2.758   0.224  1.00  0.00     0.083 C 
HETATM   18  C18 UNL     1      -2.871   1.867   0.650  1.00  0.00     0.039 C 
HETATM   19  H7  UNL     1      -2.060  -1.433  -0.984  1.00  0.00     0.153 HD
ENDROOT
BRANCH  16  20
HETATM   20  N5  UNL     1       2.709  -0.149   0.385  1.00  0.00    -0.298 N 
HETATM   21  C12 UNL     1       3.779  -0.382  -0.570  1.00  0.00     0.193 A 
HETATM   22  F1  UNL     1       3.785  -1.189  -1.685  1.00  0.00    -0.186 F 
HETATM   23  C13 UNL     1       4.984   0.188  -0.499  1.00  0.00     0.103 A 
HETATM   24  C14 UNL     1       5.345   1.125   0.575  1.00  0.00     0.121 A 
HETATM   25  F2  UNL     1       6.532   1.731   0.714  1.00  0.00    -0.206 F 
HETATM   26  C15 UNL     1       4.361   1.332   1.433  1.00  0.00     0.073 A 
HETATM   27  C16 UNL     1       2.986   0.775   1.469  1.00  0.00     0.302 A 
HETATM   28  F3  UNL     1       2.884   0.204   2.716  1.00  0.00    -0.222 F 
ENDBRANCH  16  20
BRANCH   1  29
HETATM   29  O1  UNL     1      -4.006   1.684  -1.446  1.00  0.00    -0.396 OA
HETATM   30  H1  UNL     1      -4.988   1.649  -1.330  1.00  0.00     0.210 HD
ENDBRANCH   1  29
TORSDOF 2
