REMARK  6 active torsions:
REMARK  status: ('A' for Active; 'I' for Inactive)
REMARK    1  A    between atoms: C2_2  and  O1_3 
REMARK    2  A    between atoms: O1_3  and  C3_4 
REMARK    3  A    between atoms: C3_4  and  C4_5 
REMARK    4  A    between atoms: C10_13  and  N3_14 
REMARK    5  A    between atoms: N3_14  and  C11_15 
REMARK    6  A    between atoms: N4_24  and  C17_25 
ROOT
HETATM    1  C4  UNL     1       4.502  -0.276  -0.431  1.00  0.00     0.151 C 
HETATM    2  C5  UNL     1       4.169  -1.715  -0.724  1.00  0.00     0.032 C 
HETATM    3  C6  UNL     1       3.528  -2.421   0.418  1.00  0.00     0.023 C 
HETATM    4  C7  UNL     1       2.141  -2.049   0.719  1.00  0.00     0.147 C 
HETATM    5  N1  UNL     1       1.560  -0.959  -0.019  1.00  0.00    -0.189 N 
HETATM    6  C8  UNL     1       0.158  -1.307   0.108  1.00  0.00     0.127 C 
HETATM    7  C9  UNL     1      -0.927  -0.514   0.021  1.00  0.00     0.062 A 
HETATM    8  N2  UNL     1      -2.329  -0.845   0.144  1.00  0.00    -0.079 NA
HETATM    9  C10 UNL     1      -3.038   0.222  -0.007  1.00  0.00     0.689 A 
HETATM   10  N4  UNL     1      -2.320   1.442  -0.250  1.00  0.00    -0.250 N 
HETATM   11  B1  UNL     1      -0.824   1.053  -0.254  1.00  0.00     0.415 B 
HETATM   12  C21 UNL     1       0.226   1.685  -1.232  1.00  0.00     0.091 C 
HETATM   13  N5  UNL     1       1.451   1.280  -1.391  1.00  0.00    -0.088 NA
HETATM   14  C22 UNL     1       2.095   0.186  -0.718  1.00  0.00     0.722 C 
HETATM   15  N6  UNL     1       3.337   0.485  -0.900  1.00  0.00    -0.098 NA
ENDROOT
BRANCH   9  16
HETATM   16  N3  UNL     1      -4.451   0.098   0.079  1.00  0.00    -0.185 N 
HETATM   17  H16 UNL     1      -5.047   0.948   0.141  1.00  0.00     0.184 HD
BRANCH  16  18
HETATM   18  C11 UNL     1      -5.146  -1.164   0.088  1.00  0.00     0.126 A 
HETATM   19  C12 UNL     1      -5.467  -1.904   1.201  1.00  0.00     0.149 A 
HETATM   20  F1  UNL     1      -5.089  -1.390   2.393  1.00  0.00    -0.203 F 
HETATM   21  C13 UNL     1      -6.135  -3.088   1.008  1.00  0.00     0.087 A 
HETATM   22  C14 UNL     1      -6.464  -3.503  -0.262  1.00  0.00     0.122 A 
HETATM   23  F2  UNL     1      -7.129  -4.693  -0.371  1.00  0.00    -0.206 F 
HETATM   24  C15 UNL     1      -6.146  -2.765  -1.385  1.00  0.00     0.087 A 
HETATM   25  C16 UNL     1      -5.473  -1.573  -1.192  1.00  0.00     0.149 A 
HETATM   26  F3  UNL     1      -5.187  -0.890  -2.332  1.00  0.00    -0.203 F 
ENDBRANCH  16  18
ENDBRANCH   9  16
BRANCH  10  27
HETATM   27  C17 UNL     1      -2.813   2.772  -0.479  1.00  0.00     0.112 C 
HETATM   28  C18 UNL     1      -3.840   3.240   0.523  1.00  0.00     0.053 C 
HETATM   29  C19 UNL     1      -3.489   4.710   0.712  1.00  0.00     0.169 C 
HETATM   30  O2  UNL     1      -2.127   4.649   0.778  1.00  0.00    -0.389 OA
HETATM   31  C20 UNL     1      -1.672   3.759  -0.187  1.00  0.00     0.192 C 
ENDBRANCH  10  27
BRANCH   1  32
HETATM   32  C3  UNL     1       4.669   0.028   1.006  1.00  0.00     0.195 C 
BRANCH  32  33
HETATM   33  O1  UNL     1       5.689  -0.507   1.704  1.00  0.00    -0.389 OA
BRANCH  33  34
HETATM   34  C2  UNL     1       6.976  -0.193   1.482  1.00  0.00     0.163 C 
HETATM   35  C1  UNL     1       7.559  -0.501   0.144  1.00  0.00     0.033 C 
ENDBRANCH  33  34
ENDBRANCH  32  33
ENDBRANCH   1  32
TORSDOF 6
