REMARK  7 active torsions:
REMARK  status: ('A' for Active; 'I' for Inactive)
REMARK    1  A    between atoms: C3_4  and  C4_5 
REMARK    2  A    between atoms: C4_5  and  C5_7 
REMARK    3  A    between atoms: C4_5  and  N1_9 
REMARK    4  A    between atoms: N1_9  and  C6_10 
REMARK    5  A    between atoms: C9_15  and  N4_16 
REMARK    6  A    between atoms: C12_19  and  O1_20 
REMARK    7  A    between atoms: N6_25  and  C16_26 
ROOT
HETATM    1  C6  UNL     1      -2.077  -0.497  -0.485  1.00  0.00     0.708 A 
HETATM    2  N2  UNL     1      -1.869  -0.001  -1.745  1.00  0.00    -0.059 NA
HETATM    3  C7  UNL     1      -0.545   0.264  -1.863  1.00  0.00     0.141 A 
HETATM    4  C8  UNL     1       0.180   0.771  -2.913  1.00  0.00     0.172 A 
HETATM    5  N3  UNL     1       1.488   0.896  -2.649  1.00  0.00    -0.073 NA
HETATM    6  C9  UNL     1       2.025   0.556  -1.469  1.00  0.00     0.726 A 
HETATM    7  N5  UNL     1       1.272   0.057  -0.452  1.00  0.00    -0.042 NA
HETATM    8  C15 UNL     1      -0.051  -0.103  -0.629  1.00  0.00     0.196 A 
HETATM    9  N6  UNL     1      -0.953  -0.570   0.235  1.00  0.00    -0.155 N 
ENDROOT
BRANCH   1  10
HETATM   10  N1  UNL     1      -3.426  -0.891  -0.161  1.00  0.00    -0.181 N 
HETATM   11  H7  UNL     1      -3.665   0.088   0.244  1.00  0.00     0.181 HD
BRANCH  10  12
HETATM   12  C4  UNL     1      -4.705  -1.262   0.147  1.00  0.00     0.237 C 
HETATM   13  F2  UNL     1      -5.030  -2.574  -0.257  1.00  0.00    -0.211 F 
BRANCH  12  14
HETATM   14  C3  UNL     1      -5.712  -0.432  -0.642  1.00  0.00     0.079 C 
HETATM   15  C2  UNL     1      -5.998   0.869  -0.617  1.00  0.00     0.091 C 
HETATM   16  C1  UNL     1      -6.946   1.771  -1.332  1.00  0.00     0.082 C 
HETATM   17  F1  UNL     1      -5.305   1.684   0.251  1.00  0.00    -0.211 F 
ENDBRANCH  12  14
BRANCH  12  18
HETATM   18  C5  UNL     1      -5.077  -1.085   1.601  1.00  0.00     0.293 C 
HETATM   19  F3  UNL     1      -4.268  -1.779   2.469  1.00  0.00    -0.250 F 
ENDBRANCH  12  18
ENDBRANCH  10  12
ENDBRANCH   1  10
BRANCH   9  20
HETATM   20  C16 UNL     1      -0.815  -1.041   1.569  1.00  0.00     0.135 C 
HETATM   21  C17 UNL     1       0.354  -2.027   1.693  1.00  0.00     0.055 C 
HETATM   22  C18 UNL     1       0.949  -1.614   3.026  1.00  0.00     0.169 C 
HETATM   23  O2  UNL     1       0.903  -0.220   2.903  1.00  0.00    -0.389 OA
HETATM   24  C19 UNL     1      -0.435   0.004   2.585  1.00  0.00     0.194 C 
ENDBRANCH   9  20
BRANCH   6  25
HETATM   25  N4  UNL     1       3.412   0.696  -1.208  1.00  0.00    -0.214 N 
HETATM   26  C10 UNL     1       4.245   1.153  -2.274  1.00  0.00     0.143 C 
HETATM   27  C11 UNL     1       5.482   0.247  -2.309  1.00  0.00     0.052 C 
HETATM   28  C12 UNL     1       6.260   0.487  -1.033  1.00  0.00     0.121 C 
HETATM   29  C13 UNL     1       5.386   1.129   0.027  1.00  0.00     0.052 C 
HETATM   30  C14 UNL     1       4.028   0.414   0.048  1.00  0.00     0.143 C 
BRANCH  28  31
HETATM   31  O1  UNL     1       7.306   1.347  -1.343  1.00  0.00    -0.395 OA
HETATM   32  H14 UNL     1       8.111   0.775  -1.546  1.00  0.00     0.210 HD
ENDBRANCH  28  31
ENDBRANCH   6  25
TORSDOF 7
