REMARK  5 active torsions:
REMARK  status: ('A' for Active; 'I' for Inactive)
REMARK    1  A    between atoms: N1_1  and  C1_2 
REMARK    2  A    between atoms: C4_7  and  N4_8 
REMARK    3  A    between atoms: N4_8  and  C5_9 
REMARK    4  A    between atoms: N5_18  and  C12_19 
REMARK    5  A    between atoms: C19_28  and  O2_29 
ROOT
HETATM    1  C1  UNL     1       2.754   0.987  -0.406  1.00  0.00     0.350 C 
HETATM    2  N2  UNL     1       1.345   1.208  -0.442  1.00  0.00    -0.233 NA
HETATM    3  C2  UNL     1       0.224   0.574  -0.482  1.00  0.00     0.174 A 
HETATM    4  C3  UNL     1      -0.030  -0.803  -0.509  1.00  0.00     0.139 A 
HETATM    5  N3  UNL     1      -1.361  -0.978  -0.548  1.00  0.00    -0.059 NA
HETATM    6  C4  UNL     1      -1.916   0.244  -0.546  1.00  0.00     0.710 A 
HETATM    7  N5  UNL     1      -0.976   1.181  -0.507  1.00  0.00    -0.155 N 
HETATM    8  C16 UNL     1       0.709  -1.905  -0.504  1.00  0.00     0.152 C 
HETATM    9  N6  UNL     1       2.116  -2.114  -0.468  1.00  0.00    -0.267 NA
HETATM   10  C17 UNL     1       3.117  -1.410  -0.048  1.00  0.00     0.022 C 
HETATM   11  C18 UNL     1       4.323  -2.222  -0.310  1.00  0.00     0.087 C 
HETATM   12  C19 UNL     1       5.071  -2.359   0.995  1.00  0.00     0.123 C 
HETATM   13  C20 UNL     1       5.139  -1.045   1.715  1.00  0.00     0.033 C 
HETATM   14  C21 UNL     1       4.689   0.134   0.874  1.00  0.00     0.017 C 
HETATM   15  C22 UNL     1       3.207  -0.051   0.588  1.00  0.00     0.088 C 
ENDROOT
BRANCH   6  16
HETATM   16  N4  UNL     1      -3.321   0.374  -0.583  1.00  0.00    -0.186 N 
HETATM   17  H4  UNL     1      -4.054   1.106  -0.593  1.00  0.00     0.184 HD
BRANCH  16  18
HETATM   18  C5  UNL     1      -4.179  -0.759  -0.624  1.00  0.00     0.096 A 
HETATM   19  C6  UNL     1      -4.841  -1.230   0.394  1.00  0.00     0.125 A 
HETATM   20  F1  UNL     1      -4.725  -0.612   1.602  1.00  0.00    -0.208 F 
HETATM   21  C7  UNL     1      -5.740  -2.413   0.364  1.00  0.00     0.099 A 
HETATM   22  C8  UNL     1      -5.805  -3.020  -0.990  1.00  0.00    -0.019 A 
HETATM   23  C9  UNL     1      -5.156  -2.592  -2.075  1.00  0.00     0.012 A 
HETATM   24  C10 UNL     1      -4.316  -1.431  -1.903  1.00  0.00     0.021 A 
HETATM   25  C11 UNL     1      -3.669  -1.000  -2.970  1.00  0.00     0.202 C 
HETATM   26  F2  UNL     1      -3.594  -1.395  -4.248  1.00  0.00    -0.218 F 
ENDBRANCH  16  18
ENDBRANCH   6  16
BRANCH   7  27
HETATM   27  C12 UNL     1      -1.101   2.587  -0.490  1.00  0.00     0.135 C 
HETATM   28  C13 UNL     1      -0.325   3.231   0.669  1.00  0.00     0.055 C 
HETATM   29  C14 UNL     1      -1.010   4.561   0.767  1.00  0.00     0.169 C 
HETATM   30  O1  UNL     1      -2.147   4.521   0.010  1.00  0.00    -0.389 OA
HETATM   31  C15 UNL     1      -2.453   3.161  -0.251  1.00  0.00     0.194 C 
ENDBRANCH   7  27
BRANCH   1  32
HETATM   32  N1  UNL     1       3.430   2.251  -0.175  1.00  0.00     0.103 N 
HETATM   33  H1  UNL     1       3.333   2.565   0.796  1.00  0.00     0.315 HD
HETATM   34  H2  UNL     1       2.977   2.981  -0.769  1.00  0.00     0.315 HD
ENDBRANCH   1  32
BRANCH  12  35
HETATM   35  O2  UNL     1       6.350  -2.869   0.729  1.00  0.00    -0.395 OA
HETATM   36  H21 UNL     1       6.631  -3.290   1.598  1.00  0.00     0.210 HD
ENDBRANCH  12  35
TORSDOF 5
