REMARK  3 active torsions:
REMARK  status: ('A' for Active; 'I' for Inactive)
REMARK    1  A    between atoms: N2_6  and  C5_7 
REMARK    2  A    between atoms: C10_14  and  N4_15 
REMARK    3  A    between atoms: C13_18  and  O2_19 
ROOT
HETATM    1  C1  UNL     1       0.304   4.364  -1.015  1.00  0.00     0.045 C 
HETATM    2  C2  UNL     1      -0.104   3.091  -0.310  1.00  0.00    -0.065 C 
HETATM    3  C3  UNL     1      -1.253   2.663   0.188  1.00  0.00     0.087 C 
HETATM    4  N1  UNL     1      -2.416   2.051   0.777  1.00  0.00    -0.383 N 
HETATM    5  C4  UNL     1      -3.064   0.898   0.126  1.00  0.00     0.247 C 
HETATM    6  N2  UNL     1      -2.189  -0.247   0.289  1.00  0.00    -0.353 N 
HETATM    7  C9  UNL     1      -1.112  -0.069   1.239  1.00  0.00     0.203 C 
HETATM    8  N3  UNL     1      -0.463   0.541   0.312  1.00  0.00    -0.259 NA
HETATM    9  C10 UNL     1       0.839   1.035   0.681  1.00  0.00     0.214 C 
HETATM   10  C16 UNL     1       1.119   2.230  -0.235  1.00  0.00     0.084 C 
HETATM   11  H5  UNL     1      -2.792   2.438   1.692  1.00  0.00     0.160 HD
ENDROOT
BRANCH   9  12
HETATM   12  N4  UNL     1       1.911   0.109   0.544  1.00  0.00    -0.346 N 
HETATM   13  C11 UNL     1       3.223   0.616   0.914  1.00  0.00     0.129 C 
HETATM   14  C12 UNL     1       4.205  -0.453   0.413  1.00  0.00     0.052 C 
HETATM   15  C13 UNL     1       3.956  -1.760   1.091  1.00  0.00     0.126 C 
HETATM   16  C14 UNL     1       2.614  -2.307   0.704  1.00  0.00     0.109 C 
HETATM   17  C15 UNL     1       1.763  -1.230   0.083  1.00  0.00     0.098 C 
HETATM   18  N5  UNL     1       0.873  -1.394  -0.863  1.00  0.00    -0.288 NA
HETATM   19  H25 UNL     1       0.770  -2.380  -1.197  1.00  0.00     0.188 HD
BRANCH  15  20
HETATM   20  O2  UNL     1       4.955  -2.643   0.685  1.00  0.00    -0.395 OA
HETATM   21  H22 UNL     1       4.720  -3.576   0.960  1.00  0.00     0.210 HD
ENDBRANCH  15  20
ENDBRANCH   9  12
BRANCH   6  22
HETATM   22  C5  UNL     1      -2.414  -1.472  -0.413  1.00  0.00     0.112 C 
HETATM   23  C6  UNL     1      -2.429  -1.347  -1.913  1.00  0.00     0.053 C 
HETATM   24  C7  UNL     1      -3.430  -2.413  -2.300  1.00  0.00     0.169 C 
HETATM   25  O1  UNL     1      -4.201  -2.722  -1.218  1.00  0.00    -0.389 OA
HETATM   26  C8  UNL     1      -3.839  -1.907  -0.157  1.00  0.00     0.193 C 
ENDBRANCH   6  22
TORSDOF 3
