REMARK  5 active torsions:
REMARK  status: ('A' for Active; 'I' for Inactive)
REMARK    1  A    between atoms: C2_2  and  C3_3 
REMARK    2  A    between atoms: C2_2  and  C7_8 
REMARK    3  A    between atoms: C3_3  and  C4_4 
REMARK    4  A    between atoms: C4_4  and  C5_5 
REMARK    5  A    between atoms: C5_5  and  C6_6 
ROOT
HETATM    1  C7  UNL     1       1.334  -0.255  -0.483  1.00  0.00     0.126 C 
HETATM    2  C8  UNL     1       1.242   0.991   0.463  1.00  0.00     0.195 C 
HETATM    3  N1  UNL     1       0.004   1.459  -0.101  1.00  0.00    -0.105 NA
HETATM    4  C9  UNL     1      -0.843   0.791  -0.601  1.00  0.00     0.699 C 
HETATM    5  N2  UNL     1      -1.646   1.970  -0.875  1.00  0.00    -0.184 N 
HETATM    6  C10 UNL     1      -2.897   1.981  -0.055  1.00  0.00     0.127 A 
HETATM    7  C11 UNL     1      -2.602   2.563   1.123  1.00  0.00     0.149 A 
HETATM    8  F1  UNL     1      -1.629   3.449   1.271  1.00  0.00    -0.203 F 
HETATM    9  C12 UNL     1      -3.511   2.053   2.079  1.00  0.00     0.087 A 
HETATM   10  C13 UNL     1      -4.460   1.109   1.653  1.00  0.00     0.128 A 
HETATM   11  F2  UNL     1      -5.360   0.578   2.544  1.00  0.00    -0.205 F 
HETATM   12  C14 UNL     1      -4.411   0.778   0.316  1.00  0.00     0.024 A 
HETATM   13  C15 UNL     1      -3.674   1.127  -0.770  1.00  0.00     0.156 A 
HETATM   14  F3  UNL     1      -3.743   0.826  -2.031  1.00  0.00    -0.203 F 
HETATM   15  C16 UNL     1      -5.117  -0.435  -0.013  1.00  0.00     0.071 C 
HETATM   16  C17 UNL     1      -4.464  -1.574  -0.667  1.00  0.00     0.172 C 
HETATM   17  O1  UNL     1      -3.329  -2.207  -0.199  1.00  0.00    -0.389 OA
HETATM   18  C18 UNL     1      -2.306  -1.364  -0.318  1.00  0.00     0.188 C 
HETATM   19  C19 UNL     1      -0.845  -1.655  -0.062  1.00  0.00     0.168 C 
HETATM   20  N3  UNL     1      -0.141  -0.424  -0.381  1.00  0.00    -0.207 N 
HETATM   21  H16 UNL     1      -1.786   2.846  -1.374  1.00  0.00     0.184 HD
ENDROOT
BRANCH   1  22
HETATM   22  C2  UNL     1       2.151  -1.314   0.021  1.00  0.00     0.007 C 
HETATM   23  C1  UNL     1       1.787  -1.945   1.324  1.00  0.00     0.012 C 
BRANCH  22  24
HETATM   24  C3  UNL     1       3.599  -0.844   0.117  1.00  0.00     0.006 C 
BRANCH  24  25
HETATM   25  C4  UNL     1       4.099  -0.190  -1.132  1.00  0.00     0.001 C 
BRANCH  25  26
HETATM   26  C5  UNL     1       5.567   0.247  -0.988  1.00  0.00     0.011 C 
BRANCH  26  27
HETATM   27  C6  UNL     1       5.714   1.234   0.144  1.00  0.00     0.085 C 
HETATM   28 BR1  UNL     1       7.594   1.745   0.261  1.00  0.00    -0.097 Br
ENDBRANCH  26  27
ENDBRANCH  25  26
ENDBRANCH  24  25
ENDBRANCH  22  24
ENDBRANCH   1  22
TORSDOF 5
