REMARK  2 active torsions:
REMARK  status: ('A' for Active; 'I' for Inactive)
REMARK    1  A    between atoms: N2_18  and  C17_19 
REMARK    2  A    between atoms: C21_25  and  C22_26 
ROOT
HETATM    1  C1  UNL     1       0.716   3.996  -1.146  1.00  0.00     0.037 C 
HETATM    2  C2  UNL     1       1.327   2.802  -1.389  1.00  0.00    -0.005 C 
HETATM    3  C3  UNL     1       2.746   2.977  -1.039  1.00  0.00     0.056 C 
HETATM    4  C4  UNL     1       3.232   1.998   0.025  1.00  0.00     0.006 C 
HETATM    5  C5  UNL     1       3.414   0.602  -0.453  1.00  0.00     0.001 C 
HETATM    6  C6  UNL     1       3.811  -0.428   0.535  1.00  0.00     0.012 C 
HETATM    7  C7  UNL     1       2.882  -0.901   1.563  1.00  0.00     0.034 C 
HETATM    8  C8  UNL     1       1.974   0.076   2.160  1.00  0.00    -0.001 C 
HETATM    9  C9  UNL     1       0.744  -0.153   1.757  1.00  0.00     0.087 C 
HETATM   10  N1  UNL     1      -0.060  -1.146   1.076  1.00  0.00    -0.360 N 
HETATM   11  C10 UNL     1      -1.424  -0.924   0.890  1.00  0.00     0.145 C 
HETATM   12  C11 UNL     1      -2.041  -0.306  -0.297  1.00  0.00     0.029 A 
HETATM   13  C12 UNL     1      -2.073  -1.250  -1.460  1.00  0.00     0.045 A 
HETATM   14  C13 UNL     1      -3.418  -1.779  -1.797  1.00  0.00    -0.025 A 
HETATM   15  C14 UNL     1      -4.657  -1.606  -1.368  1.00  0.00    -0.002 A 
HETATM   16  C15 UNL     1      -4.715  -0.633  -0.256  1.00  0.00     0.026 A 
HETATM   17  C16 UNL     1      -3.526  -0.164   0.082  1.00  0.00     0.025 A 
HETATM   18  N2  UNL     1      -3.396   0.925   1.029  1.00  0.00    -0.328 N 
HETATM   19  C18 UNL     1      -2.427   1.922   0.522  1.00  0.00     0.138 C 
HETATM   20  C19 UNL     1      -1.762   1.110  -0.611  1.00  0.00     0.038 C 
HETATM   21  C20 UNL     1      -0.348   1.561  -0.604  1.00  0.00     0.127 C 
HETATM   22  N3  UNL     1       0.007   2.342  -1.798  1.00  0.00    -0.393 N 
HETATM   23  C21 UNL     1       0.825  -2.247   0.746  1.00  0.00     0.007 C 
HETATM   24  C24 UNL     1       2.120  -2.127   1.116  1.00  0.00     0.007 C 
HETATM   25  H27 UNL     1      -0.441   2.562  -2.720  1.00  0.00     0.159 HD
ENDROOT
BRANCH  18  26
HETATM   26  C17 UNL     1      -4.080   1.121   2.288  1.00  0.00     0.355 C 
HETATM   27  O1  UNL     1      -4.927   0.318   2.744  1.00  0.00    -0.283 OA
ENDBRANCH  18  26
BRANCH  23  28
HETATM   28  C22 UNL     1       0.587  -3.561   0.075  1.00  0.00     0.052 C 
HETATM   29  C23 UNL     1       1.803  -4.462   0.108  1.00  0.00     0.011 C 
ENDBRANCH  23  28
TORSDOF 2
