REMARK  1 active torsions:
REMARK  status: ('A' for Active; 'I' for Inactive)
REMARK    1  A    between atoms: N1_6  and  C6_7 
ROOT
HETATM    1  C1  UNL     1       0.451  -3.059   0.841  1.00  0.00     0.049 C 
HETATM    2  C2  UNL     1       1.482  -2.271   0.169  1.00  0.00    -0.054 A 
HETATM    3  C3  UNL     1       1.541  -0.955   0.125  1.00  0.00    -0.028 A 
HETATM    4  C4  UNL     1       2.764  -0.763  -0.663  1.00  0.00    -0.013 A 
HETATM    5  C5  UNL     1       3.353   0.425  -0.916  1.00  0.00     0.105 C 
HETATM    6  N1  UNL     1       2.720   1.572  -0.351  1.00  0.00    -0.333 N 
HETATM    7  C7  UNL     1       2.014   1.251   0.876  1.00  0.00     0.147 C 
HETATM    8  C8  UNL     1       0.883   0.276   0.484  1.00  0.00     0.036 C 
HETATM    9  C9  UNL     1       0.330   0.897  -0.831  1.00  0.00     0.288 C 
HETATM   10  N2  UNL     1      -0.543   1.944  -0.377  1.00  0.00     0.091 N 
HETATM   11  C10 UNL     1      -1.661   2.184  -1.227  1.00  0.00     0.302 C 
HETATM   12  C11 UNL     1      -2.591   1.004  -1.354  1.00  0.00     0.300 C 
HETATM   13  N3  UNL     1      -3.031   0.492  -0.098  1.00  0.00     0.089 N 
HETATM   14  C12 UNL     1      -2.273  -0.686   0.258  1.00  0.00     0.217 C 
HETATM   15  C13 UNL     1      -3.335  -1.719   0.717  1.00  0.00     0.042 C 
HETATM   16  C14 UNL     1      -1.429  -0.415   1.450  1.00  0.00     0.042 C 
HETATM   17  C15 UNL     1      -0.242   0.407   1.352  1.00  0.00     0.032 C 
HETATM   18  C16 UNL     1      -0.804   1.819   1.003  1.00  0.00     0.278 C 
HETATM   19  C17 UNL     1       3.368  -2.026  -1.057  1.00  0.00     0.014 A 
HETATM   20  C18 UNL     1       2.567  -2.934  -0.536  1.00  0.00     0.008 A 
HETATM   21  H14 UNL     1      -4.064   0.350  -0.094  1.00  0.00     0.316 HD
ENDROOT
BRANCH   6  22
HETATM   22  C6  UNL     1       2.848   2.873  -0.971  1.00  0.00     0.355 C 
HETATM   23  O1  UNL     1       3.541   2.912  -2.016  1.00  0.00    -0.283 OA
ENDBRANCH   6  22
TORSDOF 1
