REMARK  2 active torsions:
REMARK  status: ('A' for Active; 'I' for Inactive)
REMARK    1  A    between atoms: C7_8  and  N1_9 
REMARK       I    between atoms: N1_9  and  C8_10 
REMARK       I    between atoms: C8_10  and  N2_12 
REMARK    2  A    between atoms: N3_21  and  C17_22 
ROOT
HETATM    1  N1  UNL     1      -4.206   0.320   0.596  1.00  0.00    -0.308 N 
HETATM    2  C8  UNL     1      -2.938  -0.290   0.468  1.00  0.00     0.323 C 
HETATM    3  O1  UNL     1      -2.771  -0.699  -0.730  1.00  0.00    -0.247 OA
HETATM    4  N2  UNL     1      -2.020  -0.406   1.547  1.00  0.00    -0.329 N 
HETATM    5  C9  UNL     1      -2.516   0.157   2.793  1.00  0.00     0.154 C 
HETATM    6  C10 UNL     1      -2.326   1.623   2.637  1.00  0.00    -0.007 C 
HETATM    7  C11 UNL     1      -1.367   2.444   2.246  1.00  0.00    -0.003 C 
HETATM    8  C12 UNL     1      -0.014   2.151   1.782  1.00  0.00    -0.003 C 
HETATM    9  C13 UNL     1       0.527   1.096   1.146  1.00  0.00    -0.014 C 
HETATM   10  C14 UNL     1       0.261  -0.222   0.578  1.00  0.00     0.011 C 
HETATM   11  C15 UNL     1       0.152  -0.189  -0.940  1.00  0.00     0.036 C 
HETATM   12  C16 UNL     1       1.632  -0.008  -1.325  1.00  0.00     0.118 C 
HETATM   13  N3  UNL     1       2.321  -0.881  -0.442  1.00  0.00    -0.405 N 
HETATM   14  C23 UNL     1       1.560  -1.029   0.749  1.00  0.00     0.132 C 
HETATM   15  C24 UNL     1      -0.794  -1.043   1.214  1.00  0.00     0.143 C 
HETATM   16  H7  UNL     1      -4.538   0.724   1.499  1.00  0.00     0.170 HD
ENDROOT
BRANCH   1  17
HETATM   17  C7  UNL     1      -5.073   0.396  -0.539  1.00  0.00     0.045 A 
HETATM   18  C2  UNL     1      -5.956  -0.666  -0.744  1.00  0.00    -0.035 A 
HETATM   19  C1  UNL     1      -5.944  -1.813   0.231  1.00  0.00     0.050 C 
HETATM   20  C3  UNL     1      -6.849  -0.738  -1.791  1.00  0.00     0.012 A 
HETATM   21  C4  UNL     1      -6.875   0.316  -2.704  1.00  0.00     0.043 A 
HETATM   22  C5  UNL     1      -6.008   1.362  -2.506  1.00  0.00     0.118 A 
HETATM   23  F1  UNL     1      -6.039   2.381  -3.400  1.00  0.00    -0.206 F 
HETATM   24  C6  UNL     1      -5.126   1.420  -1.463  1.00  0.00     0.072 A 
ENDBRANCH   1  17
BRANCH  13  25
HETATM   25  C17 UNL     1       3.719  -0.733  -0.311  1.00  0.00     0.107 C 
HETATM   26  C18 UNL     1       4.225   0.583   0.170  1.00  0.00     0.029 C 
HETATM   27  C19 UNL     1       5.750   0.452   0.301  1.00  0.00     0.037 C 
HETATM   28  C20 UNL     1       6.394   0.239  -1.030  1.00  0.00     0.216 C 
HETATM   29  C21 UNL     1       7.447  -0.842  -0.925  1.00  0.00     0.042 C 
HETATM   30  N4  UNL     1       5.387  -0.083  -2.014  1.00  0.00     0.089 N 
HETATM   31  C22 UNL     1       4.478  -1.099  -1.576  1.00  0.00     0.294 C 
HETATM   32  H27 UNL     1       4.936   0.747  -2.438  1.00  0.00     0.316 HD
ENDBRANCH  13  25
TORSDOF 2
