REMARK  7 active torsions:
REMARK  status: ('A' for Active; 'I' for Inactive)
REMARK    1  A    between atoms: C1_2  and  C2_3 
REMARK       I    between atoms: C1_2  and  N2_12 
REMARK    2  A    between atoms: C2_3  and  N1_4 
REMARK    3  A    between atoms: N1_4  and  C3_5 
REMARK    4  A    between atoms: C10_14  and  C11_15 
REMARK    5  A    between atoms: C11_15  and  C12_16 
REMARK    6  A    between atoms: C12_16  and  N3_17 
REMARK    7  A    between atoms: N3_17  and  C13_18 
ROOT
HETATM    1  O1  UNL     1       1.890  -0.338  -2.069  1.00  0.00    -0.271 OA
HETATM    2  C1  UNL     1       2.496   0.149  -1.038  1.00  0.00     0.242 C 
HETATM    3  N2  UNL     1       1.646   1.042  -0.390  1.00  0.00    -0.315 N 
HETATM    4  C9  UNL     1       0.213   1.308  -0.616  1.00  0.00     0.141 C 
HETATM    5  C10 UNL     1      -0.351   1.308   0.796  1.00  0.00     0.041 C 
HETATM    6  C20 UNL     1       0.691   2.132   1.482  1.00  0.00    -0.025 A 
HETATM    7  C21 UNL     1       0.784   2.969   2.571  1.00  0.00     0.010 A 
HETATM    8  C22 UNL     1       1.967   3.603   2.911  1.00  0.00     0.001 A 
HETATM    9  C23 UNL     1       3.123   3.432   2.174  1.00  0.00     0.002 A 
HETATM   10  C24 UNL     1       3.043   2.595   1.079  1.00  0.00     0.030 A 
HETATM   11  C25 UNL     1       1.854   1.944   0.721  1.00  0.00     0.044 A 
ENDROOT
BRANCH   5  12
HETATM   12  C11 UNL     1      -0.477  -0.053   1.394  1.00  0.00     0.030 C 
BRANCH  12  13
HETATM   13  C12 UNL     1      -1.404  -0.934   0.563  1.00  0.00     0.120 C 
BRANCH  13  14
HETATM   14  N3  UNL     1      -2.718  -0.386   0.464  1.00  0.00    -0.393 N 
HETATM   15  H15 UNL     1      -2.900   0.536   0.960  1.00  0.00     0.159 HD
BRANCH  14  16
HETATM   16  C13 UNL     1      -4.081  -0.251   0.101  1.00  0.00     0.002 C 
HETATM   17  C14 UNL     1      -5.018  -0.777   0.892  1.00  0.00     0.027 C 
HETATM   18  C15 UNL     1      -6.514  -0.884   0.924  1.00  0.00     0.298 C 
HETATM   19  N4  UNL     1      -7.011  -1.843  -0.005  1.00  0.00     0.086 N 
HETATM   20  C16 UNL     1      -7.143  -1.467  -1.352  1.00  0.00     0.270 C 
HETATM   21  H19 UNL     1      -7.923  -2.219   0.379  1.00  0.00     0.316 HD
HETATM   22  C17 UNL     1      -6.569  -0.177  -1.781  1.00  0.00     0.030 C 
HETATM   23  C18 UNL     1      -5.105  -0.295  -2.175  1.00  0.00     0.008 C 
HETATM   24  C19 UNL     1      -4.288   0.501  -1.184  1.00  0.00     0.056 C 
ENDBRANCH  14  16
ENDBRANCH  13  14
ENDBRANCH  12  13
ENDBRANCH   5  12
BRANCH   2  25
HETATM   25  C2  UNL     1       3.761  -0.542  -1.154  1.00  0.00     0.223 C 
BRANCH  25  26
HETATM   26  N1  UNL     1       4.724  -0.257  -0.077  1.00  0.00    -0.381 N 
HETATM   27  H3  UNL     1       4.755   0.301   0.777  1.00  0.00     0.160 HD
BRANCH  26  28
HETATM   28  C3  UNL     1       5.961  -0.954  -0.253  1.00  0.00     0.031 A 
HETATM   29  C4  UNL     1       6.195  -1.812  -1.327  1.00  0.00     0.029 A 
HETATM   30  C5  UNL     1       7.368  -2.503  -1.543  1.00  0.00     0.005 A 
HETATM   31  C6  UNL     1       8.393  -2.349  -0.646  1.00  0.00     0.042 A 
HETATM   32  C7  UNL     1       8.249  -1.523   0.444  1.00  0.00     0.118 A 
HETATM   33  F1  UNL     1       9.242  -1.349   1.348  1.00  0.00    -0.206 F 
HETATM   34  C8  UNL     1       7.047  -0.872   0.582  1.00  0.00     0.071 A 
ENDBRANCH  26  28
ENDBRANCH  25  26
ENDBRANCH   2  25
TORSDOF 7
