REMARK  4 active torsions:
REMARK  status: ('A' for Active; 'I' for Inactive)
REMARK    1  A    between atoms: C3_3  and  C4_4 
REMARK    2  A    between atoms: C7_7  and  C8_8 
REMARK    3  A    between atoms: C8_8  and  N1_10 
REMARK    4  A    between atoms: N2_20  and  C19_21 
ROOT
HETATM    1  N1  UNL     1      -1.091   0.028  -0.029  1.00  0.00    -0.373 N 
HETATM    2  C10 UNL     1      -0.105   1.039  -0.368  1.00  0.00     0.139 C 
HETATM    3  C11 UNL     1       1.072   1.146   0.504  1.00  0.00     0.022 C 
HETATM    4  C12 UNL     1       0.839   1.279   1.946  1.00  0.00    -0.014 C 
HETATM    5  C13 UNL     1       0.143   0.480   2.777  1.00  0.00    -0.001 C 
HETATM    6  C14 UNL     1      -0.531  -0.742   2.275  1.00  0.00     0.024 C 
HETATM    7  C15 UNL     1      -1.053  -0.892   1.042  1.00  0.00     0.004 C 
HETATM    8  C16 UNL     1      -1.684  -2.178   0.662  1.00  0.00     0.068 C 
HETATM    9  C17 UNL     1       1.813   2.424   0.076  1.00  0.00     0.047 C 
HETATM   10  C18 UNL     1       3.160   2.151   0.691  1.00  0.00     0.274 C 
HETATM   11  N2  UNL     1       3.435   0.807   0.347  1.00  0.00     0.096 N 
HETATM   12  C25 UNL     1       2.162   0.141   0.206  1.00  0.00     0.288 C 
ENDROOT
BRANCH   1  13
HETATM   13  C8  UNL     1      -2.101   0.189  -1.016  1.00  0.00     0.129 C 
HETATM   14  C9  UNL     1      -1.588   0.325  -2.437  1.00  0.00     0.039 C 
BRANCH  13  15
HETATM   15  C7  UNL     1      -3.329  -0.608  -0.940  1.00  0.00     0.028 C 
HETATM   16  C6  UNL     1      -4.433  -0.298  -0.229  1.00  0.00     0.035 C 
HETATM   17  C5  UNL     1      -5.513  -1.269  -0.331  1.00  0.00    -0.039 C 
HETATM   18  C4  UNL     1      -6.768  -1.097   0.046  1.00  0.00     0.008 C 
HETATM   19  C26 UNL     1      -4.899  -2.474  -0.947  1.00  0.00     0.158 C 
HETATM   20  N4  UNL     1      -3.728  -1.861  -1.544  1.00  0.00    -0.387 N 
HETATM   21  H38 UNL     1      -3.184  -2.263  -2.351  1.00  0.00     0.159 HD
BRANCH  18  22
HETATM   22  C3  UNL     1      -7.178   0.172   0.632  1.00  0.00    -0.004 C 
HETATM   23  C2  UNL     1      -8.442   0.336   1.009  1.00  0.00    -0.031 C 
HETATM   24  C1  UNL     1      -8.899   1.614   1.609  1.00  0.00     0.036 C 
ENDBRANCH  18  22
ENDBRANCH  13  15
ENDBRANCH   1  13
BRANCH  11  25
HETATM   25  C19 UNL     1       4.186   0.623  -0.861  1.00  0.00     0.251 C 
HETATM   26  C20 UNL     1       5.530   1.301  -0.851  1.00  0.00     0.040 C 
HETATM   27  C21 UNL     1       6.518   0.626   0.086  1.00  0.00     0.037 C 
HETATM   28  C22 UNL     1       6.670  -0.793  -0.428  1.00  0.00     0.216 C 
HETATM   29  C23 UNL     1       7.793  -1.445   0.315  1.00  0.00     0.042 C 
HETATM   30  N3  UNL     1       5.378  -1.420  -0.193  1.00  0.00     0.089 N 
HETATM   31  C24 UNL     1       4.449  -0.837  -1.153  1.00  0.00     0.305 C 
HETATM   32  H33 UNL     1       5.503  -2.414  -0.532  1.00  0.00     0.316 HD
ENDBRANCH  11  25
TORSDOF 4
