REMARK  4 active torsions:
REMARK  status: ('A' for Active; 'I' for Inactive)
REMARK    1  A    between atoms: C3_4  and  S1_5 
REMARK    2  A    between atoms: C4_7  and  C5_8 
REMARK    3  A    between atoms: C5_8  and  C6_9 
REMARK       I    between atoms: C6_9  and  N3_11 
REMARK    4  A    between atoms: N3_11  and  C7_12 
ROOT
HETATM    1  C1  UNL     1      -5.127  -1.034   0.884  1.00  0.00     0.070 C 
HETATM    2  C2  UNL     1      -4.382   0.042   0.218  1.00  0.00     0.030 C 
HETATM    3  N1  UNL     1      -3.285   0.144   0.803  1.00  0.00    -0.259 NA
HETATM    4  C3  UNL     1      -2.625  -0.468   1.866  1.00  0.00     0.268 C 
HETATM    5  N2  UNL     1      -1.419   0.236   2.281  1.00  0.00    -0.347 N 
HETATM    6  C4  UNL     1      -0.462   0.526   1.223  1.00  0.00     0.110 C 
HETATM    7  N4  UNL     1      -1.246   1.431   0.839  1.00  0.00    -0.247 NA
HETATM    8  C13 UNL     1      -1.241   2.349  -0.172  1.00  0.00     0.120 C 
HETATM    9  C14 UNL     1      -2.228   2.559  -1.061  1.00  0.00     0.043 C 
HETATM   10  C15 UNL     1      -3.483   1.903  -1.175  1.00  0.00     0.037 C 
HETATM   11 CL2  UNL     1      -4.387   2.626  -2.540  1.00  0.00    -0.084 Cl
HETATM   12  C16 UNL     1      -4.373   1.037  -0.830  1.00  0.00     0.050 C 
HETATM   13  H6  UNL     1      -1.188   0.548   3.268  1.00  0.00     0.163 HD
ENDROOT
BRANCH   6  14
HETATM   14  C5  UNL     1       0.644  -0.441   1.431  1.00  0.00     0.181 C 
BRANCH  14  15
HETATM   15  C6  UNL     1       1.720  -0.278   0.419  1.00  0.00     0.229 C 
HETATM   16  O1  UNL     1       1.648   0.611  -0.495  1.00  0.00    -0.273 OA
HETATM   17  N3  UNL     1       2.859  -1.123   0.459  1.00  0.00    -0.327 N 
HETATM   18  H9  UNL     1       2.863  -1.828   1.222  1.00  0.00     0.169 HD
BRANCH  17  19
HETATM   19  C7  UNL     1       3.836  -0.882  -0.555  1.00  0.00     0.034 A 
HETATM   20  C8  UNL     1       3.891  -1.465  -1.798  1.00  0.00     0.031 A 
HETATM   21  C9  UNL     1       4.930  -1.069  -2.611  1.00  0.00     0.026 A 
HETATM   22  C10 UNL     1       5.866  -0.148  -2.225  1.00  0.00     0.034 A 
HETATM   23 CL1  UNL     1       7.176   0.335  -3.282  1.00  0.00    -0.084 Cl
HETATM   24  C11 UNL     1       5.801   0.437  -0.963  1.00  0.00     0.026 A 
HETATM   25  C12 UNL     1       4.753   0.051  -0.117  1.00  0.00     0.031 A 
ENDBRANCH  17  19
ENDBRANCH  14  15
ENDBRANCH   6  14
BRANCH   4  26
HETATM   26  S1  UNL     1      -2.144  -2.157   1.438  1.00  0.00    -0.135 SA
HETATM   27  H5  UNL     1      -2.334  -2.467   0.088  1.00  0.00     0.105 HD
ENDBRANCH   4  26
TORSDOF 4
