REMARK  2 active torsions:
REMARK  status: ('A' for Active; 'I' for Inactive)
REMARK    1  A    between atoms: C11_17  and  N5_18 
REMARK    2  A    between atoms: N5_18  and  C12_19 
ROOT
HETATM    1  C1  UNL     1       0.059   0.120   2.444  1.00  0.00     0.169 C 
HETATM    2  N1  UNL     1      -0.549   0.816   1.261  1.00  0.00    -0.210 N 
HETATM    3  C2  UNL     1      -1.614   1.830   1.496  1.00  0.00     0.135 C 
HETATM    4  C3  UNL     1      -2.932   1.391   1.454  1.00  0.00     0.059 A 
HETATM    5  C4  UNL     1      -4.423   0.965   1.423  1.00  0.00    -0.011 A 
HETATM    6 BR1  UNL     1      -5.835   2.122   1.931  1.00  0.00    -0.059 Br
HETATM    7  C5  UNL     1      -4.960  -0.139   1.138  1.00  0.00     0.042 A 
HETATM    8  O1  UNL     1      -3.610   0.065   0.997  1.00  0.00     0.000 OA
HETATM    9  C6  UNL     1      -4.990  -1.553   0.592  1.00  0.00    -0.013 C 
HETATM   10  C7  UNL     1      -4.578  -2.711   0.012  1.00  0.00    -0.028 C 
HETATM   11  C8  UNL     1      -3.205  -2.717  -0.401  1.00  0.00     0.045 C 
HETATM   12  C9  UNL     1      -2.278  -3.864   0.042  1.00  0.00     0.141 C 
HETATM   13  N2  UNL     1      -0.890  -3.390  -0.290  1.00  0.00    -0.113 NA
HETATM   14  N3  UNL     1      -0.884  -2.229  -0.920  1.00  0.00    -0.141 NA
HETATM   15  C10 UNL     1       0.401  -1.738  -1.245  1.00  0.00     0.298 A 
HETATM   16  N4  UNL     1       1.679  -1.385  -1.669  1.00  0.00    -0.021 NA
HETATM   17  C11 UNL     1       2.113  -0.236  -1.013  1.00  0.00     0.746 A 
HETATM   18  N6  UNL     1       1.579   0.583  -0.087  1.00  0.00     0.130 NA
HETATM   19  C18 UNL     1       0.261   0.118   0.275  1.00  0.00     0.743 A 
HETATM   20  N7  UNL     1      -0.080  -0.955  -0.374  1.00  0.00    -0.021 NA
HETATM   21  H6  UNL     1      -3.232   0.128  -0.030  1.00  0.00     0.000 HD
ENDROOT
BRANCH  17  22
HETATM   22  N5  UNL     1       3.461   0.129  -1.381  1.00  0.00    -0.188 N 
HETATM   23  H13 UNL     1       3.976  -0.523  -2.078  1.00  0.00     0.184 HD
BRANCH  22  24
HETATM   24  C12 UNL     1       4.265   1.219  -1.025  1.00  0.00     0.049 A 
HETATM   25  C13 UNL     1       3.572   2.405  -0.693  1.00  0.00     0.033 A 
HETATM   26  C14 UNL     1       4.469   3.424  -0.320  1.00  0.00     0.044 A 
HETATM   27  C15 UNL     1       5.910   3.434  -0.233  1.00  0.00     0.116 A 
HETATM   28  F1  UNL     1       6.454   4.580   0.144  1.00  0.00    -0.206 F 
HETATM   29  C16 UNL     1       6.386   2.180  -0.604  1.00  0.00     0.044 A 
HETATM   30  C17 UNL     1       5.576   1.119  -0.985  1.00  0.00     0.033 A 
ENDBRANCH  22  24
ENDBRANCH  17  22
TORSDOF 2
