REMARK  8 active torsions:
REMARK  status: ('A' for Active; 'I' for Inactive)
REMARK    1  A    between atoms: C2_2  and  C3_3 
REMARK    2  A    between atoms: C3_3  and  C4_4 
REMARK    3  A    between atoms: C4_4  and  C5_5 
REMARK    4  A    between atoms: C5_5  and  C6_6 
REMARK    5  A    between atoms: C6_6  and  C7_7 
REMARK    6  A    between atoms: C7_7  and  N1_8 
REMARK    7  A    between atoms: N1_8  and  C8_9 
REMARK    8  A    between atoms: C15_20  and  O1_21 
ROOT
HETATM    1  C8  UNL     1      -0.642  -0.001  -0.410  1.00  0.00     0.136 C 
HETATM    2  N2  UNL     1      -0.091  -1.191  -0.435  1.00  0.00    -0.213 NA
HETATM    3  C9  UNL     1      -0.857  -2.351  -0.134  1.00  0.00     0.156 C 
HETATM    4  N3  UNL     1      -0.516  -3.587  -0.239  1.00  0.00    -0.249 NA
HETATM    5  C10 UNL     1      -1.422  -4.691   0.112  1.00  0.00     0.323 C 
HETATM    6  N4  UNL     1      -2.691  -4.420  -0.527  1.00  0.00    -0.175 NA
HETATM    7  N5  UNL     1      -3.089  -3.223  -0.395  1.00  0.00    -0.178 NA
HETATM    8  C11 UNL     1      -2.234  -2.318   0.361  1.00  0.00     0.235 C 
HETATM    9  C12 UNL     1      -2.799  -0.964   0.302  1.00  0.00    -0.010 A 
HETATM   10  C13 UNL     1      -4.135  -0.835   0.629  1.00  0.00     0.013 A 
HETATM   11  C14 UNL     1      -4.713   0.423   0.617  1.00  0.00     0.037 A 
HETATM   12  C15 UNL     1      -3.944   1.533   0.278  1.00  0.00     0.069 A 
HETATM   13  C17 UNL     1      -2.597   1.380  -0.050  1.00  0.00     0.052 A 
HETATM   14  C18 UNL     1      -2.035   0.146  -0.037  1.00  0.00     0.021 A 
ENDROOT
BRANCH   1  15
HETATM   15  N1  UNL     1       0.155   1.133  -0.720  1.00  0.00    -0.373 N 
HETATM   16  H10 UNL     1      -0.132   2.110  -0.498  1.00  0.00     0.161 HD
BRANCH  15  17
HETATM   17  C7  UNL     1       1.439   0.870  -1.384  1.00  0.00     0.139 C 
BRANCH  17  18
HETATM   18  C6  UNL     1       2.282   0.197  -0.405  1.00  0.00     0.091 C 
BRANCH  18  19
HETATM   19  C5  UNL     1       3.319   0.843   0.112  1.00  0.00    -0.148 C 
BRANCH  19  20
HETATM   20  C4  UNL     1       4.358   1.617   0.382  1.00  0.00     0.051 C 
BRANCH  20  21
HETATM   21  C3  UNL     1       5.490   1.477  -0.499  1.00  0.00     0.003 C 
BRANCH  21  22
HETATM   22  C2  UNL     1       6.371   0.489  -0.285  1.00  0.00    -0.030 C 
HETATM   23  C1  UNL     1       6.075  -0.386   0.879  1.00  0.00     0.036 C 
ENDBRANCH  21  22
ENDBRANCH  20  21
ENDBRANCH  19  20
ENDBRANCH  18  19
ENDBRANCH  17  18
ENDBRANCH  15  17
ENDBRANCH   1  15
BRANCH  12  24
HETATM   24  O1  UNL     1      -4.668   2.713   0.314  1.00  0.00    -0.356 OA
HETATM   25  C16 UNL     1      -4.044   3.920  -0.001  1.00  0.00     0.210 C 
ENDBRANCH  12  24
TORSDOF 8
