REMARK  7 active torsions:
REMARK  status: ('A' for Active; 'I' for Inactive)
REMARK    1  A    between atoms: O1_2  and  C2_3 
REMARK    2  A    between atoms: C3_5  and  N2_6 
REMARK    3  A    between atoms: N2_6  and  C4_7 
REMARK    4  A    between atoms: C4_7  and  C5_8 
REMARK    5  A    between atoms: C5_8  and  N3_9 
REMARK    6  A    between atoms: C10_16  and  N5_17 
REMARK    7  A    between atoms: N5_17  and  C11_18 
ROOT
HETATM    1  C2  UNL     1       0.639   2.265  -0.813  1.00  0.00     0.302 A 
HETATM    2  N1  UNL     1      -0.163   1.196  -0.551  1.00  0.00    -0.018 NA
HETATM    3  C3  UNL     1       0.354  -0.017  -0.291  1.00  0.00     0.742 A 
HETATM    4  N4  UNL     1       1.684  -0.146  -0.296  1.00  0.00     0.130 NA
HETATM    5  C10 UNL     1       2.537   0.853  -0.544  1.00  0.00     0.746 A 
HETATM    6  N6  UNL     1       1.953   2.016  -0.791  1.00  0.00    -0.017 NA
ENDROOT
BRANCH   3   7
HETATM    7  N2  UNL     1      -0.456  -1.150  -0.014  1.00  0.00    -0.220 N 
HETATM    8  H4  UNL     1      -0.004  -2.071   0.176  1.00  0.00     0.177 HD
BRANCH   7   9
HETATM    9  C4  UNL     1      -1.904  -1.091   0.019  1.00  0.00     0.157 C 
BRANCH   9  10
HETATM   10  C5  UNL     1      -2.397  -0.150   1.078  1.00  0.00     0.137 C 
BRANCH  10  11
HETATM   11  N3  UNL     1      -3.810  -0.039   1.176  1.00  0.00    -0.407 N 
HETATM   12  C6  UNL     1      -4.490  -1.201   1.649  1.00  0.00     0.143 C 
HETATM   13  C7  UNL     1      -5.868  -1.254   1.035  1.00  0.00     0.187 C 
HETATM   14  O2  UNL     1      -5.759  -1.222  -0.336  1.00  0.00    -0.388 OA
HETATM   15  C8  UNL     1      -5.364   0.032  -0.745  1.00  0.00     0.187 C 
HETATM   16  C9  UNL     1      -4.493   0.759   0.243  1.00  0.00     0.143 C 
ENDBRANCH  10  11
ENDBRANCH   9  10
ENDBRANCH   7   9
ENDBRANCH   3   7
BRANCH   1  17
HETATM   17  O1  UNL     1       0.140   3.531  -1.085  1.00  0.00    -0.323 OA
HETATM   18  C1  UNL     1       1.073   4.584  -1.347  1.00  0.00     0.213 C 
ENDBRANCH   1  17
BRANCH   5  19
HETATM   19  N5  UNL     1       3.948   0.770  -0.562  1.00  0.00    -0.188 N 
HETATM   20  H17 UNL     1       4.477   1.658  -0.773  1.00  0.00     0.184 HD
BRANCH  19  21
HETATM   21  C11 UNL     1       4.761  -0.365  -0.330  1.00  0.00     0.049 A 
HETATM   22  C12 UNL     1       4.300  -1.635  -0.054  1.00  0.00     0.032 A 
HETATM   23  C13 UNL     1       5.125  -2.717   0.167  1.00  0.00     0.026 A 
HETATM   24  C14 UNL     1       6.489  -2.578   0.122  1.00  0.00     0.034 A 
HETATM   25 CL1  UNL     1       7.527  -3.949   0.403  1.00  0.00    -0.084 Cl
HETATM   26  C15 UNL     1       6.983  -1.323  -0.151  1.00  0.00     0.026 A 
HETATM   27  C16 UNL     1       6.126  -0.272  -0.366  1.00  0.00     0.032 A 
ENDBRANCH  19  21
ENDBRANCH   5  19
TORSDOF 7
