REMARK  3 active torsions:
REMARK  status: ('A' for Active; 'I' for Inactive)
REMARK    1  A    between atoms: O1_2  and  C2_3 
REMARK    2  A    between atoms: C8_14  and  N5_15 
REMARK    3  A    between atoms: N5_15  and  C9_16 
ROOT
HETATM    1  C2  UNL     1      -4.146  -1.486   2.244  1.00  0.00     0.076 A 
HETATM    2  C3  UNL     1      -3.154  -2.259   1.874  1.00  0.00     0.047 A 
HETATM    3  C4  UNL     1      -2.382  -1.239   1.189  1.00  0.00     0.185 A 
HETATM    4  O2  UNL     1      -2.201  -1.434  -0.145  1.00  0.00    -0.355 OA
HETATM    5  C5  UNL     1      -1.419  -2.547  -0.444  1.00  0.00     0.342 C 
HETATM    6  N1  UNL     1      -1.107  -2.615  -1.856  1.00  0.00    -0.166 NA
HETATM    7  N2  UNL     1      -0.267  -2.046  -2.473  1.00  0.00    -0.116 NA
HETATM    8  C6  UNL     1       0.737  -1.174  -2.383  1.00  0.00     0.406 A 
HETATM    9  N3  UNL     1      -0.197  -0.516  -1.741  1.00  0.00    -0.026 NA
HETATM   10  C7  UNL     1      -0.105   0.655  -1.179  1.00  0.00     0.727 A 
HETATM   11  N4  UNL     1       1.032   1.346  -1.205  1.00  0.00    -0.014 NA
HETATM   12  C8  UNL     1       2.094   0.817  -1.824  1.00  0.00     0.298 A 
HETATM   13  N6  UNL     1       1.577  -0.250  -2.193  1.00  0.00    -0.346 NA
HETATM   14  N7  UNL     1      -1.239   1.242  -0.504  1.00  0.00    -0.219 N 
HETATM   15  C15 UNL     1      -2.287   1.764   0.316  1.00  0.00     0.166 C 
HETATM   16  C16 UNL     1      -3.090   0.813   1.073  1.00  0.00     0.006 C 
HETATM   17  C17 UNL     1      -3.491  -0.344   1.567  1.00  0.00     0.005 A 
HETATM   18  H14 UNL     1      -1.584   1.540  -1.481  1.00  0.00     0.178 HD
ENDROOT
BRANCH  12  19
HETATM   19  N5  UNL     1       3.406   1.287  -2.044  1.00  0.00    -0.315 N 
HETATM   20  H8  UNL     1       3.598   1.745  -2.989  1.00  0.00     0.170 HD
BRANCH  19  21
HETATM   21  C9  UNL     1       4.447   1.188  -1.099  1.00  0.00     0.035 A 
HETATM   22  C10 UNL     1       5.708   1.676  -1.341  1.00  0.00     0.029 A 
HETATM   23  C11 UNL     1       6.752   1.601  -0.429  1.00  0.00     0.002 A 
HETATM   24  C12 UNL     1       6.407   0.984   0.760  1.00  0.00     0.000 A 
HETATM   25  C13 UNL     1       5.177   0.454   1.125  1.00  0.00     0.002 A 
HETATM   26  C14 UNL     1       4.223   0.597   0.116  1.00  0.00     0.029 A 
ENDBRANCH  19  21
ENDBRANCH  12  19
BRANCH   1  27
HETATM   27  O1  UNL     1      -5.338  -1.497   2.925  1.00  0.00    -0.356 OA
HETATM   28  C1  UNL     1      -6.357  -0.576   2.716  1.00  0.00     0.210 C 
ENDBRANCH   1  27
TORSDOF 3
