REMARK  3 active torsions:
REMARK  status: ('A' for Active; 'I' for Inactive)
REMARK    1  A    between atoms: C2_2  and  C3_3 
REMARK    2  A    between atoms: C8_9  and  N1_10 
REMARK       I    between atoms: C9_11  and  N2_12 
REMARK       I    between atoms: C9_11  and  N3_13 
REMARK    3  A    between atoms: N3_13  and  C10_14 
ROOT
HETATM    1  C3  UNL     1       2.997   0.916   0.459  1.00  0.00    -0.054 C 
HETATM    2  C4  UNL     1       1.930   0.268   0.851  1.00  0.00     0.039 A 
HETATM    3  C5  UNL     1       0.666  -0.478   1.128  1.00  0.00     0.009 A 
HETATM    4  C6  UNL     1       0.741  -0.395  -0.152  1.00  0.00     0.050 A 
HETATM    5  O1  UNL     1       1.355  -0.144   1.107  1.00  0.00     0.000 OA
HETATM    6  C7  UNL     1       2.039  -1.499   1.588  1.00  0.00     0.012 A 
HETATM    7  C8  UNL     1       0.104  -0.658  -1.403  1.00  0.00     0.152 C 
HETATM    8  N4  UNL     1       0.726  -0.704  -2.493  1.00  0.00    -0.250 NA
HETATM    9  C16 UNL     1       2.134  -0.526  -2.621  1.00  0.00     0.323 C 
HETATM   10  N5  UNL     1       2.698   0.729  -2.783  1.00  0.00    -0.176 NA
HETATM   11  N6  UNL     1       2.764   1.579  -1.952  1.00  0.00    -0.192 NA
HETATM   12  C17 UNL     1       2.375   1.688  -0.669  1.00  0.00     0.208 C 
ENDROOT
BRANCH   7  13
HETATM   13  N1  UNL     1      -1.008  -0.872  -0.615  1.00  0.00    -0.049 NA
HETATM   14  C9  UNL     1      -1.814  -1.849  -0.661  1.00  0.00     0.700 C 
HETATM   15  N2  UNL     1      -1.784  -2.990  -1.543  1.00  0.00    -0.233 N 
HETATM   16  N3  UNL     1      -2.884  -1.770   0.298  1.00  0.00    -0.190 N 
HETATM   17  H9  UNL     1      -1.796  -2.789  -2.573  1.00  0.00     0.174 HD
HETATM   18  H10 UNL     1      -1.750  -3.930  -1.085  1.00  0.00     0.174 HD
HETATM   19  H11 UNL     1      -3.165  -2.646   0.834  1.00  0.00     0.184 HD
BRANCH  16  20
HETATM   20  C10 UNL     1      -3.582  -0.572   0.545  1.00  0.00     0.049 A 
HETATM   21  C11 UNL     1      -3.442   0.587  -0.150  1.00  0.00     0.030 A 
HETATM   22  C12 UNL     1      -4.127   1.756   0.108  1.00  0.00     0.002 A 
HETATM   23  C13 UNL     1      -5.033   1.780   1.148  1.00  0.00     0.000 A 
HETATM   24  C14 UNL     1      -5.228   0.635   1.900  1.00  0.00     0.002 A 
HETATM   25  C15 UNL     1      -4.500  -0.491   1.573  1.00  0.00     0.030 A 
ENDBRANCH  16  20
ENDBRANCH   7  13
BRANCH   1  26
HETATM   26  C2  UNL     1       4.268   1.603   0.553  1.00  0.00    -0.005 C 
HETATM   27  C1  UNL     1       4.815   2.050  -0.523  1.00  0.00     0.011 C 
ENDBRANCH   1  26
TORSDOF 3
