REMARK  1 active torsions:
REMARK  status: ('A' for Active; 'I' for Inactive)
REMARK       I    between atoms: N1_2  and  C2_3 
REMARK    1  A    between atoms: C5_7  and  O1_8 
ROOT
HETATM    1  C1  UNL     1       1.113   2.944  -1.113  1.00  0.00     0.165 C 
HETATM    2  N1  UNL     1      -0.241   2.781  -0.580  1.00  0.00    -0.228 N 
HETATM    3  C2  UNL     1      -0.572   1.504  -0.056  1.00  0.00     0.711 C 
HETATM    4  N2  UNL     1       0.020   0.414  -0.119  1.00  0.00    -0.064 NA
HETATM    5  C3  UNL     1       1.196  -0.015  -0.696  1.00  0.00     0.086 A 
HETATM    6  C4  UNL     1       1.222  -0.013  -2.081  1.00  0.00     0.069 A 
HETATM    7  C5  UNL     1       2.318  -0.409  -2.823  1.00  0.00     0.070 A 
HETATM    8  C7  UNL     1       3.445  -0.829  -2.114  1.00  0.00     0.037 A 
HETATM    9  C8  UNL     1       3.459  -0.846  -0.725  1.00  0.00     0.014 A 
HETATM   10  C9  UNL     1       2.329  -0.437  -0.047  1.00  0.00    -0.007 A 
HETATM   11  C10 UNL     1       2.346  -0.459   1.454  1.00  0.00     0.215 C 
HETATM   12  N3  UNL     1       1.021  -0.867   1.833  1.00  0.00    -0.181 NA
HETATM   13  N4  UNL     1       0.334  -0.080   2.505  1.00  0.00    -0.119 NA
HETATM   14  S1  UNL     1      -1.248  -0.530   2.972  1.00  0.00     0.017 SA
HETATM   15  C11 UNL     1      -2.457  -0.342   1.635  1.00  0.00     0.183 A 
HETATM   16  C12 UNL     1      -3.859  -1.079   2.125  1.00  0.00     0.039 A 
HETATM   17  C13 UNL     1      -4.594  -2.118   1.401  1.00  0.00    -0.011 A 
HETATM   18  C14 UNL     1      -3.901  -1.228   0.670  1.00  0.00    -0.001 A 
HETATM   19  C15 UNL     1      -3.381  -0.379   1.815  1.00  0.00     0.077 A 
HETATM   20  C16 UNL     1      -3.451  -0.328   3.325  1.00  0.00     0.055 A 
HETATM   21  C17 UNL     1      -4.232  -1.398   3.504  1.00  0.00    -0.027 A 
HETATM   22  N5  UNL     1      -2.801   0.859   1.163  1.00  0.00    -0.184 NA
HETATM   23  N6  UNL     1      -1.803   1.666   0.616  1.00  0.00    -0.148 N 
HETATM   24  H4  UNL     1      -0.885   3.626  -0.622  1.00  0.00     0.177 HD
HETATM   25  H18 UNL     1      -2.460   2.374   0.965  1.00  0.00     0.199 HD
ENDROOT
BRANCH   7  26
HETATM   26  O1  UNL     1       2.356  -0.412  -4.213  1.00  0.00    -0.356 OA
HETATM   27  C6  UNL     1       3.498  -0.825  -4.941  1.00  0.00     0.210 C 
ENDBRANCH   7  26
TORSDOF 1
