REMARK  9 active torsions:
REMARK  status: ('A' for Active; 'I' for Inactive)
REMARK    1  A    between atoms: O1_2  and  C2_3 
REMARK    2  A    between atoms: C3_5  and  N2_6 
REMARK    3  A    between atoms: N2_6  and  C4_7 
REMARK    4  A    between atoms: C4_7  and  C5_8 
REMARK    5  A    between atoms: C5_8  and  C6_9 
REMARK    6  A    between atoms: C7_12  and  N4_13 
REMARK    7  A    between atoms: N4_13  and  C8_14 
REMARK    8  A    between atoms: C8_14  and  C9_15 
REMARK    9  A    between atoms: C9_15  and  N5_16 
ROOT
HETATM    1  C2  UNL     1       2.358  -1.858   0.058  1.00  0.00     0.302 A 
HETATM    2  N1  UNL     1       2.998  -0.760   0.460  1.00  0.00    -0.018 NA
HETATM    3  C3  UNL     1       2.322   0.330   0.930  1.00  0.00     0.741 A 
HETATM    4  N3  UNL     1       0.977   0.281   0.982  1.00  0.00     0.130 NA
HETATM    5  C7  UNL     1       0.294  -0.832   0.578  1.00  0.00     0.742 A 
HETATM    6  N6  UNL     1       1.033  -1.860   0.130  1.00  0.00    -0.018 NA
ENDROOT
BRANCH   5   7
HETATM    7  N4  UNL     1      -1.110  -0.930   0.618  1.00  0.00    -0.220 N 
HETATM    8  H11 UNL     1      -1.539  -1.840   0.305  1.00  0.00     0.177 HD
BRANCH   7   9
HETATM    9  C8  UNL     1      -1.982   0.158   1.070  1.00  0.00     0.168 C 
BRANCH   9  10
HETATM   10  C9  UNL     1      -3.400  -0.360   1.044  1.00  0.00     0.292 C 
BRANCH  10  11
HETATM   11  N5  UNL     1      -3.767  -0.764  -0.287  1.00  0.00     0.094 N 
HETATM   12  C10 UNL     1      -5.085  -1.396  -0.276  1.00  0.00     0.298 C 
HETATM   13  C11 UNL     1      -6.211  -0.467   0.003  1.00  0.00     0.198 C 
HETATM   14  O2  UNL     1      -5.864   0.846   0.157  1.00  0.00    -0.388 OA
HETATM   15  C12 UNL     1      -4.930   1.358  -0.700  1.00  0.00     0.198 C 
HETATM   16  C13 UNL     1      -3.905   0.369  -1.198  1.00  0.00     0.298 C 
ENDBRANCH  10  11
ENDBRANCH   9  10
ENDBRANCH   7   9
ENDBRANCH   5   7
BRANCH   3  17
HETATM   17  N2  UNL     1       3.096   1.441   1.348  1.00  0.00    -0.222 N 
HETATM   18  H4  UNL     1       3.004   1.283   2.397  1.00  0.00     0.177 HD
BRANCH  17  19
HETATM   19  C4  UNL     1       3.831   2.522   0.748  1.00  0.00     0.139 C 
BRANCH  19  20
HETATM   20  C5  UNL     1       5.011   2.035  -0.063  1.00  0.00     0.035 C 
BRANCH  20  21
HETATM   21  C6  UNL     1       5.993   1.256   0.790  1.00  0.00     0.116 C 
HETATM   22 CL1  UNL     1       7.330   0.753  -0.298  1.00  0.00    -0.130 Cl
ENDBRANCH  20  21
ENDBRANCH  19  20
ENDBRANCH  17  19
ENDBRANCH   3  17
BRANCH   1  23
HETATM   23  O1  UNL     1       3.012  -2.999  -0.432  1.00  0.00    -0.323 OA
HETATM   24  C1  UNL     1       4.431  -2.890  -0.468  1.00  0.00     0.213 C 
ENDBRANCH   1  23
TORSDOF 9
