REMARK  6 active torsions:
REMARK  status: ('A' for Active; 'I' for Inactive)
REMARK    1  A    between atoms: C4_5  and  N1_6 
REMARK    2  A    between atoms: N1_6  and  C5_7 
REMARK    3  A    between atoms: C7_12  and  N4_13 
REMARK    4  A    between atoms: N4_13  and  C8_14 
REMARK    5  A    between atoms: C8_14  and  C9_15 
REMARK    6  A    between atoms: C9_15  and  N5_16 
ROOT
HETATM    1  C5  UNL     1      -2.379   0.334   0.132  1.00  0.00     0.765 C 
HETATM    2  N2  UNL     1      -2.948   1.435   0.475  1.00  0.00     0.070 NA
HETATM    3  O1  UNL     1      -2.438   2.542   1.119  1.00  0.00    -0.192 OA
HETATM    4  C6  UNL     1      -1.374   2.557   2.036  1.00  0.00     0.306 C 
HETATM    5  N3  UNL     1      -0.400   1.716   2.061  1.00  0.00    -0.048 NA
HETATM    6  C7  UNL     1      -0.190   0.599   1.173  1.00  0.00     0.740 C 
HETATM    7  N6  UNL     1      -1.018   0.017   0.361  1.00  0.00     0.132 NA
ENDROOT
BRANCH   6   8
HETATM    8  N4  UNL     1       1.128   0.063   1.193  1.00  0.00    -0.220 N 
HETATM    9  H5  UNL     1       1.727   0.348   2.020  1.00  0.00     0.177 HD
BRANCH   8  10
HETATM   10  C8  UNL     1       1.576  -0.811   0.132  1.00  0.00     0.168 C 
BRANCH  10  11
HETATM   11  C9  UNL     1       3.026  -1.177   0.478  1.00  0.00     0.292 C 
BRANCH  11  12
HETATM   12  N5  UNL     1       3.740   0.063   0.520  1.00  0.00     0.094 N 
HETATM   13  C10 UNL     1       3.850   0.660  -0.772  1.00  0.00     0.298 C 
HETATM   14  C11 UNL     1       5.261   1.053  -1.148  1.00  0.00     0.198 C 
HETATM   15  O2  UNL     1       6.153   0.016  -0.887  1.00  0.00    -0.388 OA
HETATM   16  C12 UNL     1       6.185  -0.324   0.456  1.00  0.00     0.198 C 
HETATM   17  C13 UNL     1       4.973   0.048   1.236  1.00  0.00     0.298 C 
ENDBRANCH  11  12
ENDBRANCH  10  11
ENDBRANCH   8  10
ENDBRANCH   6   8
BRANCH   1  18
HETATM   18  N1  UNL     1      -3.262  -0.545  -0.513  1.00  0.00    -0.186 N 
HETATM   19  H3  UNL     1      -2.739  -1.395  -0.847  1.00  0.00     0.184 HD
BRANCH  18  20
HETATM   20  C4  UNL     1      -4.647  -0.438  -0.743  1.00  0.00     0.049 A 
HETATM   21  C3  UNL     1      -5.237  -1.458  -1.466  1.00  0.00     0.032 A 
HETATM   22  C2  UNL     1      -6.572  -1.520  -1.788  1.00  0.00     0.026 A 
HETATM   23  C1  UNL     1      -7.383  -0.512  -1.370  1.00  0.00     0.034 A 
HETATM   24 CL1  UNL     1      -9.089  -0.566  -1.768  1.00  0.00    -0.084 Cl
HETATM   25  C15 UNL     1      -6.874   0.540  -0.646  1.00  0.00     0.026 A 
HETATM   26  C14 UNL     1      -5.528   0.525  -0.368  1.00  0.00     0.032 A 
ENDBRANCH  18  20
ENDBRANCH   1  18
TORSDOF 6
