REMARK  6 active torsions:
REMARK  status: ('A' for Active; 'I' for Inactive)
REMARK    1  A    between atoms: O1_2  and  C2_3 
REMARK    2  A    between atoms: C3_5  and  N2_6 
REMARK    3  A    between atoms: N2_6  and  C4_7 
REMARK    4  A    between atoms: C4_7  and  C5_8 
REMARK    5  A    between atoms: C9_15  and  N5_16 
REMARK    6  A    between atoms: N5_16  and  C10_17 
ROOT
HETATM    1  C2  UNL     1       0.565  -2.609  -0.412  1.00  0.00     0.302 A 
HETATM    2  N1  UNL     1      -0.522  -1.808  -0.384  1.00  0.00    -0.018 NA
HETATM    3  C3  UNL     1      -0.404  -0.481  -0.579  1.00  0.00     0.742 A 
HETATM    4  N4  UNL     1       0.837   0.033  -0.806  1.00  0.00     0.130 NA
HETATM    5  C9  UNL     1       1.934  -0.768  -0.837  1.00  0.00     0.746 A 
HETATM    6  N6  UNL     1       1.818  -2.112  -0.638  1.00  0.00    -0.017 NA
ENDROOT
BRANCH   3   7
HETATM    7  N2  UNL     1      -1.524   0.383  -0.568  1.00  0.00    -0.220 N 
HETATM    8  H4  UNL     1      -1.364   1.425  -0.708  1.00  0.00     0.177 HD
BRANCH   7   9
HETATM    9  C4  UNL     1      -2.865  -0.147  -0.369  1.00  0.00     0.175 C 
BRANCH   9  10
HETATM   10  C5  UNL     1      -3.840   1.038  -0.461  1.00  0.00     0.262 C 
HETATM   11  C6  UNL     1      -5.254   0.603  -0.272  1.00  0.00     0.204 C 
HETATM   12  O2  UNL     1      -5.693   0.694   1.032  1.00  0.00    -0.387 OA
HETATM   13  C7  UNL     1      -5.599   1.957   1.589  1.00  0.00     0.197 C 
HETATM   14  C8  UNL     1      -4.470   2.791   1.077  1.00  0.00     0.296 C 
HETATM   15  N3  UNL     1      -3.412   2.053   0.469  1.00  0.00     0.093 N 
HETATM   16  H14 UNL     1      -2.748   1.655   1.174  1.00  0.00     0.316 HD
ENDBRANCH   9  10
ENDBRANCH   7   9
ENDBRANCH   3   7
BRANCH   1  17
HETATM   17  O1  UNL     1       0.234  -3.932  -0.187  1.00  0.00    -0.323 OA
HETATM   18  C1  UNL     1       1.261  -4.904  -0.185  1.00  0.00     0.213 C 
ENDBRANCH   1  17
BRANCH   5  19
HETATM   19  N5  UNL     1       3.182  -0.146  -1.079  1.00  0.00    -0.188 N 
HETATM   20  H15 UNL     1       3.126   0.005  -2.115  1.00  0.00     0.184 HD
BRANCH  19  21
HETATM   21  C10 UNL     1       4.306   0.247  -0.313  1.00  0.00     0.049 A 
HETATM   22  C11 UNL     1       5.285   0.957  -0.949  1.00  0.00     0.032 A 
HETATM   23  C12 UNL     1       6.413   1.360  -0.303  1.00  0.00     0.026 A 
HETATM   24  C13 UNL     1       6.519   1.008   1.049  1.00  0.00     0.034 A 
HETATM   25 CL1  UNL     1       7.956   1.508   1.907  1.00  0.00    -0.084 Cl
HETATM   26  C14 UNL     1       5.533   0.286   1.713  1.00  0.00     0.026 A 
HETATM   27  C15 UNL     1       4.419  -0.092   1.015  1.00  0.00     0.032 A 
ENDBRANCH  19  21
ENDBRANCH   5  19
TORSDOF 6
