REMARK  6 active torsions:
REMARK  status: ('A' for Active; 'I' for Inactive)
REMARK    1  A    between atoms: O1_2  and  C2_3 
REMARK    2  A    between atoms: C2_3  and  N1_4 
REMARK    3  A    between atoms: N1_4  and  C3_5 
REMARK    4  A    between atoms: C5_10  and  N4_11 
REMARK    5  A    between atoms: N4_11  and  P1_12 
REMARK    6  A    between atoms: C8_15  and  O2_16 
ROOT
HETATM    1  C3  UNL     1       2.650  -0.331   0.668  1.00  0.00     0.742 A 
HETATM    2  N2  UNL     1       2.723   0.289   1.881  1.00  0.00    -0.030 NA
HETATM    3  C4  UNL     1       1.891   1.278   2.153  1.00  0.00     0.259 A 
HETATM    4 CL1  UNL     1       2.011   2.053   3.724  1.00  0.00    -0.040 Cl
HETATM    5  N3  UNL     1       1.008   1.630   1.220  1.00  0.00    -0.028 NA
HETATM    6  C5  UNL     1       0.898   1.051   0.011  1.00  0.00     0.766 A 
HETATM    7  N5  UNL     1       1.749   0.048  -0.251  1.00  0.00     0.132 NA
ENDROOT
BRANCH   6   8
HETATM    8  N4  UNL     1      -0.133   1.639  -0.770  1.00  0.00    -0.067 NA
BRANCH   8   9
HETATM    9  P1  UNL     1      -1.449   0.771  -0.933  1.00  0.00     0.077 P 
HETATM   10  C6  UNL     1      -1.761  -0.405   0.138  1.00  0.00     0.037 A 
HETATM   11  C7  UNL     1      -3.169  -0.856   0.183  1.00  0.00     0.039 A 
HETATM   12  C8  UNL     1      -4.104  -0.358  -0.574  1.00  0.00     0.068 A 
HETATM   13  C10 UNL     1      -4.013   0.687  -1.580  1.00  0.00     0.039 A 
HETATM   14  C11 UNL     1      -2.889   1.317  -1.882  1.00  0.00     0.037 A 
BRANCH  12  15
HETATM   15  O2  UNL     1      -5.382  -0.911  -0.392  1.00  0.00    -0.356 OA
HETATM   16  C9  UNL     1      -6.511  -0.070  -0.155  1.00  0.00     0.210 C 
ENDBRANCH  12  15
ENDBRANCH   8   9
ENDBRANCH   6   8
BRANCH   1  17
HETATM   17  N1  UNL     1       3.468  -1.389   0.200  1.00  0.00    -0.201 N 
HETATM   18  H6  UNL     1       2.922  -2.153   0.711  1.00  0.00     0.180 HD
BRANCH  17  19
HETATM   19  C2  UNL     1       4.600  -1.813  -0.586  1.00  0.00     0.308 C 
BRANCH  19  20
HETATM   20  O1  UNL     1       5.730  -1.173  -0.144  1.00  0.00    -0.376 OA
HETATM   21  C1  UNL     1       5.717   0.204  -0.265  1.00  0.00     0.203 C 
ENDBRANCH  19  20
ENDBRANCH  17  19
ENDBRANCH   1  17
TORSDOF 6
