REMARK  6 active torsions:
REMARK  status: ('A' for Active; 'I' for Inactive)
REMARK    1  A    between atoms: C1_2  and  C2_3 
REMARK    2  A    between atoms: C1_2  and  N4_14 
REMARK    3  A    between atoms: C2_3  and  N2_4 
REMARK    4  A    between atoms: N2_4  and  C3_5 
REMARK    5  A    between atoms: C3_5  and  C4_6 
REMARK    6  A    between atoms: N4_14  and  C11_15 
ROOT
HETATM    1  C2  UNL     1       0.840   0.714   0.601  1.00  0.00     0.225 C 
ENDROOT
BRANCH   1   2
HETATM    2  C1  UNL     1       2.214   0.788   1.164  1.00  0.00     0.112 C 
HETATM    3  N1  UNL     1       2.604   1.653   2.050  1.00  0.00    -0.286 NA
HETATM    4  H1  UNL     1       1.983   2.385   2.453  1.00  0.00     0.188 HD
BRANCH   2   5
HETATM    5  N4  UNL     1       3.169  -0.153   0.703  1.00  0.00    -0.364 N 
HETATM    6  H13 UNL     1       2.807  -1.093   0.372  1.00  0.00     0.162 HD
BRANCH   5   7
HETATM    7  C11 UNL     1       4.589   0.133   0.673  1.00  0.00     0.151 A 
HETATM    8  C12 UNL     1       4.906   1.299  -0.187  1.00  0.00     0.004 A 
HETATM    9  C13 UNL     1       5.658   0.926  -1.206  1.00  0.00    -0.000 A 
HETATM   10  C14 UNL     1       5.918  -0.526  -1.128  1.00  0.00     0.021 A 
HETATM   11  C15 UNL     1       5.289  -0.974  -0.029  1.00  0.00     0.038 A 
HETATM   12 CL1  UNL     1       5.162  -2.575   0.684  1.00  0.00    -0.086 Cl
ENDBRANCH   5   7
ENDBRANCH   2   5
ENDBRANCH   1   2
BRANCH   1  13
HETATM   13  N2  UNL     1       0.266  -0.584   0.894  1.00  0.00    -0.292 NA
BRANCH  13  14
HETATM   14  C3  UNL     1      -0.961  -0.812   0.568  1.00  0.00     0.140 C 
BRANCH  14  15
HETATM   15  C4  UNL     1      -2.304  -0.603   0.039  1.00  0.00     0.045 C 
HETATM   16  C5  UNL     1      -3.035  -1.696   0.203  1.00  0.00     0.008 C 
HETATM   17  C6  UNL     1      -4.414  -2.011  -0.141  1.00  0.00     0.056 C 
HETATM   18  C7  UNL     1      -5.444  -1.091   0.339  1.00  0.00    -0.023 C 
HETATM   19  C8  UNL     1      -5.697   0.204   0.239  1.00  0.00    -0.002 C 
HETATM   20  C9  UNL     1      -4.985   1.299  -0.446  1.00  0.00     0.017 C 
HETATM   21  C10 UNL     1      -3.680   1.456  -0.723  1.00  0.00     0.088 C 
HETATM   22  N3  UNL     1      -2.469   0.701  -0.505  1.00  0.00    -0.365 N 
HETATM   23  H12 UNL     1      -1.596   1.160  -0.777  1.00  0.00     0.165 HD
ENDBRANCH  14  15
ENDBRANCH  13  14
ENDBRANCH   1  13
TORSDOF 6
