REMARK  7 active torsions:
REMARK  status: ('A' for Active; 'I' for Inactive)
REMARK    1  A    between atoms: O1_2  and  C2_3 
REMARK    2  A    between atoms: N3_12  and  C9_13 
REMARK    3  A    between atoms: C9_13  and  C10_14 
REMARK    4  A    between atoms: C10_14  and  C11_15 
REMARK    5  A    between atoms: C10_14  and  O2_20 
REMARK    6  A    between atoms: C12_16  and  C13_18 
REMARK    7  A    between atoms: O2_20  and  C14_21 
ROOT
HETATM    1  C2  UNL     1       3.711   2.116  -0.595  1.00  0.00     0.070 A 
HETATM    2  C3  UNL     1       2.423   2.591  -0.409  1.00  0.00     0.039 A 
HETATM    3  C4  UNL     1       1.488   1.716   0.107  1.00  0.00     0.035 A 
HETATM    4  C5  UNL     1       1.881   0.430   0.406  1.00  0.00     0.064 A 
HETATM    5  C6  UNL     1       3.159  -0.048   0.223  1.00  0.00     0.079 A 
HETATM    6  C7  UNL     1       4.103   0.818  -0.292  1.00  0.00     0.070 A 
HETATM    7  N1  UNL     1       3.438  -1.403   0.573  1.00  0.00    -0.275 N 
HETATM    8  N2  UNL     1       2.411  -2.220   1.094  1.00  0.00    -0.169 NA
HETATM    9  C8  UNL     1       1.212  -1.726   1.251  1.00  0.00     0.232 A 
HETATM   10  N3  UNL     1       0.846  -0.370   0.924  1.00  0.00    -0.336 N 
HETATM   11  H7  UNL     1       4.417  -1.736   0.424  1.00  0.00     0.189 HD
ENDROOT
BRANCH  10  12
HETATM   12  C9  UNL     1      -0.526  -0.123   1.203  1.00  0.00     0.166 C 
BRANCH  12  13
HETATM   13  C10 UNL     1      -1.465  -0.900   0.265  1.00  0.00     0.164 C 
BRANCH  13  14
HETATM   14  C11 UNL     1      -1.210  -0.349  -1.094  1.00  0.00     0.028 C 
HETATM   15  C12 UNL     1      -1.484   0.248  -2.273  1.00  0.00     0.039 C 
HETATM   16 CL1  UNL     1      -0.675   0.730  -3.776  1.00  0.00    -0.087 Cl
BRANCH  15  17
HETATM   17  C13 UNL     1      -2.900   0.694  -2.508  1.00  0.00     0.273 C 
HETATM   18  F1  UNL     1      -3.461   0.087  -3.615  1.00  0.00    -0.250 F 
ENDBRANCH  15  17
ENDBRANCH  13  14
BRANCH  13  19
HETATM   19  O2  UNL     1      -2.748  -0.598   0.608  1.00  0.00    -0.376 OA
BRANCH  19  20
HETATM   20  C14 UNL     1      -3.604  -1.591   0.883  1.00  0.00     0.114 C 
HETATM   21  C15 UNL     1      -4.838  -1.746   0.104  1.00  0.00     0.039 C 
HETATM   22  C16 UNL     1      -3.924  -1.591   2.365  1.00  0.00     0.039 C 
ENDBRANCH  19  20
ENDBRANCH  13  19
ENDBRANCH  12  13
ENDBRANCH  10  12
BRANCH   1  23
HETATM   23  O1  UNL     1       4.625   3.028  -1.116  1.00  0.00    -0.356 OA
HETATM   24  C1  UNL     1       5.979   2.690  -1.362  1.00  0.00     0.210 C 
ENDBRANCH   1  23
TORSDOF 7
