REMARK  6 active torsions:
REMARK  status: ('A' for Active; 'I' for Inactive)
REMARK    1  A    between atoms: O1_2  and  C2_3 
REMARK    2  A    between atoms: C3_4  and  N1_5 
REMARK    3  A    between atoms: C5_7  and  C6_8 
REMARK    4  A    between atoms: C8_13  and  N4_14 
REMARK    5  A    between atoms: N4_14  and  C9_15 
REMARK    6  A    between atoms: C9_15  and  C10_16 
ROOT
HETATM    1  C6  UNL     1      -0.402   0.545  -0.211  1.00  0.00     0.178 A 
HETATM    2  N2  UNL     1      -0.045   1.776   0.196  1.00  0.00    -0.197 NA
HETATM    3  C7  UNL     1       1.154   2.243  -0.237  1.00  0.00     0.243 A 
HETATM    4 CL1  UNL     1       1.649   3.844   0.275  1.00  0.00    -0.041 Cl
HETATM    5  N3  UNL     1       1.979   1.525  -1.044  1.00  0.00    -0.031 NA
HETATM    6  C8  UNL     1       1.588   0.281  -1.438  1.00  0.00     0.727 A 
HETATM    7  N5  UNL     1       0.408  -0.174  -1.011  1.00  0.00    -0.043 NA
ENDROOT
BRANCH   1   8
HETATM    8  C5  UNL     1      -1.684  -0.040   0.209  1.00  0.00    -0.001 A 
HETATM    9  C4  UNL     1      -2.149  -1.253  -0.128  1.00  0.00     0.043 A 
HETATM   10  C3  UNL     1      -3.463  -1.462   0.494  1.00  0.00     0.056 A 
HETATM   11  C2  UNL     1      -3.748  -0.371   1.185  1.00  0.00     0.076 A 
HETATM   12  C14 UNL     1      -2.677   0.633   1.087  1.00  0.00     0.109 A 
BRANCH  10  13
HETATM   13  N1  UNL     1      -4.190  -2.674   0.301  1.00  0.00    -0.397 N 
HETATM   14  H4  UNL     1      -4.154  -3.555   0.880  1.00  0.00     0.156 HD
HETATM   15  H5  UNL     1      -4.886  -2.973  -0.403  1.00  0.00     0.156 HD
ENDBRANCH  10  13
BRANCH  11  16
HETATM   16  O1  UNL     1      -4.832   0.025   1.978  1.00  0.00    -0.358 OA
HETATM   17  C1  UNL     1      -5.936   0.665   1.363  1.00  0.00     0.209 C 
ENDBRANCH  11  16
ENDBRANCH   1   8
BRANCH   6  18
HETATM   18  N4  UNL     1       2.495  -0.417  -2.282  1.00  0.00    -0.216 N 
HETATM   19  H7  UNL     1       2.299  -0.213  -3.292  1.00  0.00     0.178 HD
BRANCH  18  20
HETATM   20  C9  UNL     1       3.514  -1.270  -1.707  1.00  0.00     0.203 C 
BRANCH  20  21
HETATM   21  C10 UNL     1       4.375  -0.409  -0.828  1.00  0.00     0.070 A 
HETATM   22  C11 UNL     1       4.293  -0.077   0.500  1.00  0.00     0.036 A 
HETATM   23  C12 UNL     1       5.359   0.763   0.819  1.00  0.00     0.027 A 
HETATM   24  C13 UNL     1       6.036   0.886  -0.380  1.00  0.00     0.142 A 
HETATM   25  O2  UNL     1       5.448   0.200  -1.314  1.00  0.00    -0.325 OA
ENDBRANCH  20  21
ENDBRANCH  18  20
ENDBRANCH   6  18
TORSDOF 6
