REMARK  6 active torsions:
REMARK  status: ('A' for Active; 'I' for Inactive)
REMARK    1  A    between atoms: N1_2  and  C2_3 
REMARK    2  A    between atoms: C3_5  and  N3_6 
REMARK    3  A    between atoms: N4_7  and  C4_8 
REMARK    4  A    between atoms: C4_8  and  C5_9 
REMARK    5  A    between atoms: C8_12  and  O1_13 
REMARK    6  A    between atoms: C11_16  and  C12_17 
ROOT
HETATM    1  C2  UNL     1      -1.584   2.695   0.280  1.00  0.00     0.720 A 
HETATM    2  N2  UNL     1      -0.536   1.949   0.243  1.00  0.00    -0.069 NA
HETATM    3  C3  UNL     1      -0.943   0.583   0.026  1.00  0.00     0.324 A 
HETATM    4  C11 UNL     1      -2.401   0.656  -0.057  1.00  0.00     0.114 A 
HETATM    5  N5  UNL     1      -2.762   1.890   0.092  1.00  0.00    -0.063 NA
ENDROOT
BRANCH   3   6
HETATM    6  N3  UNL     1      -0.323   0.146  -1.179  1.00  0.00    -0.163 NA
HETATM    7  N4  UNL     1       0.824  -0.321  -1.116  1.00  0.00    -0.191 NA
BRANCH   7   8
HETATM    8  C4  UNL     1       1.465  -0.398   0.146  1.00  0.00     0.211 C 
BRANCH   8   9
HETATM    9  C5  UNL     1       2.919  -0.732  -0.054  1.00  0.00    -0.037 A 
HETATM   10  C6  UNL     1       3.295  -2.079  -0.080  1.00  0.00     0.012 A 
HETATM   11  C7  UNL     1       4.615  -2.437  -0.260  1.00  0.00     0.037 A 
HETATM   12  C8  UNL     1       5.542  -1.426  -0.412  1.00  0.00     0.065 A 
HETATM   13  C9  UNL     1       5.217  -0.068  -0.393  1.00  0.00     0.037 A 
HETATM   14  C10 UNL     1       3.874   0.270  -0.209  1.00  0.00     0.012 A 
BRANCH  12  15
HETATM   15  O1  UNL     1       6.886  -1.763  -0.596  1.00  0.00    -0.361 OA
HETATM   16  H10 UNL     1       7.208  -2.700  -0.361  1.00  0.00     0.217 HD
ENDBRANCH  12  15
ENDBRANCH   8   9
ENDBRANCH   7   8
ENDBRANCH   3   6
BRANCH   4  17
HETATM   17  C12 UNL     1      -3.331  -0.439  -0.270  1.00  0.00     0.015 A 
HETATM   18  C13 UNL     1      -4.621  -0.270  -0.329  1.00  0.00     0.148 A 
HETATM   19  O2  UNL     1      -5.609  -1.220  -0.525  1.00  0.00    -0.358 OA
HETATM   20  C14 UNL     1      -5.249  -2.569  -0.691  1.00  0.00     0.202 A 
HETATM   21  C15 UNL     1      -3.775  -2.684  -0.613  1.00  0.00     0.000 A 
HETATM   22  C16 UNL     1      -2.821  -1.789  -0.426  1.00  0.00     0.013 A 
ENDBRANCH   4  17
BRANCH   1  23
HETATM   23  N1  UNL     1      -1.628   4.101   0.474  1.00  0.00    -0.227 N 
HETATM   24  C1  UNL     1      -0.505   4.917   0.062  1.00  0.00     0.165 C 
HETATM   25  H4  UNL     1      -2.444   4.589   0.906  1.00  0.00     0.177 HD
ENDBRANCH   1  23
TORSDOF 6
