REMARK  6 active torsions:
REMARK  status: ('A' for Active; 'I' for Inactive)
REMARK    1  A    between atoms: N1_2  and  C2_3 
REMARK    2  A    between atoms: C3_5  and  N3_6 
REMARK    3  A    between atoms: N4_7  and  C4_8 
REMARK    4  A    between atoms: C4_8  and  C5_9 
REMARK    5  A    between atoms: C9_14  and  N6_15 
REMARK    6  A    between atoms: C14_20  and  O1_21 
ROOT
HETATM    1  C2  UNL     1      -0.133  -1.052   1.432  1.00  0.00     0.753 A 
HETATM    2  N2  UNL     1       0.830  -0.340   0.822  1.00  0.00     0.134 NA
HETATM    3  C3  UNL     1       0.594   0.426  -0.261  1.00  0.00     0.798 A 
HETATM    4  N5  UNL     1      -0.674   0.444  -0.710  1.00  0.00     0.135 NA
HETATM    5  C9  UNL     1      -1.660  -0.263  -0.114  1.00  0.00     0.758 A 
HETATM    6  N7  UNL     1      -1.403  -1.020   0.964  1.00  0.00     0.131 NA
ENDROOT
BRANCH   5   7
HETATM    7  N6  UNL     1      -2.964  -0.169  -0.675  1.00  0.00    -0.183 N 
HETATM    8  C10 UNL     1      -3.175   0.662  -1.834  1.00  0.00     0.148 C 
HETATM    9  C11 UNL     1      -4.598   1.099  -1.993  1.00  0.00     0.047 C 
HETATM   10  C12 UNL     1      -5.293   1.168  -0.675  1.00  0.00    -0.025 C 
HETATM   11  C13 UNL     1      -5.087   0.232   0.248  1.00  0.00     0.023 C 
HETATM   12  C14 UNL     1      -4.121  -0.841  -0.183  1.00  0.00     0.261 C 
BRANCH  12  13
HETATM   13  O1  UNL     1      -4.778  -1.553  -1.188  1.00  0.00    -0.373 OA
HETATM   14  H19 UNL     1      -4.108  -1.738  -1.905  1.00  0.00     0.212 HD
ENDBRANCH  12  13
ENDBRANCH   5   7
BRANCH   3  15
HETATM   15  N3  UNL     1       1.572   1.200  -0.947  1.00  0.00     0.041 NA
HETATM   16  N4  UNL     1       2.787   1.217  -0.670  1.00  0.00    -0.176 NA
BRANCH  16  17
HETATM   17  C4  UNL     1       3.358   0.447   0.389  1.00  0.00     0.183 C 
BRANCH  17  18
HETATM   18  C5  UNL     1       4.848   0.682   0.495  1.00  0.00     0.033 A 
HETATM   19  C6  UNL     1       5.595   0.332  -0.703  1.00  0.00    -0.024 A 
HETATM   20  C7  UNL     1       6.016   1.556  -0.933  1.00  0.00    -0.029 A 
HETATM   21  C8  UNL     1       5.314   2.065   0.249  1.00  0.00     0.037 A 
ENDBRANCH  17  18
ENDBRANCH  16  17
ENDBRANCH   3  15
BRANCH   1  22
HETATM   22  N1  UNL     1       0.247  -1.831   2.580  1.00  0.00    -0.226 N 
HETATM   23  C1  UNL     1       0.680  -3.197   2.335  1.00  0.00     0.165 C 
HETATM   24  H4  UNL     1       0.124  -1.205   3.414  1.00  0.00     0.177 HD
ENDBRANCH   1  22
TORSDOF 6
