REMARK  8 active torsions:
REMARK  status: ('A' for Active; 'I' for Inactive)
REMARK    1  A    between atoms: O1_2  and  C2_3 
REMARK    2  A    between atoms: C2_3  and  C3_4 
REMARK    3  A    between atoms: C7_8  and  N1_9 
REMARK    4  A    between atoms: N1_9  and  C8_10 
REMARK    5  A    between atoms: C11_14  and  N3_15 
REMARK    6  A    between atoms: N3_15  and  C12_16 
REMARK    7  A    between atoms: C12_16  and  C13_17 
REMARK    8  A    between atoms: C17_22  and  O2_23 
ROOT
HETATM    1  C8  UNL     1       0.185  -0.563  -0.013  1.00  0.00     0.728 A 
HETATM    2  N2  UNL     1      -0.082  -1.117   1.177  1.00  0.00    -0.075 NA
HETATM    3  C9  UNL     1      -1.271  -1.584   1.576  1.00  0.00     0.140 A 
HETATM    4  C10 UNL     1      -2.337  -1.503   0.708  1.00  0.00     0.071 A 
HETATM    5  C11 UNL     1      -2.110  -0.941  -0.528  1.00  0.00     0.148 A 
HETATM    6  N4  UNL     1      -0.881  -0.504  -0.827  1.00  0.00    -0.045 NA
ENDROOT
BRANCH   1   7
HETATM    7  N1  UNL     1       1.428  -0.062  -0.460  1.00  0.00    -0.188 N 
HETATM    8  H9  UNL     1       1.454   0.338  -1.425  1.00  0.00     0.184 HD
BRANCH   7   9
HETATM    9  C7  UNL     1       2.643  -0.038   0.245  1.00  0.00     0.050 A 
HETATM   10  C6  UNL     1       2.862  -0.502   1.522  1.00  0.00     0.030 A 
HETATM   11  C5  UNL     1       4.062  -0.470   2.197  1.00  0.00     0.003 A 
HETATM   12  C4  UNL     1       5.154   0.061   1.581  1.00  0.00     0.009 A 
HETATM   13  C3  UNL     1       5.004   0.545   0.299  1.00  0.00    -0.032 A 
HETATM   14  C18 UNL     1       3.777   0.483  -0.321  1.00  0.00     0.039 A 
BRANCH  13  15
HETATM   15  C2  UNL     1       6.184   1.128  -0.388  1.00  0.00     0.205 C 
BRANCH  15  16
HETATM   16  O1  UNL     1       6.855   0.138  -1.081  1.00  0.00    -0.391 OA
HETATM   17  C1  UNL     1       7.977   0.613  -1.753  1.00  0.00     0.201 C 
ENDBRANCH  15  16
ENDBRANCH  13  15
ENDBRANCH   7   9
ENDBRANCH   1   7
BRANCH   5  18
HETATM   18  N3  UNL     1      -3.190  -0.843  -1.449  1.00  0.00    -0.349 N 
HETATM   19  H12 UNL     1      -3.006  -0.415  -2.384  1.00  0.00     0.166 HD
BRANCH  18  20
HETATM   20  C12 UNL     1      -4.463  -1.343  -1.022  1.00  0.00     0.102 C 
BRANCH  20  21
HETATM   21  C13 UNL     1      -5.266  -0.446  -0.459  1.00  0.00    -0.005 A 
HETATM   22  C14 UNL     1      -4.843   0.929  -0.308  1.00  0.00     0.009 A 
HETATM   23  C15 UNL     1      -5.584   1.888   0.244  1.00  0.00    -0.036 A 
HETATM   24  C16 UNL     1      -6.917   2.009   0.848  1.00  0.00    -0.023 A 
HETATM   25  B1  UNL     1      -7.697   0.327   0.777  1.00  0.00     0.220 B 
HETATM   26  C17 UNL     1      -6.577  -0.838   0.012  1.00  0.00     0.000 A 
BRANCH  26  27
HETATM   27  O2  UNL     1      -7.055  -2.124  -0.093  1.00  0.00    -0.377 OA
HETATM   28  H18 UNL     1      -6.868  -2.854   0.590  1.00  0.00     0.215 HD
ENDBRANCH  26  27
ENDBRANCH  20  21
ENDBRANCH  18  20
ENDBRANCH   5  18
TORSDOF 8
