REMARK  4 active torsions:
REMARK  status: ('A' for Active; 'I' for Inactive)
REMARK    1  A    between atoms: C2_2  and  O1_3 
REMARK    2  A    between atoms: O1_3  and  C3_4 
REMARK    3  A    between atoms: C7_8  and  C8_9 
REMARK    4  A    between atoms: N2_12  and  C10_13 
ROOT
HETATM    1  C8  UNL     1       0.304  -0.079  -0.321  1.00  0.00     0.101 C 
HETATM    2  C9  UNL     1      -0.314  -0.763   0.606  1.00  0.00     0.140 C 
HETATM    3  N1  UNL     1      -1.527  -0.468   0.899  1.00  0.00    -0.162 NA
HETATM    4  N2  UNL     1      -2.364  -0.127  -0.168  1.00  0.00    -0.229 N 
HETATM    5  C16 UNL     1      -1.763   0.261  -1.381  1.00  0.00     0.235 C 
HETATM    6  N3  UNL     1      -0.457   0.293  -1.483  1.00  0.00    -0.239 NA
ENDROOT
BRANCH   1   7
HETATM    7  C7  UNL     1       1.701   0.198  -0.008  1.00  0.00    -0.002 A 
HETATM    8  C6  UNL     1       1.835   1.450   0.597  1.00  0.00     0.014 A 
HETATM    9  C5  UNL     1       3.091   1.924   0.984  1.00  0.00     0.004 A 
HETATM   10  C4  UNL     1       4.213   1.131   0.758  1.00  0.00     0.037 A 
HETATM   11  C3  UNL     1       4.046  -0.101   0.159  1.00  0.00     0.069 A 
HETATM   12  C17 UNL     1       2.815  -0.583  -0.229  1.00  0.00     0.050 A 
BRANCH  11  13
HETATM   13  O1  UNL     1       5.141  -0.922  -0.084  1.00  0.00    -0.351 OA
BRANCH  13  14
HETATM   14  C2  UNL     1       6.398  -0.402   0.325  1.00  0.00     0.171 C 
HETATM   15  C1  UNL     1       7.547  -1.316   0.046  1.00  0.00     0.034 C 
ENDBRANCH  13  14
ENDBRANCH  11  13
ENDBRANCH   1   7
BRANCH   4  16
HETATM   16  C10 UNL     1      -3.767  -0.173  -0.023  1.00  0.00     0.061 C 
HETATM   17  C11 UNL     1      -4.316  -1.352  -0.344  1.00  0.00     0.029 C 
HETATM   18  C12 UNL     1      -5.750  -1.605  -0.263  1.00  0.00     0.000 C 
HETATM   19  C13 UNL     1      -6.799  -0.807  -0.050  1.00  0.00    -0.001 C 
HETATM   20  C14 UNL     1      -6.637   0.662   0.166  1.00  0.00     0.195 C 
HETATM   21  O2  UNL     1      -5.610   0.854   1.087  1.00  0.00    -0.382 OA
HETATM   22  C15 UNL     1      -4.390   1.089   0.458  1.00  0.00     0.227 C 
ENDBRANCH   4  16
TORSDOF 4
