REMARK  9 active torsions:
REMARK  status: ('A' for Active; 'I' for Inactive)
REMARK    1  A    between atoms: N1_2  and  C2_3 
REMARK    2  A    between atoms: N3_6  and  C4_7 
REMARK    3  A    between atoms: C4_7  and  N4_8 
REMARK    4  A    between atoms: N4_8  and  C5_9 
REMARK    5  A    between atoms: C6_10  and  C7_11 
REMARK    6  A    between atoms: N5_15  and  N6_16 
REMARK    7  A    between atoms: N7_17  and  C11_18 
REMARK    8  A    between atoms: C11_18  and  C12_19 
REMARK    9  A    between atoms: C15_22  and  O1_23 
ROOT
HETATM    1  C2  UNL     1      -0.479   1.859  -0.250  1.00  0.00     0.755 A 
HETATM    2  N2  UNL     1       0.759   2.207  -0.112  1.00  0.00     0.133 NA
HETATM    3  C3  UNL     1       1.225   0.923   0.286  1.00  0.00     0.778 A 
HETATM    4  N3  UNL     1       2.230   0.167   0.653  1.00  0.00    -0.083 NA
HETATM    5  N5  UNL     1      -0.151   0.518   0.137  1.00  0.00     0.138 N 
ENDROOT
BRANCH   5   6
HETATM    6  N6  UNL     1      -0.952  -0.621   0.271  1.00  0.00    -0.035 NA
HETATM    7  N7  UNL     1      -2.047  -0.477   0.904  1.00  0.00    -0.169 NA
BRANCH   7   8
HETATM    8  C11 UNL     1      -2.967  -1.561   1.118  1.00  0.00     0.214 C 
BRANCH   8   9
HETATM    9  C12 UNL     1      -4.240  -1.355   0.380  1.00  0.00    -0.036 A 
HETATM   10  C13 UNL     1      -5.321  -0.695   0.929  1.00  0.00     0.012 A 
HETATM   11  C14 UNL     1      -6.507  -0.498   0.254  1.00  0.00     0.037 A 
HETATM   12  C15 UNL     1      -6.646  -0.972  -1.032  1.00  0.00     0.065 A 
HETATM   13  C16 UNL     1      -5.569  -1.631  -1.584  1.00  0.00     0.037 A 
HETATM   14  C17 UNL     1      -4.382  -1.828  -0.907  1.00  0.00     0.012 A 
BRANCH  12  15
HETATM   15  O1  UNL     1      -7.827  -0.790  -1.741  1.00  0.00    -0.361 OA
HETATM   16  H17 UNL     1      -8.661  -0.497  -1.257  1.00  0.00     0.217 HD
ENDBRANCH  12  15
ENDBRANCH   8   9
ENDBRANCH   7   8
ENDBRANCH   5   6
BRANCH   1  17
HETATM   17  N1  UNL     1      -1.643   2.597  -0.641  1.00  0.00    -0.226 N 
HETATM   18  C1  UNL     1      -1.636   4.041  -0.778  1.00  0.00     0.165 C 
HETATM   19  H4  UNL     1      -2.503   2.024  -0.823  1.00  0.00     0.177 HD
ENDBRANCH   1  17
BRANCH   4  20
HETATM   20  C4  UNL     1       3.524   0.816   0.728  1.00  0.00     0.290 C 
BRANCH  20  21
HETATM   21  N4  UNL     1       4.433   0.165   1.644  1.00  0.00    -0.381 N 
HETATM   22  H7  UNL     1       4.076  -0.679   2.142  1.00  0.00     0.160 HD
BRANCH  21  23
HETATM   23  C5  UNL     1       5.706   0.796   1.723  1.00  0.00     0.085 C 
HETATM   24  C6  UNL     1       6.703   0.258   1.035  1.00  0.00     0.028 C 
BRANCH  24  25
HETATM   25  C7  UNL     1       6.559  -0.938   0.211  1.00  0.00    -0.035 A 
HETATM   26  C8  UNL     1       7.281  -1.742  -0.588  1.00  0.00     0.011 A 
HETATM   27  C9  UNL     1       6.138  -2.603  -0.872  1.00  0.00     0.002 A 
HETATM   28  C10 UNL     1       5.428  -1.823  -0.095  1.00  0.00     0.011 A 
ENDBRANCH  24  25
ENDBRANCH  21  23
ENDBRANCH  20  21
ENDBRANCH   4  20
TORSDOF 9
