REMARK  2 active torsions:
REMARK  status: ('A' for Active; 'I' for Inactive)
REMARK    1  A    between atoms: O1_1  and  C1_2 
REMARK    2  A    between atoms: C5_6  and  N1_7 
REMARK       I    between atoms: N1_7  and  C6_8 
ROOT
HETATM    1  N1  UNL     1       2.559   1.028   0.994  1.00  0.00    -0.188 N 
HETATM    2  C6  UNL     1       1.224   0.550   0.924  1.00  0.00     0.724 C 
HETATM    3  N2  UNL     1       1.089  -0.750   0.803  1.00  0.00    -0.079 NA
HETATM    4  C7  UNL     1      -0.287  -1.214   0.733  1.00  0.00     0.344 C 
HETATM    5  O2  UNL     1      -0.700  -1.315  -0.635  1.00  0.00    -0.330 OA
HETATM    6  C8  UNL     1      -2.033  -1.439  -0.960  1.00  0.00     0.072 C 
HETATM    7  C9  UNL     1      -2.735  -2.506  -0.529  1.00  0.00     0.036 C 
HETATM    8  C10 UNL     1      -4.205  -2.508  -0.382  1.00  0.00    -0.001 C 
HETATM    9  C11 UNL     1      -5.040  -1.478  -0.605  1.00  0.00    -0.021 C 
HETATM   10  C12 UNL     1      -4.855  -0.051  -0.878  1.00  0.00     0.083 C 
HETATM   11  C13 UNL     1      -3.477   0.387  -1.113  1.00  0.00     0.011 C 
HETATM   12  C14 UNL     1      -2.549  -0.319  -1.788  1.00  0.00     0.061 C 
HETATM   13  N3  UNL     1      -3.154   1.649  -0.562  1.00  0.00    -0.383 N 
HETATM   14  C15 UNL     1      -2.332   2.348   0.346  1.00  0.00     0.132 C 
HETATM   15  C16 UNL     1      -1.287   2.635   1.081  1.00  0.00     0.020 C 
HETATM   16  C17 UNL     1       0.060   2.511   1.684  1.00  0.00     0.134 C 
HETATM   17  N4  UNL     1       0.129   1.453   0.987  1.00  0.00    -0.076 NA
HETATM   18  H5  UNL     1       2.770   1.807   1.676  1.00  0.00     0.184 HD
HETATM   19  H14 UNL     1      -3.774   2.357  -0.997  1.00  0.00     0.160 HD
ENDROOT
BRANCH   1  20
HETATM   20  C5  UNL     1       3.619   0.521   0.199  1.00  0.00     0.052 A 
HETATM   21  C4  UNL     1       4.920   1.005   0.387  1.00  0.00     0.030 A 
HETATM   22  C3  UNL     1       5.999   0.574  -0.340  1.00  0.00     0.005 A 
HETATM   23  C2  UNL     1       5.840  -0.384  -1.316  1.00  0.00     0.036 A 
HETATM   24  C1  UNL     1       4.573  -0.883  -1.529  1.00  0.00     0.067 A 
HETATM   25  C18 UNL     1       3.526  -0.418  -0.774  1.00  0.00     0.066 A 
BRANCH  24  26
HETATM   26  O1  UNL     1       4.397  -1.852  -2.512  1.00  0.00    -0.361 OA
HETATM   27  H1  UNL     1       4.908  -2.721  -2.427  1.00  0.00     0.217 HD
ENDBRANCH  24  26
ENDBRANCH   1  20
TORSDOF 2
