REMARK  3 active torsions:
REMARK  status: ('A' for Active; 'I' for Inactive)
REMARK    1  A    between atoms: O1_2  and  C2_3 
REMARK    2  A    between atoms: O2_7  and  C6_8 
REMARK    3  A    between atoms: N1_11  and  S1_12 
ROOT
HETATM    1  C2  UNL     1      -1.593  -2.509   1.850  1.00  0.00     0.249 C 
HETATM    2  C3  UNL     1      -1.184  -1.280   1.019  1.00  0.00     0.054 C 
HETATM    3  C4  UNL     1      -0.090  -0.515   0.719  1.00  0.00     0.037 A 
HETATM    4  C5  UNL     1      -0.752   0.477  -0.227  1.00  0.00    -0.045 A 
HETATM    5  O2  UNL     1       0.472   0.681  -0.006  1.00  0.00     0.000 OA
HETATM    6  C12 UNL     1      -1.878   0.561  -0.632  1.00  0.00     0.022 C 
HETATM    7  C13 UNL     1      -3.277   0.528  -1.034  1.00  0.00    -0.006 A 
HETATM    8  C14 UNL     1      -3.508   1.353  -2.068  1.00  0.00     0.057 A 
HETATM    9  C15 UNL     1      -4.670   1.632  -2.735  1.00  0.00     0.139 A 
HETATM   10  F1  UNL     1      -4.795   2.469  -3.765  1.00  0.00    -0.204 F 
HETATM   11  C16 UNL     1      -5.691   0.875  -2.148  1.00  0.00     0.074 A 
HETATM   12 CL1  UNL     1      -7.275   1.101  -2.871  1.00  0.00    -0.081 Cl
HETATM   13  C17 UNL     1      -5.577   0.010  -1.099  1.00  0.00     0.057 A 
HETATM   14  C18 UNL     1      -4.377  -0.189  -0.516  1.00  0.00     0.045 A 
HETATM   15  N2  UNL     1      -4.374  -1.156   0.545  1.00  0.00    -0.350 N 
HETATM   16  C19 UNL     1      -3.676  -2.440   0.685  1.00  0.00     0.204 C 
HETATM   17  N3  UNL     1      -2.671  -3.177   1.110  1.00  0.00    -0.253 NA
HETATM   18  H22 UNL     1      -5.006  -0.808   1.335  1.00  0.00     0.166 HD
ENDROOT
BRANCH   5  19
HETATM   19  C6  UNL     1       1.481   1.619  -0.020  1.00  0.00    -0.007 C 
HETATM   20  C7  UNL     1       2.422   1.213   1.104  1.00  0.00     0.025 C 
HETATM   21  C8  UNL     1       3.825   1.681   0.962  1.00  0.00     0.135 C 
HETATM   22  N1  UNL     1       4.237   1.575  -0.387  1.00  0.00    -0.311 N 
HETATM   23  C10 UNL     1       3.507   2.259  -1.352  1.00  0.00     0.135 C 
HETATM   24  C11 UNL     1       2.121   1.603  -1.383  1.00  0.00     0.025 C 
BRANCH  22  25
HETATM   25  S1  UNL     1       5.685   0.808  -0.726  1.00  0.00     0.224 S 
HETATM   26  C9  UNL     1       5.724  -0.889  -0.196  1.00  0.00     0.186 C 
HETATM   27  O3  UNL     1       6.032   0.911  -2.195  1.00  0.00    -0.206 OA
HETATM   28  O4  UNL     1       6.791   1.535   0.018  1.00  0.00    -0.206 OA
ENDBRANCH  22  25
ENDBRANCH   5  19
BRANCH   1  29
HETATM   29  O1  UNL     1      -1.943  -2.280   3.129  1.00  0.00    -0.369 OA
HETATM   30  C1  UNL     1      -1.114  -3.012   3.993  1.00  0.00     0.204 C 
ENDBRANCH   1  29
TORSDOF 3
