REMARK  6 active torsions:
REMARK  status: ('A' for Active; 'I' for Inactive)
REMARK    1  A    between atoms: O1_2  and  C2_3 
REMARK    2  A    between atoms: C3_4  and  N1_5 
REMARK    3  A    between atoms: N2_6  and  C4_7 
REMARK    4  A    between atoms: C5_9  and  N4_10 
REMARK    5  A    between atoms: N4_10  and  C6_11 
REMARK    6  A    between atoms: C10_15  and  O2_16 
ROOT
HETATM    1  C4  UNL     1      -1.265  -0.296  -0.592  1.00  0.00     0.117 A 
HETATM    2  N3  UNL     1      -0.627   0.698  -0.058  1.00  0.00    -0.217 NA
HETATM    3  C5  UNL     1       0.761   0.603  -0.209  1.00  0.00     0.126 A 
HETATM    4  C13 UNL     1       1.055  -0.497  -0.868  1.00  0.00     0.031 A 
HETATM    5  C14 UNL     1      -0.208  -1.191  -1.184  1.00  0.00     0.110 A 
ENDROOT
BRANCH   1   6
HETATM    6  N2  UNL     1      -2.669  -0.520  -0.626  1.00  0.00    -0.294 N 
HETATM    7  C3  UNL     1      -3.488   0.322   0.179  1.00  0.00     0.136 A 
HETATM    8  C2  UNL     1      -4.786   0.082   0.119  1.00  0.00     0.093 A 
HETATM    9  C17 UNL     1      -5.492  -0.952  -0.679  1.00  0.00     0.097 A 
HETATM   10  C16 UNL     1      -4.470  -1.716  -1.440  1.00  0.00    -0.002 A 
HETATM   11  C15 UNL     1      -3.177  -1.561  -1.452  1.00  0.00     0.096 A 
BRANCH   7  12
HETATM   12  N1  UNL     1      -2.975   1.361   1.003  1.00  0.00    -0.383 N 
HETATM   13  H4  UNL     1      -2.964   1.402   2.063  1.00  0.00     0.157 HD
HETATM   14  H5  UNL     1      -2.520   2.271   0.842  1.00  0.00     0.157 HD
ENDBRANCH   7  12
BRANCH   8  15
HETATM   15  O1  UNL     1      -5.579   0.922   0.919  1.00  0.00    -0.356 OA
HETATM   16  C1  UNL     1      -6.760   0.403   1.469  1.00  0.00     0.209 C 
ENDBRANCH   8  15
ENDBRANCH   1   6
BRANCH   3  17
HETATM   17  N4  UNL     1       1.775   1.493   0.239  1.00  0.00    -0.341 N 
HETATM   18  H6  UNL     1       1.695   2.540   0.347  1.00  0.00     0.167 HD
BRANCH  17  19
HETATM   19  C6  UNL     1       3.081   1.001   0.605  1.00  0.00     0.036 A 
HETATM   20  C7  UNL     1       3.455   0.593   1.869  1.00  0.00     0.029 A 
HETATM   21  C8  UNL     1       4.747   0.141   2.084  1.00  0.00     0.005 A 
HETATM   22  C9  UNL     1       5.633   0.106   1.035  1.00  0.00     0.037 A 
HETATM   23  C10 UNL     1       5.246   0.520  -0.236  1.00  0.00     0.070 A 
HETATM   24  C12 UNL     1       3.965   0.973  -0.470  1.00  0.00     0.066 A 
BRANCH  23  25
HETATM   25  O2  UNL     1       6.156   0.474  -1.267  1.00  0.00    -0.356 OA
HETATM   26  C11 UNL     1       7.478   0.011  -1.050  1.00  0.00     0.210 C 
ENDBRANCH  23  25
ENDBRANCH  17  19
ENDBRANCH   3  17
TORSDOF 6
