REMARK  7 active torsions:
REMARK  status: ('A' for Active; 'I' for Inactive)
REMARK    1  A    between atoms: O1_2  and  C2_3 
REMARK    2  A    between atoms: C6_7  and  N1_8 
REMARK    3  A    between atoms: N1_8  and  C7_9 
REMARK    4  A    between atoms: C10_13  and  N3_14 
REMARK    5  A    between atoms: N3_14  and  C11_15 
REMARK    6  A    between atoms: C11_15  and  C12_16 
REMARK    7  A    between atoms: C14_19  and  O2_20 
ROOT
HETATM    1  C7  UNL     1      -1.224   0.473   0.820  1.00  0.00     0.148 A 
HETATM    2  C8  UNL     1      -1.760   1.690   0.427  1.00  0.00     0.071 A 
HETATM    3  C9  UNL     1      -0.994   2.854   0.479  1.00  0.00     0.140 A 
HETATM    4  N2  UNL     1       0.293   2.809   0.915  1.00  0.00    -0.075 NA
HETATM    5  C10 UNL     1       0.762   1.589   1.285  1.00  0.00     0.728 A 
HETATM    6  N4  UNL     1       0.057   0.446   1.251  1.00  0.00    -0.045 NA
ENDROOT
BRANCH   5   7
HETATM    7  N3  UNL     1       2.106   1.574   1.736  1.00  0.00    -0.197 N 
HETATM    8  H10 UNL     1       2.704   2.415   1.869  1.00  0.00     0.183 HD
BRANCH   7   9
HETATM    9  C11 UNL     1       3.011   0.549   2.127  1.00  0.00     0.116 C 
BRANCH   9  10
HETATM   10  C12 UNL     1       3.829   0.157   1.162  1.00  0.00    -0.035 A 
HETATM   11  C13 UNL     1       3.589   0.880  -0.053  1.00  0.00    -0.071 A 
HETATM   12  B1  UNL     1       4.685   0.472  -1.627  1.00  0.00     0.213 B 
HETATM   13  C14 UNL     1       5.795  -0.773  -1.176  1.00  0.00     0.095 A 
HETATM   14  C16 UNL     1       5.641  -1.198   0.233  1.00  0.00    -0.005 A 
HETATM   15  C17 UNL     1       4.862  -0.862   1.236  1.00  0.00     0.009 A 
BRANCH  13  16
HETATM   16  O2  UNL     1       7.081  -0.254  -1.332  1.00  0.00    -0.397 OA
HETATM   17  C15 UNL     1       7.727  -1.050  -2.292  1.00  0.00     0.201 C 
ENDBRANCH  13  16
ENDBRANCH   9  10
ENDBRANCH   7   9
ENDBRANCH   5   7
BRANCH   1  18
HETATM   18  N1  UNL     1      -2.041  -0.685   0.753  1.00  0.00    -0.340 N 
HETATM   19  H7  UNL     1      -1.636  -1.570   1.146  1.00  0.00     0.167 HD
BRANCH  18  20
HETATM   20  C6  UNL     1      -3.327  -0.551   0.166  1.00  0.00     0.036 A 
HETATM   21  C5  UNL     1      -3.525  -0.107  -1.126  1.00  0.00     0.029 A 
HETATM   22  C4  UNL     1      -4.787   0.032  -1.658  1.00  0.00     0.005 A 
HETATM   23  C3  UNL     1      -5.926  -0.267  -0.919  1.00  0.00     0.037 A 
HETATM   24  C2  UNL     1      -5.782  -0.721   0.399  1.00  0.00     0.070 A 
HETATM   25  C18 UNL     1      -4.493  -0.839   0.869  1.00  0.00     0.066 A 
BRANCH  24  26
HETATM   26  O1  UNL     1      -6.788  -1.069   1.297  1.00  0.00    -0.356 OA
HETATM   27  C1  UNL     1      -8.147  -0.979   0.919  1.00  0.00     0.210 C 
ENDBRANCH  24  26
ENDBRANCH  18  20
ENDBRANCH   1  18
TORSDOF 7
