REMARK  6 active torsions:
REMARK  status: ('A' for Active; 'I' for Inactive)
REMARK    1  A    between atoms: O1_2  and  C2_3 
REMARK    2  A    between atoms: C6_8  and  N2_9 
REMARK    3  A    between atoms: N2_9  and  C7_10 
REMARK    4  A    between atoms: C10_14  and  N4_15 
REMARK    5  A    between atoms: N4_15  and  C11_16 
REMARK    6  A    between atoms: C16_21  and  O2_22 
ROOT
HETATM    1  C7  UNL     1       1.390   0.045   0.492  1.00  0.00     0.148 A 
HETATM    2  C8  UNL     1       1.687  -1.301   0.468  1.00  0.00     0.071 A 
HETATM    3  C9  UNL     1       0.668  -2.252   0.536  1.00  0.00     0.140 A 
HETATM    4  N3  UNL     1      -0.606  -1.788   0.626  1.00  0.00    -0.075 NA
HETATM    5  C10 UNL     1      -0.900  -0.473   0.650  1.00  0.00     0.728 A 
HETATM    6  N5  UNL     1       0.093   0.462   0.583  1.00  0.00    -0.045 NA
ENDROOT
BRANCH   1   7
HETATM    7  N2  UNL     1       2.444   0.985   0.429  1.00  0.00    -0.336 N 
HETATM    8  H7  UNL     1       2.284   2.007   0.399  1.00  0.00     0.168 HD
BRANCH   7   9
HETATM    9  C6  UNL     1       3.763   0.467   0.405  1.00  0.00     0.098 C 
HETATM   10  C2  UNL     1       4.517  -0.210  -0.662  1.00  0.00     0.095 C 
HETATM   11  C3  UNL     1       5.504  -0.982  -0.243  1.00  0.00     0.034 C 
HETATM   12  C4  UNL     1       5.846  -1.170   1.196  1.00  0.00     0.179 C 
HETATM   13  N1  UNL     1       5.151  -0.241   2.033  1.00  0.00    -0.281 NA
HETATM   14  C5  UNL     1       4.385   0.638   1.554  1.00  0.00     0.111 C 
BRANCH  10  15
HETATM   15  O1  UNL     1       4.039   0.096  -1.928  1.00  0.00    -0.354 OA
HETATM   16  C1  UNL     1       4.337   1.385  -2.481  1.00  0.00     0.210 C 
ENDBRANCH  10  15
ENDBRANCH   7   9
ENDBRANCH   1   7
BRANCH   5  17
HETATM   17  N4  UNL     1      -2.284  -0.172   0.747  1.00  0.00    -0.185 N 
HETATM   18  H10 UNL     1      -2.416  -0.260   1.785  1.00  0.00     0.184 HD
BRANCH  17  19
HETATM   19  C11 UNL     1      -3.347   0.167  -0.130  1.00  0.00     0.082 A 
HETATM   20  C12 UNL     1      -3.097   0.313  -1.477  1.00  0.00     0.033 A 
HETATM   21  C13 UNL     1      -4.104   0.654  -2.353  1.00  0.00     0.002 A 
HETATM   22  C14 UNL     1      -5.351   0.835  -1.791  1.00  0.00     0.003 A 
HETATM   23  C15 UNL     1      -5.596   0.689  -0.448  1.00  0.00     0.039 A 
HETATM   24  C16 UNL     1      -4.594   0.348   0.428  1.00  0.00     0.095 A 
BRANCH  24  25
HETATM   25  O2  UNL     1      -4.828   0.197   1.782  1.00  0.00    -0.354 OA
HETATM   26  C17 UNL     1      -6.066   0.365   2.420  1.00  0.00     0.210 C 
ENDBRANCH  24  25
ENDBRANCH  17  19
ENDBRANCH   5  17
TORSDOF 6
