REMARK  3 active torsions:
REMARK  status: ('A' for Active; 'I' for Inactive)
REMARK    1  A    between atoms: O1_2  and  C2_3 
REMARK    2  A    between atoms: C7_8  and  P1_9 
REMARK    3  A    between atoms: C18_23  and  O2_24 
ROOT
HETATM    1  P1  UNL     1       0.764  -0.766  -0.029  1.00  0.00    -0.038 P 
HETATM    2  C8  UNL     1       1.643  -1.513  -0.159  1.00  0.00     0.054 A 
HETATM    3  N1  UNL     1       2.549  -2.297  -0.296  1.00  0.00    -0.264 NA
HETATM    4  C9  UNL     1       2.648  -3.360   0.492  1.00  0.00     0.118 C 
HETATM    5  C10 UNL     1       1.869  -3.871   1.599  1.00  0.00     0.036 C 
HETATM    6  C11 UNL     1       0.906  -3.097   1.796  1.00  0.00     0.084 C 
HETATM    7  N2  UNL     1      -0.073  -2.094   1.813  1.00  0.00    -0.395 N 
HETATM    8  C12 UNL     1       0.153  -0.716   1.459  1.00  0.00     0.157 A 
HETATM    9  C13 UNL     1       0.354  -0.424   0.023  1.00  0.00     0.068 A 
HETATM   10  C14 UNL     1       0.383  -0.020  -1.351  1.00  0.00     0.059 A 
HETATM   11  C15 UNL     1      -0.531   0.952  -1.872  1.00  0.00     0.066 C 
HETATM   12  C16 UNL     1      -1.229   1.522  -2.868  1.00  0.00    -0.006 C 
HETATM   13  P2  UNL     1      -0.234   1.322  -4.247  1.00  0.00    -0.053 P 
HETATM   14  C17 UNL     1       1.040   0.042  -3.739  1.00  0.00     0.045 C 
HETATM   15  C18 UNL     1       1.158  -0.404  -2.496  1.00  0.00     0.059 C 
HETATM   16  H11 UNL     1      -1.076  -2.344   2.089  1.00  0.00     0.159 HD
ENDROOT
BRANCH   1  17
HETATM   17  C7  UNL     1      -1.191   0.868   0.311  1.00  0.00    -0.014 A 
HETATM   18  C2  UNL     1      -0.901   2.076   0.790  1.00  0.00     0.072 A 
HETATM   19  C3  UNL     1      -2.134   2.593   0.985  1.00  0.00     0.016 A 
HETATM   20  C4  UNL     1      -3.251   1.792   0.655  1.00  0.00     0.025 A 
HETATM   21  C5  UNL     1      -3.517   0.456   0.121  1.00  0.00     0.009 A 
HETATM   22  C6  UNL     1      -2.404   0.493   0.147  1.00  0.00     0.035 A 
BRANCH  18  23
HETATM   23  O1  UNL     1       0.473   2.243   0.872  1.00  0.00    -0.356 OA
HETATM   24  C1  UNL     1       0.909   3.527   1.361  1.00  0.00     0.210 C 
ENDBRANCH  18  23
ENDBRANCH   1  17
BRANCH  15  25
HETATM   25  O2  UNL     1       2.165  -1.302  -2.551  1.00  0.00    -0.364 OA
HETATM   26  H16 UNL     1       2.072  -2.209  -3.039  1.00  0.00     0.217 HD
ENDBRANCH  15  25
TORSDOF 3
