REMARK  7 active torsions:
REMARK  status: ('A' for Active; 'I' for Inactive)
REMARK    1  A    between atoms: O1_2  and  C2_3 
REMARK    2  A    between atoms: C7_8  and  N1_9 
REMARK    3  A    between atoms: N1_9  and  C8_10 
REMARK    4  A    between atoms: C9_11  and  C10_12 
REMARK    5  A    between atoms: C10_12  and  N2_13 
REMARK    6  A    between atoms: N2_13  and  C11_14 
REMARK    7  A    between atoms: C16_19  and  O2_20 
ROOT
HETATM    1  C8  UNL     1      -1.081   0.535   0.932  1.00  0.00     0.086 C 
HETATM    2  C9  UNL     1      -0.172   0.548  -0.056  1.00  0.00     0.010 C 
ENDROOT
BRANCH   2   3
HETATM    3  C10 UNL     1       1.265   0.127   0.051  1.00  0.00     0.148 C 
BRANCH   3   4
HETATM    4  N2  UNL     1       2.206   1.159  -0.245  1.00  0.00    -0.384 N 
HETATM    5  H13 UNL     1       1.693   2.002  -0.475  1.00  0.00     0.160 HD
BRANCH   4   6
HETATM    6  C11 UNL     1       3.444   0.422  -0.055  1.00  0.00     0.062 A 
HETATM    7  C12 UNL     1       4.101   1.770  -0.282  1.00  0.00     0.032 A 
HETATM    8  C13 UNL     1       5.492   2.149  -0.295  1.00  0.00     0.002 A 
HETATM    9  C14 UNL     1       6.412   1.111  -0.059  1.00  0.00     0.003 A 
HETATM   10  C15 UNL     1       5.883  -0.137   0.153  1.00  0.00     0.039 A 
HETATM   11  C16 UNL     1       4.536  -0.229   0.113  1.00  0.00     0.094 A 
BRANCH  11  12
HETATM   12  O2  UNL     1       3.640  -1.345   0.283  1.00  0.00    -0.354 OA
HETATM   13  C17 UNL     1       4.152  -2.612   0.542  1.00  0.00     0.210 C 
ENDBRANCH  11  12
ENDBRANCH   4   6
ENDBRANCH   3   4
ENDBRANCH   2   3
BRANCH   1  14
HETATM   14  N1  UNL     1      -2.370   1.006   0.489  1.00  0.00    -0.364 N 
HETATM   15  H8  UNL     1      -2.676   1.990   0.332  1.00  0.00     0.165 HD
BRANCH  14  16
HETATM   16  C7  UNL     1      -3.353  -0.018   0.236  1.00  0.00     0.065 A 
HETATM   17  C2  UNL     1      -4.628   0.278  -0.205  1.00  0.00     0.094 A 
HETATM   18  C3  UNL     1      -5.511  -0.768  -0.425  1.00  0.00     0.039 A 
HETATM   19  C4  UNL     1      -5.187  -2.082  -0.227  1.00  0.00     0.003 A 
HETATM   20  C5  UNL     1      -3.920  -2.415   0.215  1.00  0.00     0.002 A 
HETATM   21  C6  UNL     1      -3.057  -1.364   0.427  1.00  0.00     0.032 A 
BRANCH  17  22
HETATM   22  O1  UNL     1      -4.971   1.607  -0.410  1.00  0.00    -0.354 OA
HETATM   23  C1  UNL     1      -6.295   1.890  -0.870  1.00  0.00     0.210 C 
ENDBRANCH  17  22
ENDBRANCH  14  16
ENDBRANCH   1  14
TORSDOF 7
