REMARK  7 active torsions:
REMARK  status: ('A' for Active; 'I' for Inactive)
REMARK    1  A    between atoms: S1_2  and  C2_5 
REMARK    2  A    between atoms: C2_5  and  C3_6 
REMARK    3  A    between atoms: C3_6  and  N1_7 
REMARK    4  A    between atoms: C12_17  and  N2_18 
REMARK    5  A    between atoms: N2_18  and  C13_19 
REMARK    6  A    between atoms: C13_19  and  C14_20 
REMARK    7  A    between atoms: C15_21  and  C16_22 
ROOT
HETATM    1  N1  UNL     1      -0.105  -1.327   0.912  1.00  0.00    -0.371 N 
HETATM    2  C4  UNL     1       0.883  -2.130   1.696  1.00  0.00     0.188 C 
HETATM    3  C5  UNL     1       2.117  -1.354   1.906  1.00  0.00     0.071 A 
HETATM    4  C6  UNL     1       3.250  -0.643   2.134  1.00  0.00     0.044 A 
HETATM    5  C7  UNL     1       3.844  -0.166   1.034  1.00  0.00    -0.025 A 
HETATM    6  C8  UNL     1       3.015  -0.636  -0.000  1.00  0.00     0.063 A 
HETATM    7  O3  UNL     1       2.211  -1.205   0.684  1.00  0.00    -0.317 OA
HETATM    8  C9  UNL     1       2.462  -0.902  -1.376  1.00  0.00     0.095 C 
HETATM    9  C10 UNL     1       1.015  -0.601  -1.478  1.00  0.00     0.013 C 
HETATM   10  C11 UNL     1       0.323  -0.586  -0.301  1.00  0.00     0.073 C 
HETATM   11  C12 UNL     1      -0.175   0.827  -0.189  1.00  0.00     0.151 C 
HETATM   12  N3  UNL     1      -0.085   1.963  -0.681  1.00  0.00    -0.223 NA
HETATM   13  C17 UNL     1       0.630   2.548  -1.717  1.00  0.00     0.229 C 
HETATM   14  N4  UNL     1       1.964   2.683  -1.684  1.00  0.00    -0.282 NA
HETATM   15  C18 UNL     1       2.631   2.172  -0.494  1.00  0.00     0.094 C 
HETATM   16  C19 UNL     1       3.684   1.346  -0.828  1.00  0.00     0.076 C 
HETATM   17  C20 UNL     1       4.699   0.528   0.011  1.00  0.00     0.048 C 
ENDROOT
BRANCH  11  18
HETATM   18  N2  UNL     1      -0.998   1.036   1.017  1.00  0.00    -0.369 N 
HETATM   19  H14 UNL     1      -0.568   0.683   1.971  1.00  0.00     0.161 HD
BRANCH  18  20
HETATM   20  C13 UNL     1      -2.290   1.785   1.108  1.00  0.00     0.148 C 
BRANCH  20  21
HETATM   21  C14 UNL     1      -2.044   3.235   0.921  1.00  0.00    -0.010 C 
HETATM   22  C15 UNL     1      -2.589   3.943  -0.062  1.00  0.00    -0.014 C 
BRANCH  22  23
HETATM   23  C16 UNL     1      -3.494   3.615  -1.159  1.00  0.00     0.141 C 
HETATM   24 CL1  UNL     1      -2.648   4.006  -2.698  1.00  0.00    -0.126 Cl
ENDBRANCH  22  23
ENDBRANCH  20  21
ENDBRANCH  18  20
ENDBRANCH  11  18
BRANCH   1  25
HETATM   25  C3  UNL     1      -1.468  -0.980   1.011  1.00  0.00     0.138 C 
BRANCH  25  26
HETATM   26  C2  UNL     1      -2.088  -2.412   0.818  1.00  0.00     0.159 C 
BRANCH  26  27
HETATM   27  S1  UNL     1      -1.697  -3.115  -0.732  1.00  0.00     0.142 S 
HETATM   28  C1  UNL     1      -2.492  -4.725  -0.907  1.00  0.00     0.161 C 
HETATM   29  O1  UNL     1      -2.175  -2.300  -1.891  1.00  0.00    -0.228 OA
HETATM   30  O2  UNL     1      -0.247  -3.426  -0.954  1.00  0.00    -0.228 OA
ENDBRANCH  26  27
ENDBRANCH  25  26
ENDBRANCH   1  25
TORSDOF 7
