REMARK  6 active torsions:
REMARK  status: ('A' for Active; 'I' for Inactive)
REMARK    1  A    between atoms: C5_7  and  N3_8 
REMARK    2  A    between atoms: N3_8  and  C6_9 
REMARK    3  A    between atoms: C13_18  and  O1_19 
REMARK    4  A    between atoms: O1_19  and  C14_20 
REMARK    5  A    between atoms: N4_23  and  S1_24 
REMARK    6  A    between atoms: C19_29  and  O4_30 
ROOT
HETATM    1  C1  UNL     1       0.009  -4.465  -1.013  1.00  0.00     0.054 C 
HETATM    2  C2  UNL     1      -0.770  -3.254  -0.734  1.00  0.00     0.002 A 
HETATM    3  C3  UNL     1      -1.915  -2.790  -1.183  1.00  0.00     0.083 A 
HETATM    4  N1  UNL     1      -2.954  -2.989  -1.997  1.00  0.00    -0.240 NA
HETATM    5  C4  UNL     1      -3.963  -2.084  -2.069  1.00  0.00     0.236 A 
HETATM    6  N2  UNL     1      -3.895  -0.985  -1.306  1.00  0.00    -0.223 NA
HETATM    7  C5  UNL     1      -2.900  -0.690  -0.458  1.00  0.00     0.144 A 
HETATM    8  C12 UNL     1      -1.914  -1.639  -0.430  1.00  0.00     0.073 A 
HETATM    9  C13 UNL     1      -0.737  -2.062   0.067  1.00  0.00     0.094 A 
ENDROOT
BRANCH   9  10
HETATM   10  O1  UNL     1       0.148  -1.535   0.995  1.00  0.00    -0.342 OA
BRANCH  10  11
HETATM   11  C14 UNL     1       1.178  -0.689   0.523  1.00  0.00     0.161 C 
HETATM   12  C15 UNL     1       2.044  -0.173   1.651  1.00  0.00     0.055 C 
HETATM   13  C16 UNL     1       2.914   0.889   1.024  1.00  0.00     0.137 C 
HETATM   14  N4  UNL     1       3.788   0.306   0.081  1.00  0.00    -0.308 N 
HETATM   15  C18 UNL     1       3.314  -0.671  -0.804  1.00  0.00     0.169 C 
HETATM   16  C19 UNL     1       2.060  -1.369  -0.484  1.00  0.00     0.166 C 
BRANCH  14  17
HETATM   17  S1  UNL     1       4.911   1.412  -0.593  1.00  0.00     0.224 S 
HETATM   18  C17 UNL     1       5.973   2.102   0.651  1.00  0.00     0.186 C 
HETATM   19  O2  UNL     1       4.229   2.502  -1.369  1.00  0.00    -0.206 OA
HETATM   20  O3  UNL     1       5.782   0.660  -1.570  1.00  0.00    -0.206 OA
ENDBRANCH  14  17
BRANCH  16  21
HETATM   21  O4  UNL     1       2.420  -2.602   0.112  1.00  0.00    -0.391 OA
HETATM   22  H20 UNL     1       3.184  -2.387   0.703  1.00  0.00     0.210 HD
ENDBRANCH  16  21
ENDBRANCH  10  11
ENDBRANCH   9  10
BRANCH   7  23
HETATM   23  N3  UNL     1      -2.792   0.457   0.364  1.00  0.00    -0.340 N 
HETATM   24  H5  UNL     1      -1.939   0.531   0.971  1.00  0.00     0.167 HD
BRANCH  23  25
HETATM   25  C6  UNL     1      -3.705   1.533   0.468  1.00  0.00     0.035 A 
HETATM   26  C7  UNL     1      -4.887   1.661  -0.225  1.00  0.00     0.032 A 
HETATM   27  C8  UNL     1      -5.773   2.710  -0.120  1.00  0.00     0.046 A 
HETATM   28  C9  UNL     1      -5.471   3.734   0.751  1.00  0.00     0.138 A 
HETATM   29  F1  UNL     1      -6.311   4.786   0.888  1.00  0.00    -0.204 F 
HETATM   30  C10 UNL     1      -4.300   3.660   1.472  1.00  0.00     0.074 A 
HETATM   31 CL1  UNL     1      -3.899   4.945   2.580  1.00  0.00    -0.081 Cl
HETATM   32  C11 UNL     1      -3.456   2.585   1.322  1.00  0.00     0.056 A 
ENDBRANCH  23  25
ENDBRANCH   7  23
TORSDOF 6
