REMARK  4 active torsions:
REMARK  status: ('A' for Active; 'I' for Inactive)
REMARK    1  A    between atoms: C2_2  and  C3_4 
REMARK    2  A    between atoms: C3_4  and  N1_6 
REMARK    3  A    between atoms: C5_9  and  C6_10 
REMARK    4  A    between atoms: N2_16  and  S2_17 
ROOT
HETATM    1  N1  UNL     1       2.297   0.183  -0.101  1.00  0.00    -0.314 N 
HETATM    2  S1  UNL     1       2.255  -1.699  -0.046  1.00  0.00    -0.126 SA
HETATM    3  C4  UNL     1       0.361  -1.453   0.318  1.00  0.00     0.069 A 
HETATM    4  C5  UNL     1       1.090  -1.744  -0.781  1.00  0.00     0.112 A 
HETATM    5  C6  UNL     1       1.224  -0.711   0.108  1.00  0.00     0.104 A 
HETATM    6  C7  UNL     1       0.718  -0.048   1.327  1.00  0.00     0.049 A 
HETATM    7  C8  UNL     1      -0.200  -0.104   2.303  1.00  0.00    -0.024 A 
HETATM    8  C9  UNL     1      -0.274  -1.087   1.389  1.00  0.00     0.014 A 
HETATM    9  C10 UNL     1      -1.522  -1.786   1.603  1.00  0.00     0.037 C 
HETATM   10  C11 UNL     1      -2.369  -0.624   0.880  1.00  0.00     0.136 C 
HETATM   11  N2  UNL     1      -1.875  -0.244  -0.322  1.00  0.00    -0.309 N 
HETATM   12  C13 UNL     1      -1.228   0.809  -0.880  1.00  0.00     0.161 C 
HETATM   13  C14 UNL     1      -0.552   1.962  -0.182  1.00  0.00     0.188 C 
HETATM   14  O3  UNL     1       0.453   1.937   0.597  1.00  0.00    -0.388 OA
HETATM   15  C15 UNL     1       0.894   1.338   1.746  1.00  0.00     0.186 C 
ENDROOT
BRANCH   1  16
HETATM   16  C3  UNL     1       3.377   1.039  -0.309  1.00  0.00     0.322 C 
HETATM   17  F1  UNL     1       2.862   2.068  -1.157  1.00  0.00    -0.220 F 
BRANCH  16  18
HETATM   18  C2  UNL     1       4.332   0.319  -1.196  1.00  0.00     0.056 C 
HETATM   19  C1  UNL     1       5.614   0.351  -0.904  1.00  0.00     0.037 C 
HETATM   20 CL1  UNL     1       4.525  -0.691  -2.609  1.00  0.00    -0.085 Cl
ENDBRANCH  16  18
ENDBRANCH   1  16
BRANCH  11  21
HETATM   21  S2  UNL     1      -2.896  -0.939  -1.558  1.00  0.00     0.224 S 
HETATM   22  C12 UNL     1      -4.531  -0.218  -1.350  1.00  0.00     0.186 C 
HETATM   23  O1  UNL     1      -3.025  -2.420  -1.335  1.00  0.00    -0.206 OA
HETATM   24  O2  UNL     1      -2.325  -0.629  -2.892  1.00  0.00    -0.206 OA
ENDBRANCH  11  21
TORSDOF 4
