REMARK  7 active torsions:
REMARK  status: ('A' for Active; 'I' for Inactive)
REMARK    1  A    between atoms: S1_2  and  N1_4 
REMARK    2  A    between atoms: N1_4  and  C2_5 
REMARK    3  A    between atoms: C9_14  and  C10_15 
REMARK    4  A    between atoms: C10_15  and  N4_16 
REMARK    5  A    between atoms: N4_16  and  C11_17 
REMARK    6  A    between atoms: C14_20  and  C15_21 
REMARK    7  A    between atoms: C15_21  and  O3_23 
ROOT
HETATM    1  C2  UNL     1      -2.081  -0.904  -0.313  1.00  0.00     0.162 A 
HETATM    2  N2  UNL     1      -3.349  -0.510  -0.204  1.00  0.00    -0.226 NA
HETATM    3  C3  UNL     1      -3.703   0.792  -0.049  1.00  0.00     0.088 A 
HETATM    4  C4  UNL     1      -5.018   1.177   0.070  1.00  0.00     0.034 A 
HETATM    5  C5  UNL     1      -5.433   2.484   0.238  1.00  0.00     0.002 A 
HETATM    6  C6  UNL     1      -4.461   3.456   0.290  1.00  0.00     0.002 A 
HETATM    7  C7  UNL     1      -3.123   3.102   0.172  1.00  0.00     0.034 A 
HETATM    8  C8  UNL     1      -2.739   1.775   0.002  1.00  0.00     0.086 A 
HETATM    9  N3  UNL     1      -1.445   1.379  -0.110  1.00  0.00    -0.246 NA
HETATM   10  C9  UNL     1      -1.091   0.085  -0.263  1.00  0.00     0.099 A 
ENDROOT
BRANCH  10  11
HETATM   11  C10 UNL     1       0.371  -0.290  -0.341  1.00  0.00     0.183 C 
BRANCH  11  12
HETATM   12  N4  UNL     1       1.125   0.936  -0.174  1.00  0.00    -0.384 N 
HETATM   13  H11 UNL     1       0.739   1.906  -0.155  1.00  0.00     0.160 HD
BRANCH  12  14
HETATM   14  C11 UNL     1       2.538   0.736  -0.034  1.00  0.00     0.028 A 
HETATM   15  C12 UNL     1       3.179  -0.462  -0.049  1.00  0.00     0.030 A 
HETATM   16  C13 UNL     1       4.529  -0.670   0.117  1.00  0.00     0.020 A 
HETATM   17  C14 UNL     1       5.318   0.455   0.324  1.00  0.00     0.037 A 
HETATM   18  C16 UNL     1       4.701   1.694   0.346  1.00  0.00     0.020 A 
HETATM   19  C17 UNL     1       3.337   1.869   0.173  1.00  0.00     0.030 A 
BRANCH  17  20
HETATM   20  C15 UNL     1       6.753   0.322   0.514  1.00  0.00     0.176 C 
HETATM   21  O2  UNL     1       7.503   1.323   0.709  1.00  0.00    -0.646 OA
BRANCH  20  22
HETATM   22  O3  UNL     1       7.350  -0.937   0.480  1.00  0.00    -0.773 OA
HETATM   23  H14 UNL     1       8.374  -0.959   0.380  1.00  0.00     0.167 HD
ENDBRANCH  20  22
ENDBRANCH  17  20
ENDBRANCH  12  14
ENDBRANCH  11  12
ENDBRANCH  10  11
BRANCH   1  24
HETATM   24  N1  UNL     1      -1.618  -2.242  -0.448  1.00  0.00    -0.289 N 
HETATM   25  H4  UNL     1      -0.883  -2.416  -1.166  1.00  0.00     0.178 HD
BRANCH  24  26
HETATM   26  S1  UNL     1      -2.223  -3.552   0.525  1.00  0.00     0.111 S 
HETATM   27  C1  UNL     1      -3.166  -4.728  -0.443  1.00  0.00     0.152 C 
HETATM   28  O1  UNL     1      -2.965  -3.054   1.747  1.00  0.00    -0.236 OA
ENDBRANCH  24  26
ENDBRANCH   1  24
TORSDOF 7
