REMARK  5 active torsions:
REMARK  status: ('A' for Active; 'I' for Inactive)
REMARK    1  A    between atoms: C3_3  and  C4_4 
REMARK    2  A    between atoms: C4_4  and  C5_5 
REMARK    3  A    between atoms: C10_11  and  C11_12 
REMARK    4  A    between atoms: C20_23  and  O2_24 
REMARK    5  A    between atoms: O2_24  and  C21_25 
REMARK       I    between atoms: C21_25  and  N1_26 
ROOT
HETATM    1  C11 UNL     1       0.416  -0.551  -0.503  1.00  0.00    -0.037 C 
HETATM    2  C12 UNL     1      -0.187  -1.743  -0.766  1.00  0.00    -0.094 C 
HETATM    3  B1  UNL     1       0.304  -3.288   0.061  1.00  0.00     0.225 B 
HETATM    4  C13 UNL     1      -1.688  -4.226   0.198  1.00  0.00    -0.098 C 
HETATM    5  C14 UNL     1      -2.190  -3.085   0.547  1.00  0.00    -0.059 C 
HETATM    6  C15 UNL     1      -2.309  -2.753  -0.902  1.00  0.00     0.006 C 
HETATM    7  C16 UNL     1      -1.188  -2.404  -1.591  1.00  0.00    -0.005 C 
HETATM    8  C17 UNL     1      -2.596  -2.123   1.604  1.00  0.00     0.085 C 
HETATM    9  C18 UNL     1      -3.340  -1.086   1.036  1.00  0.00    -0.002 A 
HETATM   10  S1  UNL     1      -1.851  -0.499   0.157  1.00  0.00    -0.073 SA
HETATM   11  C19 UNL     1      -2.586   0.817  -0.651  1.00  0.00     0.105 A 
HETATM   12  C20 UNL     1      -3.872   0.806  -0.265  1.00  0.00     0.121 A 
HETATM   13  C22 UNL     1      -4.228  -0.155   0.579  1.00  0.00    -0.012 A 
HETATM   14  C23 UNL     1      -5.503  -0.526   1.206  1.00  0.00     0.052 C 
HETATM   15  N2  UNL     1      -1.270   1.065  -1.249  1.00  0.00    -0.378 N 
HETATM   16  C24 UNL     1       0.114   0.880  -0.744  1.00  0.00     0.157 C 
HETATM   17  H25 UNL     1      -1.596   1.417  -2.154  1.00  0.00     0.160 HD
ENDROOT
BRANCH   1  18
HETATM   18  C10 UNL     1       1.533  -0.515   0.470  1.00  0.00     0.168 C 
HETATM   19  C4  UNL     1       2.729   0.247   0.092  1.00  0.00     0.025 C 
HETATM   20  C7  UNL     1       3.892  -0.332   0.874  1.00  0.00    -0.012 C 
HETATM   21  C8  UNL     1       4.186  -1.593   1.143  1.00  0.00    -0.004 C 
HETATM   22  C9  UNL     1       3.046  -2.315   0.462  1.00  0.00     0.196 C 
HETATM   23  O1  UNL     1       1.844  -1.802   0.830  1.00  0.00    -0.376 OA
BRANCH  19  24
HETATM   24  C3  UNL     1       3.107   0.063  -1.328  1.00  0.00    -0.015 C 
HETATM   25  C2  UNL     1       4.239   0.313  -1.969  1.00  0.00    -0.034 C 
HETATM   26  C1  UNL     1       5.587   0.845  -1.676  1.00  0.00     0.036 C 
ENDBRANCH  19  24
BRANCH  19  27
HETATM   27  C5  UNL     1       2.728   1.707   0.517  1.00  0.00     0.016 C 
HETATM   28  C6  UNL     1       2.350   1.877   1.952  1.00  0.00     0.006 C 
ENDBRANCH  19  27
ENDBRANCH   1  18
BRANCH  12  29
HETATM   29  O2  UNL     1      -4.513   1.849  -0.878  1.00  0.00    -0.258 OA
BRANCH  29  30
HETATM   30  C21 UNL     1      -4.550   3.098  -0.230  1.00  0.00     0.363 C 
HETATM   31  N1  UNL     1      -5.238   4.130  -0.939  1.00  0.00    -0.345 N 
HETATM   32  H20 UNL     1      -6.191   4.492  -1.203  1.00  0.00     0.161 HD
HETATM   33  H21 UNL     1      -5.235   5.004  -1.527  1.00  0.00     0.161 HD
HETATM   34  O3  UNL     1      -4.103   3.538   0.870  1.00  0.00    -0.238 OA
ENDBRANCH  29  30
ENDBRANCH  12  29
TORSDOF 5
