REMARK  2 active torsions:
REMARK  status: ('A' for Active; 'I' for Inactive)
REMARK    1  A    between atoms: O1_2  and  C2_3 
REMARK    2  A    between atoms: C10_12  and  O3_13 
ROOT
HETATM    1  C2  UNL     1       3.861   0.374  -0.578  1.00  0.00     0.141 C 
HETATM    2  C3  UNL     1       2.587   0.117  -0.823  1.00  0.00    -0.027 C 
HETATM    3  C4  UNL     1       1.903  -1.144  -0.957  1.00  0.00     0.006 C 
HETATM    4  C5  UNL     1       0.731  -1.678  -1.192  1.00  0.00    -0.019 C 
HETATM    5  C6  UNL     1      -0.682  -1.356  -1.485  1.00  0.00     0.105 C 
HETATM    6  C7  UNL     1      -1.541  -1.839  -0.379  1.00  0.00     0.136 C 
HETATM    7  O2  UNL     1      -1.059  -2.633   0.438  1.00  0.00    -0.297 OA
HETATM    8  C8  UNL     1      -2.940  -1.338  -0.302  1.00  0.00     0.146 C 
HETATM    9  C9  UNL     1      -2.997  -0.149   0.607  1.00  0.00     0.090 C 
HETATM   10  C10 UNL     1      -4.090   0.594   0.673  1.00  0.00     0.095 C 
HETATM   11  C11 UNL     1      -3.863   1.982   1.101  1.00  0.00     0.040 C 
HETATM   12  C12 UNL     1      -2.619   2.345   1.371  1.00  0.00     0.037 C 
HETATM   13  C13 UNL     1      -1.441   1.478   1.442  1.00  0.00     0.300 C 
HETATM   14  O4  UNL     1      -0.524   1.683   0.391  1.00  0.00    -0.285 OA
HETATM   15  C14 UNL     1       0.641   0.975   0.193  1.00  0.00     0.265 C 
HETATM   16  O5  UNL     1       0.727   0.117   1.140  1.00  0.00    -0.265 OA
HETATM   17  C15 UNL     1       1.579   1.235  -0.969  1.00  0.00     0.151 C 
HETATM   18  O6  UNL     1      -1.877   0.136   1.362  1.00  0.00    -0.318 OA
ENDROOT
BRANCH   1  19
HETATM   19  O1  UNL     1       4.708  -0.704  -0.418  1.00  0.00    -0.367 OA
HETATM   20  C1  UNL     1       5.842  -0.635   0.419  1.00  0.00     0.208 C 
ENDBRANCH   1  19
BRANCH  10  21
HETATM   21  O3  UNL     1      -5.323   0.042   0.351  1.00  0.00    -0.358 OA
HETATM   22  H11 UNL     1      -5.839  -0.374   1.133  1.00  0.00     0.217 HD
ENDBRANCH  10  21
TORSDOF 2
