REMARK  11 active torsions:
REMARK  status: ('A' for Active; 'I' for Inactive)
REMARK    1  A    between atoms: C2_2  and  C3_3 
REMARK    2  A    between atoms: C8_8  and  C9_9 
REMARK    3  A    between atoms: C9_9  and  O1_10 
REMARK    4  A    between atoms: O1_10  and  C10_11 
REMARK    5  A    between atoms: C10_11  and  C11_12 
REMARK    6  A    between atoms: C11_12  and  C12_14 
REMARK    7  A    between atoms: C12_14  and  N1_15 
REMARK    8  A    between atoms: N1_15  and  C13_16 
REMARK    9  A    between atoms: C14_18  and  C15_19 
REMARK   10  A    between atoms: C15_19  and  C16_20 
REMARK   11  A    between atoms: C24_28  and  C25_29 
REMARK       I    between atoms: C25_29  and  N2_30 
ROOT
HETATM    1  C13 UNL     1      -1.662   0.502  -0.820  1.00  0.00     0.087 A 
HETATM    2  S1  UNL     1      -2.451   1.257   0.626  1.00  0.00    -0.075 SA
HETATM    3  C14 UNL     1      -3.525  -0.204   1.018  1.00  0.00    -0.004 A 
HETATM    4  C22 UNL     1      -3.177  -1.119   0.014  1.00  0.00    -0.030 A 
HETATM    5  C23 UNL     1      -3.856  -2.438   0.024  1.00  0.00     0.050 C 
HETATM    6  C24 UNL     1      -2.247  -0.770  -0.906  1.00  0.00     0.072 A 
ENDROOT
BRANCH   1   7
HETATM    7  N1  UNL     1      -0.703   1.236  -1.530  1.00  0.00    -0.376 N 
HETATM    8  H14 UNL     1      -1.154   1.865  -2.235  1.00  0.00     0.160 HD
BRANCH   7   9
HETATM    9  C12 UNL     1       0.727   1.222  -1.407  1.00  0.00     0.201 C 
BRANCH   9  10
HETATM   10  C11 UNL     1       1.090   1.600  -0.024  1.00  0.00     0.168 C 
HETATM   11  O2  UNL     1       0.323   1.870   0.908  1.00  0.00    -0.294 OA
BRANCH  10  12
HETATM   12  C10 UNL     1       2.486   1.714   0.461  1.00  0.00     0.254 C 
BRANCH  12  13
HETATM   13  O1  UNL     1       3.303   1.402  -0.679  1.00  0.00    -0.355 OA
BRANCH  13  14
HETATM   14  C9  UNL     1       4.658   1.490  -0.691  1.00  0.00     0.147 C 
BRANCH  14  15
HETATM   15  C8  UNL     1       5.918   1.214  -0.474  1.00  0.00    -0.004 A 
HETATM   16  C3  UNL     1       6.242   0.093   0.251  1.00  0.00    -0.028 A 
HETATM   17  C4  UNL     1       7.595  -0.183   0.478  1.00  0.00     0.012 A 
HETATM   18  C5  UNL     1       8.486   0.732  -0.071  1.00  0.00     0.001 A 
HETATM   19  C6  UNL     1       8.164   1.857  -0.799  1.00  0.00     0.001 A 
HETATM   20  C7  UNL     1       6.831   2.098  -1.003  1.00  0.00     0.014 A 
BRANCH  16  21
HETATM   21  C2  UNL     1       5.368  -0.756   0.754  1.00  0.00    -0.019 C 
HETATM   22  C1  UNL     1       5.885  -1.927   1.515  1.00  0.00     0.037 C 
ENDBRANCH  16  21
ENDBRANCH  14  15
ENDBRANCH  13  14
ENDBRANCH  12  13
ENDBRANCH  10  12
ENDBRANCH   9  10
ENDBRANCH   7   9
ENDBRANCH   1   7
BRANCH   6  23
HETATM   23  C25 UNL     1      -1.765  -1.573  -2.007  1.00  0.00     0.252 C 
HETATM   24  N2  UNL     1      -2.087  -2.871  -2.413  1.00  0.00    -0.366 N 
HETATM   25  H25 UNL     1      -2.658  -3.392  -3.098  1.00  0.00     0.159 HD
HETATM   26  H26 UNL     1      -1.927  -3.866  -2.244  1.00  0.00     0.159 HD
HETATM   27  O3  UNL     1      -0.907  -1.134  -2.803  1.00  0.00    -0.268 OA
ENDBRANCH   6  23
BRANCH   3  28
HETATM   28  C15 UNL     1      -4.445  -0.224   2.119  1.00  0.00     0.085 C 
BRANCH  28  29
HETATM   29  C16 UNL     1      -5.822  -0.018   1.632  1.00  0.00    -0.053 A 
HETATM   30  C17 UNL     1      -6.718  -0.995   1.279  1.00  0.00     0.007 A 
HETATM   31  C18 UNL     1      -7.998  -0.763   0.824  1.00  0.00     0.001 A 
HETATM   32  C19 UNL     1      -8.441   0.538   0.703  1.00  0.00     0.000 A 
HETATM   33  C20 UNL     1      -7.587   1.590   1.044  1.00  0.00     0.001 A 
HETATM   34  C21 UNL     1      -6.324   1.256   1.490  1.00  0.00     0.007 A 
ENDBRANCH  28  29
ENDBRANCH   3  28
TORSDOF 11
