REMARK  4 active torsions:
REMARK  status: ('A' for Active; 'I' for Inactive)
REMARK       I    between atoms: C1_2  and  N1_3 
REMARK    1  A    between atoms: C1_2  and  C9_12 
REMARK    2  A    between atoms: N1_3  and  C2_4 
REMARK    3  A    between atoms: C11_15  and  C12_16 
REMARK    4  A    between atoms: C12_16  and  C13_17 
ROOT
HETATM    1  O1  UNL     1      -1.427  -2.390  -0.117  1.00  0.00    -0.265 OA
HETATM    2  C1  UNL     1      -1.001  -1.272   0.149  1.00  0.00     0.279 C 
HETATM    3  N1  UNL     1      -1.583  -0.458   1.105  1.00  0.00    -0.327 N 
HETATM    4  H1  UNL     1      -1.361   0.523   1.471  1.00  0.00     0.164 HD
ENDROOT
BRANCH   2   5
HETATM    5  C9  UNL     1       0.232  -0.580  -0.503  1.00  0.00     0.165 A 
HETATM    6  N3  UNL     1       0.934  -1.403  -1.365  1.00  0.00    -0.247 NA
HETATM    7  C10 UNL     1       2.005  -0.839  -1.856  1.00  0.00     0.133 A 
HETATM    8  C11 UNL     1       2.467   0.407  -1.613  1.00  0.00     0.007 A 
HETATM    9  S2  UNL     1       1.163   0.959  -0.457  1.00  0.00    -0.068 SA
BRANCH   8  10
HETATM   10  C12 UNL     1       3.687   0.964  -2.165  1.00  0.00     0.086 C 
BRANCH  10  11
HETATM   11  C13 UNL     1       3.741   1.032  -3.639  1.00  0.00    -0.046 A 
HETATM   12  C14 UNL     1       3.471   2.004  -4.585  1.00  0.00     0.015 A 
HETATM   13  C15 UNL     1       3.630   1.726  -5.949  1.00  0.00     0.050 A 
HETATM   14  S1  UNL     1       4.190   0.046  -6.001  1.00  0.00    -0.113 SA
HETATM   15  C16 UNL     1       4.193  -0.240  -4.198  1.00  0.00     0.057 A 
ENDBRANCH  10  11
ENDBRANCH   8  10
ENDBRANCH   2   5
BRANCH   3  16
HETATM   16  C2  UNL     1      -2.676  -0.971   1.743  1.00  0.00     0.293 A 
HETATM   17  N2  UNL     1      -2.510  -1.105   3.258  1.00  0.00    -0.023 N 
HETATM   18  C3  UNL     1      -2.389  -1.284   4.663  1.00  0.00     0.218 A 
HETATM   19  H3  UNL     1      -1.812   0.155   3.118  1.00  0.00     0.284 HD
HETATM   20  C8  UNL     1      -2.484  -1.128   3.272  1.00  0.00     0.265 A 
HETATM   21  C4  UNL     1      -3.468  -0.382   5.161  1.00  0.00     0.017 A 
HETATM   22  C5  UNL     1      -4.553   0.562   4.953  1.00  0.00    -0.005 A 
HETATM   23  C6  UNL     1      -4.364   0.482   3.510  1.00  0.00    -0.010 A 
HETATM   24  C7  UNL     1      -3.683  -0.041   2.375  1.00  0.00     0.072 A 
ENDBRANCH   3  16
TORSDOF 4
