REMARK  5 active torsions:
REMARK  status: ('A' for Active; 'I' for Inactive)
REMARK       I    between atoms: C1_2  and  N1_3 
REMARK    1  A    between atoms: C1_2  and  C11_18 
REMARK    2  A    between atoms: N1_3  and  N2_4 
REMARK       I    between atoms: N2_4  and  C2_5 
REMARK    3  A    between atoms: C2_5  and  C3_7 
REMARK    4  A    between atoms: C5_10  and  C6_11 
REMARK    5  A    between atoms: C6_11  and  C7_12 
ROOT
HETATM    1  N2  UNL     1       1.131  -0.309  -0.231  1.00  0.00    -0.261 N 
HETATM    2  C2  UNL     1       0.033   0.303  -0.893  1.00  0.00     0.295 C 
HETATM    3  O2  UNL     1       0.147   1.269  -1.681  1.00  0.00    -0.264 OA
HETATM    4  H2  UNL     1       1.081  -1.113   0.431  1.00  0.00     0.190 HD
ENDROOT
BRANCH   2   5
HETATM    5  C3  UNL     1      -1.244  -0.375  -0.505  1.00  0.00     0.167 A 
HETATM    6  N3  UNL     1      -1.726  -1.205   0.120  1.00  0.00    -0.247 NA
HETATM    7  C4  UNL     1      -3.011  -1.500   0.187  1.00  0.00     0.133 A 
HETATM    8  C5  UNL     1      -3.883  -0.777  -0.535  1.00  0.00     0.007 A 
HETATM    9  S2  UNL     1      -2.780   0.370  -1.337  1.00  0.00    -0.068 SA
BRANCH   8  10
HETATM   10  C6  UNL     1      -5.352  -0.932  -0.609  1.00  0.00     0.086 C 
BRANCH  10  11
HETATM   11  C7  UNL     1      -6.086  -0.128   0.400  1.00  0.00    -0.046 A 
HETATM   12  C8  UNL     1      -6.380  -0.649   1.624  1.00  0.00     0.015 A 
HETATM   13  C9  UNL     1      -7.090   0.138   2.579  1.00  0.00     0.050 A 
HETATM   14  S1  UNL     1      -7.366   1.715   1.714  1.00  0.00    -0.113 SA
HETATM   15  C10 UNL     1      -6.525   1.227   0.145  1.00  0.00     0.057 A 
ENDBRANCH  10  11
ENDBRANCH   8  10
ENDBRANCH   2   5
BRANCH   1  16
HETATM   16  N1  UNL     1       2.434   0.182  -0.461  1.00  0.00    -0.263 N 
HETATM   17  C1  UNL     1       3.600  -0.345   0.140  1.00  0.00     0.270 C 
HETATM   18  O1  UNL     1       3.391  -1.316   0.919  1.00  0.00    -0.266 OA
HETATM   19  H1  UNL     1       2.576   1.001  -1.123  1.00  0.00     0.190 HD
BRANCH  17  20
HETATM   20  C11 UNL     1       4.935   0.181  -0.114  1.00  0.00     0.033 A 
HETATM   21  C12 UNL     1       5.269   1.237  -0.947  1.00  0.00     0.017 A 
HETATM   22  C13 UNL     1       6.579   1.634  -1.097  1.00  0.00     0.001 A 
HETATM   23  C14 UNL     1       7.619   1.011  -0.435  1.00  0.00     0.000 A 
HETATM   24  C15 UNL     1       7.313  -0.049   0.406  1.00  0.00     0.001 A 
HETATM   25  C16 UNL     1       5.997  -0.435   0.545  1.00  0.00     0.017 A 
ENDBRANCH  17  20
ENDBRANCH   1  16
TORSDOF 5
