REMARK  2 active torsions:
REMARK  status: ('A' for Active; 'I' for Inactive)
REMARK    1  A    between atoms: C3_7  and  C4_8 
REMARK    2  A    between atoms: C4_8  and  C5_9 
ROOT
HETATM    1  O1  UNL     1       1.625  -1.426  -0.632  1.00  0.00    -0.098 OA
HETATM    2  C1  UNL     1       2.009  -2.488  -1.174  1.00  0.00     0.400 A 
HETATM    3  N1  UNL     1       0.982  -3.451  -0.795  1.00  0.00    -0.253 N 
HETATM    4  N2  UNL     1      -0.224  -3.289  -0.008  1.00  0.00    -0.111 NA
HETATM    5  O2  UNL     1      -0.303  -1.981   0.313  1.00  0.00    -0.282 OA
HETATM    6  C2  UNL     1      -1.552  -1.453   0.394  1.00  0.00     0.232 C 
HETATM    7  C3  UNL     1      -1.639  -0.109  -0.276  1.00  0.00    -0.035 C 
HETATM    8  C9  UNL     1      -0.787   0.658  -0.923  1.00  0.00     0.093 C 
HETATM    9  N3  UNL     1       0.523   0.851  -1.410  1.00  0.00    -0.364 N 
HETATM   10  C10 UNL     1       1.885   0.898  -1.047  1.00  0.00     0.070 A 
HETATM   11  C11 UNL     1       2.215   2.155  -0.587  1.00  0.00     0.032 A 
HETATM   12  C12 UNL     1       3.465   2.591  -0.126  1.00  0.00     0.002 A 
HETATM   13  C13 UNL     1       4.436   1.618  -0.159  1.00  0.00     0.003 A 
HETATM   14  C14 UNL     1       4.147   0.351  -0.613  1.00  0.00     0.043 A 
HETATM   15  C15 UNL     1       2.917  -0.011  -1.046  1.00  0.00     0.203 A 
HETATM   16  N4  UNL     1       2.934  -1.400  -1.454  1.00  0.00     0.158 N 
HETATM   17  H1  UNL     1       1.760  -3.831  -1.375  1.00  0.00     0.186 HD
HETATM   18  H2  UNL     1      -0.127  -3.814   0.879  1.00  0.00     0.180 HD
HETATM   19  H11 UNL     1       0.761   1.057  -2.399  1.00  0.00     0.165 HD
HETATM   20  H16 UNL     1       3.693  -1.790  -2.051  1.00  0.00     0.337 HD
ENDROOT
BRANCH   7  21
HETATM   21  C4  UNL     1      -3.033   0.359  -0.111  1.00  0.00     0.077 C 
BRANCH  21  22
HETATM   22  C5  UNL     1      -3.424   0.504   1.329  1.00  0.00    -0.047 A 
HETATM   23  C6  UNL     1      -3.163   1.685   1.962  1.00  0.00     0.015 A 
HETATM   24  C7  UNL     1      -3.534   1.817   3.290  1.00  0.00     0.050 A 
HETATM   25  S1  UNL     1      -4.303   0.221   3.737  1.00  0.00    -0.113 SA
HETATM   26  C8  UNL     1      -4.057  -0.517   2.057  1.00  0.00     0.056 A 
ENDBRANCH  21  22
ENDBRANCH   7  21
TORSDOF 2
