REMARK  0 active torsions:
REMARK  status: ('A' for Active; 'I' for Inactive)
ROOT
HETATM    1  O1  UNL     1       2.999   0.822  -0.751  1.00  0.00    -0.123 OA
HETATM    2  C1  UNL     1       4.140   1.045  -1.191  1.00  0.00     0.401 A 
HETATM    3  C2  UNL     1       3.416   2.041  -1.943  1.00  0.00     0.055 C 
HETATM    4  C3  UNL     1       2.360   2.697  -2.296  1.00  0.00    -0.002 C 
HETATM    5  C4  UNL     1       0.953   2.791  -2.030  1.00  0.00    -0.017 C 
HETATM    6  C5  UNL     1      -0.193   2.555  -1.509  1.00  0.00     0.042 C 
HETATM    7  C6  UNL     1      -1.245   2.046  -0.744  1.00  0.00    -0.016 C 
HETATM    8  C7  UNL     1      -2.254   1.635  -0.087  1.00  0.00     0.016 C 
HETATM    9  C8  UNL     1      -2.720   0.710   0.953  1.00  0.00     0.011 A 
HETATM   10  S1  UNL     1      -3.215   1.483   2.393  1.00  0.00    -0.102 SA
HETATM   11  C9  UNL     1      -3.660  -0.052   3.317  1.00  0.00     0.051 A 
HETATM   12  C10 UNL     1      -3.353  -0.926   2.360  1.00  0.00     0.016 A 
HETATM   13  C11 UNL     1      -2.869  -0.636   1.124  1.00  0.00    -0.036 A 
HETATM   14  C12 UNL     1      -2.562  -1.691   0.108  1.00  0.00     0.087 C 
HETATM   15  C13 UNL     1      -1.378  -2.451   0.336  1.00  0.00     0.007 A 
HETATM   16  C14 UNL     1      -0.750  -3.593   0.694  1.00  0.00     0.133 A 
HETATM   17  N1  UNL     1       0.587  -3.625   0.682  1.00  0.00    -0.247 NA
HETATM   18  C15 UNL     1       1.235  -2.690   0.369  1.00  0.00     0.167 A 
HETATM   19  S2  UNL     1       0.020  -1.373  -0.036  1.00  0.00    -0.068 SA
HETATM   20  C16 UNL     1       2.329  -1.698   0.034  1.00  0.00     0.303 C 
HETATM   21  O2  UNL     1       2.646  -1.983  -1.100  1.00  0.00    -0.264 OA
HETATM   22  N2  UNL     1       3.063  -0.626   0.538  1.00  0.00    -0.150 N 
HETATM   23  N3  UNL     1       4.033   0.014  -0.240  1.00  0.00     0.184 N 
HETATM   24  H12 UNL     1       2.591  -0.699   1.427  1.00  0.00     0.200 HD
HETATM   25  H13 UNL     1       4.833  -0.535   0.098  1.00  0.00     0.354 HD
ENDROOT
TORSDOF 0
