REMARK  5 active torsions:
REMARK  status: ('A' for Active; 'I' for Inactive)
REMARK    1  A    between atoms: C1_2  and  C2_3 
REMARK       I    between atoms: C1_2  and  N2_13 
REMARK    2  A    between atoms: C2_3  and  S1_4 
REMARK    3  A    between atoms: S1_4  and  C3_5 
REMARK    4  A    between atoms: N2_13  and  N3_14 
REMARK       I    between atoms: N3_14  and  C9_15 
REMARK       I    between atoms: C9_15  and  N4_17 
REMARK    5  A    between atoms: N4_17  and  C10_18 
ROOT
HETATM    1  O1  UNL     1      -0.991  -1.351   1.148  1.00  0.00    -0.271 OA
HETATM    2  C1  UNL     1      -1.125  -0.369   0.391  1.00  0.00     0.245 C 
HETATM    3  N2  UNL     1      -0.175   0.654   0.167  1.00  0.00    -0.265 N 
HETATM    4  H7  UNL     1      -0.318   1.465  -0.474  1.00  0.00     0.190 HD
ENDROOT
BRANCH   3   5
HETATM    5  N3  UNL     1       1.105   0.864   0.684  1.00  0.00    -0.249 N 
HETATM    6  C9  UNL     1       2.401   0.451   0.242  1.00  0.00     0.339 C 
HETATM    7  O2  UNL     1       2.682  -0.238  -0.780  1.00  0.00    -0.245 OA
HETATM    8  N4  UNL     1       3.533   0.824   0.987  1.00  0.00    -0.308 N 
HETATM    9  H9  UNL     1       3.421   1.403   1.865  1.00  0.00     0.170 HD
HETATM   10  H8  UNL     1       1.052   1.440   1.566  1.00  0.00     0.192 HD
BRANCH   8  11
HETATM   11  C10 UNL     1       4.769   0.340   0.425  1.00  0.00     0.036 A 
HETATM   12  C11 UNL     1       5.366  -0.868   0.720  1.00  0.00     0.029 A 
HETATM   13  C12 UNL     1       6.541  -1.184   0.100  1.00  0.00     0.002 A 
HETATM   14  C13 UNL     1       7.116  -0.298  -0.807  1.00  0.00     0.000 A 
HETATM   15  C14 UNL     1       6.521   0.912  -1.105  1.00  0.00     0.002 A 
HETATM   16  C15 UNL     1       5.327   1.244  -0.483  1.00  0.00     0.029 A 
ENDBRANCH   8  11
ENDBRANCH   3   5
BRANCH   2  17
HETATM   17  C2  UNL     1      -2.397  -0.181  -0.401  1.00  0.00     0.180 C 
BRANCH  17  18
HETATM   18  S1  UNL     1      -3.461  -1.575   0.027  1.00  0.00    -0.131 SA
BRANCH  18  19
HETATM   19  C3  UNL     1      -4.982  -1.478  -0.904  1.00  0.00     0.183 C 
HETATM   20  N1  UNL     1      -5.855  -2.650  -0.595  1.00  0.00    -0.270 NA
HETATM   21  C4  UNL     1      -6.771  -2.192   0.196  1.00  0.00     0.095 C 
HETATM   22  C5  UNL     1      -6.391  -1.104   0.861  1.00  0.00     0.024 A 
HETATM   23  S2  UNL     1      -6.084   0.042   2.219  1.00  0.00    -0.103 SA
HETATM   24  C8  UNL     1      -5.900  -0.402  -0.378  1.00  0.00     0.086 A 
HETATM   25  C6  UNL     1      -5.324   1.312   1.200  1.00  0.00     0.047 A 
HETATM   26  C7  UNL     1      -5.342   0.873  -0.059  1.00  0.00    -0.007 A 
ENDBRANCH  18  19
ENDBRANCH  17  18
ENDBRANCH   2  17
TORSDOF 5
