REMARK  8 active torsions:
REMARK  status: ('A' for Active; 'I' for Inactive)
REMARK    1  A    between atoms: C2_2  and  C4_4 
REMARK    2  A    between atoms: C12_15  and  O1_16 
REMARK    3  A    between atoms: C15_19  and  O2_20 
REMARK    4  A    between atoms: O2_20  and  C16_21 
REMARK    5  A    between atoms: C16_21  and  C17_22 
REMARK    6  A    between atoms: C17_22  and  C18_23 
REMARK    7  A    between atoms: C18_23  and  N4_24 
REMARK    8  A    between atoms: N4_24  and  C19_25 
ROOT
HETATM    1  C4  UNL     1      -2.041  -0.717  -0.102  1.00  0.00    -0.031 C 
HETATM    2  C5  UNL     1      -2.541  -0.178  -1.227  1.00  0.00     0.010 C 
HETATM    3  C6  UNL     1      -1.953   0.436  -2.439  1.00  0.00     0.018 C 
HETATM    4  C7  UNL     1      -0.751   0.044  -2.915  1.00  0.00     0.089 C 
HETATM    5  N1  UNL     1       0.147  -0.969  -2.393  1.00  0.00    -0.353 N 
HETATM    6  C8  UNL     1      -0.017  -1.523  -1.093  1.00  0.00     0.127 C 
HETATM    7  N2  UNL     1       0.064  -2.835  -1.005  1.00  0.00    -0.227 NA
HETATM    8  C9  UNL     1      -0.062  -3.506   0.230  1.00  0.00     0.235 C 
HETATM    9  N3  UNL     1      -0.236  -2.864   1.362  1.00  0.00    -0.245 NA
HETATM   10  C10 UNL     1      -0.274  -1.433   1.376  1.00  0.00     0.062 C 
HETATM   11  C11 UNL     1      -0.260  -0.996   2.603  1.00  0.00     0.065 C 
HETATM   12  C12 UNL     1      -0.252   0.445   2.783  1.00  0.00     0.069 C 
HETATM   13  C14 UNL     1      -0.210   1.093   1.635  1.00  0.00     0.043 C 
HETATM   14  C15 UNL     1      -0.149   0.679   0.163  1.00  0.00     0.173 C 
HETATM   15  C20 UNL     1      -0.483  -0.761   0.121  1.00  0.00     0.121 C 
HETATM   16  H9  UNL     1       0.952  -1.387  -2.884  1.00  0.00     0.166 HD
ENDROOT
BRANCH  14  17
HETATM   17  O2  UNL     1       1.206   0.941  -0.095  1.00  0.00    -0.380 OA
BRANCH  17  18
HETATM   18  C16 UNL     1       1.487   1.969  -0.926  1.00  0.00     0.170 C 
BRANCH  18  19
HETATM   19  C17 UNL     1       3.027   2.030  -1.013  1.00  0.00     0.046 C 
BRANCH  19  20
HETATM   20  C18 UNL     1       3.555   0.725  -1.561  1.00  0.00     0.124 C 
BRANCH  20  21
HETATM   21  N4  UNL     1       4.993   0.811  -1.631  1.00  0.00    -0.368 N 
HETATM   22  H23 UNL     1       5.624   1.621  -1.360  1.00  0.00     0.161 HD
BRANCH  21  23
HETATM   23  C19 UNL     1       5.578  -0.385  -2.142  1.00  0.00     0.348 C 
HETATM   24  O3  UNL     1       4.983  -1.416  -2.502  1.00  0.00    -0.284 OA
ENDBRANCH  21  23
ENDBRANCH  20  21
ENDBRANCH  19  20
ENDBRANCH  18  19
ENDBRANCH  17  18
ENDBRANCH  14  17
BRANCH  12  25
HETATM   25  O1  UNL     1      -0.282   1.146   3.971  1.00  0.00    -0.356 OA
HETATM   26  C13 UNL     1      -1.190   2.232   4.182  1.00  0.00     0.210 C 
ENDBRANCH  12  25
BRANCH   1  27
HETATM   27  C2  UNL     1      -3.099  -1.168   0.742  1.00  0.00    -0.075 C 
HETATM   28  C1  UNL     1      -4.529  -1.047   0.411  1.00  0.00     0.044 C 
HETATM   29  C3  UNL     1      -2.848  -1.722   1.871  1.00  0.00     0.038 C 
ENDBRANCH   1  27
TORSDOF 8
