REMARK  10 active torsions:
REMARK  status: ('A' for Active; 'I' for Inactive)
REMARK    1  A    between atoms: B1_1  and  C1_2 
REMARK    2  A    between atoms: C8_9  and  O1_10 
REMARK    3  A    between atoms: O1_10  and  C9_11 
REMARK    4  A    between atoms: C9_11  and  C10_12 
REMARK    5  A    between atoms: C10_12  and  C11_14 
REMARK    6  A    between atoms: C11_14  and  N1_15 
REMARK    7  A    between atoms: N1_15  and  C12_16 
REMARK    8  A    between atoms: C13_17  and  C14_18 
REMARK    9  A    between atoms: C14_18  and  C15_19 
REMARK   10  A    between atoms: C15_19  and  O3_20 
ROOT
HETATM    1  C1  UNL     1       5.816  -0.424  -0.107  1.00  0.00    -0.098 A 
HETATM    2  C2  UNL     1       6.740   0.511  -0.550  1.00  0.00    -0.005 A 
HETATM    3  C3  UNL     1       6.355   1.812  -0.804  1.00  0.00     0.001 A 
HETATM    4  C4  UNL     1       5.023   2.171  -0.608  1.00  0.00     0.012 A 
HETATM    5  C5  UNL     1       4.148   1.202  -0.167  1.00  0.00    -0.026 A 
HETATM    6  C6  UNL     1       2.833   1.595   0.017  1.00  0.00     0.015 A 
HETATM    7  C7  UNL     1       1.930   0.649   0.458  1.00  0.00     0.037 A 
HETATM    8  C8  UNL     1       2.245  -0.666   0.730  1.00  0.00     0.070 A 
HETATM    9  C16 UNL     1       3.577  -1.045   0.539  1.00  0.00     0.048 A 
HETATM   10  C17 UNL     1       4.488  -0.107   0.099  1.00  0.00    -0.029 A 
ENDROOT
BRANCH   8  11
HETATM   11  O1  UNL     1       1.398  -1.636   1.166  1.00  0.00    -0.344 OA
BRANCH  11  12
HETATM   12  C9  UNL     1       0.045  -1.582   1.445  1.00  0.00     0.255 C 
BRANCH  12  13
HETATM   13  C10 UNL     1      -0.800  -1.190   0.289  1.00  0.00     0.168 C 
HETATM   14  O2  UNL     1      -0.522  -0.910  -0.853  1.00  0.00    -0.294 OA
BRANCH  13  15
HETATM   15  C11 UNL     1      -2.265  -1.096   0.460  1.00  0.00     0.199 C 
BRANCH  15  16
HETATM   16  N1  UNL     1      -2.816  -0.697  -0.832  1.00  0.00    -0.392 N 
HETATM   17  H12 UNL     1      -2.216  -0.525  -1.686  1.00  0.00     0.159 HD
BRANCH  16  18
HETATM   18  C12 UNL     1      -4.220  -0.508  -1.037  1.00  0.00     0.079 C 
HETATM   19  C13 UNL     1      -5.109  -0.065  -0.150  1.00  0.00    -0.008 C 
BRANCH  19  20
HETATM   20  C14 UNL     1      -6.577   0.119  -0.408  1.00  0.00     0.054 C 
BRANCH  20  21
HETATM   21  C15 UNL     1      -6.950   1.587  -0.190  1.00  0.00     0.168 C 
BRANCH  21  22
HETATM   22  O3  UNL     1      -8.315   1.741  -0.432  1.00  0.00    -0.401 OA
HETATM   23  H19 UNL     1      -8.463   1.339  -1.344  1.00  0.00     0.209 HD
ENDBRANCH  21  22
ENDBRANCH  20  21
ENDBRANCH  19  20
ENDBRANCH  16  18
ENDBRANCH  15  16
ENDBRANCH  13  15
ENDBRANCH  12  13
ENDBRANCH  11  12
ENDBRANCH   8  11
BRANCH   1  24
HETATM   24  B1  UNL     1       6.296  -1.880   0.166  1.00  0.00     0.175 B 
HETATM   25  H1  UNL     1       7.055  -2.050   1.055  1.00  0.00    -0.026 HD
HETATM   26  H2  UNL     1       5.832  -2.833  -0.336  1.00  0.00    -0.026 HD
ENDBRANCH   1  24
TORSDOF 10
