REMARK  7 active torsions:
REMARK  status: ('A' for Active; 'I' for Inactive)
REMARK    1  A    between atoms: C2_2  and  C3_3 
REMARK    2  A    between atoms: C2_2  and  N2_12 
REMARK    3  A    between atoms: C3_3  and  C4_4 
REMARK       I    between atoms: C4_4  and  N1_6 
REMARK    4  A    between atoms: N1_6  and  C5_7 
REMARK    5  A    between atoms: C9_13  and  C10_14 
REMARK    6  A    between atoms: C10_14  and  O2_15 
REMARK    7  A    between atoms: C14_19  and  O3_20 
ROOT
HETATM    1  C1  UNL     1      -1.149  -1.493   1.227  1.00  0.00     0.059 C 
HETATM    2  C2  UNL     1      -0.876  -0.395   0.499  1.00  0.00     0.001 C 
ENDROOT
BRANCH   2   3
HETATM    3  C3  UNL     1       0.371   0.224   0.009  1.00  0.00     0.155 C 
BRANCH   3   4
HETATM    4  C4  UNL     1       1.582  -0.550   0.417  1.00  0.00     0.223 C 
HETATM    5  O1  UNL     1       1.829  -1.600   1.075  1.00  0.00    -0.273 OA
HETATM    6  N1  UNL     1       2.774   0.072  -0.072  1.00  0.00    -0.353 N 
HETATM    7  H5  UNL     1       2.843   0.956  -0.646  1.00  0.00     0.163 HD
BRANCH   6   8
HETATM    8  C5  UNL     1       4.098  -0.490   0.191  1.00  0.00     0.113 A 
HETATM    9  C6  UNL     1       4.829  -0.644  -1.043  1.00  0.00     0.013 A 
HETATM   10  C7  UNL     1       5.728   0.236  -0.725  1.00  0.00    -0.011 A 
HETATM   11 BR1  UNL     1       7.302   1.085  -1.355  1.00  0.00    -0.056 Br
HETATM   12  C8  UNL     1       5.110   0.514   0.569  1.00  0.00     0.075 A 
ENDBRANCH   6   8
ENDBRANCH   3   4
ENDBRANCH   2   3
BRANCH   2  13
HETATM   13  N2  UNL     1      -2.084   0.274   0.158  1.00  0.00    -0.325 N 
HETATM   14  C9  UNL     1      -2.974  -0.062  -0.922  1.00  0.00     0.037 A 
HETATM   15  C11 UNL     1      -4.060   0.674  -1.094  1.00  0.00     0.027 A 
HETATM   16  C12 UNL     1      -4.350   1.784  -0.227  1.00  0.00     0.002 A 
HETATM   17  C13 UNL     1      -3.551   2.109   0.766  1.00  0.00     0.026 A 
HETATM   18  C14 UNL     1      -2.298   1.372   1.077  1.00  0.00     0.248 A 
BRANCH  14  19
HETATM   19  C10 UNL     1      -2.567  -1.231  -1.751  1.00  0.00     0.221 C 
BRANCH  19  20
HETATM   20  O2  UNL     1      -2.457  -2.405  -1.035  1.00  0.00    -0.395 OA
HETATM   21  H12 UNL     1      -3.309  -2.885  -0.925  1.00  0.00     0.209 HD
ENDBRANCH  19  20
ENDBRANCH  14  19
BRANCH  18  22
HETATM   22  O3  UNL     1      -2.421   0.891   2.379  1.00  0.00    -0.373 OA
HETATM   23  H17 UNL     1      -3.107   0.172   2.443  1.00  0.00     0.212 HD
ENDBRANCH  18  22
ENDBRANCH   2  13
TORSDOF 7
