REMARK  5 active torsions:
REMARK  status: ('A' for Active; 'I' for Inactive)
REMARK    1  A    between atoms: C2_2  and  C3_3 
REMARK    2  A    between atoms: C6_6  and  C7_7 
REMARK       I    between atoms: C7_7  and  N1_9 
REMARK    3  A    between atoms: N1_9  and  N2_10 
REMARK    4  A    between atoms: N2_10  and  C8_11 
REMARK    5  A    between atoms: C8_11  and  C9_12 
ROOT
HETATM    1  C7  UNL     1       0.679  -1.093  -0.302  1.00  0.00     0.265 C 
HETATM    2  O1  UNL     1       0.157  -2.016   0.363  1.00  0.00    -0.266 OA
HETATM    3  N1  UNL     1      -0.082  -0.254  -1.156  1.00  0.00    -0.287 N 
HETATM    4  H8  UNL     1       0.317   0.525  -1.725  1.00  0.00     0.184 HD
ENDROOT
BRANCH   3   5
HETATM    5  N2  UNL     1      -1.468  -0.272  -1.422  1.00  0.00    -0.237 NA
HETATM    6  H9  UNL     1      -1.799  -1.239  -1.420  1.00  0.00     0.146 HD
BRANCH   5   7
HETATM    7  C8  UNL     1      -2.103   0.589  -0.464  1.00  0.00     0.123 C 
BRANCH   7   8
HETATM    8  C9  UNL     1      -3.595   0.671  -0.624  1.00  0.00    -0.010 A 
HETATM    9  C10 UNL     1      -3.958   1.212  -2.018  1.00  0.00     0.021 C 
HETATM   10  C11 UNL     1      -4.276  -0.612  -0.493  1.00  0.00    -0.014 A 
HETATM   11  C12 UNL     1      -5.217  -1.155   0.263  1.00  0.00     0.020 A 
HETATM   12  C13 UNL     1      -5.737  -0.226   1.257  1.00  0.00     0.030 A 
HETATM   13 CL1  UNL     1      -6.982  -0.698   2.370  1.00  0.00    -0.085 Cl
HETATM   14  C14 UNL     1      -5.179   0.958   1.212  1.00  0.00    -0.002 A 
HETATM   15  C15 UNL     1      -4.139   1.625   0.409  1.00  0.00     0.043 A 
ENDBRANCH   7   8
ENDBRANCH   5   7
ENDBRANCH   3   5
BRANCH   1  16
HETATM   16  C6  UNL     1       2.105  -0.894  -0.178  1.00  0.00     0.033 A 
HETATM   17  C5  UNL     1       2.807  -1.740   0.670  1.00  0.00     0.017 A 
HETATM   18  C4  UNL     1       4.186  -1.621   0.850  1.00  0.00     0.008 A 
HETATM   19  C3  UNL     1       4.890  -0.629   0.165  1.00  0.00    -0.059 A 
HETATM   20  C17 UNL     1       4.206   0.220  -0.683  1.00  0.00     0.008 A 
HETATM   21  C16 UNL     1       2.839   0.061  -0.827  1.00  0.00     0.017 A 
BRANCH  19  22
HETATM   22  C2  UNL     1       6.362  -0.429   0.296  1.00  0.00     0.034 C 
HETATM   23  C1  UNL     1       6.638   0.539   1.419  1.00  0.00     0.010 C 
ENDBRANCH  19  22
ENDBRANCH   1  16
TORSDOF 5
