REMARK  1 active torsions:
REMARK  status: ('A' for Active; 'I' for Inactive)
REMARK    1  A    between atoms: C7_10  and  O3_11 
ROOT
HETATM    1  C1  UNL     1       1.048  -2.828   0.004  1.00  0.00     0.159 C 
HETATM    2  N1  UNL     1       0.388  -1.570  -0.008  1.00  0.00    -0.317 N 
HETATM    3  C2  UNL     1       1.014  -0.353   0.025  1.00  0.00     0.046 A 
HETATM    4  C3  UNL     1       0.324   0.818   0.008  1.00  0.00     0.026 A 
HETATM    5  C4  UNL     1      -1.060   0.836  -0.042  1.00  0.00     0.110 A 
HETATM    6  O1  UNL     1      -1.720   1.983  -0.056  1.00  0.00    -0.273 OA
HETATM    7  C5  UNL     1      -3.016   1.993  -0.103  1.00  0.00     0.290 A 
HETATM    8  O2  UNL     1      -3.642   3.076  -0.117  1.00  0.00    -0.260 OA
HETATM    9  C6  UNL     1      -3.774   0.840  -0.140  1.00  0.00     0.120 A 
HETATM   10  C7  UNL     1      -3.121  -0.374  -0.126  1.00  0.00     0.090 A 
HETATM   11  C8  UNL     1      -1.751  -0.344  -0.076  1.00  0.00     0.100 A 
HETATM   12  C9  UNL     1      -0.980  -1.463  -0.058  1.00  0.00     0.263 A 
HETATM   13  O4  UNL     1      -1.641  -2.543  -0.091  1.00  0.00    -0.267 OA
HETATM   14  C10 UNL     1       0.658   2.095   0.005  1.00  0.00     0.017 C 
HETATM   15  C11 UNL     1       1.815   2.970   0.013  1.00  0.00     0.014 C 
HETATM   16  C12 UNL     1       2.855   2.815  -0.789  1.00  0.00    -0.015 C 
HETATM   17  P1  UNL     1       3.671   1.415  -0.928  1.00  0.00    -0.045 P 
HETATM   18  C13 UNL     1       3.645  -0.094   0.158  1.00  0.00     0.073 C 
HETATM   19  C14 UNL     1       2.288  -0.658   0.089  1.00  0.00     0.009 C 
ENDROOT
BRANCH  10  20
HETATM   20  O3  UNL     1      -3.772  -1.616  -0.160  1.00  0.00    -0.359 OA
HETATM   21  H5  UNL     1      -3.828  -2.144   0.703  1.00  0.00     0.217 HD
ENDBRANCH  10  20
TORSDOF 1
