REMARK  7 active torsions:
REMARK  status: ('A' for Active; 'I' for Inactive)
REMARK    1  A    between atoms: C2_2  and  C3_3 
REMARK    2  A    between atoms: C4_4  and  C5_5 
REMARK    3  A    between atoms: C5_5  and  C6_6 
REMARK       I    between atoms: C6_6  and  N1_8 
REMARK    4  A    between atoms: N1_8  and  N2_9 
REMARK    5  A    between atoms: N2_9  and  C7_10 
REMARK    6  A    between atoms: C14_18  and  C15_19 
REMARK    7  A    between atoms: C15_19  and  O2_20 
ROOT
HETATM    1  C6  UNL     1      -0.334   0.403  -0.572  1.00  0.00     0.239 C 
HETATM    2  O1  UNL     1      -0.736  -0.655  -1.118  1.00  0.00    -0.272 OA
HETATM    3  N1  UNL     1      -1.167   1.122   0.372  1.00  0.00    -0.269 N 
HETATM    4  H8  UNL     1      -0.650   1.932   0.737  1.00  0.00     0.190 HD
ENDROOT
BRANCH   3   5
HETATM    5  N2  UNL     1      -2.359   0.467   0.461  1.00  0.00    -0.298 N 
HETATM    6  H9  UNL     1      -2.650   1.428   0.140  1.00  0.00     0.187 HD
BRANCH   5   7
HETATM    7  C7  UNL     1      -3.558  -0.229   0.558  1.00  0.00     0.054 A 
HETATM    8  C8  UNL     1      -3.349  -1.591   0.464  1.00  0.00     0.033 A 
HETATM    9  C9  UNL     1      -4.412  -2.513   0.489  1.00  0.00     0.026 A 
HETATM   10  C10 UNL     1      -5.650  -1.859   0.623  1.00  0.00     0.034 A 
HETATM   11 CL1  UNL     1      -7.102  -2.827   0.643  1.00  0.00    -0.084 Cl
HETATM   12  C11 UNL     1      -5.898  -0.515   0.726  1.00  0.00     0.033 A 
HETATM   13  C12 UNL     1      -4.811   0.308   0.691  1.00  0.00    -0.032 A 
HETATM   14  C13 UNL     1      -4.943   1.772   0.864  1.00  0.00     0.050 C 
ENDBRANCH   5   7
ENDBRANCH   3   5
BRANCH   1  15
HETATM   15  C5  UNL     1       1.054   0.698  -1.105  1.00  0.00     0.131 C 
BRANCH  15  16
HETATM   16  C4  UNL     1       1.915  -0.488  -1.141  1.00  0.00    -0.017 C 
HETATM   17  C3  UNL     1       3.108  -0.456  -0.521  1.00  0.00     0.003 C 
BRANCH  17  18
HETATM   18  C2  UNL     1       4.019   0.400   0.263  1.00  0.00    -0.064 C 
HETATM   19  C1  UNL     1       3.871   1.877   0.522  1.00  0.00     0.048 C 
HETATM   20  C14 UNL     1       5.171  -0.127   0.714  1.00  0.00     0.005 C 
BRANCH  20  21
HETATM   21  C15 UNL     1       5.986  -1.347   0.847  1.00  0.00     0.192 C 
BRANCH  21  22
HETATM   22  O2  UNL     1       7.234  -1.293   0.234  1.00  0.00    -0.397 OA
HETATM   23  H19 UNL     1       7.461  -0.339   0.055  1.00  0.00     0.209 HD
ENDBRANCH  21  22
ENDBRANCH  20  21
ENDBRANCH  17  18
ENDBRANCH  15  16
ENDBRANCH   1  15
TORSDOF 7
