REMARK  8 active torsions:
REMARK  status: ('A' for Active; 'I' for Inactive)
REMARK    1  A    between atoms: C2_2  and  C4_4 
REMARK    2  A    between atoms: C4_4  and  C5_5 
REMARK    3  A    between atoms: C7_9  and  N3_10 
REMARK    4  A    between atoms: N3_10  and  C8_11 
REMARK    5  A    between atoms: C14_19  and  C15_20 
REMARK    6  A    between atoms: C15_20  and  O1_21 
REMARK    7  A    between atoms: O1_21  and  C16_22 
REMARK    8  A    between atoms: N4_25  and  S1_26 
ROOT
HETATM    1  C5  UNL     1      -2.233   2.328  -0.100  1.00  0.00     0.074 A 
HETATM    2  N1  UNL     1      -3.424   2.554   0.436  1.00  0.00    -0.241 NA
HETATM    3  C6  UNL     1      -4.221   1.615   0.916  1.00  0.00     0.236 A 
HETATM    4  N2  UNL     1      -3.736   0.382   0.824  1.00  0.00    -0.223 NA
HETATM    5  C7  UNL     1      -2.549   0.074   0.299  1.00  0.00     0.143 A 
HETATM    6  C14 UNL     1      -1.733   1.056  -0.195  1.00  0.00     0.060 A 
ENDROOT
BRANCH   6   7
HETATM    7  C15 UNL     1      -0.561   0.825  -0.732  1.00  0.00     0.152 C 
BRANCH   7   8
HETATM    8  O1  UNL     1       0.288  -0.188  -1.023  1.00  0.00    -0.357 OA
BRANCH   8   9
HETATM    9  C16 UNL     1       1.606  -0.354  -0.584  1.00  0.00     0.130 C 
HETATM   10  C17 UNL     1       2.107  -1.741  -0.907  1.00  0.00     0.048 C 
HETATM   11  C18 UNL     1       3.595  -1.682  -1.158  1.00  0.00     0.109 C 
HETATM   12  N4  UNL     1       4.140  -0.644  -0.342  1.00  0.00    -0.211 NA
HETATM   13  C20 UNL     1       3.892   0.681  -0.859  1.00  0.00     0.109 C 
HETATM   14  C21 UNL     1       2.446   0.715  -1.296  1.00  0.00     0.048 C 
BRANCH  12  15
HETATM   15  S1  UNL     1       5.778  -0.885   0.108  1.00  0.00     0.207 S 
HETATM   16  C19 UNL     1       5.891  -2.373   1.062  1.00  0.00     0.180 C 
HETATM   17  O2  UNL     1       6.690  -0.910  -1.082  1.00  0.00    -0.212 OA
HETATM   18  O3  UNL     1       6.197   0.260   0.982  1.00  0.00    -0.212 OA
ENDBRANCH  12  15
ENDBRANCH   8   9
ENDBRANCH   7   8
ENDBRANCH   6   7
BRANCH   1  19
HETATM   19  C4  UNL     1      -1.449   3.254  -0.560  1.00  0.00     0.035 C 
BRANCH  19  20
HETATM   20  C2  UNL     1      -1.513   4.661  -0.671  1.00  0.00    -0.081 C 
HETATM   21  C1  UNL     1      -2.733   4.534  -0.089  1.00  0.00     0.038 C 
HETATM   22  C3  UNL     1      -1.583   6.108  -0.782  1.00  0.00     0.043 C 
ENDBRANCH  19  20
ENDBRANCH   1  19
BRANCH   5  23
HETATM   23  N3  UNL     1      -2.185  -1.278   0.276  1.00  0.00    -0.340 N 
HETATM   24  H8  UNL     1      -1.265  -1.506  -0.145  1.00  0.00     0.167 HD
BRANCH  23  25
HETATM   25  C8  UNL     1      -2.880  -2.415   0.748  1.00  0.00     0.035 A 
HETATM   26  C9  UNL     1      -2.399  -3.699   0.484  1.00  0.00     0.032 A 
HETATM   27  C10 UNL     1      -3.001  -4.843   0.903  1.00  0.00     0.046 A 
HETATM   28  C11 UNL     1      -4.147  -4.782   1.629  1.00  0.00     0.138 A 
HETATM   29  F1  UNL     1      -4.738  -5.925   2.041  1.00  0.00    -0.204 F 
HETATM   30  C12 UNL     1      -4.674  -3.550   1.924  1.00  0.00     0.074 A 
HETATM   31 CL1  UNL     1      -6.150  -3.504   2.862  1.00  0.00    -0.081 Cl
HETATM   32  C13 UNL     1      -4.030  -2.429   1.479  1.00  0.00     0.056 A 
ENDBRANCH  23  25
ENDBRANCH   5  23
TORSDOF 8
