REMARK  3 active torsions:
REMARK  status: ('A' for Active; 'I' for Inactive)
REMARK    1  A    between atoms: C4_4  and  O1_5 
REMARK    2  A    between atoms: O1_5  and  C5_6 
REMARK    3  A    between atoms: C9_11  and  O3_12 
ROOT
HETATM    1  C1  UNL     1       5.196   0.401   0.884  1.00  0.00     0.020 C 
HETATM    2  C2  UNL     1       4.032   0.558   0.610  1.00  0.00    -0.049 C 
HETATM    3  C3  UNL     1       2.643   0.754   0.306  1.00  0.00     0.168 C 
HETATM    4  C4  UNL     1       1.852  -0.193   0.785  1.00  0.00     0.133 C 
HETATM    5  C6  UNL     1       0.401  -0.291   0.654  1.00  0.00     0.029 A 
HETATM    6  C7  UNL     1      -0.153  -1.201   1.535  1.00  0.00     0.019 A 
HETATM    7  C8  UNL     1      -1.536  -1.390   1.512  1.00  0.00     0.038 A 
HETATM    8  C9  UNL     1      -2.355  -0.700   0.643  1.00  0.00     0.070 A 
HETATM    9  C11 UNL     1      -1.812   0.194  -0.223  1.00  0.00     0.067 A 
HETATM   10  C12 UNL     1      -0.446   0.397  -0.217  1.00  0.00     0.054 A 
HETATM   11  N1  UNL     1      -0.074   1.370  -1.196  1.00  0.00    -0.297 N 
HETATM   12  C13 UNL     1      -1.111   1.746  -2.161  1.00  0.00     0.162 C 
HETATM   13  C14 UNL     1       1.205   2.021  -1.337  1.00  0.00     0.373 C 
HETATM   14  O4  UNL     1       1.337   2.758  -2.351  1.00  0.00    -0.237 OA
HETATM   15  O5  UNL     1       2.280   1.886  -0.439  1.00  0.00    -0.249 OA
ENDROOT
BRANCH   4  16
HETATM   16  O1  UNL     1       2.351  -1.258   1.506  1.00  0.00    -0.281 OA
BRANCH  16  17
HETATM   17  C5  UNL     1       3.267  -2.118   0.947  1.00  0.00     0.404 C 
HETATM   18  O2  UNL     1       3.976  -2.468  -0.034  1.00  0.00    -0.276 OA
ENDBRANCH  16  17
ENDBRANCH   4  16
BRANCH   8  19
HETATM   19  O3  UNL     1      -3.678  -1.021   0.771  1.00  0.00    -0.356 OA
HETATM   20  C10 UNL     1      -4.709  -0.447  -0.009  1.00  0.00     0.210 C 
ENDBRANCH   8  19
TORSDOF 3
