REMARK  0 active torsions:
REMARK  status: ('A' for Active; 'I' for Inactive)
ROOT
HETATM    1  O1  UNL     1       0.531   2.452   3.160  1.00  0.00    -0.148 OA
HETATM    2  C1  UNL     1       1.105   1.822   2.242  1.00  0.00     0.374 A 
HETATM    3  C2  UNL     1       2.070   1.026   1.385  1.00  0.00     0.256 C 
HETATM    4  O2  UNL     1       1.499   0.813   0.134  1.00  0.00    -0.344 OA
HETATM    5  C3  UNL     1       1.991   0.145  -0.951  1.00  0.00     0.095 A 
HETATM    6  C4  UNL     1       2.642   0.935  -1.875  1.00  0.00     0.039 A 
HETATM    7  C5  UNL     1       3.197   0.403  -3.035  1.00  0.00     0.003 A 
HETATM    8  C6  UNL     1       3.084  -0.967  -3.258  1.00  0.00     0.002 A 
HETATM    9  C7  UNL     1       2.431  -1.756  -2.330  1.00  0.00     0.032 A 
HETATM   10  C8  UNL     1       1.885  -1.203  -1.177  1.00  0.00     0.068 A 
HETATM   11  N1  UNL     1       1.272  -2.215  -0.390  1.00  0.00    -0.325 N 
HETATM   12  C9  UNL     1       0.002  -2.359   0.229  1.00  0.00     0.223 C 
HETATM   13  O3  UNL     1      -0.050  -1.235  -0.337  1.00  0.00    -0.273 OA
HETATM   14  C10 UNL     1      -1.304  -2.596   0.911  1.00  0.00     0.123 C 
HETATM   15  C11 UNL     1      -2.263  -1.512   0.757  1.00  0.00     0.100 A 
HETATM   16  C12 UNL     1      -3.355  -0.888   0.473  1.00  0.00    -0.007 A 
HETATM   17 BR1  UNL     1      -3.744  -2.680   0.021  1.00  0.00    -0.121 Br
HETATM   18  C13 UNL     1      -4.122   0.297   0.371  1.00  0.00     0.011 C 
HETATM   19  C14 UNL     1      -3.698   1.506   0.647  1.00  0.00    -0.018 C 
HETATM   20  C15 UNL     1      -2.750   2.517   1.064  1.00  0.00     0.054 C 
HETATM   21  C16 UNL     1      -1.510   2.812   1.494  1.00  0.00     0.267 C 
HETATM   22  N2  UNL     1      -0.194   2.310   1.860  1.00  0.00     0.096 N 
HETATM   23  H7  UNL     1       1.840  -3.078  -0.186  1.00  0.00     0.169 HD
HETATM   24  H15 UNL     1      -0.295   1.995   0.842  1.00  0.00     0.322 HD
ENDROOT
TORSDOF 0
