REMARK  7 active torsions:
REMARK  status: ('A' for Active; 'I' for Inactive)
REMARK    1  A    between atoms: C2_2  and  C3_3 
REMARK    2  A    between atoms: C6_6  and  N1_7 
REMARK    3  A    between atoms: N1_7  and  N2_8 
REMARK    4  A    between atoms: N2_8  and  C7_9 
REMARK    5  A    between atoms: C12_15  and  C13_16 
REMARK    6  A    between atoms: C13_16  and  N3_17 
REMARK    7  A    between atoms: N3_17  and  C14_18 
ROOT
HETATM    1  C7  UNL     1      -2.137   0.395  -0.383  1.00  0.00     0.056 A 
HETATM    2  C8  UNL     1      -1.887   1.203  -1.466  1.00  0.00     0.033 A 
HETATM    3  C9  UNL     1      -2.674   2.290  -1.753  1.00  0.00     0.026 A 
HETATM    4  C10 UNL     1      -3.724   2.501  -0.870  1.00  0.00     0.034 A 
HETATM    5 CL1  UNL     1      -4.761   3.881  -1.186  1.00  0.00    -0.084 Cl
HETATM    6  C11 UNL     1      -4.008   1.704   0.238  1.00  0.00     0.035 A 
HETATM    7  C12 UNL     1      -3.174   0.605   0.483  1.00  0.00    -0.011 A 
ENDROOT
BRANCH   1   8
HETATM    8  N2  UNL     1      -1.253  -0.672  -0.144  1.00  0.00    -0.300 N 
HETATM    9  H9  UNL     1      -0.994  -1.672  -0.268  1.00  0.00     0.187 HD
BRANCH   8  10
HETATM   10  N1  UNL     1      -0.254  -0.022   0.638  1.00  0.00    -0.300 N 
HETATM   11  H8  UNL     1      -0.279   0.723   1.385  1.00  0.00     0.187 HD
BRANCH  10  12
HETATM   12  C6  UNL     1       1.162  -0.142   0.715  1.00  0.00     0.048 A 
HETATM   13  C5  UNL     1       1.740   0.500  -0.390  1.00  0.00     0.031 A 
HETATM   14  C4  UNL     1       3.113   0.553  -0.569  1.00  0.00     0.009 A 
HETATM   15  C3  UNL     1       3.920  -0.053   0.384  1.00  0.00    -0.058 A 
HETATM   16  C16 UNL     1       3.378  -0.688   1.476  1.00  0.00     0.009 A 
HETATM   17  C15 UNL     1       1.994  -0.725   1.630  1.00  0.00     0.031 A 
BRANCH  15  18
HETATM   18  C2  UNL     1       5.397   0.014   0.192  1.00  0.00     0.034 C 
HETATM   19  C1  UNL     1       5.952  -1.142  -0.564  1.00  0.00     0.010 C 
ENDBRANCH  15  18
ENDBRANCH  10  12
ENDBRANCH   8  10
ENDBRANCH   1   8
BRANCH   7  20
HETATM   20  C13 UNL     1      -3.584  -0.211   1.650  1.00  0.00     0.162 C 
BRANCH  20  21
HETATM   21  N3  UNL     1      -4.428  -1.327   1.308  1.00  0.00    -0.364 N 
HETATM   22  H15 UNL     1      -5.383  -1.245   1.785  1.00  0.00     0.162 HD
BRANCH  21  23
HETATM   23  C14 UNL     1      -4.478  -2.508   0.570  1.00  0.00     0.348 C 
HETATM   24  O1  UNL     1      -3.462  -2.806  -0.072  1.00  0.00    -0.284 OA
ENDBRANCH  21  23
ENDBRANCH  20  21
ENDBRANCH   7  20
TORSDOF 7
