REMARK  4 active torsions:
REMARK  status: ('A' for Active; 'I' for Inactive)
REMARK       I    between atoms: C1_2  and  N1_3 
REMARK    1  A    between atoms: C1_2  and  C8_11 
REMARK    2  A    between atoms: N1_3  and  C2_4 
REMARK    3  A    between atoms: C9_12  and  O2_13 
REMARK    4  A    between atoms: C14_18  and  C16_20 
ROOT
HETATM    1  C8  UNL     1       0.912  -0.015  -0.652  1.00  0.00     0.024 A 
HETATM    2  C9  UNL     1       2.046  -0.223  -0.002  1.00  0.00     0.074 A 
HETATM    3  C10 UNL     1       3.671   0.492   0.057  1.00  0.00     0.011 A 
HETATM    4  C11 UNL     1       4.144  -0.405   0.894  1.00  0.00     0.038 A 
HETATM    5  C12 UNL     1       4.540  -1.310   1.690  1.00  0.00    -0.014 A 
HETATM    6  C13 UNL     1       3.273  -1.101   0.824  1.00  0.00     0.031 A 
HETATM    7  C14 UNL     1       3.132   0.206  -0.076  1.00  0.00    -0.015 A 
HETATM    8  C15 UNL     1       3.209   1.366  -0.759  1.00  0.00     0.014 A 
HETATM    9  C16 UNL     1       2.214  -0.179  -1.360  1.00  0.00     0.086 A 
ENDROOT
BRANCH   1  10
HETATM   10  C1  UNL     1      -0.404   0.217  -0.470  1.00  0.00     0.251 C 
HETATM   11  O1  UNL     1      -0.504   0.221  -1.703  1.00  0.00    -0.268 OA
HETATM   12  N1  UNL     1      -1.297   0.384   0.558  1.00  0.00    -0.323 N 
HETATM   13  H1  UNL     1      -0.882   0.336   1.504  1.00  0.00     0.169 HD
BRANCH  12  14
HETATM   14  C2  UNL     1      -2.635   0.607   0.171  1.00  0.00     0.036 A 
HETATM   15  C3  UNL     1      -3.312   1.780  -0.091  1.00  0.00     0.029 A 
HETATM   16  C4  UNL     1      -4.624   1.732  -0.452  1.00  0.00     0.004 A 
HETATM   17  C5  UNL     1      -5.350   0.558  -0.581  1.00  0.00     0.019 A 
HETATM   18  C6  UNL     1      -4.674  -0.615  -0.320  1.00  0.00     0.013 A 
HETATM   19 BR1  UNL     1      -5.650  -2.260  -0.487  1.00  0.00    -0.051 Br
HETATM   20  C7  UNL     1      -3.337  -0.601   0.051  1.00  0.00     0.048 A 
ENDBRANCH  12  14
ENDBRANCH   1  10
BRANCH   2  21
HETATM   21  O2  UNL     1       1.088  -1.356   0.770  1.00  0.00    -0.387 OA
HETATM   22  H6  UNL     1       0.961  -0.944   1.744  1.00  0.00     0.211 HD
ENDBRANCH   2  21
TORSDOF 4
