REMARK  0 active torsions:
REMARK  status: ('A' for Active; 'I' for Inactive)
ROOT
HETATM    1  C1  UNL     1      -2.406  -2.984   1.436  1.00  0.00     0.043 C 
HETATM    2  C2  UNL     1      -1.471  -2.338   0.717  1.00  0.00    -0.049 C 
HETATM    3  C3  UNL     1      -0.227  -2.938   0.277  1.00  0.00     0.004 C 
HETATM    4  C4  UNL     1       0.976  -3.010  -0.330  1.00  0.00    -0.025 C 
HETATM    5  C5  UNL     1       2.016  -2.357  -1.109  1.00  0.00     0.049 C 
HETATM    6  C6  UNL     1       1.787  -0.936  -1.513  1.00  0.00     0.155 C 
HETATM    7  C7  UNL     1       3.113  -0.222  -1.348  1.00  0.00     0.257 C 
HETATM    8  O1  UNL     1       3.950  -0.544  -2.251  1.00  0.00    -0.271 OA
HETATM    9  N1  UNL     1       3.467   0.712  -0.336  1.00  0.00    -0.084 N 
HETATM   10  C8  UNL     1       4.712   1.321  -0.025  1.00  0.00     0.216 A 
HETATM   11  S1  UNL     1       6.162   1.134  -0.750  1.00  0.00    -0.038 SA
HETATM   12  N2  UNL     1       4.392   2.160   1.103  1.00  0.00    -0.261 N 
HETATM   13  N3  UNL     1       3.021   2.040   1.428  1.00  0.00    -0.127 N 
HETATM   14  C9  UNL     1       2.427   1.136   0.535  1.00  0.00     0.732 A 
HETATM   15  N4  UNL     1       1.214   0.704   0.427  1.00  0.00    -0.046 NA
HETATM   16  C10 UNL     1       0.873  -0.231  -0.590  1.00  0.00     0.159 C 
HETATM   17  N5  UNL     1      -0.310  -0.675  -0.936  1.00  0.00    -0.231 NA
HETATM   18  C11 UNL     1      -1.474  -0.214  -0.257  1.00  0.00     0.076 A 
HETATM   19  C12 UNL     1      -2.065  -1.023   0.568  1.00  0.00    -0.018 A 
HETATM   20  C13 UNL     1      -3.184  -0.216   1.062  1.00  0.00     0.081 A 
HETATM   21  C14 UNL     1      -3.117   1.100   0.405  1.00  0.00    -0.041 A 
HETATM   22  C15 UNL     1      -3.983   2.147   0.590  1.00  0.00     0.008 A 
HETATM   23  C16 UNL     1      -3.719   3.308  -0.145  1.00  0.00     0.001 A 
HETATM   24  C17 UNL     1      -2.618   3.337  -1.005  1.00  0.00     0.001 A 
HETATM   25  C18 UNL     1      -1.769   2.241  -1.156  1.00  0.00     0.014 A 
HETATM   26  C19 UNL     1      -2.038   1.112  -0.430  1.00  0.00    -0.000 A 
HETATM   27  H8  UNL     1       5.048   2.774   1.623  1.00  0.00     0.190 HD
HETATM   28  H9  UNL     1       2.544   2.544   2.203  1.00  0.00     0.205 HD
ENDROOT
TORSDOF 0
