REMARK  8 active torsions:
REMARK  status: ('A' for Active; 'I' for Inactive)
REMARK    1  A    between atoms: S1_1  and  O1_2 
REMARK    2  A    between atoms: O1_2  and  C1_3 
REMARK    3  A    between atoms: C6_8  and  C7_9 
REMARK    4  A    between atoms: C7_9  and  C8_10 
REMARK    5  A    between atoms: N1_19  and  C17_20 
REMARK    6  A    between atoms: C17_20  and  C18_21 
REMARK    7  A    between atoms: C18_21  and  C19_22 
REMARK    8  A    between atoms: C19_22  and  N2_23 
ROOT
HETATM    1  C8  UNL     1       1.253   0.870   1.032  1.00  0.00     0.089 C 
HETATM    2  C9  UNL     1       1.105   0.892   2.537  1.00  0.00     0.030 C 
HETATM    3  C10 UNL     1       1.058  -0.426   3.196  1.00  0.00     0.043 C 
HETATM    4  C11 UNL     1       0.943  -1.617   2.339  1.00  0.00    -0.032 A 
HETATM    5  C12 UNL     1       1.199  -2.911   2.768  1.00  0.00     0.009 A 
HETATM    6  C13 UNL     1       1.065  -3.973   1.877  1.00  0.00     0.001 A 
HETATM    7  C14 UNL     1       0.682  -3.815   0.558  1.00  0.00     0.002 A 
HETATM    8  C15 UNL     1       0.412  -2.536   0.073  1.00  0.00     0.030 A 
HETATM    9  C16 UNL     1       0.565  -1.513   1.019  1.00  0.00     0.036 A 
HETATM   10  N1  UNL     1       0.298  -0.182   0.601  1.00  0.00    -0.375 N 
ENDROOT
BRANCH   1  11
HETATM   11  C7  UNL     1       2.668   0.506   0.711  1.00  0.00     0.066 C 
BRANCH  11  12
HETATM   12  C6  UNL     1       2.978   0.451  -0.732  1.00  0.00    -0.022 A 
HETATM   13  C1  UNL     1       3.147   1.709  -1.324  1.00  0.00     0.090 A 
HETATM   14  C2  UNL     1       3.444   1.760  -2.691  1.00  0.00     0.038 A 
HETATM   15  C3  UNL     1       3.578   0.619  -3.486  1.00  0.00     0.003 A 
HETATM   16  C4  UNL     1       3.398  -0.574  -2.830  1.00  0.00     0.001 A 
HETATM   17  C5  UNL     1       3.103  -0.700  -1.485  1.00  0.00     0.010 A 
BRANCH  13  18
HETATM   18  O1  UNL     1       3.054   2.828  -0.720  1.00  0.00    -0.282 OA
BRANCH  18  19
HETATM   19  S1  UNL     1       2.733   4.234  -0.013  1.00  0.00    -0.017 SA
HETATM   20  H1  UNL     1       3.244   4.327   1.305  1.00  0.00     0.134 HD
ENDBRANCH  18  19
ENDBRANCH  13  18
ENDBRANCH  11  12
ENDBRANCH   1  11
BRANCH  10  21
HETATM   21  C17 UNL     1      -0.804   0.167  -0.243  1.00  0.00     0.125 C 
BRANCH  21  22
HETATM   22  C18 UNL     1      -2.023  -0.698  -0.177  1.00  0.00     0.050 C 
BRANCH  22  23
HETATM   23  C19 UNL     1      -3.050  -0.168  -1.156  1.00  0.00     0.277 C 
BRANCH  23  24
HETATM   24  N2  UNL     1      -3.380   1.173  -0.853  1.00  0.00     0.116 N 
HETATM   25  C20 UNL     1      -4.110   1.356   0.354  1.00  0.00     0.379 C 
HETATM   26  N3  UNL     1      -5.406   0.781   0.030  1.00  0.00    -0.233 NA
HETATM   27  N4  UNL     1      -5.566   0.948  -1.359  1.00  0.00    -0.233 NA
HETATM   28  H25 UNL     1      -5.508  -0.207   0.332  1.00  0.00     0.142 HD
HETATM   29  C21 UNL     1      -4.372   1.607  -1.848  1.00  0.00     0.379 C 
HETATM   30  H26 UNL     1      -5.701   0.023  -1.846  1.00  0.00     0.142 HD
ENDBRANCH  23  24
ENDBRANCH  22  23
ENDBRANCH  21  22
ENDBRANCH  10  21
TORSDOF 8
