REMARK  4 active torsions:
REMARK  status: ('A' for Active; 'I' for Inactive)
REMARK    1  A    between atoms: C3_3  and  N1_4 
REMARK    2  A    between atoms: C12_18  and  C13_19 
REMARK    3  A    between atoms: C13_19  and  C14_20 
REMARK    4  A    between atoms: C19_25  and  O1_26 
ROOT
HETATM    1  C1  UNL     1       0.199   2.058  -0.148  1.00  0.00     0.051 C 
HETATM    2  C2  UNL     1      -0.037   0.750  -0.801  1.00  0.00    -0.030 C 
HETATM    3  C3  UNL     1      -0.816  -0.182  -1.466  1.00  0.00     0.051 C 
HETATM    4  C9  UNL     1      -0.120  -1.493  -1.804  1.00  0.00     0.065 C 
HETATM    5  C10 UNL     1       0.447  -2.278  -0.663  1.00  0.00    -0.015 C 
HETATM    6  C11 UNL     1       1.433  -2.131   0.287  1.00  0.00     0.005 C 
HETATM    7  C12 UNL     1       1.929  -0.695   0.265  1.00  0.00    -0.047 C 
HETATM    8  C20 UNL     1       1.131  -0.222  -0.753  1.00  0.00    -0.043 C 
HETATM    9  C21 UNL     1       1.225  -0.770  -2.224  1.00  0.00     0.054 C 
ENDROOT
BRANCH   3  10
HETATM   10  N1  UNL     1      -2.135   0.419  -1.651  1.00  0.00    -0.236 NA
HETATM   11  C4  UNL     1      -2.960   0.558  -0.671  1.00  0.00     0.151 C 
HETATM   12  C5  UNL     1      -2.800   0.182   0.752  1.00  0.00     0.151 C 
HETATM   13  N5  UNL     1      -4.175   1.158  -1.066  1.00  0.00    -0.048 NA
HETATM   14  C6  UNL     1      -4.115  -0.107   1.366  1.00  0.00     0.105 C 
HETATM   15  S1  UNL     1      -4.235  -1.166   2.603  1.00  0.00    -0.064 SA
HETATM   16  N2  UNL     1      -5.301   0.510   0.917  1.00  0.00    -0.160 N 
HETATM   17  C7  UNL     1      -6.655   0.691   1.426  1.00  0.00     0.259 C 
HETATM   18  C8  UNL     1      -5.266   1.159  -0.371  1.00  0.00     0.720 C 
HETATM   19  N3  UNL     1      -7.431   0.987   0.247  1.00  0.00    -0.207 NA
HETATM   20  N4  UNL     1      -6.580   1.708  -0.603  1.00  0.00    -0.150 N 
HETATM   21  H8  UNL     1      -7.665   0.095  -0.242  1.00  0.00     0.149 HD
HETATM   22  H9  UNL     1      -6.819   2.475  -1.266  1.00  0.00     0.199 HD
ENDBRANCH   3  10
BRANCH   7  23
HETATM   23  C13 UNL     1       2.766   0.307   0.890  1.00  0.00     0.080 C 
BRANCH  23  24
HETATM   24  C14 UNL     1       4.175  -0.132   0.674  1.00  0.00    -0.021 A 
HETATM   25  C15 UNL     1       4.832  -0.692   1.728  1.00  0.00     0.010 A 
HETATM   26  C16 UNL     1       6.138  -1.085   1.469  1.00  0.00     0.001 A 
HETATM   27  C17 UNL     1       6.793  -0.954   0.266  1.00  0.00     0.003 A 
HETATM   28  C18 UNL     1       6.082  -0.380  -0.771  1.00  0.00     0.037 A 
HETATM   29  C19 UNL     1       4.796   0.019  -0.557  1.00  0.00     0.072 A 
BRANCH  29  30
HETATM   30  O1  UNL     1       4.118   0.594  -1.634  1.00  0.00    -0.360 OA
HETATM   31  H19 UNL     1       3.522   1.397  -1.410  1.00  0.00     0.217 HD
ENDBRANCH  29  30
ENDBRANCH  23  24
ENDBRANCH   7  23
TORSDOF 4
