REMARK  4 active torsions:
REMARK  status: ('A' for Active; 'I' for Inactive)
REMARK    1  A    between atoms: O1_2  and  C2_3 
REMARK    2  A    between atoms: C3_4  and  O2_5 
REMARK    3  A    between atoms: O2_5  and  C4_6 
REMARK    4  A    between atoms: N1_9  and  S1_10 
ROOT
HETATM    1  C2  UNL     1      -1.714   0.725  -0.911  1.00  0.00     0.104 C 
HETATM    2  C3  UNL     1      -1.266   0.059   0.172  1.00  0.00     0.115 C 
HETATM    3  C10 UNL     1      -2.061  -0.627   1.187  1.00  0.00     0.030 A 
HETATM    4  C11 UNL     1      -1.132  -1.461   1.765  1.00  0.00     0.060 A 
HETATM    5  C12 UNL     1      -1.501  -2.281   2.789  1.00  0.00     0.139 A 
HETATM    6  F1  UNL     1      -0.628  -3.106   3.377  1.00  0.00    -0.204 F 
HETATM    7  C13 UNL     1      -2.809  -2.292   3.267  1.00  0.00     0.074 A 
HETATM    8 CL1  UNL     1      -3.365  -3.311   4.575  1.00  0.00    -0.081 Cl
HETATM    9  C14 UNL     1      -3.776  -1.464   2.709  1.00  0.00     0.057 A 
HETATM   10  C15 UNL     1      -3.358  -0.638   1.660  1.00  0.00     0.048 A 
HETATM   11  N2  UNL     1      -4.546   0.062   1.305  1.00  0.00    -0.338 N 
HETATM   12  C16 UNL     1      -4.923   0.599   0.020  1.00  0.00     0.158 A 
HETATM   13  N3  UNL     1      -6.194   0.762  -0.149  1.00  0.00    -0.222 NA
HETATM   14  C17 UNL     1      -6.418   1.301  -1.469  1.00  0.00     0.236 A 
HETATM   15  N4  UNL     1      -5.265   1.452  -2.072  1.00  0.00    -0.238 NA
HETATM   16  C18 UNL     1      -4.239   1.024  -1.185  1.00  0.00     0.106 A 
HETATM   17  C19 UNL     1      -2.973   1.075  -1.560  1.00  0.00     0.075 C 
HETATM   18  H18 UNL     1      -5.225   0.194   2.082  1.00  0.00     0.167 HD
ENDROOT
BRANCH   2  19
HETATM   19  O2  UNL     1       0.007   0.086   0.231  1.00  0.00    -0.342 OA
BRANCH  19  20
HETATM   20  C4  UNL     1       1.314   0.114   0.292  1.00  0.00     0.131 C 
HETATM   21  C5  UNL     1       2.026   1.382  -0.143  1.00  0.00     0.048 C 
HETATM   22  C6  UNL     1       3.489   1.193   0.281  1.00  0.00     0.109 C 
HETATM   23  N1  UNL     1       4.081   0.177  -0.528  1.00  0.00    -0.211 NA
HETATM   24  C8  UNL     1       3.146  -0.575  -1.307  1.00  0.00     0.109 C 
HETATM   25  C9  UNL     1       1.904  -0.996  -0.602  1.00  0.00     0.048 C 
BRANCH  23  26
HETATM   26  S1  UNL     1       5.041  -0.932   0.372  1.00  0.00     0.207 S 
HETATM   27  C7  UNL     1       6.374  -0.055   1.138  1.00  0.00     0.180 C 
HETATM   28  O3  UNL     1       4.264  -1.623   1.452  1.00  0.00    -0.212 OA
HETATM   29  O4  UNL     1       5.648  -1.980  -0.507  1.00  0.00    -0.212 OA
ENDBRANCH  23  26
ENDBRANCH  19  20
ENDBRANCH   2  19
BRANCH   1  30
HETATM   30  O1  UNL     1      -0.599   1.203  -1.576  1.00  0.00    -0.353 OA
HETATM   31  C1  UNL     1      -0.780   1.737  -2.870  1.00  0.00     0.210 C 
ENDBRANCH   1  30
TORSDOF 4
