REMARK  7 active torsions:
REMARK  status: ('A' for Active; 'I' for Inactive)
REMARK    1  A    between atoms: C5_5  and  N1_6 
REMARK    2  A    between atoms: C8_10  and  N2_11 
REMARK    3  A    between atoms: C9_12  and  S1_13 
REMARK    4  A    between atoms: S1_13  and  C10_14 
REMARK    5  A    between atoms: C10_14  and  C11_15 
REMARK    6  A    between atoms: C11_15  and  N3_16 
REMARK    7  A    between atoms: C11_15  and  C12_17 
ROOT
HETATM    1  N1  UNL     1      -1.993  -1.073  -0.668  1.00  0.00    -0.295 N 
HETATM    2  C6  UNL     1      -2.797  -2.156  -1.222  1.00  0.00     0.251 C 
HETATM    3  O1  UNL     1      -3.894  -2.406  -1.828  1.00  0.00    -0.268 OA
HETATM    4  C7  UNL     1      -2.104  -3.458  -1.021  1.00  0.00     0.102 C 
HETATM    5  C8  UNL     1      -0.971  -3.159  -0.418  1.00  0.00     0.042 C 
HETATM    6  C9  UNL     1      -0.754  -1.673  -0.604  1.00  0.00     0.204 C 
ENDROOT
BRANCH   6   7
HETATM    7  S1  UNL     1       0.640  -1.022   0.273  1.00  0.00    -0.135 SA
BRANCH   7   8
HETATM    8  C10 UNL     1       2.012  -0.749  -0.847  1.00  0.00     0.116 C 
BRANCH   8   9
HETATM    9  C11 UNL     1       2.678   0.551  -0.924  1.00  0.00     0.261 C 
BRANCH   9  10
HETATM   10  N3  UNL     1       3.704   0.334  -2.040  1.00  0.00     0.088 N 
HETATM   11  H13 UNL     1       4.170  -0.593  -1.744  1.00  0.00     0.313 HD
HETATM   12  H14 UNL     1       3.183   0.083  -2.890  1.00  0.00     0.313 HD
ENDBRANCH   9  10
BRANCH   9  13
HETATM   13  C12 UNL     1       3.639   0.776   0.217  1.00  0.00    -0.003 A 
HETATM   14  C13 UNL     1       3.835  -0.042   1.339  1.00  0.00     0.011 A 
HETATM   15  C14 UNL     1       4.830   0.303   2.241  1.00  0.00     0.001 A 
HETATM   16  C15 UNL     1       5.640   1.409   2.094  1.00  0.00     0.002 A 
HETATM   17  C16 UNL     1       5.454   2.236   0.980  1.00  0.00     0.024 A 
HETATM   18  C17 UNL     1       4.465   1.896   0.079  1.00  0.00     0.042 A 
HETATM   19 CL1  UNL     1       4.285   2.990  -1.294  1.00  0.00    -0.084 Cl
ENDBRANCH   9  13
ENDBRANCH   8   9
ENDBRANCH   7   8
ENDBRANCH   6   7
BRANCH   1  20
HETATM   20  C5  UNL     1      -2.912   0.006  -0.454  1.00  0.00     0.039 A 
HETATM   21  C4  UNL     1      -3.413  -0.034   0.871  1.00  0.00     0.030 A 
HETATM   22  C3  UNL     1      -4.314   0.854   1.407  1.00  0.00     0.009 A 
HETATM   23  C2  UNL     1      -4.763   1.856   0.593  1.00  0.00    -0.062 A 
HETATM   24  C1  UNL     1      -5.714   2.856   1.108  1.00  0.00     0.048 C 
HETATM   25  C19 UNL     1      -4.295   1.921  -0.702  1.00  0.00     0.009 A 
HETATM   26  C18 UNL     1      -3.384   1.024  -1.244  1.00  0.00     0.030 A 
ENDBRANCH   1  20
BRANCH   5  27
HETATM   27  N2  UNL     1       0.224  -3.704   0.145  1.00  0.00    -0.400 N 
HETATM   28  H7  UNL     1       1.222  -3.537  -0.047  1.00  0.00     0.156 HD
HETATM   29  H8  UNL     1      -0.092  -4.368   0.874  1.00  0.00     0.156 HD
ENDBRANCH   5  27
TORSDOF 7
