REMARK  3 active torsions:
REMARK  status: ('A' for Active; 'I' for Inactive)
REMARK    1  A    between atoms: S1_1  and  N1_2 
REMARK    2  A    between atoms: N1_2  and  N2_3 
REMARK    3  A    between atoms: N2_3  and  N3_4 
ROOT
HETATM    1  N3  UNL     1       2.381   0.333  -0.191  1.00  0.00    -0.267 N 
HETATM    2  C1  UNL     1       2.014  -0.501  -1.347  1.00  0.00     0.229 C 
HETATM    3  N4  UNL     1       2.001  -1.852  -1.358  1.00  0.00    -0.236 NA
HETATM    4  C2  UNL     1       1.585  -2.423  -2.675  1.00  0.00     0.234 C 
HETATM    5  N5  UNL     1       0.253  -2.157  -2.714  1.00  0.00    -0.242 NA
HETATM    6  C3  UNL     1      -0.254  -1.457  -1.538  1.00  0.00     0.066 C 
HETATM    7  C4  UNL     1      -0.975  -0.622  -2.165  1.00  0.00     0.015 C 
HETATM    8  C5  UNL     1      -1.800   0.456  -1.828  1.00  0.00     0.044 C 
HETATM    9  C6  UNL     1      -2.466   1.376  -1.312  1.00  0.00    -0.021 C 
HETATM   10  C7  UNL     1      -3.268   2.466  -0.777  1.00  0.00    -0.025 C 
HETATM   11  C8  UNL     1      -3.280   2.958   0.559  1.00  0.00     0.015 C 
HETATM   12  C9  UNL     1      -2.548   2.660   1.954  1.00  0.00     0.009 C 
HETATM   13  C10 UNL     1      -1.565   1.658   1.608  1.00  0.00     0.005 C 
HETATM   14  C11 UNL     1      -0.446   1.133   2.403  1.00  0.00     0.041 C 
HETATM   15  C12 UNL     1       0.374   0.326   1.328  1.00  0.00    -0.030 C 
HETATM   16  C13 UNL     1       1.492   0.894   0.819  1.00  0.00     0.121 C 
HETATM   17  C14 UNL     1       0.225  -1.034   0.753  1.00  0.00    -0.016 A 
HETATM   18  C15 UNL     1       0.375  -1.530   2.096  1.00  0.00     0.013 A 
HETATM   19  C16 UNL     1       0.373  -2.931   2.292  1.00  0.00     0.001 A 
HETATM   20  C17 UNL     1       0.234  -4.000   1.244  1.00  0.00     0.001 A 
HETATM   21  C18 UNL     1       0.096  -3.249   0.044  1.00  0.00     0.014 A 
HETATM   22  C19 UNL     1       0.092  -1.940  -0.153  1.00  0.00     0.003 A 
ENDROOT
BRANCH   1  23
HETATM   23  N2  UNL     1       3.732   0.458  -0.397  1.00  0.00    -0.154 NA
HETATM   24  H3  UNL     1       4.306  -0.392  -0.497  1.00  0.00     0.168 HD
BRANCH  23  25
HETATM   25  N1  UNL     1       3.921   1.346  -1.548  1.00  0.00    -0.185 NA
HETATM   26  H2  UNL     1       3.586   0.739  -2.389  1.00  0.00     0.156 HD
BRANCH  25  27
HETATM   27  S1  UNL     1       2.651   2.601  -1.272  1.00  0.00    -0.081 SA
HETATM   28  H1  UNL     1       1.412   1.949  -1.415  1.00  0.00     0.120 HD
ENDBRANCH  25  27
ENDBRANCH  23  25
ENDBRANCH   1  23
TORSDOF 3
