REMARK  6 active torsions:
REMARK  status: ('A' for Active; 'I' for Inactive)
REMARK    1  A    between atoms: C7_7  and  C8_8 
REMARK    2  A    between atoms: C8_8  and  C9_9 
REMARK    3  A    between atoms: C8_8  and  C15_20 
REMARK    4  A    between atoms: C9_9  and  N1_10 
REMARK    5  A    between atoms: C20_25  and  O1_26 
REMARK    6  A    between atoms: O1_26  and  S1_27 
ROOT
HETATM    1  C8  UNL     1      -1.416   0.477   0.174  1.00  0.00     0.005 C 
ENDROOT
BRANCH   1   2
HETATM    2  C7  UNL     1      -2.044   1.770   0.030  1.00  0.00    -0.018 A 
HETATM    3  C2  UNL     1      -1.571   2.958  -0.426  1.00  0.00    -0.051 A 
HETATM    4  C1  UNL     1      -0.238   2.973  -1.072  1.00  0.00     0.049 C 
HETATM    5  C3  UNL     1      -2.264   4.147  -0.366  1.00  0.00     0.007 A 
HETATM    6  C4  UNL     1      -3.519   4.207   0.176  1.00  0.00     0.001 A 
HETATM    7  C5  UNL     1      -4.053   3.012   0.659  1.00  0.00     0.001 A 
HETATM    8  C6  UNL     1      -3.308   1.847   0.573  1.00  0.00     0.013 A 
ENDBRANCH   1   2
BRANCH   1   9
HETATM    9  C9  UNL     1      -0.124   0.270   0.289  1.00  0.00     0.132 C 
BRANCH   9  10
HETATM   10  N1  UNL     1       1.198  -0.188   0.424  1.00  0.00    -0.245 NA
HETATM   11  C10 UNL     1       1.772  -0.834  -0.542  1.00  0.00     0.128 C 
HETATM   12  C11 UNL     1       2.353  -1.566  -1.697  1.00  0.00     0.102 C 
HETATM   13  N5  UNL     1       2.950  -0.973   0.197  1.00  0.00    -0.227 NA
HETATM   14  C12 UNL     1       3.838  -1.469  -1.783  1.00  0.00     0.157 C 
HETATM   15  N2  UNL     1       4.366  -0.130  -1.819  1.00  0.00    -0.283 NA
HETATM   16  C13 UNL     1       5.173   0.268  -0.879  1.00  0.00     0.216 C 
HETATM   17  N3  UNL     1       5.583  -0.571   0.227  1.00  0.00    -0.294 N 
HETATM   18  N4  UNL     1       4.512  -1.024   1.056  1.00  0.00    -0.293 N 
HETATM   19  H14 UNL     1       6.530  -0.897   0.514  1.00  0.00     0.187 HD
HETATM   20  C14 UNL     1       3.279  -1.789   1.098  1.00  0.00     0.225 C 
HETATM   21  H15 UNL     1       4.730  -0.631   2.022  1.00  0.00     0.187 HD
ENDBRANCH   9  10
ENDBRANCH   1   9
BRANCH   1  22
HETATM   22  C15 UNL     1      -2.175  -0.760   0.192  1.00  0.00     0.011 A 
HETATM   23  C16 UNL     1      -3.449  -0.941  -0.305  1.00  0.00     0.015 A 
HETATM   24  C17 UNL     1      -4.230  -2.059  -0.250  1.00  0.00     0.001 A 
HETATM   25  C18 UNL     1      -3.711  -3.151   0.365  1.00  0.00     0.003 A 
HETATM   26  C19 UNL     1      -2.447  -3.072   0.892  1.00  0.00     0.039 A 
HETATM   27  C20 UNL     1      -1.720  -1.907   0.799  1.00  0.00     0.095 A 
BRANCH  27  28
HETATM   28  O1  UNL     1      -0.471  -2.011   1.392  1.00  0.00    -0.281 OA
BRANCH  28  29
HETATM   29  S1  UNL     1      -0.224  -1.644   3.080  1.00  0.00    -0.017 SA
HETATM   30  H21 UNL     1      -1.418  -1.668   3.809  1.00  0.00     0.134 HD
ENDBRANCH  28  29
ENDBRANCH  27  28
ENDBRANCH   1  22
TORSDOF 6
