REMARK  3 active torsions:
REMARK  status: ('A' for Active; 'I' for Inactive)
REMARK    1  A    between atoms: C3_4  and  C4_5 
REMARK    2  A    between atoms: C10_11  and  C11_12 
REMARK    3  A    between atoms: C11_12  and  C12_13 
ROOT
HETATM    1  O1  UNL     1      -2.245  -1.360  -0.653  1.00  0.00    -0.266 OA
HETATM    2  C1  UNL     1      -2.518  -0.174  -0.336  1.00  0.00     0.278 A 
HETATM    3  C2  UNL     1      -1.531   0.623   0.198  1.00  0.00     0.093 A 
HETATM    4  C3  UNL     1      -0.223   0.195   0.418  1.00  0.00     0.002 A 
HETATM    5  C10 UNL     1       0.752   1.003   0.956  1.00  0.00    -0.027 A 
HETATM    6  C18 UNL     1       0.301   2.291   1.258  1.00  0.00     0.127 A 
HETATM    7  N1  UNL     1      -0.954   2.722   1.053  1.00  0.00    -0.239 NA
HETATM    8  C19 UNL     1      -1.899   1.912   0.523  1.00  0.00     0.184 A 
HETATM    9  N2  UNL     1      -3.148   2.366   0.330  1.00  0.00    -0.043 NA
HETATM   10  C20 UNL     1      -4.104   1.564  -0.198  1.00  0.00     0.723 A 
HETATM   11  N3  UNL     1      -3.784   0.299  -0.528  1.00  0.00    -0.130 N 
HETATM   12  C21 UNL     1      -4.926  -0.412  -1.076  1.00  0.00     0.262 C 
HETATM   13  N4  UNL     1      -6.030   0.450  -0.720  1.00  0.00    -0.207 NA
HETATM   14  N5  UNL     1      -5.493   1.722  -0.527  1.00  0.00    -0.150 N 
HETATM   15  H16 UNL     1      -6.523   0.087   0.124  1.00  0.00     0.149 HD
HETATM   16  H17 UNL     1      -5.978   2.625  -0.601  1.00  0.00     0.199 HD
ENDROOT
BRANCH   5  17
HETATM   17  C11 UNL     1       2.123   0.572   1.194  1.00  0.00     0.053 C 
BRANCH  17  18
HETATM   18  C12 UNL     1       3.031   0.531   0.007  1.00  0.00     0.036 C 
HETATM   19  C13 UNL     1       4.361   0.048   0.535  1.00  0.00    -0.006 C 
HETATM   20  C14 UNL     1       5.331  -0.003  -0.364  1.00  0.00    -0.029 C 
HETATM   21  C15 UNL     1       5.514   1.128  -1.017  1.00  0.00     0.011 C 
HETATM   22  C16 UNL     1       4.492   2.189  -1.033  1.00  0.00    -0.002 C 
HETATM   23  C17 UNL     1       3.284   1.911  -0.539  1.00  0.00    -0.018 C 
ENDBRANCH  17  18
ENDBRANCH   5  17
BRANCH   4  24
HETATM   24  C4  UNL     1       0.046  -1.188   0.048  1.00  0.00    -0.024 A 
HETATM   25  C5  UNL     1      -0.141  -2.025   1.151  1.00  0.00     0.012 A 
HETATM   26  C6  UNL     1       0.047  -3.400   1.057  1.00  0.00     0.001 A 
HETATM   27  C7  UNL     1       0.430  -3.944  -0.167  1.00  0.00     0.000 A 
HETATM   28  C8  UNL     1       0.614  -3.115  -1.253  1.00  0.00     0.001 A 
HETATM   29  C9  UNL     1       0.427  -1.754  -1.158  1.00  0.00     0.012 A 
ENDBRANCH   4  24
TORSDOF 3
