REMARK  4 active torsions:
REMARK  status: ('A' for Active; 'I' for Inactive)
REMARK    1  A    between atoms: C5_5  and  C6_6 
REMARK       I    between atoms: C6_6  and  N1_8 
REMARK    2  A    between atoms: N1_8  and  S1_9 
REMARK    3  A    between atoms: S1_9  and  S2_11 
REMARK    4  A    between atoms: S1_9  and  C7_13 
ROOT
HETATM    1  C6  UNL     1       0.540  -0.222   0.040  1.00  0.00     0.266 C 
HETATM    2  O1  UNL     1      -0.288  -1.151  -0.253  1.00  0.00    -0.267 OA
HETATM    3  N1  UNL     1      -0.067   1.051   0.375  1.00  0.00    -0.269 N 
HETATM    4  H6  UNL     1       0.639   1.791   0.609  1.00  0.00     0.180 HD
ENDROOT
BRANCH   3   5
HETATM    5  S1  UNL     1      -1.651   1.467   0.433  1.00  0.00     0.143 S 
HETATM    6  O2  UNL     1      -1.785   2.756  -0.320  1.00  0.00    -0.231 OA
BRANCH   5   7
HETATM    7  S2  UNL     1      -1.789   1.484   2.144  1.00  0.00     0.148 SA
HETATM    8  O3  UNL     1      -2.021   2.663   2.332  1.00  0.00    -0.134 OA
ENDBRANCH   5   7
BRANCH   5   9
HETATM    9  C7  UNL     1      -2.974   0.550   0.126  1.00  0.00     0.051 A 
HETATM   10  C8  UNL     1      -3.487   0.555  -1.193  1.00  0.00     0.023 A 
HETATM   11  C9  UNL     1      -4.573  -0.145  -1.644  1.00  0.00     0.001 A 
HETATM   12  C10 UNL     1      -5.252  -0.933  -0.774  1.00  0.00     0.000 A 
HETATM   13  C11 UNL     1      -4.883  -1.044   0.524  1.00  0.00     0.001 A 
HETATM   14  C12 UNL     1      -3.780  -0.309   0.904  1.00  0.00     0.023 A 
ENDBRANCH   5   9
ENDBRANCH   3   5
BRANCH   1  15
HETATM   15  C5  UNL     1       2.010  -0.377   0.053  1.00  0.00     0.073 A 
HETATM   16  C4  UNL     1       2.690   0.436  -0.860  1.00  0.00     0.022 A 
HETATM   17  C3  UNL     1       4.060   0.340  -0.890  1.00  0.00     0.028 A 
HETATM   18  C2  UNL     1       4.663  -0.552  -0.019  1.00  0.00     0.032 A 
HETATM   19  C1  UNL     1       6.143  -0.768   0.066  1.00  0.00     0.070 C 
HETATM   20  N2  UNL     1       3.939  -1.314   0.844  1.00  0.00    -0.241 NA
HETATM   21  C13 UNL     1       2.591  -1.253   0.910  1.00  0.00     0.142 A 
HETATM   22 CL1  UNL     1       1.661  -2.238   2.024  1.00  0.00    -0.061 Cl
ENDBRANCH   1  15
TORSDOF 4
