REMARK  1 active torsions:
REMARK  status: ('A' for Active; 'I' for Inactive)
REMARK    1  A    between atoms: N5_24  and  C17_25 
ROOT
HETATM    1  C1  UNL     1      -0.955  -3.284   2.052  1.00  0.00     0.021 C 
HETATM    2  C2  UNL     1      -0.786  -2.069   2.644  1.00  0.00     0.109 C 
HETATM    3  N1  UNL     1      -0.762  -0.776   1.985  1.00  0.00    -0.291 N 
HETATM    4  N2  UNL     1      -1.281  -0.169   0.801  1.00  0.00    -0.179 N 
HETATM    5  N3  UNL     1      -0.588   0.962   0.632  1.00  0.00    -0.139 NA
HETATM    6  C3  UNL     1       0.328   1.370  -0.054  1.00  0.00     0.147 C 
HETATM    7  C4  UNL     1       0.610   2.767   0.267  1.00  0.00     0.196 C 
HETATM    8  N4  UNL     1      -0.190   3.667  -0.599  1.00  0.00    -0.399 N 
HETATM    9  C5  UNL     1      -1.554   3.091  -0.553  1.00  0.00     0.075 A 
HETATM   10  C6  UNL     1      -1.265   2.770  -1.827  1.00  0.00    -0.007 A 
HETATM   11  C7  UNL     1      -2.113   1.789  -1.388  1.00  0.00     0.084 A 
HETATM   12  C8  UNL     1      -2.570   1.889  -0.060  1.00  0.00     0.120 A 
HETATM   13  C9  UNL     1      -2.705   2.410   1.160  1.00  0.00     0.013 A 
HETATM   14  C10 UNL     1      -1.856   3.407   0.745  1.00  0.00     0.008 A 
HETATM   15  O1  UNL     1      -3.284   0.608  -0.165  1.00  0.00    -0.344 OA
HETATM   16  C11 UNL     1      -2.320  -0.482  -0.147  1.00  0.00     0.272 C 
HETATM   17  C12 UNL     1      -2.942  -1.799  -0.148  1.00  0.00     0.121 C 
HETATM   18  C13 UNL     1      -1.856  -2.858  -0.249  1.00  0.00     0.051 C 
HETATM   19  C14 UNL     1      -1.322  -3.702   0.657  1.00  0.00     0.034 C 
HETATM   20  O2  UNL     1      -1.208  -3.066  -1.512  1.00  0.00    -0.345 OA
HETATM   21  C15 UNL     1       0.202  -2.955  -1.365  1.00  0.00     0.250 C 
HETATM   22  S1  UNL     1       1.071  -1.834  -2.393  1.00  0.00    -0.122 SA
HETATM   23  C16 UNL     1       0.768  -0.101  -2.256  1.00  0.00     0.206 C 
HETATM   24  N5  UNL     1       0.974   0.503  -0.974  1.00  0.00    -0.323 N 
HETATM   25  H3  UNL     1      -0.182  -0.140   2.610  1.00  0.00     0.188 HD
HETATM   26  H6  UNL     1       0.345   4.494  -1.034  1.00  0.00     0.155 HD
ENDROOT
BRANCH  24  27
HETATM   27  C17 UNL     1       2.142   0.290  -0.236  1.00  0.00     0.036 A 
HETATM   28  C18 UNL     1       3.128  -0.268  -1.067  1.00  0.00     0.029 A 
HETATM   29  C19 UNL     1       4.390  -0.606  -0.546  1.00  0.00     0.002 A 
HETATM   30  C20 UNL     1       4.738  -0.412   0.798  1.00  0.00     0.000 A 
HETATM   31  C21 UNL     1       3.774   0.137   1.612  1.00  0.00     0.002 A 
HETATM   32  C22 UNL     1       2.563   0.444   1.043  1.00  0.00     0.029 A 
ENDBRANCH  24  27
TORSDOF 1
