REMARK  6 active torsions:
REMARK  status: ('A' for Active; 'I' for Inactive)
REMARK    1  A    between atoms: C2_5  and  N3_6 
REMARK    2  A    between atoms: C2_5  and  C3_7 
REMARK       I    between atoms: C3_7  and  N4_9 
REMARK    3  A    between atoms: N4_9  and  C4_10 
REMARK    4  A    between atoms: C7_13  and  C8_14 
REMARK    5  A    between atoms: C8_14  and  O3_16 
REMARK    6  A    between atoms: O3_16  and  C9_17 
ROOT
HETATM    1  B1  UNL     1      -7.153  -2.950   1.694  1.00  0.00     0.224 B 
HETATM    2  C1  UNL     1      -5.836  -1.007   1.385  1.00  0.00    -0.137 C 
HETATM    3  N1  UNL     1      -5.112   0.055   1.193  1.00  0.00    -0.259 N 
HETATM    4  N2  UNL     1      -4.405   1.009   1.823  1.00  0.00    -0.176 NA
HETATM    5  C2  UNL     1      -3.883   1.426   0.530  1.00  0.00     0.350 C 
HETATM    6  C13 UNL     1      -4.877   0.508  -0.120  1.00  0.00     0.091 C 
HETATM    7  C14 UNL     1      -5.240   0.341  -1.405  1.00  0.00     0.045 C 
HETATM    8  H1  UNL     1      -3.729   0.721   2.541  1.00  0.00     0.151 HD
ENDROOT
BRANCH   5   9
HETATM    9  N3  UNL     1      -4.170   2.813   0.249  1.00  0.00     0.119 N 
HETATM   10  H2  UNL     1      -3.588   3.431   0.835  1.00  0.00     0.316 HD
HETATM   11  H3  UNL     1      -3.988   3.041  -0.749  1.00  0.00     0.316 HD
ENDBRANCH   5   9
BRANCH   5  12
HETATM   12  C3  UNL     1      -2.484   1.024   0.354  1.00  0.00     0.284 C 
HETATM   13  O1  UNL     1      -2.169   1.441  -0.789  1.00  0.00    -0.268 OA
HETATM   14  N4  UNL     1      -1.521   0.341   1.118  1.00  0.00    -0.323 N 
HETATM   15  H4  UNL     1      -1.932   0.060   2.030  1.00  0.00     0.169 HD
BRANCH  14  16
HETATM   16  C4  UNL     1      -0.187   0.027   0.802  1.00  0.00     0.034 A 
HETATM   17  C5  UNL     1       0.542  -0.659   1.747  1.00  0.00     0.030 A 
HETATM   18  C6  UNL     1       1.856  -1.017   1.540  1.00  0.00     0.020 A 
HETATM   19  C7  UNL     1       2.493  -0.693   0.361  1.00  0.00     0.039 A 
HETATM   20  C11 UNL     1       1.804  -0.009  -0.608  1.00  0.00     0.020 A 
HETATM   21  C12 UNL     1       0.495   0.324  -0.353  1.00  0.00     0.030 A 
BRANCH  19  22
HETATM   22  C8  UNL     1       3.885  -1.081   0.163  1.00  0.00     0.293 C 
HETATM   23  O2  UNL     1       4.459  -1.710   1.098  1.00  0.00    -0.259 OA
BRANCH  22  24
HETATM   24  O3  UNL     1       4.537  -0.760  -1.022  1.00  0.00    -0.318 OA
BRANCH  24  25
HETATM   25  C9  UNL     1       5.879  -1.124  -1.235  1.00  0.00     0.174 C 
HETATM   26  C10 UNL     1       6.815  -0.537  -0.225  1.00  0.00     0.034 C 
ENDBRANCH  24  25
ENDBRANCH  22  24
ENDBRANCH  19  22
ENDBRANCH  14  16
ENDBRANCH   5  12
TORSDOF 6
