REMARK  3 active torsions:
REMARK  status: ('A' for Active; 'I' for Inactive)
REMARK       I    between atoms: C1_2  and  N1_3 
REMARK    1  A    between atoms: C1_2  and  C8_14 
REMARK    2  A    between atoms: N1_3  and  S1_4 
REMARK    3  A    between atoms: S1_4  and  C2_7 
ROOT
HETATM    1  O1  UNL     1       1.480  -1.451  -1.759  1.00  0.00    -0.267 OA
HETATM    2  C1  UNL     1       1.597  -0.733  -0.727  1.00  0.00     0.266 C 
HETATM    3  N1  UNL     1       0.375  -0.215  -0.237  1.00  0.00    -0.246 N 
HETATM    4  H1  UNL     1       0.343   0.383   0.597  1.00  0.00     0.182 HD
ENDROOT
BRANCH   3   5
HETATM    5  S1  UNL     1      -1.032  -0.635  -1.100  1.00  0.00     0.265 S 
HETATM    6  O2  UNL     1      -1.138  -2.129  -1.161  1.00  0.00    -0.200 OA
HETATM    7  O3  UNL     1      -0.837  -0.152  -2.529  1.00  0.00    -0.200 OA
BRANCH   5   8
HETATM    8  C2  UNL     1      -2.481   0.056  -0.411  1.00  0.00     0.080 A 
HETATM    9  C3  UNL     1      -3.109  -0.741   0.552  1.00  0.00     0.027 A 
HETATM   10  C4  UNL     1      -4.268  -0.357   1.206  1.00  0.00     0.025 A 
HETATM   11  C5  UNL     1      -4.810   0.863   0.882  1.00  0.00     0.034 A 
HETATM   12 CL1  UNL     1      -6.289   1.418   1.678  1.00  0.00    -0.084 Cl
HETATM   13  C6  UNL     1      -4.209   1.655  -0.056  1.00  0.00     0.025 A 
HETATM   14  C7  UNL     1      -3.055   1.269  -0.706  1.00  0.00     0.027 A 
ENDBRANCH   5   8
ENDBRANCH   3   5
BRANCH   2  15
HETATM   15  C8  UNL     1       2.879  -0.456  -0.088  1.00  0.00     0.050 A 
HETATM   16  C9  UNL     1       3.019   0.327   1.040  1.00  0.00     0.022 A 
HETATM   17  C10 UNL     1       4.250   0.567   1.616  1.00  0.00     0.045 A 
HETATM   18  C11 UNL     1       5.301  -0.045   0.962  1.00  0.00     0.125 A 
HETATM   19 CL2  UNL     1       6.921   0.195   1.615  1.00  0.00    -0.062 Cl
HETATM   20  N2  UNL     1       5.227  -0.816  -0.137  1.00  0.00    -0.248 NA
HETATM   21  C12 UNL     1       4.007  -1.035  -0.681  1.00  0.00     0.135 A 
ENDBRANCH   2  15
TORSDOF 3
