REMARK  9 active torsions:
REMARK  status: ('A' for Active; 'I' for Inactive)
REMARK    1  A    between atoms: O1_2  and  C2_3 
REMARK    2  A    between atoms: C4_5  and  O2_6 
REMARK    3  A    between atoms: O2_6  and  C5_7 
REMARK    4  A    between atoms: N1_10  and  S1_11 
REMARK    5  A    between atoms: C12_18  and  N2_19 
REMARK    6  A    between atoms: N2_19  and  C13_20 
REMARK    7  A    between atoms: C13_20  and  C14_21 
REMARK    8  A    between atoms: C14_21  and  C15_22 
REMARK    9  A    between atoms: C16_24  and  C17_25 
ROOT
HETATM    1  C2  UNL     1      -1.474   3.460   1.089  1.00  0.00     0.073 A 
HETATM    2  C3  UNL     1      -0.611   2.393   0.793  1.00  0.00     0.074 A 
HETATM    3  C4  UNL     1      -1.023   1.057   0.595  1.00  0.00     0.088 A 
HETATM    4  C11 UNL     1      -2.365   0.844   0.708  1.00  0.00     0.072 A 
HETATM    5  C12 UNL     1      -2.752  -0.449   0.506  1.00  0.00     0.144 A 
HETATM    6  N3  UNL     1      -4.044  -0.749   0.596  1.00  0.00    -0.223 NA
HETATM    7  C18 UNL     1      -4.952   0.193   0.878  1.00  0.00     0.236 A 
HETATM    8  N4  UNL     1      -4.515   1.427   1.061  1.00  0.00    -0.241 NA
HETATM    9  C19 UNL     1      -3.258   1.844   0.997  1.00  0.00     0.077 A 
HETATM   10  C20 UNL     1      -2.833   3.128   1.185  1.00  0.00     0.069 A 
ENDROOT
BRANCH   3  11
HETATM   11  O2  UNL     1       0.041   0.411   0.358  1.00  0.00    -0.345 OA
BRANCH  11  12
HETATM   12  C5  UNL     1       1.137  -0.277   0.112  1.00  0.00     0.131 C 
HETATM   13  C6  UNL     1       1.367  -0.427  -1.396  1.00  0.00     0.048 C 
HETATM   14  C7  UNL     1       2.837  -0.518  -1.622  1.00  0.00     0.109 C 
HETATM   15  N1  UNL     1       3.515   0.736  -1.348  1.00  0.00    -0.211 NA
HETATM   16  C9  UNL     1       3.150   1.256  -0.052  1.00  0.00     0.109 C 
HETATM   17  C10 UNL     1       2.391   0.260   0.782  1.00  0.00     0.048 C 
BRANCH  15  18
HETATM   18  S1  UNL     1       5.219   0.568  -1.453  1.00  0.00     0.207 S 
HETATM   19  C8  UNL     1       5.825  -0.584  -0.259  1.00  0.00     0.180 C 
HETATM   20  O3  UNL     1       5.877   1.892  -1.210  1.00  0.00    -0.212 OA
HETATM   21  O4  UNL     1       5.617   0.086  -2.825  1.00  0.00    -0.212 OA
ENDBRANCH  15  18
ENDBRANCH  11  12
ENDBRANCH   3  11
BRANCH   1  22
HETATM   22  O1  UNL     1      -1.266   4.800   1.311  1.00  0.00    -0.356 OA
HETATM   23  C1  UNL     1      -0.041   5.477   1.293  1.00  0.00     0.210 C 
ENDBRANCH   1  22
BRANCH   5  24
HETATM   24  N2  UNL     1      -1.821  -1.430   0.149  1.00  0.00    -0.340 N 
HETATM   25  H17 UNL     1      -1.005  -1.984  -0.117  1.00  0.00     0.167 HD
BRANCH  24  26
HETATM   26  C13 UNL     1      -2.297  -2.762   0.031  1.00  0.00     0.033 C 
HETATM   27  C16 UNL     1      -2.201  -3.945   0.586  1.00  0.00     0.033 C 
BRANCH  26  28
HETATM   28  C14 UNL     1      -3.243  -3.006  -1.067  1.00  0.00     0.041 C 
BRANCH  28  29
HETATM   29  C15 UNL     1      -3.637  -2.046  -1.908  1.00  0.00     0.220 C 
HETATM   30 CL1  UNL     1      -4.435  -1.208  -3.210  1.00  0.00    -0.230 Cl
ENDBRANCH  28  29
ENDBRANCH  26  28
BRANCH  27  31
HETATM   31  C17 UNL     1      -2.527  -5.374   0.694  1.00  0.00     0.252 C 
HETATM   32  F1  UNL     1      -3.424  -5.763  -0.302  1.00  0.00    -0.251 F 
ENDBRANCH  27  31
ENDBRANCH  24  26
ENDBRANCH   5  24
TORSDOF 9
