REMARK  3 active torsions:
REMARK  status: ('A' for Active; 'I' for Inactive)
REMARK    1  A    between atoms: C5_5  and  S1_6 
REMARK    2  A    between atoms: S1_6  and  N1_9 
REMARK       I    between atoms: N1_9  and  C6_10 
REMARK    3  A    between atoms: C6_10  and  C7_12 
ROOT
HETATM    1  N1  UNL     1       0.195  -0.135  -1.292  1.00  0.00    -0.246 N 
HETATM    2  C6  UNL     1       0.961   0.911  -0.660  1.00  0.00     0.268 C 
HETATM    3  O3  UNL     1       0.445   2.058  -0.656  1.00  0.00    -0.267 OA
HETATM    4  H6  UNL     1       0.594  -1.114  -1.316  1.00  0.00     0.182 HD
ENDROOT
BRANCH   1   5
HETATM    5  S1  UNL     1      -1.342  -0.025  -2.048  1.00  0.00     0.262 S 
HETATM    6  O1  UNL     1      -1.404  -0.933  -3.254  1.00  0.00    -0.200 OA
HETATM    7  O2  UNL     1      -1.508   1.378  -2.591  1.00  0.00    -0.200 OA
BRANCH   5   8
HETATM    8  C5  UNL     1      -2.648  -0.314  -0.955  1.00  0.00     0.061 A 
HETATM    9  C4  UNL     1      -3.142  -1.527  -0.745  1.00  0.00     0.021 A 
HETATM   10  C3  UNL     1      -4.235  -1.437   0.230  1.00  0.00     0.004 A 
HETATM   11  C2  UNL     1      -4.366  -0.169   0.579  1.00  0.00    -0.079 A 
HETATM   12  C1  UNL     1      -5.383   0.297   1.557  1.00  0.00     0.044 C 
HETATM   13  C13 UNL     1      -3.382   0.700  -0.123  1.00  0.00     0.086 A 
ENDBRANCH   5   8
ENDBRANCH   1   5
BRANCH   2  14
HETATM   14  C7  UNL     1       2.265   0.506  -0.091  1.00  0.00     0.073 A 
HETATM   15  C8  UNL     1       3.347   1.160  -0.683  1.00  0.00     0.022 A 
HETATM   16  C9  UNL     1       4.641   0.873  -0.246  1.00  0.00     0.028 A 
HETATM   17  C10 UNL     1       4.768  -0.059   0.764  1.00  0.00     0.032 A 
HETATM   18  C11 UNL     1       6.133  -0.402   1.267  1.00  0.00     0.070 C 
HETATM   19  N2  UNL     1       3.722  -0.679   1.323  1.00  0.00    -0.241 NA
HETATM   20  C12 UNL     1       2.469  -0.417   0.917  1.00  0.00     0.142 A 
HETATM   21 CL1  UNL     1       1.014  -1.158   1.564  1.00  0.00    -0.061 Cl
ENDBRANCH   2  14
TORSDOF 3
