REMARK  3 active torsions:
REMARK  status: ('A' for Active; 'I' for Inactive)
REMARK    1  A    between atoms: C5_5  and  C6_6 
REMARK       I    between atoms: C6_6  and  N1_8 
REMARK    2  A    between atoms: N1_8  and  S1_9 
REMARK    3  A    between atoms: S1_9  and  C7_12 
ROOT
HETATM    1  C6  UNL     1       0.970  -1.240  -0.840  1.00  0.00     0.267 C 
HETATM    2  O1  UNL     1       1.028  -2.353  -1.409  1.00  0.00    -0.267 OA
HETATM    3  N1  UNL     1      -0.316  -0.724  -0.466  1.00  0.00    -0.246 N 
HETATM    4  H6  UNL     1      -0.338   0.218   0.013  1.00  0.00     0.182 HD
ENDROOT
BRANCH   3   5
HETATM    5  S1  UNL     1      -1.814  -1.534  -0.744  1.00  0.00     0.265 S 
HETATM    6  O2  UNL     1      -1.960  -1.714  -2.228  1.00  0.00    -0.200 OA
HETATM    7  O3  UNL     1      -1.770  -2.873  -0.051  1.00  0.00    -0.200 OA
BRANCH   5   8
HETATM    8  C7  UNL     1      -3.170  -0.607  -0.157  1.00  0.00     0.080 A 
HETATM    9  C8  UNL     1      -3.679  -0.718   1.127  1.00  0.00     0.027 A 
HETATM   10  C9  UNL     1      -4.748   0.018   1.577  1.00  0.00     0.020 A 
HETATM   11  C10 UNL     1      -5.339   0.908   0.707  1.00  0.00     0.011 A 
HETATM   12 BR1  UNL     1      -6.839   1.963   1.288  1.00  0.00    -0.051 Br
HETATM   13  C11 UNL     1      -4.891   1.077  -0.591  1.00  0.00     0.020 A 
HETATM   14  C12 UNL     1      -3.799   0.301  -0.992  1.00  0.00     0.027 A 
ENDBRANCH   5   8
ENDBRANCH   3   5
BRANCH   1  15
HETATM   15  C5  UNL     1       2.179  -0.440  -0.542  1.00  0.00     0.056 A 
HETATM   16  C4  UNL     1       3.150  -0.948   0.292  1.00  0.00     0.019 A 
HETATM   17  C3  UNL     1       4.327  -0.411   0.708  1.00  0.00     0.009 A 
HETATM   18  C2  UNL     1       4.697   0.857   0.271  1.00  0.00    -0.046 A 
HETATM   19  C1  UNL     1       5.988   1.510   0.694  1.00  0.00     0.049 C 
HETATM   20  P1  UNL     1       3.645   1.727  -0.798  1.00  0.00    -0.002 P 
HETATM   21  C13 UNL     1       2.194   0.809  -1.178  1.00  0.00     0.063 A 
HETATM   22 CL1  UNL     1       0.894   1.344  -2.218  1.00  0.00    -0.082 Cl
ENDBRANCH   1  15
TORSDOF 3
