REMARK  5 active torsions:
REMARK  status: ('A' for Active; 'I' for Inactive)
REMARK    1  A    between atoms: C3_3  and  N1_4 
REMARK    2  A    between atoms: C4_5  and  C6_7 
REMARK    3  A    between atoms: C6_7  and  C7_8 
REMARK       I    between atoms: C7_8  and  N2_10 
REMARK    4  A    between atoms: N2_10  and  S1_11 
REMARK    5  A    between atoms: S1_11  and  C8_14 
ROOT
HETATM    1  C7  UNL     1      -0.626  -0.643  -0.147  1.00  0.00     0.236 C 
HETATM    2  O1  UNL     1       0.363   0.127   0.015  1.00  0.00    -0.272 OA
HETATM    3  N2  UNL     1      -0.275  -1.889  -0.738  1.00  0.00    -0.250 N 
HETATM    4  H11 UNL     1      -0.906  -2.701  -0.978  1.00  0.00     0.181 HD
ENDROOT
BRANCH   3   5
HETATM    5  S1  UNL     1       1.334  -2.296  -1.181  1.00  0.00     0.265 S 
HETATM    6  O2  UNL     1       1.745  -3.585  -0.490  1.00  0.00    -0.200 OA
HETATM    7  O3  UNL     1       1.434  -2.617  -2.659  1.00  0.00    -0.200 OA
BRANCH   5   8
HETATM    8  C8  UNL     1       2.481  -1.022  -0.830  1.00  0.00     0.080 A 
HETATM    9  C9  UNL     1       2.838  -0.002  -1.687  1.00  0.00     0.026 A 
HETATM   10  C10 UNL     1       3.767   0.923  -1.236  1.00  0.00     0.008 A 
HETATM   11  C11 UNL     1       4.309   0.825   0.014  1.00  0.00    -0.062 A 
HETATM   12  C12 UNL     1       5.308   1.857   0.441  1.00  0.00     0.048 C 
HETATM   13  C13 UNL     1       3.972  -0.179   0.886  1.00  0.00     0.008 A 
HETATM   14  C14 UNL     1       3.043  -1.107   0.441  1.00  0.00     0.026 A 
ENDBRANCH   5   8
ENDBRANCH   3   5
BRANCH   1  15
HETATM   15  C6  UNL     1      -2.083  -0.559   0.132  1.00  0.00     0.158 C 
BRANCH  15  16
HETATM   16  C4  UNL     1      -2.464   0.729   0.745  1.00  0.00     0.017 C 
HETATM   17  N1  UNL     1      -3.322   1.533   0.165  1.00  0.00    -0.270 NA
HETATM   18  C5  UNL     1      -1.840   1.083   2.047  1.00  0.00     0.066 C 
BRANCH  17  19
HETATM   19  C3  UNL     1      -3.893   1.131  -1.097  1.00  0.00     0.112 C 
HETATM   20  C2  UNL     1      -4.914   0.325  -0.785  1.00  0.00    -0.012 C 
HETATM   21  C1  UNL     1      -5.247   0.018   0.614  1.00  0.00     0.037 C 
ENDBRANCH  17  19
ENDBRANCH  15  16
ENDBRANCH   1  15
TORSDOF 5
