REMARK  9 active torsions:
REMARK  status: ('A' for Active; 'I' for Inactive)
REMARK    1  A    between atoms: C2_2  and  C3_3 
REMARK    2  A    between atoms: C2_2  and  N2_15 
REMARK    3  A    between atoms: C3_3  and  C4_4 
REMARK    4  A    between atoms: C4_4  and  N1_5 
REMARK    5  A    between atoms: N1_5  and  S1_6 
REMARK    6  A    between atoms: S1_6  and  C5_9 
REMARK       I    between atoms: N2_15  and  C11_16 
REMARK    7  A    between atoms: C11_16  and  C12_18 
REMARK    8  A    between atoms: C12_18  and  C13_19 
REMARK    9  A    between atoms: C13_19  and  C14_20 
ROOT
HETATM    1  C4  UNL     1      -1.166   2.713   0.264  1.00  0.00     0.157 C 
ENDROOT
BRANCH   1   2
HETATM    2  C3  UNL     1       0.104   2.338   0.268  1.00  0.00    -0.086 C 
BRANCH   2   3
HETATM    3  C2  UNL     1       1.288   1.866  -0.107  1.00  0.00     0.055 C 
HETATM    4  C1  UNL     1       2.206   2.839  -0.661  1.00  0.00     0.078 C 
BRANCH   3   5
HETATM    5  N2  UNL     1       1.484   0.503   0.082  1.00  0.00    -0.324 N 
HETATM    6  C11 UNL     1       2.745  -0.023  -0.313  1.00  0.00     0.222 C 
HETATM    7  O3  UNL     1       3.709   0.612  -0.816  1.00  0.00    -0.273 OA
HETATM    8  H11 UNL     1       0.800  -0.147   0.478  1.00  0.00     0.169 HD
BRANCH   6   9
HETATM    9  C12 UNL     1       3.011  -1.472  -0.135  1.00  0.00     0.104 C 
BRANCH   9  10
HETATM   10  C13 UNL     1       4.371  -1.877  -0.590  1.00  0.00     0.024 C 
BRANCH  10  11
HETATM   11  C14 UNL     1       4.517  -3.378  -0.355  1.00  0.00     0.115 C 
HETATM   12 CL1  UNL     1       3.263  -4.212  -1.295  1.00  0.00    -0.130 Cl
ENDBRANCH  10  11
ENDBRANCH   9  10
ENDBRANCH   6   9
ENDBRANCH   3   5
ENDBRANCH   2   3
ENDBRANCH   1   2
BRANCH   1  13
HETATM   13  N1  UNL     1      -1.952   2.592  -0.897  1.00  0.00    -0.284 N 
HETATM   14  H5  UNL     1      -1.533   2.815  -1.824  1.00  0.00     0.178 HD
BRANCH  13  15
HETATM   15  S1  UNL     1      -3.588   2.073  -0.700  1.00  0.00     0.263 S 
HETATM   16  O1  UNL     1      -4.290   2.088  -2.041  1.00  0.00    -0.200 OA
HETATM   17  O2  UNL     1      -4.348   3.015   0.202  1.00  0.00    -0.200 OA
BRANCH  15  18
HETATM   18  C5  UNL     1      -3.684   0.475  -0.001  1.00  0.00     0.079 A 
HETATM   19  C6  UNL     1      -3.740   0.388   1.393  1.00  0.00     0.025 A 
HETATM   20  C7  UNL     1      -3.818  -0.820   2.048  1.00  0.00     0.002 A 
HETATM   21  C8  UNL     1      -3.840  -1.963   1.287  1.00  0.00     0.000 A 
HETATM   22  C9  UNL     1      -3.788  -1.935  -0.088  1.00  0.00     0.002 A 
HETATM   23  C10 UNL     1      -3.710  -0.705  -0.712  1.00  0.00     0.025 A 
ENDBRANCH  15  18
ENDBRANCH  13  15
ENDBRANCH   1  13
TORSDOF 9
