REMARK  4 active torsions:
REMARK  status: ('A' for Active; 'I' for Inactive)
REMARK    1  A    between atoms: C5_5  and  C6_6 
REMARK       I    between atoms: C6_6  and  N1_8 
REMARK    2  A    between atoms: N1_8  and  S1_9 
REMARK    3  A    between atoms: S1_9  and  N2_10 
REMARK    4  A    between atoms: S1_9  and  C8_13 
ROOT
HETATM    1  C6  UNL     1       0.904   0.613   0.022  1.00  0.00     0.265 C 
HETATM    2  O1  UNL     1       0.547   1.732   0.423  1.00  0.00    -0.267 OA
HETATM    3  N1  UNL     1       0.080  -0.296  -0.710  1.00  0.00    -0.288 N 
HETATM    4  H6  UNL     1       0.453  -1.234  -1.020  1.00  0.00     0.178 HD
ENDROOT
BRANCH   3   5
HETATM    5  S1  UNL     1      -1.561   0.355  -0.997  1.00  0.00     0.014 SA
BRANCH   5   6
HETATM    6  N2  UNL     1      -1.858   0.873  -2.494  1.00  0.00    -0.085 NA
HETATM    7  C7  UNL     1      -3.145   1.401  -2.782  1.00  0.00     0.308 A 
HETATM    8  O2  UNL     1      -2.510   0.978  -3.792  1.00  0.00    -0.261 OA
ENDBRANCH   5   6
BRANCH   5   9
HETATM    9  C8  UNL     1      -2.915   0.081   0.159  1.00  0.00     0.027 A 
HETATM   10  C9  UNL     1      -3.288   0.863   1.233  1.00  0.00     0.022 A 
HETATM   11  C10 UNL     1      -4.365   0.475   2.003  1.00  0.00     0.020 A 
HETATM   12  C11 UNL     1      -5.072  -0.685   1.710  1.00  0.00     0.011 A 
HETATM   13 BR1  UNL     1      -6.551  -1.188   2.793  1.00  0.00    -0.051 Br
HETATM   14  C12 UNL     1      -4.717  -1.484   0.638  1.00  0.00     0.020 A 
HETATM   15  C13 UNL     1      -3.632  -1.084  -0.128  1.00  0.00     0.022 A 
ENDBRANCH   5   9
ENDBRANCH   3   5
BRANCH   1  16
HETATM   16  C5  UNL     1       2.293   0.231   0.345  1.00  0.00     0.073 A 
HETATM   17  C4  UNL     1       3.318   1.029  -0.172  1.00  0.00     0.022 A 
HETATM   18  C3  UNL     1       4.659   0.767   0.065  1.00  0.00     0.028 A 
HETATM   19  C2  UNL     1       4.895  -0.347   0.853  1.00  0.00     0.032 A 
HETATM   20  C1  UNL     1       6.302  -0.716   1.167  1.00  0.00     0.070 C 
HETATM   21  N3  UNL     1       3.900  -1.106   1.343  1.00  0.00    -0.241 NA
HETATM   22  C14 UNL     1       2.601  -0.858   1.117  1.00  0.00     0.142 A 
HETATM   23 CL1  UNL     1       1.317  -1.858   1.765  1.00  0.00    -0.061 Cl
ENDBRANCH   1  16
TORSDOF 4
