REMARK  0 active torsions:
REMARK  status: ('A' for Active; 'I' for Inactive)
ROOT
HETATM    1  C1  UNL     1      -3.769  -2.060   0.549  1.00  0.00     0.070 C 
HETATM    2  C2  UNL     1      -2.298  -1.894   0.347  1.00  0.00     0.030 C 
HETATM    3  C3  UNL     1      -1.142  -2.516   0.269  1.00  0.00     0.025 C 
HETATM    4  C4  UNL     1       0.291  -2.696   0.110  1.00  0.00     0.010 C 
HETATM    5  C5  UNL     1       1.123  -1.680  -0.094  1.00  0.00     0.179 C 
HETATM    6  O1  UNL     1       2.280  -0.976  -0.308  1.00  0.00    -0.355 OA
HETATM    7  C6  UNL     1       2.700  -0.022   0.665  1.00  0.00     0.225 C 
HETATM    8  C7  UNL     1       4.030  -0.625   1.274  1.00  0.00     0.063 C 
HETATM    9  N1  UNL     1       3.110   1.224   0.182  1.00  0.00    -0.310 N 
HETATM   10  S1  UNL     1       2.193   2.262  -0.735  1.00  0.00     0.148 S 
HETATM   11  O2  UNL     1       2.820   2.428  -2.127  1.00  0.00    -0.230 OA
HETATM   12  C8  UNL     1       0.477   2.113  -0.814  1.00  0.00     0.053 A 
HETATM   13  C9  UNL     1      -0.109   2.846  -1.840  1.00  0.00     0.024 A 
HETATM   14  C10 UNL     1      -1.472   2.832  -2.075  1.00  0.00     0.021 A 
HETATM   15  C11 UNL     1      -2.202   2.021  -1.199  1.00  0.00     0.022 A 
HETATM   16 BR1  UNL     1      -4.105   1.931  -1.399  1.00  0.00    -0.050 Br
HETATM   17  C12 UNL     1      -1.674   1.265  -0.158  1.00  0.00     0.000 A 
HETATM   18  C13 UNL     1      -0.306   1.359  -0.017  1.00  0.00     0.037 A 
HETATM   19  C14 UNL     1      -2.617   0.437   0.628  1.00  0.00     0.129 C 
HETATM   20  N2  UNL     1      -2.025  -0.566   0.127  1.00  0.00    -0.265 NA
HETATM   21  H11 UNL     1       3.972   1.615   0.639  1.00  0.00     0.172 HD
ENDROOT
TORSDOF 0
