REMARK  6 active torsions:
REMARK  status: ('A' for Active; 'I' for Inactive)
REMARK    1  A    between atoms: C5_5  and  C6_6 
REMARK       I    between atoms: C6_6  and  N1_8 
REMARK    2  A    between atoms: N1_8  and  S1_9 
REMARK    3  A    between atoms: S1_9  and  C7_12 
REMARK    4  A    between atoms: C7_12  and  C8_13 
REMARK    5  A    between atoms: C9_14  and  C10_15 
REMARK    6  A    between atoms: C10_15  and  C11_16 
ROOT
HETATM    1  C6  UNL     1      -0.998   0.846  -0.599  1.00  0.00     0.268 C 
HETATM    2  O1  UNL     1      -0.775   0.945  -1.852  1.00  0.00    -0.267 OA
HETATM    3  N1  UNL     1       0.119   1.115   0.216  1.00  0.00    -0.250 N 
HETATM    4  H6  UNL     1      -0.013   1.048   1.248  1.00  0.00     0.181 HD
ENDROOT
BRANCH   3   5
HETATM    5  S1  UNL     1       1.530   1.515  -0.661  1.00  0.00     0.236 S 
HETATM    6  O2  UNL     1       1.233   2.280  -1.895  1.00  0.00    -0.205 OA
HETATM    7  O3  UNL     1       2.397   2.367   0.237  1.00  0.00    -0.205 OA
BRANCH   5   8
HETATM    8  C7  UNL     1       2.417  -0.004  -0.995  1.00  0.00     0.190 C 
BRANCH   8   9
HETATM    9  C8  UNL     1       2.767  -0.646   0.288  1.00  0.00    -0.010 C 
HETATM   10  C9  UNL     1       4.037  -0.858   0.581  1.00  0.00    -0.004 C 
BRANCH  10  11
HETATM   11  C10 UNL     1       5.373  -0.647  -0.005  1.00  0.00     0.012 C 
BRANCH  11  12
HETATM   12  C11 UNL     1       6.598  -0.491  -0.464  1.00  0.00     0.441 C 
HETATM   13  F1  UNL     1       7.282  -1.033   0.574  1.00  0.00    -0.452 F 
ENDBRANCH  11  12
ENDBRANCH  10  11
ENDBRANCH   8   9
ENDBRANCH   5   8
ENDBRANCH   3   5
BRANCH   1  14
HETATM   14  C5  UNL     1      -2.328   0.479  -0.131  1.00  0.00     0.073 A 
HETATM   15  C4  UNL     1      -3.162   1.245   0.655  1.00  0.00     0.022 A 
HETATM   16  C3  UNL     1      -4.409   0.806   1.048  1.00  0.00     0.028 A 
HETATM   17  C2  UNL     1      -4.790  -0.459   0.611  1.00  0.00     0.032 A 
HETATM   18  C1  UNL     1      -6.125  -1.018   0.990  1.00  0.00     0.070 C 
HETATM   19  N2  UNL     1      -3.983  -1.226  -0.161  1.00  0.00    -0.241 NA
HETATM   20  C12 UNL     1      -2.755  -0.770  -0.538  1.00  0.00     0.142 A 
HETATM   21 CL1  UNL     1      -1.781  -1.833  -1.538  1.00  0.00    -0.061 Cl
ENDBRANCH   1  14
TORSDOF 6
