REMARK  3 active torsions:
REMARK  status: ('A' for Active; 'I' for Inactive)
REMARK    1  A    between atoms: C5_5  and  C6_6 
REMARK       I    between atoms: C6_6  and  N1_8 
REMARK    2  A    between atoms: N1_8  and  S1_9 
REMARK    3  A    between atoms: S1_9  and  C7_12 
ROOT
HETATM    1  C6  UNL     1      -0.418  -1.228  -0.212  1.00  0.00     0.268 C 
HETATM    2  O1  UNL     1       0.063  -2.188   0.431  1.00  0.00    -0.267 OA
HETATM    3  N1  UNL     1       0.328  -0.530  -1.211  1.00  0.00    -0.246 N 
HETATM    4  H6  UNL     1      -0.122   0.270  -1.723  1.00  0.00     0.182 HD
ENDROOT
BRANCH   3   5
HETATM    5  S1  UNL     1       1.967  -0.976  -1.600  1.00  0.00     0.265 S 
HETATM    6  O2  UNL     1       2.171  -0.631  -3.055  1.00  0.00    -0.200 OA
HETATM    7  O3  UNL     1       2.184  -2.433  -1.427  1.00  0.00    -0.200 OA
BRANCH   5   8
HETATM    8  C7  UNL     1       3.002  -0.041  -0.548  1.00  0.00     0.080 A 
HETATM    9  C8  UNL     1       3.500   1.210  -0.870  1.00  0.00     0.027 A 
HETATM   10  C9  UNL     1       4.317   1.922  -0.011  1.00  0.00     0.020 A 
HETATM   11  C10 UNL     1       4.663   1.390   1.214  1.00  0.00     0.011 A 
HETATM   12 BR1  UNL     1       5.791   2.362   2.409  1.00  0.00    -0.051 Br
HETATM   13  C11 UNL     1       4.179   0.136   1.566  1.00  0.00     0.020 A 
HETATM   14  C12 UNL     1       3.358  -0.566   0.688  1.00  0.00     0.027 A 
ENDBRANCH   5   8
ENDBRANCH   3   5
BRANCH   1  15
HETATM   15  C5  UNL     1      -1.797  -0.765   0.035  1.00  0.00     0.073 A 
HETATM   16  C4  UNL     1      -2.237  -0.275   1.251  1.00  0.00     0.022 A 
HETATM   17  C3  UNL     1      -3.565   0.121   1.325  1.00  0.00     0.028 A 
HETATM   18  C2  UNL     1      -4.379   0.010   0.195  1.00  0.00     0.032 A 
HETATM   19  C1  UNL     1      -5.794   0.447   0.322  1.00  0.00     0.070 C 
HETATM   20  N2  UNL     1      -3.905  -0.477  -0.979  1.00  0.00    -0.241 NA
HETATM   21  C13 UNL     1      -2.620  -0.866  -1.071  1.00  0.00     0.142 A 
HETATM   22 CL1  UNL     1      -2.091  -1.483  -2.625  1.00  0.00    -0.061 Cl
ENDBRANCH   1  15
TORSDOF 3
