REMARK  1 active torsions:
REMARK  status: ('A' for Active; 'I' for Inactive)
REMARK    1  A    between atoms: N2_3  and  C2_4 
ROOT
HETATM    1  C1  UNL     1      -1.992  -0.087  -2.439  1.00  0.00     0.140 C 
HETATM    2  N1  UNL     1      -1.363  -0.775  -1.365  1.00  0.00    -0.190 NA
HETATM    3  N2  UNL     1      -1.818  -0.486  -0.090  1.00  0.00    -0.287 N 
HETATM    4  C7  UNL     1      -0.785  -0.933   0.803  1.00  0.00     0.126 C 
HETATM    5  C8  UNL     1       0.300  -1.072   0.087  1.00  0.00     0.055 C 
HETATM    6  C9  UNL     1       1.561  -1.495   0.527  1.00  0.00     0.137 C 
HETATM    7  N3  UNL     1       1.758  -2.652  -0.071  1.00  0.00    -0.224 NA
HETATM    8  C10 UNL     1       1.253  -2.747  -1.447  1.00  0.00     0.232 C 
HETATM    9  N4  UNL     1       0.628  -1.770  -2.108  1.00  0.00    -0.245 NA
HETATM   10  C11 UNL     1       0.074  -0.703  -1.369  1.00  0.00     0.177 C 
HETATM   11  C12 UNL     1       0.623   0.646  -1.459  1.00  0.00     0.026 C 
HETATM   12  C13 UNL     1       1.403   1.712  -1.163  1.00  0.00    -0.017 C 
HETATM   13  C14 UNL     1       2.349   1.399  -0.021  1.00  0.00     0.042 C 
HETATM   14  C15 UNL     1       3.275   2.179   0.633  1.00  0.00    -0.017 C 
HETATM   15  C16 UNL     1       3.971   1.395   1.689  1.00  0.00    -0.006 C 
HETATM   16  C17 UNL     1       4.041   0.151   2.215  1.00  0.00    -0.008 C 
HETATM   17  C18 UNL     1       3.601  -1.280   2.225  1.00  0.00     0.148 C 
HETATM   18  N5  UNL     1       2.738  -1.500   1.207  1.00  0.00    -0.371 N 
HETATM   19  H19 UNL     1       3.702  -1.755   0.780  1.00  0.00     0.161 HD
ENDROOT
BRANCH   3  20
HETATM   20  C2  UNL     1      -3.057   0.088   0.328  1.00  0.00     0.032 A 
HETATM   21  C3  UNL     1      -3.392   0.357   1.579  1.00  0.00     0.026 A 
HETATM   22  C4  UNL     1      -4.704   0.932   1.742  1.00  0.00    -0.002 A 
HETATM   23  C5  UNL     1      -5.200   1.014   0.529  1.00  0.00    -0.021 A 
HETATM   24  C6  UNL     1      -4.230   0.496  -0.478  1.00  0.00     0.086 A 
ENDBRANCH   3  20
TORSDOF 1
