REMARK  4 active torsions:
REMARK  status: ('A' for Active; 'I' for Inactive)
REMARK    1  A    between atoms: C7_9  and  C8_10 
REMARK    2  A    between atoms: C8_10  and  C9_12 
REMARK    3  A    between atoms: C9_12  and  S1_13 
REMARK    4  A    between atoms: S1_13  and  C10_16 
ROOT
HETATM    1  C9  UNL     1       0.420  -0.329   0.180  1.00  0.00     0.224 C 
ENDROOT
BRANCH   1   2
HETATM    2  C8  UNL     1      -0.971   0.075   0.538  1.00  0.00     0.155 C 
HETATM    3  O1  UNL     1      -0.929   1.282   0.730  1.00  0.00    -0.296 OA
BRANCH   2   4
HETATM    4  C7  UNL     1      -1.935  -1.060   0.552  1.00  0.00     0.148 C 
HETATM    5  C2  UNL     1      -3.317  -0.636   0.912  1.00  0.00    -0.070 C 
HETATM    6  C1  UNL     1      -3.880  -1.156   2.190  1.00  0.00     0.044 C 
HETATM    7  C3  UNL     1      -4.018   0.186   0.105  1.00  0.00    -0.021 C 
HETATM    8  C4  UNL     1      -3.677   0.823  -1.194  1.00  0.00     0.049 C 
HETATM    9  C5  UNL     1      -3.141  -0.079  -2.231  1.00  0.00     0.154 C 
HETATM   10  N1  UNL     1      -2.502  -1.257  -1.876  1.00  0.00    -0.281 NA
HETATM   11  C6  UNL     1      -2.001  -1.706  -0.789  1.00  0.00     0.113 C 
HETATM   12 CL1  UNL     1      -1.390  -3.296  -1.238  1.00  0.00    -0.067 Cl
ENDBRANCH   2   4
ENDBRANCH   1   2
BRANCH   1  13
HETATM   13  S1  UNL     1       1.420   1.141   0.214  1.00  0.00     0.180 S 
HETATM   14  O2  UNL     1       0.797   2.093  -0.787  1.00  0.00    -0.222 OA
HETATM   15  O3  UNL     1       1.285   1.764   1.563  1.00  0.00    -0.222 OA
BRANCH  13  16
HETATM   16  C10 UNL     1       3.082   0.818  -0.188  1.00  0.00     0.055 A 
HETATM   17  C11 UNL     1       3.401   0.901  -1.481  1.00  0.00     0.024 A 
HETATM   18  C12 UNL     1       4.797   0.630  -1.817  1.00  0.00     0.043 A 
HETATM   19  C13 UNL     1       5.749   0.314  -0.952  1.00  0.00     0.099 A 
HETATM   20 CL2  UNL     1       7.416  -0.005  -1.390  1.00  0.00    -0.065 Cl
HETATM   21  N2  UNL     1       5.320   0.248   0.404  1.00  0.00    -0.376 N 
HETATM   22  C14 UNL     1       3.997   0.480   0.930  1.00  0.00     0.171 A 
HETATM   23  H14 UNL     1       5.979   0.010   1.173  1.00  0.00     0.160 HD
ENDBRANCH  13  16
ENDBRANCH   1  13
TORSDOF 4
