REMARK  3 active torsions:
REMARK  status: ('A' for Active; 'I' for Inactive)
REMARK       I    between atoms: C1_2  and  N1_3 
REMARK    1  A    between atoms: C1_2  and  C8_14 
REMARK    2  A    between atoms: N1_3  and  S1_4 
REMARK    3  A    between atoms: S1_4  and  C2_7 
ROOT
HETATM    1  O1  UNL     1      -0.978  -2.514   1.244  1.00  0.00    -0.271 OA
HETATM    2  C1  UNL     1      -1.272  -1.402   0.719  1.00  0.00     0.245 C 
HETATM    3  N1  UNL     1      -0.202  -0.578   0.365  1.00  0.00    -0.249 N 
HETATM    4  H1  UNL     1      -0.341   0.360  -0.075  1.00  0.00     0.182 HD
ENDROOT
BRANCH   3   5
HETATM    5  S1  UNL     1       1.362  -1.243   0.716  1.00  0.00     0.265 S 
HETATM    6  O2  UNL     1       1.501  -1.563   2.192  1.00  0.00    -0.200 OA
HETATM    7  O3  UNL     1       1.429  -2.570  -0.005  1.00  0.00    -0.200 OA
BRANCH   5   8
HETATM    8  C2  UNL     1       2.647  -0.178   0.255  1.00  0.00     0.080 A 
HETATM    9  C3  UNL     1       3.134   0.753   1.152  1.00  0.00     0.027 A 
HETATM   10  C4  UNL     1       4.165   1.595   0.755  1.00  0.00     0.025 A 
HETATM   11  C5  UNL     1       4.690   1.499  -0.513  1.00  0.00     0.034 A 
HETATM   12 CL1  UNL     1       5.994   2.581  -0.979  1.00  0.00    -0.084 Cl
HETATM   13  C6  UNL     1       4.229   0.585  -1.427  1.00  0.00     0.025 A 
HETATM   14  C7  UNL     1       3.204  -0.243  -1.017  1.00  0.00     0.027 A 
ENDBRANCH   5   8
ENDBRANCH   3   5
BRANCH   2  15
HETATM   15  C8  UNL     1      -2.679  -1.011   0.500  1.00  0.00     0.164 C 
HETATM   16  C9  UNL     1      -2.996  -0.765  -0.921  1.00  0.00    -0.008 C 
HETATM   17  C10 UNL     1      -3.955   0.062  -1.327  1.00  0.00    -0.008 C 
HETATM   18  C11 UNL     1      -4.768   0.793  -0.291  1.00  0.00     0.177 C 
HETATM   19  N2  UNL     1      -3.968   1.025   0.895  1.00  0.00    -0.277 NA
HETATM   20  C12 UNL     1      -3.038   0.230   1.255  1.00  0.00     0.115 C 
HETATM   21 CL2  UNL     1      -2.245   0.773   2.730  1.00  0.00    -0.067 Cl
ENDBRANCH   2  15
TORSDOF 3
