REMARK  3 active torsions:
REMARK  status: ('A' for Active; 'I' for Inactive)
REMARK    1  A    between atoms: C4_6  and  C5_7 
REMARK       I    between atoms: C5_7  and  N2_9 
REMARK    2  A    between atoms: N2_9  and  S1_10 
REMARK    3  A    between atoms: S1_10  and  C6_13 
ROOT
HETATM    1  C5  UNL     1       0.624   0.796  -0.797  1.00  0.00     0.268 C 
HETATM    2  O1  UNL     1       0.464   1.951  -1.295  1.00  0.00    -0.267 OA
HETATM    3  N2  UNL     1      -0.574   0.199  -0.313  1.00  0.00    -0.246 N 
HETATM    4  H5  UNL     1      -0.548  -0.734   0.108  1.00  0.00     0.182 HD
ENDROOT
BRANCH   3   5
HETATM    5  S1  UNL     1      -1.944   1.253  -0.551  1.00  0.00     0.265 S 
HETATM    6  O2  UNL     1      -1.656   2.565   0.091  1.00  0.00    -0.200 OA
HETATM    7  O3  UNL     1      -2.071   1.459  -2.031  1.00  0.00    -0.200 OA
BRANCH   5   8
HETATM    8  C6  UNL     1      -3.415   0.515   0.047  1.00  0.00     0.080 A 
HETATM    9  C7  UNL     1      -4.183  -0.267  -0.801  1.00  0.00     0.027 A 
HETATM   10  C8  UNL     1      -5.363  -0.869  -0.352  1.00  0.00     0.025 A 
HETATM   11  C9  UNL     1      -5.793  -0.695   0.964  1.00  0.00     0.034 A 
HETATM   12 CL2  UNL     1      -7.280  -1.469   1.485  1.00  0.00    -0.084 Cl
HETATM   13  C10 UNL     1      -5.023   0.087   1.805  1.00  0.00     0.025 A 
HETATM   14  C11 UNL     1      -3.843   0.691   1.362  1.00  0.00     0.027 A 
ENDBRANCH   5   8
ENDBRANCH   3   5
BRANCH   1  15
HETATM   15  C4  UNL     1       1.916   0.125  -0.720  1.00  0.00     0.073 A 
HETATM   16  C3  UNL     1       3.056   0.836  -1.246  1.00  0.00     0.137 A 
HETATM   17  N1  UNL     1       4.269   0.527  -1.322  1.00  0.00    -0.267 NA
HETATM   18 CL1  UNL     1       3.008   2.440  -1.957  1.00  0.00    -0.062 Cl
HETATM   19  C2  UNL     1       4.974  -0.637  -0.925  1.00  0.00     0.134 A 
HETATM   20  C1  UNL     1       6.005  -0.261   0.108  1.00  0.00     0.040 C 
HETATM   21  P1  UNL     1       3.797  -1.841  -0.157  1.00  0.00    -0.079 P 
HETATM   22  C12 UNL     1       2.139  -1.073  -0.214  1.00  0.00     0.026 A 
HETATM   23  H11 UNL     1       4.175  -2.050   1.225  1.00  0.00     0.063 HD
ENDBRANCH   1  15
TORSDOF 3
