REMARK  2 active torsions:
REMARK  status: ('A' for Active; 'I' for Inactive)
REMARK    1  A    between atoms: C12_14  and  O1_15 
REMARK    2  A    between atoms: C14_17  and  C15_18 
ROOT
HETATM    1  C1  UNL     1       2.605   1.985   3.349  1.00  0.00     0.017 C 
HETATM    2  C2  UNL     1       2.460   1.549   2.259  1.00  0.00    -0.082 C 
HETATM    3  C3  UNL     1       2.268   1.043   0.960  1.00  0.00    -0.005 C 
HETATM    4  C4  UNL     1       1.327   1.041   0.082  1.00  0.00     0.016 C 
HETATM    5  C5  UNL     1       0.793   0.704  -1.206  1.00  0.00     0.003 C 
HETATM    6  C6  UNL     1      -0.347   0.797  -1.829  1.00  0.00     0.028 C 
HETATM    7  C7  UNL     1      -1.708   1.002  -2.305  1.00  0.00     0.046 C 
HETATM    8  N1  UNL     1      -1.667   0.737  -3.550  1.00  0.00    -0.246 NA
HETATM    9  C8  UNL     1      -2.672   0.774  -4.471  1.00  0.00     0.227 C 
HETATM   10  N2  UNL     1      -2.920  -0.430  -4.164  1.00  0.00    -0.271 NA
HETATM   11  C9  UNL     1      -2.222  -1.201  -3.192  1.00  0.00     0.163 C 
HETATM   12  C10 UNL     1      -1.663  -1.538  -1.984  1.00  0.00     0.042 C 
HETATM   13  C11 UNL     1      -1.432  -1.015  -0.584  1.00  0.00     0.097 C 
HETATM   14  C12 UNL     1      -1.665   0.196  -0.022  1.00  0.00     0.088 C 
HETATM   15  C14 UNL     1      -2.132   1.340  -0.895  1.00  0.00     0.097 C 
HETATM   16  O2  UNL     1      -0.888  -2.172  -0.066  1.00  0.00    -0.347 OA
HETATM   17  C17 UNL     1       0.268  -2.189   0.756  1.00  0.00     0.201 C 
HETATM   18  C18 UNL     1       1.367  -3.082   0.183  1.00  0.00     0.194 C 
HETATM   19  O3  UNL     1       2.480  -3.188   0.821  1.00  0.00    -0.389 OA
HETATM   20  C19 UNL     1       3.538  -2.467   1.074  1.00  0.00     0.168 C 
HETATM   21  C20 UNL     1       3.337  -1.081   1.609  1.00  0.00     0.031 C 
HETATM   22  C21 UNL     1       3.177  -0.027   0.493  1.00  0.00     0.050 C 
ENDROOT
BRANCH  15  23
HETATM   23  C15 UNL     1      -1.739   2.699  -0.488  1.00  0.00     0.013 C 
HETATM   24  C16 UNL     1      -2.139   3.040   0.930  1.00  0.00     0.006 C 
ENDBRANCH  15  23
BRANCH  14  25
HETATM   25  O1  UNL     1      -1.324   0.025   1.314  1.00  0.00    -0.357 OA
HETATM   26  C13 UNL     1      -2.193  -0.094   2.392  1.00  0.00     0.209 C 
ENDBRANCH  14  25
TORSDOF 2
