REMARK  10 active torsions:
REMARK  status: ('A' for Active; 'I' for Inactive)
REMARK    1  A    between atoms: O1_2  and  C2_3 
REMARK    2  A    between atoms: C2_3  and  C3_4 
REMARK    3  A    between atoms: C3_4  and  O2_5 
REMARK    4  A    between atoms: O2_5  and  C4_6 
REMARK    5  A    between atoms: C8_12  and  N3_13 
REMARK    6  A    between atoms: N3_13  and  C9_14 
REMARK    7  A    between atoms: C18_23  and  O3_24 
REMARK    8  A    between atoms: O3_24  and  C19_25 
REMARK    9  A    between atoms: C19_25  and  C20_26 
REMARK   10  A    between atoms: C20_26  and  O4_27 
ROOT
HETATM    1  C4  UNL     1      -1.999  -0.686  -0.303  1.00  0.00     0.104 A 
HETATM    2  C5  UNL     1      -1.143  -1.521  -0.980  1.00  0.00     0.072 A 
HETATM    3  C6  UNL     1       0.230  -1.393  -0.992  1.00  0.00     0.075 A 
HETATM    4  N1  UNL     1       1.052  -2.226  -1.665  1.00  0.00    -0.241 NA
HETATM    5  C7  UNL     1       2.408  -2.056  -1.646  1.00  0.00     0.236 A 
HETATM    6  N2  UNL     1       2.952  -1.024  -0.933  1.00  0.00    -0.224 NA
HETATM    7  C8  UNL     1       2.160  -0.176  -0.252  1.00  0.00     0.142 A 
HETATM    8  C16 UNL     1       0.799  -0.357  -0.279  1.00  0.00     0.042 A 
HETATM    9  C17 UNL     1      -0.045   0.490   0.406  1.00  0.00     0.057 A 
HETATM   10  C18 UNL     1      -1.430   0.380   0.432  1.00  0.00     0.103 A 
ENDROOT
BRANCH   7  11
HETATM   11  N3  UNL     1       2.783   0.875   0.469  1.00  0.00    -0.339 N 
HETATM   12  H10 UNL     1       2.430   1.632   1.050  1.00  0.00     0.167 HD
BRANCH  11  13
HETATM   13  C9  UNL     1       4.205   0.957   0.419  1.00  0.00     0.045 C 
HETATM   14  C10 UNL     1       4.807   2.022  -0.086  1.00  0.00     0.016 C 
HETATM   15  C11 UNL     1       5.863   1.896  -0.790  1.00  0.00     0.001 C 
HETATM   16  C12 UNL     1       7.012   1.562  -0.354  1.00  0.00    -0.013 C 
HETATM   17  C13 UNL     1       7.208   0.379   0.188  1.00  0.00     0.013 C 
HETATM   18  C14 UNL     1       6.230  -0.484   0.874  1.00  0.00     0.003 C 
HETATM   19  C15 UNL     1       4.917  -0.215   0.966  1.00  0.00     0.030 C 
ENDBRANCH  11  13
ENDBRANCH   7  11
BRANCH  10  20
HETATM   20  O3  UNL     1      -2.288   1.185   1.085  1.00  0.00    -0.346 OA
BRANCH  20  21
HETATM   21  C19 UNL     1      -2.160   2.304   1.869  1.00  0.00     0.201 C 
BRANCH  21  22
HETATM   22  C20 UNL     1      -1.561   3.524   1.216  1.00  0.00     0.193 C 
BRANCH  22  23
HETATM   23  O4  UNL     1      -1.479   4.598   2.105  1.00  0.00    -0.394 OA
HETATM   24  C21 UNL     1      -0.920   5.724   1.478  1.00  0.00     0.201 C 
ENDBRANCH  22  23
ENDBRANCH  21  22
ENDBRANCH  20  21
ENDBRANCH  10  20
BRANCH   1  25
HETATM   25  O2  UNL     1      -3.344  -0.792  -0.274  1.00  0.00    -0.346 OA
BRANCH  25  26
HETATM   26  C3  UNL     1      -4.215  -1.684  -0.831  1.00  0.00     0.201 C 
BRANCH  26  27
HETATM   27  C2  UNL     1      -4.131  -3.112  -0.418  1.00  0.00     0.193 C 
BRANCH  27  28
HETATM   28  O1  UNL     1      -5.101  -3.885  -1.091  1.00  0.00    -0.394 OA
HETATM   29  C1  UNL     1      -4.927  -5.202  -0.625  1.00  0.00     0.201 C 
ENDBRANCH  27  28
ENDBRANCH  26  27
ENDBRANCH  25  26
ENDBRANCH   1  25
TORSDOF 10
