REMARK  1 active torsions:
REMARK  status: ('A' for Active; 'I' for Inactive)
REMARK    1  A    between atoms: C15_18  and  O2_20 
ROOT
HETATM    1  C1  UNL     1      -0.916  -4.464  -0.725  1.00  0.00     0.010 C 
HETATM    2  C2  UNL     1      -0.830  -2.905  -0.462  1.00  0.00    -0.013 C 
HETATM    3  C3  UNL     1      -2.185  -2.586   0.160  1.00  0.00     0.031 C 
HETATM    4  C4  UNL     1      -2.433  -1.157   0.431  1.00  0.00    -0.024 C 
HETATM    5  C5  UNL     1      -2.753   0.134   0.620  1.00  0.00     0.027 C 
HETATM    6  C6  UNL     1      -1.670   0.650   1.377  1.00  0.00     0.057 C 
HETATM    7  N1  UNL     1      -0.621   0.645   2.045  1.00  0.00    -0.242 NA
HETATM    8  C7  UNL     1       0.151  -0.515   2.382  1.00  0.00     0.234 C 
HETATM    9  N2  UNL     1       1.206  -1.108   1.896  1.00  0.00    -0.243 NA
HETATM   10  C8  UNL     1       1.869  -0.588   0.739  1.00  0.00     0.069 C 
HETATM   11  C9  UNL     1       3.058  -0.400   0.132  1.00  0.00     0.030 C 
HETATM   12  C10 UNL     1       2.871   1.013  -0.368  1.00  0.00     0.011 C 
HETATM   13  C11 UNL     1       1.624   1.484  -0.011  1.00  0.00    -0.009 C 
HETATM   14  C12 UNL     1       1.023   0.095  -0.275  1.00  0.00     0.205 C 
HETATM   15  O1  UNL     1       1.092  -0.326  -1.567  1.00  0.00    -0.375 OA
HETATM   16  C13 UNL     1       0.017  -0.990  -2.051  1.00  0.00     0.169 C 
HETATM   17  C14 UNL     1      -0.401  -2.339  -1.712  1.00  0.00     0.031 C 
HETATM   18  C15 UNL     1       1.411   2.884   0.425  1.00  0.00     0.114 C 
HETATM   19  C16 UNL     1       1.213   3.674  -0.859  1.00  0.00     0.054 C 
HETATM   20  C17 UNL     1       0.311   3.149   1.418  1.00  0.00     0.231 C 
HETATM   21  F1  UNL     1       0.436   4.515   1.729  1.00  0.00    -0.242 F 
HETATM   22  C18 UNL     1      -1.038   2.969   0.832  1.00  0.00     0.015 C 
HETATM   23  C19 UNL     1      -1.966   1.982   0.739  1.00  0.00     0.030 C 
ENDROOT
BRANCH  18  24
HETATM   24  O2  UNL     1       2.550   3.441   0.993  1.00  0.00    -0.382 OA
HETATM   25  H20 UNL     1       3.316   2.878   0.715  1.00  0.00     0.211 HD
ENDBRANCH  18  24
TORSDOF 1
