REMARK  10 active torsions:
REMARK  status: ('A' for Active; 'I' for Inactive)
REMARK    1  A    between atoms: O1_2  and  C2_3 
REMARK    2  A    between atoms: C2_3  and  C3_4 
REMARK    3  A    between atoms: C3_4  and  O2_5 
REMARK    4  A    between atoms: O2_5  and  C4_6 
REMARK    5  A    between atoms: C4_6  and  C5_7 
REMARK    6  A    between atoms: C8_12  and  N3_13 
REMARK    7  A    between atoms: C17_22  and  O3_23 
REMARK    8  A    between atoms: O3_23  and  C18_24 
REMARK    9  A    between atoms: C18_24  and  C19_25 
REMARK   10  A    between atoms: C19_25  and  O4_26 
ROOT
HETATM    1  C5  UNL     1      -2.007   1.209  -0.623  1.00  0.00     0.029 C 
HETATM    2  C6  UNL     1      -0.878   0.706  -0.148  1.00  0.00     0.066 C 
HETATM    3  N1  UNL     1      -1.121  -0.593   0.361  1.00  0.00    -0.244 NA
HETATM    4  C7  UNL     1      -0.401  -1.624   0.643  1.00  0.00     0.235 C 
HETATM    5  N2  UNL     1       0.974  -1.910   0.565  1.00  0.00    -0.224 NA
HETATM    6  C8  UNL     1       2.020  -1.373   0.072  1.00  0.00     0.131 C 
HETATM    7  C15 UNL     1       2.205  -0.132  -0.672  1.00  0.00     0.049 C 
HETATM    8  C16 UNL     1       1.500   1.004  -0.786  1.00  0.00     0.015 C 
HETATM    9  C17 UNL     1       0.254   1.638  -0.294  1.00  0.00     0.196 C 
ENDROOT
BRANCH   1  10
HETATM   10  C4  UNL     1      -3.333   0.485  -0.611  1.00  0.00     0.197 C 
BRANCH  10  11
HETATM   11  O2  UNL     1      -3.770   0.346  -1.894  1.00  0.00    -0.385 OA
BRANCH  11  12
HETATM   12  C3  UNL     1      -4.968  -0.255  -2.113  1.00  0.00     0.194 C 
BRANCH  12  13
HETATM   13  C2  UNL     1      -5.136  -1.656  -1.647  1.00  0.00     0.193 C 
BRANCH  13  14
HETATM   14  O1  UNL     1      -4.967  -1.756  -0.293  1.00  0.00    -0.394 OA
HETATM   15  C1  UNL     1      -5.117  -3.057   0.184  1.00  0.00     0.201 C 
ENDBRANCH  13  14
ENDBRANCH  12  13
ENDBRANCH  11  12
ENDBRANCH  10  11
ENDBRANCH   1  10
BRANCH   9  16
HETATM   16  O3  UNL     1       0.516   2.320   0.918  1.00  0.00    -0.374 OA
BRANCH  16  17
HETATM   17  C18 UNL     1       0.322   3.664   0.642  1.00  0.00     0.195 C 
BRANCH  17  18
HETATM   18  C19 UNL     1       0.556   4.570   1.825  1.00  0.00     0.193 C 
BRANCH  18  19
HETATM   19  O4  UNL     1       0.321   5.869   1.379  1.00  0.00    -0.394 OA
HETATM   20  C20 UNL     1       0.510   6.803   2.399  1.00  0.00     0.201 C 
ENDBRANCH  18  19
ENDBRANCH  17  18
ENDBRANCH  16  17
ENDBRANCH   9  16
BRANCH   6  21
HETATM   21  N3  UNL     1       3.230  -2.093   0.273  1.00  0.00    -0.332 N 
HETATM   22  C9  UNL     1       3.949  -1.878   1.508  1.00  0.00     0.158 A 
HETATM   23  C10 UNL     1       5.188  -2.714   1.542  1.00  0.00    -0.007 A 
HETATM   24  C11 UNL     1       5.578  -3.543   0.569  1.00  0.00    -0.001 A 
HETATM   25  C12 UNL     1       4.740  -3.649  -0.618  1.00  0.00     0.024 A 
HETATM   26  C13 UNL     1       3.616  -2.972  -0.791  1.00  0.00     0.009 A 
HETATM   27  C14 UNL     1       2.796  -3.113  -2.018  1.00  0.00     0.068 C 
ENDBRANCH   6  21
TORSDOF 10
