REMARK  4 active torsions:
REMARK  status: ('A' for Active; 'I' for Inactive)
REMARK       I    between atoms: C1_2  and  N1_3 
REMARK    1  A    between atoms: C1_2  and  C8_14 
REMARK    2  A    between atoms: N1_3  and  S1_4 
REMARK    3  A    between atoms: S1_4  and  C2_7 
REMARK    4  A    between atoms: C5_10  and  S2_11 
ROOT
HETATM    1  O1  UNL     1      -1.246  -1.476  -1.240  1.00  0.00    -0.267 OA
HETATM    2  C1  UNL     1      -1.609  -0.789  -0.240  1.00  0.00     0.266 C 
HETATM    3  N1  UNL     1      -0.687  -0.809   0.826  1.00  0.00    -0.246 N 
HETATM    4  H1  UNL     1      -0.936  -0.251   1.694  1.00  0.00     0.182 HD
ENDROOT
BRANCH   3   5
HETATM    5  S1  UNL     1       0.799  -1.667   0.822  1.00  0.00     0.265 S 
HETATM    6  O2  UNL     1       1.055  -2.138   2.236  1.00  0.00    -0.200 OA
HETATM    7  O3  UNL     1       0.650  -2.906  -0.010  1.00  0.00    -0.200 OA
BRANCH   5   8
HETATM    8  C2  UNL     1       2.133  -0.743   0.213  1.00  0.00     0.080 A 
HETATM    9  C3  UNL     1       2.837  -0.006   1.165  1.00  0.00     0.026 A 
HETATM   10  C4  UNL     1       3.930   0.786   0.846  1.00  0.00     0.020 A 
HETATM   11  C5  UNL     1       4.323   0.831  -0.489  1.00  0.00    -0.003 A 
HETATM   12  C6  UNL     1       3.624   0.099  -1.437  1.00  0.00     0.020 A 
HETATM   13  C7  UNL     1       2.535  -0.687  -1.105  1.00  0.00     0.026 A 
BRANCH  11  14
HETATM   14  S2  UNL     1       5.729   1.849  -0.905  1.00  0.00    -0.143 SA
HETATM   15  H4  UNL     1       6.867   1.410  -0.175  1.00  0.00     0.107 HD
ENDBRANCH  11  14
ENDBRANCH   5   8
ENDBRANCH   3   5
BRANCH   2  16
HETATM   16  C8  UNL     1      -2.868  -0.054  -0.219  1.00  0.00     0.051 A 
HETATM   17  C9  UNL     1      -3.320   0.711   0.836  1.00  0.00     0.133 A 
HETATM   18  N2  UNL     1      -4.489   1.373   0.812  1.00  0.00    -0.271 NA
HETATM   19  C10 UNL     1      -5.290   1.324  -0.253  1.00  0.00     0.135 A 
HETATM   20  C11 UNL     1      -4.884   0.567  -1.347  1.00  0.00     0.029 A 
HETATM   21 BR1  UNL     1      -6.052   0.515  -2.863  1.00  0.00    -0.050 Br
HETATM   22  C12 UNL     1      -3.672  -0.126  -1.338  1.00  0.00     0.039 A 
ENDBRANCH   2  16
TORSDOF 4
