REMARK  5 active torsions:
REMARK  status: ('A' for Active; 'I' for Inactive)
REMARK    1  A    between atoms: C1_2  and  C2_3 
REMARK       I    between atoms: C1_2  and  N2_11 
REMARK    2  A    between atoms: C2_3  and  C3_4 
REMARK    3  A    between atoms: N2_11  and  S1_12 
REMARK    4  A    between atoms: S1_12  and  C7_15 
REMARK    5  A    between atoms: C9_18  and  C10_19 
ROOT
HETATM    1  O1  UNL     1       0.679   0.569   1.017  1.00  0.00    -0.272 OA
HETATM    2  C1  UNL     1       0.876  -0.665   0.864  1.00  0.00     0.235 C 
HETATM    3  N2  UNL     1      -0.163  -1.558   1.315  1.00  0.00    -0.250 N 
HETATM    4  H7  UNL     1      -0.166  -2.617   1.265  1.00  0.00     0.181 HD
ENDROOT
BRANCH   3   5
HETATM    5  S1  UNL     1      -1.601  -0.911   2.030  1.00  0.00     0.266 S 
HETATM    6  O2  UNL     1      -1.362   0.382   2.743  1.00  0.00    -0.200 OA
HETATM    7  O3  UNL     1      -2.191  -1.877   3.047  1.00  0.00    -0.200 OA
BRANCH   5   8
HETATM    8  C7  UNL     1      -2.832  -0.601   0.828  1.00  0.00     0.089 A 
HETATM    9  P2  UNL     1      -4.013  -1.740   0.340  1.00  0.00    -0.031 P 
HETATM   10  C8  UNL     1      -4.918  -0.630  -0.951  1.00  0.00     0.081 A 
HETATM   11  C9  UNL     1      -4.067   0.573  -0.777  1.00  0.00    -0.045 A 
HETATM   12  C11 UNL     1      -3.067   0.582   0.078  1.00  0.00     0.032 A 
BRANCH  11  13
HETATM   13  C10 UNL     1      -4.469   1.727  -1.660  1.00  0.00     0.257 C 
HETATM   14  F1  UNL     1      -4.398   1.382  -2.977  1.00  0.00    -0.251 F 
ENDBRANCH  11  13
ENDBRANCH   5   8
ENDBRANCH   3   5
BRANCH   2  15
HETATM   15  C2  UNL     1       2.014  -1.465   0.284  1.00  0.00     0.144 C 
BRANCH  15  16
HETATM   16  C3  UNL     1       3.103  -0.593  -0.192  1.00  0.00    -0.026 A 
HETATM   17  C4  UNL     1       3.604  -0.477  -1.409  1.00  0.00     0.035 A 
HETATM   18 BR1  UNL     1       3.006  -1.464  -2.925  1.00  0.00    -0.049 Br
HETATM   19  C5  UNL     1       4.685   0.491  -1.519  1.00  0.00     0.130 A 
HETATM   20  N1  UNL     1       5.279   1.275  -0.700  1.00  0.00    -0.296 NA
HETATM   21  C6  UNL     1       5.028   1.441   0.692  1.00  0.00     0.183 A 
HETATM   22  P1  UNL     1       3.652   0.341   1.285  1.00  0.00    -0.077 P 
HETATM   23  H6  UNL     1       4.079  -0.521   2.362  1.00  0.00     0.064 HD
ENDBRANCH  15  16
ENDBRANCH   2  15
TORSDOF 5
