REMARK  5 active torsions:
REMARK  status: ('A' for Active; 'I' for Inactive)
REMARK    1  A    between atoms: C1_2  and  C2_3 
REMARK       I    between atoms: C1_2  and  N2_11 
REMARK    2  A    between atoms: C3_4  and  N1_5 
REMARK    3  A    between atoms: C4_6  and  C5_7 
REMARK    4  A    between atoms: N2_11  and  S1_12 
REMARK    5  A    between atoms: S1_12  and  C7_15 
ROOT
HETATM    1  O1  UNL     1      -1.362   1.216   0.264  1.00  0.00    -0.268 OA
HETATM    2  C1  UNL     1      -0.129   1.007   0.495  1.00  0.00     0.256 C 
HETATM    3  N2  UNL     1       0.230  -0.358   0.360  1.00  0.00    -0.247 N 
HETATM    4  H5  UNL     1       1.221  -0.635   0.529  1.00  0.00     0.182 HD
ENDROOT
BRANCH   3   5
HETATM    5  S1  UNL     1      -0.886  -1.599  -0.072  1.00  0.00     0.265 S 
HETATM    6  O2  UNL     1      -0.444  -2.362  -1.277  1.00  0.00    -0.200 OA
HETATM    7  O3  UNL     1      -0.958  -2.569   1.071  1.00  0.00    -0.200 OA
BRANCH   5   8
HETATM    8  C7  UNL     1      -2.485  -0.905  -0.306  1.00  0.00     0.080 A 
HETATM    9  C8  UNL     1      -3.425  -0.770   0.690  1.00  0.00     0.027 A 
HETATM   10  C9  UNL     1      -4.645  -0.206   0.369  1.00  0.00     0.025 A 
HETATM   11  C10 UNL     1      -4.906   0.212  -0.936  1.00  0.00     0.034 A 
HETATM   12 CL2  UNL     1      -6.442   0.927  -1.360  1.00  0.00    -0.084 Cl
HETATM   13  C11 UNL     1      -3.951   0.073  -1.940  1.00  0.00     0.025 A 
HETATM   14  C12 UNL     1      -2.729  -0.497  -1.597  1.00  0.00     0.027 A 
ENDBRANCH   5   8
ENDBRANCH   3   5
BRANCH   2  15
HETATM   15  C2  UNL     1       0.784   2.077   0.857  1.00  0.00     0.094 C 
HETATM   16  C3  UNL     1       2.067   1.952   1.112  1.00  0.00     0.122 C 
BRANCH  16  17
HETATM   17  N1  UNL     1       2.962   0.857   1.133  1.00  0.00    -0.272 NA
HETATM   18  C4  UNL     1       3.988   0.746   0.365  1.00  0.00     0.136 C 
BRANCH  18  19
HETATM   19  C5  UNL     1       4.816  -0.450   0.513  1.00  0.00     0.039 C 
HETATM   20 BR1  UNL     1       4.425  -1.803   1.770  1.00  0.00    -0.049 Br
HETATM   21  C6  UNL     1       5.889  -0.642  -0.238  1.00  0.00     0.105 C 
HETATM   22 CL1  UNL     1       6.930  -2.032  -0.133  1.00  0.00    -0.096 Cl
ENDBRANCH  18  19
ENDBRANCH  16  17
ENDBRANCH   2  15
TORSDOF 5
