REMARK  4 active torsions:
REMARK  status: ('A' for Active; 'I' for Inactive)
REMARK    1  A    between atoms: N1_1  and  C1_2 
REMARK    2  A    between atoms: C4_5  and  S1_6 
REMARK    3  A    between atoms: S1_6  and  N2_9 
REMARK       I    between atoms: N2_9  and  C5_10 
REMARK    4  A    between atoms: C5_10  and  C6_12 
ROOT
HETATM    1  S1  UNL     1      -0.629  -0.590   2.170  1.00  0.00     0.265 S 
HETATM    2  O1  UNL     1      -0.616  -2.042   2.488  1.00  0.00    -0.200 OA
HETATM    3  O2  UNL     1      -0.894   0.148   3.449  1.00  0.00    -0.200 OA
ENDROOT
BRANCH   1   4
HETATM    4  C4  UNL     1      -1.904  -0.178   1.021  1.00  0.00     0.080 A 
HETATM    5  C3  UNL     1      -2.554   1.045   1.146  1.00  0.00     0.027 A 
HETATM    6  C2  UNL     1      -3.566   1.444   0.286  1.00  0.00     0.030 A 
HETATM    7  C1  UNL     1      -3.930   0.577  -0.733  1.00  0.00     0.025 A 
HETATM    8  C12 UNL     1      -3.298  -0.645  -0.878  1.00  0.00     0.030 A 
HETATM    9  C11 UNL     1      -2.289  -1.025  -0.008  1.00  0.00     0.027 A 
BRANCH   7  10
HETATM   10  N1  UNL     1      -4.971   1.013  -1.601  1.00  0.00    -0.399 N 
HETATM   11  H1  UNL     1      -4.931   1.588  -2.484  1.00  0.00     0.156 HD
HETATM   12  H2  UNL     1      -5.883   0.671  -1.240  1.00  0.00     0.156 HD
ENDBRANCH   7  10
ENDBRANCH   1   4
BRANCH   1  13
HETATM   13  N2  UNL     1       0.862  -0.026   1.537  1.00  0.00    -0.246 N 
HETATM   14  C5  UNL     1       1.606  -0.908   0.711  1.00  0.00     0.266 C 
HETATM   15  O3  UNL     1       1.101  -2.043   0.512  1.00  0.00    -0.267 OA
HETATM   16  H5  UNL     1       1.239   0.909   1.724  1.00  0.00     0.182 HD
BRANCH  14  17
HETATM   17  C6  UNL     1       2.888  -0.585   0.096  1.00  0.00     0.051 A 
HETATM   18  C7  UNL     1       3.456  -1.577  -0.674  1.00  0.00     0.133 A 
HETATM   19  N3  UNL     1       4.657  -1.344  -1.280  1.00  0.00    -0.271 NA
HETATM   20  C8  UNL     1       5.251  -0.144  -1.105  1.00  0.00     0.135 A 
HETATM   21  C9  UNL     1       4.709   0.872  -0.340  1.00  0.00     0.029 A 
HETATM   22 BR1  UNL     1       5.596   2.545  -0.130  1.00  0.00    -0.050 Br
HETATM   23  C10 UNL     1       3.478   0.643   0.286  1.00  0.00     0.039 A 
ENDBRANCH  14  17
ENDBRANCH   1  13
TORSDOF 4
