REMARK  6 active torsions:
REMARK  status: ('A' for Active; 'I' for Inactive)
REMARK       I    between atoms: C1_2  and  N1_3 
REMARK    1  A    between atoms: C1_2  and  C8_14 
REMARK    2  A    between atoms: N1_3  and  P1_4 
REMARK    3  A    between atoms: P1_4  and  P2_5 
REMARK    4  A    between atoms: P2_5  and  S1_6 
REMARK    5  A    between atoms: S1_6  and  C2_8 
REMARK    6  A    between atoms: C12_20  and  O3_21 
ROOT
HETATM    1  O1  UNL     1      -1.219  -0.002  -1.216  1.00  0.00    -0.267 OA
HETATM    2  C1  UNL     1      -1.821  -0.083  -0.117  1.00  0.00     0.259 C 
HETATM    3  N1  UNL     1      -0.888  -0.122   0.948  1.00  0.00    -0.329 N 
HETATM    4  H1  UNL     1      -1.275  -0.189   1.913  1.00  0.00     0.167 HD
ENDROOT
BRANCH   3   5
HETATM    5  P1  UNL     1       0.858  -0.064   0.714  1.00  0.00     0.012 P 
HETATM    6  H2  UNL     1       1.383  -1.017  -0.218  1.00  0.00     0.086 HD
BRANCH   5   7
HETATM    7  P2  UNL     1       1.747   1.888   0.702  1.00  0.00     0.021 P 
HETATM    8  H3  UNL     1       0.860   3.002   0.618  1.00  0.00     0.078 HD
BRANCH   7   9
HETATM    9  S1  UNL     1       3.392   1.956  -0.632  1.00  0.00     0.078 S 
HETATM   10  O2  UNL     1       4.287   3.144  -0.436  1.00  0.00    -0.248 OA
BRANCH   9  11
HETATM   11  C2  UNL     1       4.289   0.463  -0.504  1.00  0.00     0.036 C 
HETATM   12  C3  UNL     1       4.454  -0.389  -1.525  1.00  0.00     0.022 C 
HETATM   13  C4  UNL     1       5.234  -1.619  -1.290  1.00  0.00     0.014 C 
HETATM   14  C5  UNL     1       6.103  -1.522  -0.314  1.00  0.00    -0.014 C 
HETATM   15  C6  UNL     1       5.829  -0.874   0.764  1.00  0.00    -0.013 C 
HETATM   16  C7  UNL     1       4.922   0.057   0.760  1.00  0.00     0.034 C 
ENDBRANCH   9  11
ENDBRANCH   7   9
ENDBRANCH   5   7
ENDBRANCH   3   5
BRANCH   2  17
HETATM   17  C8  UNL     1      -3.269  -0.121  -0.087  1.00  0.00     0.086 A 
HETATM   18  C9  UNL     1      -3.939  -0.067  -1.290  1.00  0.00     0.042 A 
HETATM   19  C10 UNL     1      -5.315  -0.099  -1.338  1.00  0.00     0.029 A 
HETATM   20 BR1  UNL     1      -6.177  -0.020  -3.036  1.00  0.00    -0.050 Br
HETATM   21  C11 UNL     1      -6.108  -0.186  -0.214  1.00  0.00     0.138 A 
HETATM   22  N2  UNL     1      -5.430  -0.237   0.946  1.00  0.00    -0.235 NA
HETATM   23  C12 UNL     1      -4.107  -0.207   0.996  1.00  0.00     0.177 A 
BRANCH  23  24
HETATM   24  O3  UNL     1      -3.516  -0.266   2.248  1.00  0.00    -0.344 OA
HETATM   25  H9  UNL     1      -3.394  -1.144   2.752  1.00  0.00     0.219 HD
ENDBRANCH  23  24
ENDBRANCH   2  17
TORSDOF 6
