REMARK  3 active torsions:
REMARK  status: ('A' for Active; 'I' for Inactive)
REMARK       I    between atoms: C1_2  and  N1_3 
REMARK    1  A    between atoms: C1_2  and  C8_14 
REMARK    2  A    between atoms: N1_3  and  S1_4 
REMARK    3  A    between atoms: S1_4  and  C2_7 
ROOT
HETATM    1  O1  UNL     1      -1.005   0.030  -1.609  1.00  0.00    -0.267 OA
HETATM    2  C1  UNL     1      -1.383  -0.205  -0.420  1.00  0.00     0.268 C 
HETATM    3  N1  UNL     1      -0.403  -1.013   0.271  1.00  0.00    -0.246 N 
HETATM    4  H1  UNL     1      -0.621  -1.253   1.268  1.00  0.00     0.182 HD
ENDROOT
BRANCH   3   5
HETATM    5  S1  UNL     1       1.012  -1.500  -0.569  1.00  0.00     0.265 S 
HETATM    6  O2  UNL     1       1.325  -2.921  -0.115  1.00  0.00    -0.200 OA
HETATM    7  O3  UNL     1       0.716  -1.662  -2.061  1.00  0.00    -0.200 OA
BRANCH   5   8
HETATM    8  C2  UNL     1       2.373  -0.441  -0.352  1.00  0.00     0.080 A 
HETATM    9  C3  UNL     1       2.648   0.724  -1.030  1.00  0.00     0.027 A 
HETATM   10  C4  UNL     1       3.806   1.453  -0.756  1.00  0.00     0.020 A 
HETATM   11  C5  UNL     1       4.673   0.981   0.211  1.00  0.00     0.011 A 
HETATM   12 BR1  UNL     1       6.233   2.037   0.537  1.00  0.00    -0.051 Br
HETATM   13  C6  UNL     1       4.431  -0.190   0.915  1.00  0.00     0.020 A 
HETATM   14  C7  UNL     1       3.265  -0.901   0.623  1.00  0.00     0.027 A 
ENDBRANCH   5   8
ENDBRANCH   3   5
BRANCH   2  15
HETATM   15  C8  UNL     1      -2.634   0.281   0.145  1.00  0.00     0.069 A 
HETATM   16  C9  UNL     1      -3.649  -0.504  -0.432  1.00  0.00     0.021 A 
HETATM   17  C10 UNL     1      -4.996  -0.293  -0.092  1.00  0.00     0.020 A 
HETATM   18  C11 UNL     1      -5.310   0.711   0.829  1.00  0.00     0.118 A 
HETATM   19  N2  UNL     1      -4.310   1.419   1.337  1.00  0.00    -0.253 NA
HETATM   20  C12 UNL     1      -3.005   1.258   1.047  1.00  0.00     0.118 A 
HETATM   21 BR2  UNL     1      -1.468   2.182   1.676  1.00  0.00    -0.028 Br
ENDBRANCH   2  15
TORSDOF 3
