REMARK  5 active torsions:
REMARK  status: ('A' for Active; 'I' for Inactive)
REMARK    1  A    between atoms: C2_2  and  C3_3 
REMARK    2  A    between atoms: C3_3  and  O1_4 
REMARK    3  A    between atoms: O1_4  and  C4_5 
REMARK    4  A    between atoms: C9_12  and  N3_13 
REMARK    5  A    between atoms: N3_13  and  C10_14 
ROOT
HETATM    1  C4  UNL     1      -1.649   1.827  -0.251  1.00  0.00     0.069 C 
HETATM    2  C5  UNL     1      -0.487   2.243   0.193  1.00  0.00     0.037 C 
HETATM    3  C6  UNL     1       0.873   1.947   0.437  1.00  0.00     0.035 C 
HETATM    4  C7  UNL     1       1.909   1.183   0.423  1.00  0.00     0.071 A 
HETATM    5  N1  UNL     1       2.834   1.973   0.960  1.00  0.00    -0.241 NA
HETATM    6  C8  UNL     1       4.115   1.790   1.220  1.00  0.00     0.236 A 
HETATM    7  N2  UNL     1       4.568   0.597   0.882  1.00  0.00    -0.224 NA
HETATM    8  C9  UNL     1       3.751  -0.300   0.332  1.00  0.00     0.141 A 
HETATM    9  C14 UNL     1       2.444  -0.026   0.102  1.00  0.00     0.035 A 
HETATM   10  C15 UNL     1       2.073  -1.210  -0.405  1.00  0.00    -0.063 C 
HETATM   11  B1  UNL     1       0.473  -1.363   1.039  1.00  0.00     0.338 B 
HETATM   12  N4  UNL     1      -0.659  -0.272   0.060  1.00  0.00    -0.381 N 
HETATM   13  O2  UNL     1      -1.042  -1.576   0.284  1.00  0.00     0.000 OA
HETATM   14  C16 UNL     1      -1.396  -2.178  -0.945  1.00  0.00     0.005 C 
HETATM   15  C17 UNL     1      -2.656  -1.557  -1.509  1.00  0.00    -0.016 C 
HETATM   16  C18 UNL     1      -3.820  -2.485  -1.569  1.00  0.00     0.010 C 
HETATM   17  C19 UNL     1      -2.916  -0.318  -0.642  1.00  0.00     0.036 C 
HETATM   18  C20 UNL     1      -1.644   0.466  -0.724  1.00  0.00     0.139 C 
ENDROOT
BRANCH   8  19
HETATM   19  N3  UNL     1       4.423  -1.534   0.034  1.00  0.00    -0.338 N 
HETATM   20  H9  UNL     1       4.079  -2.439  -0.401  1.00  0.00     0.167 HD
BRANCH  19  21
HETATM   21  C10 UNL     1       5.793  -1.708   0.321  1.00  0.00     0.072 A 
HETATM   22  C11 UNL     1       7.026  -1.694  -0.161  1.00  0.00     0.036 A 
HETATM   23  C12 UNL     1       7.660  -2.036   1.108  1.00  0.00     0.047 A 
HETATM   24  C13 UNL     1       6.421  -2.054   1.611  1.00  0.00     0.143 A 
HETATM   25  F1  UNL     1       6.125  -2.333   2.922  1.00  0.00    -0.204 F 
ENDBRANCH  19  21
ENDBRANCH   8  19
BRANCH   1  26
HETATM   26  O1  UNL     1      -2.934   2.223  -0.442  1.00  0.00    -0.350 OA
BRANCH  26  27
HETATM   27  C3  UNL     1      -3.805   2.532   0.648  1.00  0.00     0.202 C 
BRANCH  27  28
HETATM   28  C2  UNL     1      -5.160   2.866   0.185  1.00  0.00    -0.011 C 
HETATM   29  C1  UNL     1      -6.305   2.284   0.456  1.00  0.00     0.009 C 
ENDBRANCH  27  28
ENDBRANCH  26  27
ENDBRANCH   1  26
TORSDOF 5
