REMARK  5 active torsions:
REMARK  status: ('A' for Active; 'I' for Inactive)
REMARK    1  A    between atoms: C1_2  and  C2_3 
REMARK    2  A    between atoms: C7_9  and  N1_10 
REMARK    3  A    between atoms: N1_10  and  C8_11 
REMARK    4  A    between atoms: C10_13  and  N2_14 
REMARK    5  A    between atoms: N2_14  and  P1_15 
ROOT
HETATM    1  C8  UNL     1       0.382  -0.448   0.644  1.00  0.00     0.032 C 
HETATM    2  C9  UNL     1       1.210  -0.292  -0.397  1.00  0.00     0.029 C 
HETATM    3  C10 UNL     1       2.594   0.281  -0.483  1.00  0.00     0.148 C 
HETATM    4  C11 UNL     1       3.444  -0.158   0.657  1.00  0.00     0.124 C 
HETATM    5 CL1  UNL     1       5.124  -0.673   0.415  1.00  0.00    -0.065 Cl
HETATM    6  N3  UNL     1       3.184  -0.254   1.917  1.00  0.00    -0.251 NA
HETATM    7  C12 UNL     1       1.962   0.048   2.580  1.00  0.00     0.120 C 
HETATM    8  C13 UNL     1       0.741  -0.038   2.021  1.00  0.00     0.048 C 
ENDROOT
BRANCH   1   9
HETATM    9  N1  UNL     1      -0.882  -1.033   0.397  1.00  0.00    -0.356 N 
HETATM   10  H5  UNL     1      -0.538  -2.006   0.519  1.00  0.00     0.166 HD
BRANCH   9  11
HETATM   11  C7  UNL     1      -2.204  -0.686   0.090  1.00  0.00     0.046 A 
HETATM   12  C2  UNL     1      -2.663   0.588  -0.082  1.00  0.00     0.031 A 
HETATM   13  C3  UNL     1      -3.957   0.941  -0.381  1.00  0.00     0.059 A 
HETATM   14  C4  UNL     1      -4.827  -0.116  -0.507  1.00  0.00     0.117 A 
HETATM   15  F1  UNL     1      -6.129   0.108  -0.800  1.00  0.00    -0.206 F 
HETATM   16  C5  UNL     1      -4.385  -1.410  -0.337  1.00  0.00     0.044 A 
HETATM   17  C6  UNL     1      -3.081  -1.737  -0.037  1.00  0.00     0.033 A 
BRANCH  12  18
HETATM   18  C1  UNL     1      -1.748   1.708   0.047  1.00  0.00     0.272 C 
HETATM   19  O1  UNL     1      -0.665   2.269   0.245  1.00  0.00    -0.301 OA
ENDBRANCH  12  18
ENDBRANCH   9  11
ENDBRANCH   1   9
BRANCH   3  20
HETATM   20  N2  UNL     1       3.206  -0.115  -1.712  1.00  0.00    -0.290 NA
HETATM   21  H8  UNL     1       2.626   0.249  -2.502  1.00  0.00     0.127 HD
BRANCH  20  22
HETATM   22  P1  UNL     1       4.838   0.566  -1.870  1.00  0.00    -0.068 P 
HETATM   23  H9  UNL     1       5.887  -0.397  -2.011  1.00  0.00     0.071 HD
HETATM   24  H10 UNL     1       5.172   1.536  -0.867  1.00  0.00     0.071 HD
ENDBRANCH  20  22
ENDBRANCH   3  20
TORSDOF 5
