REMARK  6 active torsions:
REMARK  status: ('A' for Active; 'I' for Inactive)
REMARK    1  A    between atoms: O1_2  and  C2_3 
REMARK    2  A    between atoms: C2_3  and  N1_4 
REMARK    3  A    between atoms: C2_3  and  C10_15 
REMARK    4  A    between atoms: N1_4  and  S1_5 
REMARK    5  A    between atoms: S1_5  and  C3_8 
REMARK    6  A    between atoms: N2_17  and  C11_18 
ROOT
HETATM    1  N1  UNL     1      -0.316  -1.236   1.823  1.00  0.00    -0.184 NA
HETATM    2  H5  UNL     1      -0.646  -0.319   2.178  1.00  0.00     0.142 HD
ENDROOT
BRANCH   1   3
HETATM    3  C2  UNL     1       0.967  -1.201   1.169  1.00  0.00     0.257 C 
BRANCH   3   4
HETATM    4  O1  UNL     1       1.932  -1.726   2.022  1.00  0.00    -0.371 OA
HETATM    5  C1  UNL     1       2.685  -2.722   1.411  1.00  0.00     0.204 C 
ENDBRANCH   3   4
BRANCH   3   6
HETATM    6  C10 UNL     1       1.297   0.242   0.966  1.00  0.00     0.213 A 
HETATM    7 CL1  UNL     1       2.911   0.315   0.247  1.00  0.00    -0.064 Cl
HETATM    8  N2  UNL     1       1.858   1.354   0.674  1.00  0.00    -0.280 N 
BRANCH   8   9
HETATM    9  C11 UNL     1       1.300   2.632   0.872  1.00  0.00     0.101 C 
HETATM   10  C12 UNL     1       1.681   3.347   1.930  1.00  0.00    -0.013 C 
HETATM   11  C13 UNL     1       2.681   2.812   2.896  1.00  0.00     0.037 C 
ENDBRANCH   8   9
ENDBRANCH   3   6
ENDBRANCH   1   3
BRANCH   1  12
HETATM   12  S1  UNL     1      -1.452  -2.022   0.821  1.00  0.00     0.243 S 
HETATM   13  O2  UNL     1      -0.925  -3.407   0.509  1.00  0.00    -0.206 OA
HETATM   14  O3  UNL     1      -2.732  -2.203   1.586  1.00  0.00    -0.206 OA
BRANCH  12  15
HETATM   15  C3  UNL     1      -1.717  -1.227  -0.702  1.00  0.00     0.074 A 
HETATM   16  C4  UNL     1      -2.727  -0.265  -0.746  1.00  0.00     0.025 A 
HETATM   17  C5  UNL     1      -3.064   0.453  -1.870  1.00  0.00     0.008 A 
HETATM   18  C6  UNL     1      -2.345   0.201  -3.038  1.00  0.00    -0.062 A 
HETATM   19  C7  UNL     1      -2.709   0.978  -4.252  1.00  0.00     0.048 C 
HETATM   20  C8  UNL     1      -1.340  -0.746  -3.022  1.00  0.00     0.008 A 
HETATM   21  C9  UNL     1      -1.028  -1.449  -1.876  1.00  0.00     0.025 A 
ENDBRANCH  12  15
ENDBRANCH   1  12
TORSDOF 6
