REMARK  6 active torsions:
REMARK  status: ('A' for Active; 'I' for Inactive)
REMARK    1  A    between atoms: C1_2  and  C2_3 
REMARK    2  A    between atoms: C6_8  and  N2_9 
REMARK    3  A    between atoms: N2_9  and  C7_10 
REMARK    4  A    between atoms: C7_10  and  N3_11 
REMARK    5  A    between atoms: N3_11  and  S1_12 
REMARK    6  A    between atoms: S1_12  and  C8_15 
ROOT
HETATM    1  C7  UNL     1      -0.267  -0.731   0.576  1.00  0.00     0.226 C 
ENDROOT
BRANCH   1   2
HETATM    2  N2  UNL     1      -1.599  -0.202   0.834  1.00  0.00    -0.375 N 
HETATM    3  H5  UNL     1      -1.906   0.021   1.804  1.00  0.00     0.161 HD
BRANCH   2   4
HETATM    4  C6  UNL     1      -2.471   0.006  -0.241  1.00  0.00     0.060 A 
HETATM    5  C2  UNL     1      -3.755   0.495  -0.183  1.00  0.00     0.106 A 
HETATM    6  N1  UNL     1      -4.607   0.704  -1.180  1.00  0.00    -0.257 NA
HETATM    7  C3  UNL     1      -4.223   0.418  -2.451  1.00  0.00     0.117 A 
HETATM    8  C4  UNL     1      -2.949  -0.080  -2.626  1.00  0.00     0.022 A 
HETATM    9  C5  UNL     1      -2.085  -0.285  -1.550  1.00  0.00     0.033 A 
BRANCH   5  10
HETATM   10  C1  UNL     1      -4.279   0.836   1.117  1.00  0.00     0.412 C 
HETATM   11  O1  UNL     1      -4.007   0.870   2.336  1.00  0.00    -0.404 OA
ENDBRANCH   5  10
ENDBRANCH   2   4
ENDBRANCH   1   2
BRANCH   1  12
HETATM   12  N3  UNL     1       0.429  -0.852   1.842  1.00  0.00    -0.199 NA
HETATM   13  H8  UNL     1      -0.071  -1.476   2.489  1.00  0.00     0.141 HD
BRANCH  12  14
HETATM   14  S1  UNL     1       2.009  -1.481   1.519  1.00  0.00     0.242 S 
HETATM   15  O2  UNL     1       1.975  -2.847   0.911  1.00  0.00    -0.206 OA
HETATM   16  O3  UNL     1       2.741  -1.526   2.853  1.00  0.00    -0.206 OA
BRANCH  14  17
HETATM   17  C8  UNL     1       2.834  -0.321   0.487  1.00  0.00     0.074 A 
HETATM   18  C9  UNL     1       3.604   0.732   0.924  1.00  0.00     0.025 A 
HETATM   19  C10 UNL     1       4.183   1.551  -0.012  1.00  0.00     0.002 A 
HETATM   20  C11 UNL     1       4.012   1.342  -1.355  1.00  0.00     0.000 A 
HETATM   21  C12 UNL     1       3.232   0.275  -1.804  1.00  0.00     0.002 A 
HETATM   22  C13 UNL     1       2.646  -0.552  -0.867  1.00  0.00     0.025 A 
ENDBRANCH  14  17
ENDBRANCH  12  14
ENDBRANCH   1  12
TORSDOF 6
