REMARK  5 active torsions:
REMARK  status: ('A' for Active; 'I' for Inactive)
REMARK    1  A    between atoms: C3_3  and  N1_4 
REMARK    2  A    between atoms: C4_5  and  C5_7 
REMARK    3  A    between atoms: C5_7  and  C6_8 
REMARK       I    between atoms: C6_8  and  N2_10 
REMARK    4  A    between atoms: N2_10  and  S1_11 
REMARK    5  A    between atoms: S1_11  and  C7_14 
ROOT
HETATM    1  C6  UNL     1      -1.259   1.353   0.516  1.00  0.00     0.237 C 
HETATM    2  O1  UNL     1      -1.172   2.529   0.077  1.00  0.00    -0.272 OA
HETATM    3  N2  UNL     1      -0.023   0.623   0.376  1.00  0.00    -0.250 N 
HETATM    4  H8  UNL     1      -0.006  -0.380   0.722  1.00  0.00     0.181 HD
ENDROOT
BRANCH   3   5
HETATM    5  S1  UNL     1       1.327   1.435  -0.340  1.00  0.00     0.265 S 
HETATM    6  O2  UNL     1       1.668   2.702   0.370  1.00  0.00    -0.200 OA
HETATM    7  O3  UNL     1       1.029   1.797  -1.778  1.00  0.00    -0.200 OA
BRANCH   5   8
HETATM    8  C7  UNL     1       2.708   0.349  -0.401  1.00  0.00     0.080 A 
HETATM    9  C8  UNL     1       3.531   0.386   0.716  1.00  0.00     0.026 A 
HETATM   10  C9  UNL     1       4.654  -0.405   0.821  1.00  0.00     0.008 A 
HETATM   11  C10 UNL     1       4.976  -1.260  -0.207  1.00  0.00    -0.062 A 
HETATM   12  C11 UNL     1       6.190  -2.108  -0.082  1.00  0.00     0.048 C 
HETATM   13  C12 UNL     1       4.166  -1.295  -1.305  1.00  0.00     0.008 A 
HETATM   14  C13 UNL     1       3.045  -0.511  -1.419  1.00  0.00     0.026 A 
ENDBRANCH   5   8
ENDBRANCH   3   5
BRANCH   1  15
HETATM   15  C5  UNL     1      -2.419   0.648   1.134  1.00  0.00     0.175 C 
BRANCH  15  16
HETATM   16  C4  UNL     1      -3.547   1.603   1.160  1.00  0.00     0.112 C 
HETATM   17  N1  UNL     1      -4.750   1.791   0.740  1.00  0.00    -0.253 NA
HETATM   18 CL1  UNL     1      -3.262   3.063   2.070  1.00  0.00    -0.067 Cl
BRANCH  17  19
HETATM   19  C3  UNL     1      -5.348   0.783  -0.062  1.00  0.00     0.113 C 
HETATM   20  C2  UNL     1      -5.450  -0.529   0.075  1.00  0.00    -0.012 C 
HETATM   21  C1  UNL     1      -6.203  -1.068  -1.112  1.00  0.00     0.037 C 
ENDBRANCH  17  19
ENDBRANCH  15  16
ENDBRANCH   1  15
TORSDOF 5
