REMARK  3 active torsions:
REMARK  status: ('A' for Active; 'I' for Inactive)
REMARK       I    between atoms: C1_2  and  N1_3 
REMARK    1  A    between atoms: C1_2  and  C8_14 
REMARK    2  A    between atoms: N1_3  and  S1_4 
REMARK    3  A    between atoms: S1_4  and  C2_7 
ROOT
HETATM    1  O1  UNL     1       1.639   0.086   2.104  1.00  0.00    -0.267 OA
HETATM    2  C1  UNL     1       1.751  -0.026   0.860  1.00  0.00     0.266 C 
HETATM    3  N1  UNL     1       0.605  -0.312   0.087  1.00  0.00    -0.249 N 
HETATM    4  H1  UNL     1       0.669  -0.410  -0.942  1.00  0.00     0.182 HD
ENDROOT
BRANCH   3   5
HETATM    5  S1  UNL     1      -0.929  -0.505   0.854  1.00  0.00     0.241 S 
HETATM    6  O2  UNL     1      -0.883  -1.655   1.822  1.00  0.00    -0.205 OA
HETATM    7  O3  UNL     1      -1.241   0.716   1.679  1.00  0.00    -0.205 OA
BRANCH   5   8
HETATM    8  C2  UNL     1      -2.223  -0.860  -0.307  1.00  0.00     0.155 A 
HETATM    9  C3  UNL     1      -3.463  -1.012   0.497  1.00  0.00    -0.003 A 
HETATM   10  C4  UNL     1      -4.635  -0.403   0.487  1.00  0.00     0.021 A 
HETATM   11  C5  UNL     1      -4.773   0.643  -0.511  1.00  0.00     0.030 A 
HETATM   12 CL1  UNL     1      -6.278   1.516  -0.617  1.00  0.00    -0.085 Cl
HETATM   13  C6  UNL     1      -3.730   0.867  -1.287  1.00  0.00    -0.001 A 
HETATM   14  C7  UNL     1      -2.403   0.219  -1.318  1.00  0.00     0.055 A 
ENDBRANCH   5   8
ENDBRANCH   3   5
BRANCH   2  15
HETATM   15  C8  UNL     1       3.075   0.150   0.283  1.00  0.00     0.051 A 
HETATM   16  C9  UNL     1       4.124   0.430   1.150  1.00  0.00     0.133 A 
HETATM   17  N2  UNL     1       5.386   0.605   0.676  1.00  0.00    -0.271 NA
HETATM   18  C10 UNL     1       5.634   0.509  -0.646  1.00  0.00     0.135 A 
HETATM   19  C11 UNL     1       4.618   0.232  -1.547  1.00  0.00     0.029 A 
HETATM   20 BR1  UNL     1       4.884   0.080  -3.434  1.00  0.00    -0.050 Br
HETATM   21  C12 UNL     1       3.331   0.052  -1.069  1.00  0.00     0.039 A 
ENDBRANCH   2  15
TORSDOF 3
