REMARK  3 active torsions:
REMARK  status: ('A' for Active; 'I' for Inactive)
REMARK       I    between atoms: C1_2  and  N1_3 
REMARK    1  A    between atoms: C1_2  and  C8_14 
REMARK    2  A    between atoms: N1_3  and  S1_4 
REMARK    3  A    between atoms: S1_4  and  C2_7 
ROOT
HETATM    1  O1  UNL     1       1.510  -1.146  -1.767  1.00  0.00    -0.267 OA
HETATM    2  C1  UNL     1       1.562  -0.526  -0.664  1.00  0.00     0.268 C 
HETATM    3  N1  UNL     1       0.349  -0.155  -0.025  1.00  0.00    -0.246 N 
HETATM    4  H1  UNL     1       0.487   0.361   0.893  1.00  0.00     0.182 HD
ENDROOT
BRANCH   3   5
HETATM    5  S1  UNL     1      -1.008  -0.679  -0.979  1.00  0.00     0.265 S 
HETATM    6  O2  UNL     1      -0.871  -0.018  -2.320  1.00  0.00    -0.200 OA
HETATM    7  O3  UNL     1      -0.964  -2.175  -1.111  1.00  0.00    -0.200 OA
BRANCH   5   8
HETATM    8  C2  UNL     1      -2.510  -0.250  -0.249  1.00  0.00     0.080 A 
HETATM    9  C3  UNL     1      -3.085   0.982  -0.572  1.00  0.00     0.028 A 
HETATM   10  C4  UNL     1      -4.287   1.382  -0.020  1.00  0.00     0.044 A 
HETATM   11  C5  UNL     1      -4.940   0.556   0.868  1.00  0.00     0.116 A 
HETATM   12  F1  UNL     1      -6.113   1.025   1.361  1.00  0.00    -0.206 F 
HETATM   13  C6  UNL     1      -4.383  -0.673   1.201  1.00  0.00     0.044 A 
HETATM   14  C7  UNL     1      -3.185  -1.072   0.651  1.00  0.00     0.028 A 
ENDBRANCH   5   8
ENDBRANCH   3   5
BRANCH   2  15
HETATM   15  C8  UNL     1       2.903  -0.254  -0.158  1.00  0.00     0.073 A 
HETATM   16  C9  UNL     1       3.338   1.043   0.012  1.00  0.00     0.022 A 
HETATM   17  C10 UNL     1       4.613   1.287   0.494  1.00  0.00     0.020 A 
HETATM   18  C11 UNL     1       5.450   0.235   0.803  1.00  0.00     0.118 A 
HETATM   19  N2  UNL     1       5.035  -1.036   0.641  1.00  0.00    -0.248 NA
HETATM   20  C12 UNL     1       3.787  -1.282   0.170  1.00  0.00     0.141 A 
HETATM   21 CL1  UNL     1       3.271  -2.946  -0.033  1.00  0.00    -0.061 Cl
ENDBRANCH   2  15
TORSDOF 3
