REMARK  3 active torsions:
REMARK  status: ('A' for Active; 'I' for Inactive)
REMARK       I    between atoms: C1_2  and  N1_3 
REMARK    1  A    between atoms: C1_2  and  C8_14 
REMARK    2  A    between atoms: N1_3  and  S1_4 
REMARK    3  A    between atoms: S1_4  and  C2_7 
ROOT
HETATM    1  O1  UNL     1       0.171  -0.166   1.090  1.00  0.00    -0.267 OA
HETATM    2  C1  UNL     1       0.979  -0.178   0.126  1.00  0.00     0.268 C 
HETATM    3  N1  UNL     1       0.593  -0.167  -1.241  1.00  0.00    -0.246 N 
HETATM    4  H1  UNL     1       1.337  -0.178  -2.000  1.00  0.00     0.182 HD
ENDROOT
BRANCH   3   5
HETATM    5  S1  UNL     1      -0.955  -0.137  -1.993  1.00  0.00     0.265 S 
HETATM    6  O2  UNL     1      -1.041  -1.363  -2.879  1.00  0.00    -0.200 OA
HETATM    7  O3  UNL     1      -1.069   1.039  -2.929  1.00  0.00    -0.200 OA
BRANCH   5   8
HETATM    8  C2  UNL     1      -2.259  -0.119  -0.817  1.00  0.00     0.080 A 
HETATM    9  C3  UNL     1      -2.890  -1.220  -0.283  1.00  0.00     0.027 A 
HETATM   10  C4  UNL     1      -3.907  -1.077   0.640  1.00  0.00     0.020 A 
HETATM   11  C5  UNL     1      -4.299   0.206   1.035  1.00  0.00     0.011 A 
HETATM   12 BR1  UNL     1      -5.698   0.405   2.307  1.00  0.00    -0.051 Br
HETATM   13  C6  UNL     1      -3.653   1.313   0.489  1.00  0.00     0.020 A 
HETATM   14  C7  UNL     1      -2.633   1.175  -0.436  1.00  0.00     0.027 A 
ENDBRANCH   5   8
ENDBRANCH   3   5
BRANCH   2  15
HETATM   15  C8  UNL     1       2.426  -0.204   0.400  1.00  0.00     0.073 A 
HETATM   16  C9  UNL     1       3.070   0.917  -0.092  1.00  0.00     0.022 A 
HETATM   17  C10 UNL     1       4.449   0.998   0.112  1.00  0.00     0.020 A 
HETATM   18  C11 UNL     1       5.073  -0.043   0.787  1.00  0.00     0.118 A 
HETATM   19  N2  UNL     1       4.398  -1.122   1.250  1.00  0.00    -0.248 NA
HETATM   20  C12 UNL     1       3.054  -1.236   1.071  1.00  0.00     0.141 A 
HETATM   21 CL1  UNL     1       2.099  -2.588   1.632  1.00  0.00    -0.061 Cl
ENDBRANCH   2  15
TORSDOF 3
