REMARK  4 active torsions:
REMARK  status: ('A' for Active; 'I' for Inactive)
REMARK       I    between atoms: C1_2  and  N1_3 
REMARK    1  A    between atoms: C1_2  and  C8_14 
REMARK    2  A    between atoms: N1_3  and  S1_4 
REMARK    3  A    between atoms: S1_4  and  C2_7 
REMARK    4  A    between atoms: C5_10  and  C6_11 
ROOT
HETATM    1  O1  UNL     1       0.609  -0.130   1.029  1.00  0.00    -0.267 OA
HETATM    2  C1  UNL     1       1.364  -0.066  -0.004  1.00  0.00     0.268 C 
HETATM    3  N1  UNL     1       1.037  -0.125  -1.372  1.00  0.00    -0.246 N 
HETATM    4  H1  UNL     1       1.840  -0.048  -2.015  1.00  0.00     0.182 HD
ENDROOT
BRANCH   3   5
HETATM    5  S1  UNL     1      -0.455  -0.305  -2.181  1.00  0.00     0.265 S 
HETATM    6  O2  UNL     1      -0.406  -1.505  -3.072  1.00  0.00    -0.200 OA
HETATM    7  O3  UNL     1      -0.661   0.922  -3.023  1.00  0.00    -0.200 OA
BRANCH   5   8
HETATM    8  C2  UNL     1      -1.782  -0.477  -1.020  1.00  0.00     0.076 A 
HETATM    9  C3  UNL     1      -2.285  -1.586  -0.480  1.00  0.00     0.003 A 
HETATM   10  C4  UNL     1      -3.400  -1.288   0.454  1.00  0.00     0.063 A 
HETATM   11  C5  UNL     1      -3.478   0.195   0.380  1.00  0.00    -0.065 A 
HETATM   12  C7  UNL     1      -2.550   0.623  -0.461  1.00  0.00     0.029 A 
BRANCH  11  13
HETATM   13  C6  UNL     1      -4.505   0.875   1.207  1.00  0.00     0.119 C 
HETATM   14 BR1  UNL     1      -4.443   2.793   0.978  1.00  0.00    -0.092 Br
ENDBRANCH  11  13
ENDBRANCH   5   8
ENDBRANCH   3   5
BRANCH   2  15
HETATM   15  C8  UNL     1       2.724   0.090   0.497  1.00  0.00     0.073 A 
HETATM   16  C9  UNL     1       3.738  -0.835   0.475  1.00  0.00     0.022 A 
HETATM   17  C10 UNL     1       4.958  -0.498   1.010  1.00  0.00     0.020 A 
HETATM   18  C11 UNL     1       5.133   0.737   1.544  1.00  0.00     0.118 A 
HETATM   19  N2  UNL     1       4.157   1.696   1.590  1.00  0.00    -0.248 NA
HETATM   20  C12 UNL     1       2.940   1.355   1.056  1.00  0.00     0.141 A 
HETATM   21 CL1  UNL     1       1.699   2.621   1.137  1.00  0.00    -0.061 Cl
ENDBRANCH   2  15
TORSDOF 4
