REMARK  3 active torsions:
REMARK  status: ('A' for Active; 'I' for Inactive)
REMARK       I    between atoms: C1_2  and  N1_3 
REMARK    1  A    between atoms: C1_2  and  C8_14 
REMARK    2  A    between atoms: N1_3  and  S1_4 
REMARK    3  A    between atoms: S1_4  and  C2_7 
ROOT
HETATM    1  O1  UNL     1      -0.959  -1.841   1.065  1.00  0.00    -0.267 OA
HETATM    2  C1  UNL     1      -1.312  -0.972   0.236  1.00  0.00     0.268 C 
HETATM    3  N1  UNL     1      -0.446  -0.635  -0.836  1.00  0.00    -0.246 N 
HETATM    4  H1  UNL     1      -0.826   0.107  -1.483  1.00  0.00     0.182 HD
ENDROOT
BRANCH   3   5
HETATM    5  S1  UNL     1       1.093  -1.281  -1.175  1.00  0.00     0.265 S 
HETATM    6  O2  UNL     1       1.109  -2.723  -0.742  1.00  0.00    -0.200 OA
HETATM    7  O3  UNL     1       1.280  -1.298  -2.666  1.00  0.00    -0.200 OA
BRANCH   5   8
HETATM    8  C2  UNL     1       2.391  -0.382  -0.396  1.00  0.00     0.080 A 
HETATM    9  C3  UNL     1       2.896   0.664  -1.173  1.00  0.00     0.027 A 
HETATM   10  C4  UNL     1       3.918   1.454  -0.687  1.00  0.00     0.025 A 
HETATM   11  C5  UNL     1       4.414   1.175   0.574  1.00  0.00     0.034 A 
HETATM   12 CL1  UNL     1       5.715   2.193   1.172  1.00  0.00    -0.084 Cl
HETATM   13  C6  UNL     1       3.920   0.131   1.366  1.00  0.00     0.025 A 
HETATM   14  C7  UNL     1       2.897  -0.646   0.860  1.00  0.00     0.027 A 
ENDBRANCH   5   8
ENDBRANCH   3   5
BRANCH   2  15
HETATM   15  C8  UNL     1      -2.624  -0.317   0.395  1.00  0.00     0.073 A 
HETATM   16  C9  UNL     1      -3.540  -0.504  -0.619  1.00  0.00     0.022 A 
HETATM   17  C10 UNL     1      -4.779   0.104  -0.489  1.00  0.00     0.020 A 
HETATM   18  C11 UNL     1      -5.088   0.869   0.614  1.00  0.00     0.118 A 
HETATM   19  N2  UNL     1      -4.160   1.023   1.578  1.00  0.00    -0.248 NA
HETATM   20  C12 UNL     1      -2.937   0.448   1.494  1.00  0.00     0.141 A 
HETATM   21 CL2  UNL     1      -1.739   0.669   2.778  1.00  0.00    -0.061 Cl
ENDBRANCH   2  15
TORSDOF 3
