REMARK  4 active torsions:
REMARK  status: ('A' for Active; 'I' for Inactive)
REMARK    1  A    between atoms: C1_2  and  C2_3 
REMARK       I    between atoms: C1_2  and  N2_11 
REMARK    2  A    between atoms: C2_3  and  P1_4 
REMARK    3  A    between atoms: N2_11  and  S1_12 
REMARK    4  A    between atoms: S1_12  and  C7_15 
ROOT
HETATM    1  O1  UNL     1      -1.025  -0.307   1.681  1.00  0.00    -0.272 OA
HETATM    2  C1  UNL     1      -0.740   0.272   0.589  1.00  0.00     0.235 C 
HETATM    3  N2  UNL     1       0.587   0.218   0.080  1.00  0.00    -0.250 N 
HETATM    4  H7  UNL     1       0.842   0.690  -0.821  1.00  0.00     0.181 HD
ENDROOT
BRANCH   3   5
HETATM    5  S1  UNL     1       1.742  -0.656   1.012  1.00  0.00     0.265 S 
HETATM    6  O2  UNL     1       1.811  -0.009   2.367  1.00  0.00    -0.200 OA
HETATM    7  O3  UNL     1       1.229  -2.076   1.120  1.00  0.00    -0.200 OA
BRANCH   5   8
HETATM    8  C7  UNL     1       3.296  -0.607   0.229  1.00  0.00     0.080 A 
HETATM    9  C8  UNL     1       3.764  -1.515  -0.694  1.00  0.00     0.028 A 
HETATM   10  C9  UNL     1       5.017  -1.396  -1.267  1.00  0.00     0.044 A 
HETATM   11  C10 UNL     1       5.850  -0.340  -0.920  1.00  0.00     0.116 A 
HETATM   12  F1  UNL     1       7.096  -0.192  -1.467  1.00  0.00    -0.206 F 
HETATM   13  C11 UNL     1       5.410   0.594   0.007  1.00  0.00     0.044 A 
HETATM   14  C12 UNL     1       4.154   0.441   0.556  1.00  0.00     0.028 A 
ENDBRANCH   5   8
ENDBRANCH   3   5
BRANCH   2  15
HETATM   15  C2  UNL     1      -1.734   1.026  -0.216  1.00  0.00     0.140 C 
BRANCH  15  16
HETATM   16  P1  UNL     1      -3.370   1.012   0.544  1.00  0.00    -0.082 P 
HETATM   17  C3  UNL     1      -3.928  -0.489   0.781  1.00  0.00     0.008 A 
HETATM   18  C4  UNL     1      -5.153  -0.910   0.116  1.00  0.00     0.045 A 
HETATM   19  C5  UNL     1      -5.894  -0.176  -0.694  1.00  0.00     0.125 A 
HETATM   20 CL1  UNL     1      -7.364  -0.704  -1.482  1.00  0.00    -0.062 Cl
HETATM   21  N1  UNL     1      -5.560   1.154  -1.012  1.00  0.00    -0.248 NA
HETATM   22  C6  UNL     1      -4.530   1.787  -0.569  1.00  0.00     0.120 A 
HETATM   23  H3  UNL     1      -3.385   1.697   1.776  1.00  0.00     0.063 HD
ENDBRANCH  15  16
ENDBRANCH   2  15
TORSDOF 4
