REMARK  4 active torsions:
REMARK  status: ('A' for Active; 'I' for Inactive)
REMARK    1  A    between atoms: N1_1  and  C1_2 
REMARK    2  A    between atoms: C4_5  and  C5_6 
REMARK       I    between atoms: C5_6  and  N2_8 
REMARK    3  A    between atoms: N2_8  and  S1_9 
REMARK    4  A    between atoms: S1_9  and  C6_12 
ROOT
HETATM    1  C5  UNL     1       0.934  -0.714   1.101  1.00  0.00     0.266 C 
HETATM    2  O1  UNL     1       0.653  -1.359   2.157  1.00  0.00    -0.267 OA
HETATM    3  N2  UNL     1      -0.194  -0.350   0.322  1.00  0.00    -0.246 N 
HETATM    4  H5  UNL     1      -0.058   0.182  -0.563  1.00  0.00     0.182 HD
ENDROOT
BRANCH   3   5
HETATM    5  S1  UNL     1      -1.689  -0.882   1.012  1.00  0.00     0.265 S 
HETATM    6  O2  UNL     1      -1.868  -0.422   2.418  1.00  0.00    -0.200 OA
HETATM    7  O3  UNL     1      -1.584  -2.400   1.065  1.00  0.00    -0.200 OA
BRANCH   5   8
HETATM    8  C6  UNL     1      -3.047  -0.406   0.009  1.00  0.00     0.080 A 
HETATM    9  C7  UNL     1      -3.623   0.824   0.272  1.00  0.00     0.028 A 
HETATM   10  C8  UNL     1      -4.696   1.223  -0.504  1.00  0.00     0.044 A 
HETATM   11  C9  UNL     1      -5.191   0.429  -1.518  1.00  0.00     0.116 A 
HETATM   12  F1  UNL     1      -6.231   0.730  -2.329  1.00  0.00    -0.206 F 
HETATM   13  C10 UNL     1      -4.594  -0.810  -1.767  1.00  0.00     0.044 A 
HETATM   14  C11 UNL     1      -3.520  -1.220  -0.996  1.00  0.00     0.028 A 
ENDBRANCH   5   8
ENDBRANCH   3   5
BRANCH   1  15
HETATM   15  C4  UNL     1       2.304  -0.380   0.727  1.00  0.00     0.050 A 
HETATM   16  C3  UNL     1       2.671   0.317  -0.405  1.00  0.00     0.022 A 
HETATM   17  C2  UNL     1       3.982   0.607  -0.710  1.00  0.00     0.051 A 
HETATM   18  C1  UNL     1       4.912   0.140   0.215  1.00  0.00     0.120 A 
HETATM   19  N3  UNL     1       4.593  -0.537   1.321  1.00  0.00    -0.243 NA
HETATM   20  C12 UNL     1       3.311  -0.793   1.575  1.00  0.00     0.136 A 
BRANCH  18  21
HETATM   21  N1  UNL     1       6.288   0.389  -0.011  1.00  0.00    -0.384 N 
HETATM   22  H1  UNL     1       6.829   1.285  -0.020  1.00  0.00     0.157 HD
HETATM   23  H2  UNL     1       7.032  -0.313  -0.216  1.00  0.00     0.157 HD
ENDBRANCH  18  21
ENDBRANCH   1  15
TORSDOF 4
