REMARK  3 active torsions:
REMARK  status: ('A' for Active; 'I' for Inactive)
REMARK    1  A    between atoms: C5_5  and  S1_6 
REMARK    2  A    between atoms: S1_6  and  N1_9 
REMARK       I    between atoms: N1_9  and  C6_10 
REMARK    3  A    between atoms: C6_10  and  C7_12 
ROOT
HETATM    1  N1  UNL     1       0.054  -1.369  -0.924  1.00  0.00    -0.245 N 
HETATM    2  C6  UNL     1       1.165  -1.443  -0.048  1.00  0.00     0.281 C 
HETATM    3  O3  UNL     1       0.889  -1.722   1.163  1.00  0.00    -0.265 OA
HETATM    4  H6  UNL     1       0.223  -1.143  -1.934  1.00  0.00     0.182 HD
ENDROOT
BRANCH   1   5
HETATM    5  S1  UNL     1      -1.545  -1.635  -0.396  1.00  0.00     0.265 S 
HETATM    6  O1  UNL     1      -2.303  -2.270  -1.555  1.00  0.00    -0.200 OA
HETATM    7  O2  UNL     1      -1.607  -2.704   0.689  1.00  0.00    -0.200 OA
BRANCH   5   8
HETATM    8  C5  UNL     1      -2.360  -0.184   0.144  1.00  0.00     0.080 A 
HETATM    9  C4  UNL     1      -2.335   0.251   1.452  1.00  0.00     0.026 A 
HETATM   10  C3  UNL     1      -2.953   1.378   1.948  1.00  0.00     0.008 A 
HETATM   11  C2  UNL     1      -3.656   2.114   1.012  1.00  0.00    -0.062 A 
HETATM   12  C1  UNL     1      -4.342   3.349   1.526  1.00  0.00     0.048 C 
HETATM   13  C13 UNL     1      -3.740   1.762  -0.315  1.00  0.00     0.008 A 
HETATM   14  C12 UNL     1      -3.087   0.619  -0.713  1.00  0.00     0.026 A 
ENDBRANCH   5   8
ENDBRANCH   1   5
BRANCH   2  15
HETATM   15  C7  UNL     1       2.524  -1.226  -0.454  1.00  0.00     0.097 A 
HETATM   16  C8  UNL     1       2.894  -0.937  -1.663  1.00  0.00     0.036 A 
HETATM   17  C9  UNL     1       4.284  -0.713  -2.088  1.00  0.00     0.023 A 
HETATM   18  C10 UNL     1       5.215  -0.822  -1.132  1.00  0.00     0.029 A 
HETATM   19 CL1  UNL     1       6.882  -0.547  -1.667  1.00  0.00    -0.087 Cl
HETATM   20  C11 UNL     1       4.978  -1.147   0.297  1.00  0.00     0.171 A 
HETATM   21  N2  UNL     1       3.572  -1.325   0.499  1.00  0.00    -0.380 N 
HETATM   22  H11 UNL     1       3.379  -1.554   1.497  1.00  0.00     0.160 HD
ENDBRANCH   2  15
TORSDOF 3
