REMARK  3 active torsions:
REMARK  status: ('A' for Active; 'I' for Inactive)
REMARK       I    between atoms: C1_2  and  N1_3 
REMARK    1  A    between atoms: C1_2  and  C8_14 
REMARK    2  A    between atoms: N1_3  and  S1_4 
REMARK    3  A    between atoms: S1_4  and  C2_7 
ROOT
HETATM    1  O1  UNL     1       1.465   0.081   2.304  1.00  0.00    -0.267 OA
HETATM    2  C1  UNL     1       1.577  -0.015   1.054  1.00  0.00     0.264 C 
HETATM    3  N1  UNL     1       0.397  -0.046   0.266  1.00  0.00    -0.246 N 
HETATM    4  H1  UNL     1       0.481  -0.125  -0.765  1.00  0.00     0.182 HD
ENDROOT
BRANCH   3   5
HETATM    5  S1  UNL     1      -1.025   0.061   1.271  1.00  0.00     0.265 S 
HETATM    6  O2  UNL     1      -1.016  -0.997   2.333  1.00  0.00    -0.200 OA
HETATM    7  O3  UNL     1      -0.945   1.389   1.968  1.00  0.00    -0.200 OA
BRANCH   5   8
HETATM    8  C2  UNL     1      -2.429   0.018   0.264  1.00  0.00     0.080 A 
HETATM    9  C3  UNL     1      -2.933   1.231  -0.208  1.00  0.00     0.027 A 
HETATM   10  C4  UNL     1      -4.047   1.360  -1.022  1.00  0.00     0.025 A 
HETATM   11  C5  UNL     1      -4.702   0.181  -1.386  1.00  0.00     0.034 A 
HETATM   12 CL1  UNL     1      -6.113   0.343  -2.416  1.00  0.00    -0.084 Cl
HETATM   13  C6  UNL     1      -4.241  -1.051  -0.942  1.00  0.00     0.025 A 
HETATM   14  C7  UNL     1      -3.123  -1.106  -0.133  1.00  0.00     0.027 A 
ENDBRANCH   5   8
ENDBRANCH   3   5
BRANCH   2  15
HETATM   15  C8  UNL     1       2.922  -0.088   0.490  1.00  0.00     0.050 C 
HETATM   16  C9  UNL     1       3.933  -0.047   1.345  1.00  0.00     0.018 C 
HETATM   17  C10 UNL     1       5.269  -0.125   0.715  1.00  0.00     0.034 C 
HETATM   18  C11 UNL     1       5.432   0.254  -0.539  1.00  0.00     0.081 C 
HETATM   19  N2  UNL     1       4.397   0.516  -1.237  1.00  0.00    -0.262 NA
HETATM   20  C12 UNL     1       3.140  -0.202  -0.978  1.00  0.00     0.243 C 
HETATM   21 CL2  UNL     1       3.481  -1.899  -1.455  1.00  0.00    -0.095 Cl
ENDBRANCH   2  15
TORSDOF 3
