REMARK  4 active torsions:
REMARK  status: ('A' for Active; 'I' for Inactive)
REMARK    1  A    between atoms: C2_3  and  C3_4 
REMARK    2  A    between atoms: C3_4  and  C4_5 
REMARK    3  A    between atoms: C12_14  and  C13_15 
REMARK    4  A    between atoms: C13_15  and  C14_16 
ROOT
HETATM    1  N1  UNL     1       3.809   3.487  -1.714  1.00  0.00    -0.197 NA
HETATM    2  C1  UNL     1       3.422   2.672  -0.972  1.00  0.00     0.059 C 
HETATM    3  C2  UNL     1       2.917   1.659  -0.053  1.00  0.00     0.128 C 
ENDROOT
BRANCH   3   4
HETATM    4  C3  UNL     1       2.617   0.400  -0.837  1.00  0.00     0.056 C 
BRANCH   4   5
HETATM    5  C4  UNL     1       2.093  -0.676   0.083  1.00  0.00    -0.015 C 
HETATM    6  C5  UNL     1       1.762  -1.024   1.347  1.00  0.00     0.083 C 
HETATM    7  N2  UNL     1       2.829  -2.025   1.397  1.00  0.00    -0.379 N 
HETATM    8  S2  UNL     1       0.500  -0.321   2.303  1.00  0.00    -0.039 SA
HETATM    9  C6  UNL     1       3.134  -2.320  -0.042  1.00  0.00     0.159 C 
HETATM   10  H5  UNL     1       3.180  -2.354   2.355  1.00  0.00     0.160 HD
HETATM   11  C7  UNL     1       1.794  -1.935  -0.555  1.00  0.00    -0.032 C 
HETATM   12  C8  UNL     1       0.989  -2.759  -1.148  1.00  0.00     0.009 C 
HETATM   13  C9  UNL     1       0.012  -1.735  -0.957  1.00  0.00    -0.003 C 
HETATM   14  C10 UNL     1      -0.510  -0.604  -0.603  1.00  0.00    -0.026 C 
HETATM   15  C11 UNL     1      -1.863   0.024  -0.664  1.00  0.00     0.043 C 
HETATM   16  C12 UNL     1      -2.286   0.342   0.778  1.00  0.00     0.063 C 
HETATM   17  S1  UNL     1      -1.490  -0.750   1.919  1.00  0.00    -0.086 SA
BRANCH  16  18
HETATM   18  C13 UNL     1      -3.698   0.696   0.963  1.00  0.00     0.030 C 
BRANCH  18  19
HETATM   19  C14 UNL     1      -4.026   1.948   0.134  1.00  0.00     0.125 C 
HETATM   20  C15 UNL     1      -5.417   2.281   0.335  1.00  0.00     0.059 C 
HETATM   21  N3  UNL     1      -6.516   2.552   0.490  1.00  0.00    -0.197 NA
ENDBRANCH  18  19
ENDBRANCH  16  18
ENDBRANCH   4   5
ENDBRANCH   3   4
TORSDOF 4
