REMARK  12 active torsions:
REMARK  status: ('A' for Active; 'I' for Inactive)
REMARK    1  A    between atoms: C3_3  and  C4_4 
REMARK    2  A    between atoms: C4_4  and  C5_5 
REMARK    3  A    between atoms: C5_5  and  C6_6 
REMARK    4  A    between atoms: C6_6  and  C7_7 
REMARK    5  A    between atoms: C7_7  and  C14_18 
REMARK    6  A    between atoms: C8_8  and  S1_9 
REMARK    7  A    between atoms: S1_9  and  C9_10 
REMARK    8  A    between atoms: C10_11  and  C11_12 
REMARK    9  A    between atoms: C11_12  and  C12_13 
REMARK   10  A    between atoms: C12_13  and  C13_14 
REMARK   11  A    between atoms: C14_18  and  C15_19 
REMARK   12  A    between atoms: C15_19  and  C16_20 
ROOT
HETATM    1  C1  UNL     1       4.992  -4.069   0.800  1.00  0.00     0.036 C 
HETATM    2  C2  UNL     1       4.653  -2.688   1.019  1.00  0.00    -0.031 C 
HETATM    3  C3  UNL     1       4.403  -1.441   1.321  1.00  0.00    -0.005 C 
ENDROOT
BRANCH   3   4
HETATM    4  C4  UNL     1       3.625  -0.980   0.149  1.00  0.00    -0.004 C 
BRANCH   4   5
HETATM    5  C5  UNL     1       2.997   0.060  -0.384  1.00  0.00    -0.022 C 
BRANCH   5   6
HETATM    6  C6  UNL     1       2.219   0.947  -1.293  1.00  0.00     0.061 C 
BRANCH   6   7
HETATM    7  C7  UNL     1       0.979   1.471  -0.681  1.00  0.00    -0.070 C 
HETATM    8  C8  UNL     1      -0.149   1.178  -1.383  1.00  0.00     0.055 C 
BRANCH   8   9
HETATM    9  S1  UNL     1      -1.929   1.481  -1.238  1.00  0.00    -0.074 SA
BRANCH   9  10
HETATM   10  C9  UNL     1      -2.781  -0.084  -1.108  1.00  0.00     0.146 A 
HETATM   11  C10 UNL     1      -3.986  -0.715  -0.999  1.00  0.00     0.095 A 
HETATM   12  O3  UNL     1      -2.830  -1.475  -1.041  1.00  0.00    -0.302 OA
BRANCH  11  13
HETATM   13  C11 UNL     1      -5.465  -0.774  -0.899  1.00  0.00     0.075 C 
BRANCH  13  14
HETATM   14  C12 UNL     1      -5.927  -1.450   0.395  1.00  0.00     0.077 C 
BRANCH  14  15
HETATM   15  C13 UNL     1      -7.407  -1.432   0.344  1.00  0.00     0.117 A 
HETATM   16  O1  UNL     1      -7.846  -0.285   0.698  1.00  0.00    -0.194 OA
HETATM   17  O2  UNL     1      -8.793  -1.318   0.329  1.00  0.00     0.000 OA
HETATM   18  H15 UNL     1      -9.364  -1.993  -0.210  1.00  0.00     0.000 HD
ENDBRANCH  14  15
ENDBRANCH  13  14
ENDBRANCH  11  13
ENDBRANCH   9  10
ENDBRANCH   8   9
BRANCH   7  19
HETATM   19  C14 UNL     1       0.711   2.220   0.558  1.00  0.00     0.041 C 
BRANCH  19  20
HETATM   20  C15 UNL     1       1.310   3.585   0.506  1.00  0.00     0.075 C 
BRANCH  20  21
HETATM   21  C16 UNL     1       2.770   3.566   0.355  1.00  0.00     0.117 A 
HETATM   22  O4  UNL     1       3.316   4.142  -0.650  1.00  0.00    -0.194 OA
HETATM   23  O5  UNL     1       4.142   3.440   0.390  1.00  0.00     0.000 OA
HETATM   24  H20 UNL     1       4.641   3.444   1.292  1.00  0.00     0.000 HD
ENDBRANCH  20  21
ENDBRANCH  19  20
ENDBRANCH   7  19
ENDBRANCH   6   7
ENDBRANCH   5   6
ENDBRANCH   4   5
ENDBRANCH   3   4
TORSDOF 12
