REMARK  9 active torsions:
REMARK  status: ('A' for Active; 'I' for Inactive)
REMARK    1  A    between atoms: C2_2  and  O1_3 
REMARK    2  A    between atoms: C2_2  and  C3_4 
REMARK    3  A    between atoms: C3_4  and  C4_5 
REMARK    4  A    between atoms: C4_5  and  C5_6 
REMARK    5  A    between atoms: C8_10  and  S1_13 
REMARK    6  A    between atoms: C17_20  and  C18_21 
REMARK    7  A    between atoms: C18_21  and  C19_22 
REMARK    8  A    between atoms: C19_22  and  C20_23 
REMARK    9  A    between atoms: C20_23  and  O3_25 
ROOT
HETATM    1  C5  UNL     1       1.896   0.655  -1.482  1.00  0.00     0.036 C 
HETATM    2  C6  UNL     1       0.932   0.303  -0.580  1.00  0.00    -0.019 A 
HETATM    3  C7  UNL     1      -0.004   0.116   0.133  1.00  0.00     0.243 A 
HETATM    4  N1  UNL     1      -0.916  -0.244   0.987  1.00  0.00     0.019 N 
HETATM    5  C8  UNL     1       0.123  -1.182   1.229  1.00  0.00     0.241 A 
HETATM    6  C9  UNL     1       0.801  -2.236   1.776  1.00  0.00     0.137 A 
HETATM    7  C10 UNL     1      -0.335  -2.817   0.925  1.00  0.00    -0.023 A 
HETATM    8  S1  UNL     1      -0.633  -1.247   0.902  1.00  0.00    -0.028 SA
HETATM    9  C11 UNL     1      -2.462  -1.127   1.265  1.00  0.00     0.009 A 
HETATM   10  C12 UNL     1      -3.138  -2.266   1.726  1.00  0.00     0.018 A 
HETATM   11  C13 UNL     1      -4.472  -2.131   1.807  1.00  0.00     0.001 A 
HETATM   12  C14 UNL     1      -5.259  -1.063   1.515  1.00  0.00     0.001 A 
HETATM   13  C15 UNL     1      -4.657   0.080   1.067  1.00  0.00     0.011 A 
HETATM   14  C16 UNL     1      -3.325  -0.043   0.982  1.00  0.00    -0.010 A 
HETATM   15  C17 UNL     1      -1.981   0.676   0.777  1.00  0.00     0.240 C 
HETATM   16  C21 UNL     1      -1.088  -3.779   0.178  1.00  0.00     0.070 C 
HETATM   17  C22 UNL     1      -0.170  -3.621  -1.115  1.00  0.00     0.002 C 
HETATM   18  C23 UNL     1       0.884  -2.834  -1.408  1.00  0.00     0.132 C 
HETATM   19  O4  UNL     1       1.541  -1.911  -0.643  1.00  0.00    -0.350 OA
HETATM   20  C24 UNL     1       1.458  -0.803   0.225  1.00  0.00     0.222 A 
ENDROOT
BRANCH   1  21
HETATM   21  C4  UNL     1       3.229   1.130  -0.865  1.00  0.00     0.007 C 
BRANCH  21  22
HETATM   22  C3  UNL     1       3.089   2.343  -0.022  1.00  0.00     0.032 C 
BRANCH  22  23
HETATM   23  C2  UNL     1       4.501   2.654   0.496  1.00  0.00     0.114 C 
HETATM   24  C1  UNL     1       4.525   3.871   1.366  1.00  0.00     0.039 C 
BRANCH  23  25
HETATM   25  O1  UNL     1       5.371   2.857  -0.574  1.00  0.00    -0.396 OA
HETATM   26  H5  UNL     1       5.852   2.028  -0.819  1.00  0.00     0.210 HD
ENDBRANCH  23  25
ENDBRANCH  22  23
ENDBRANCH  21  22
ENDBRANCH   1  21
BRANCH  15  27
HETATM   27  C18 UNL     1      -2.036   1.231  -0.595  1.00  0.00     0.050 C 
BRANCH  27  28
HETATM   28  C19 UNL     1      -2.245   0.286  -1.716  1.00  0.00     0.112 C 
BRANCH  28  29
HETATM   29  C20 UNL     1      -2.289   0.963  -3.046  1.00  0.00     0.139 C 
HETATM   30  O2  UNL     1      -2.438   0.378  -4.145  1.00  0.00    -0.650 OA
BRANCH  29  31
HETATM   31  O3  UNL     1      -2.156   2.351  -3.050  1.00  0.00    -0.776 OA
HETATM   32  H22 UNL     1      -2.615   2.840  -3.834  1.00  0.00     0.167 HD
ENDBRANCH  29  31
ENDBRANCH  28  29
ENDBRANCH  27  28
ENDBRANCH  15  27
TORSDOF 9
