REMARK  5 active torsions:
REMARK  status: ('A' for Active; 'I' for Inactive)
REMARK    1  A    between atoms: C1_2  and  C2_3 
REMARK    2  A    between atoms: C2_3  and  C3_4 
REMARK    3  A    between atoms: C3_4  and  C4_5 
REMARK       I    between atoms: C4_5  and  N1_7 
REMARK    4  A    between atoms: N1_7  and  C5_8 
REMARK    5  A    between atoms: C5_8  and  C6_9 
ROOT
HETATM    1  C3  UNL     1      -1.210   0.610   0.015  1.00  0.00     0.140 C 
ENDROOT
BRANCH   1   2
HETATM    2  C2  UNL     1      -2.060  -0.448  -0.628  1.00  0.00     0.083 C 
HETATM    3  C12 UNL     1      -2.300  -1.599   0.285  1.00  0.00     0.007 C 
HETATM    4  C13 UNL     1      -3.082  -1.512   1.373  1.00  0.00    -0.002 C 
HETATM    5  C14 UNL     1      -3.821  -0.316   1.850  1.00  0.00    -0.003 C 
HETATM    6  C15 UNL     1      -4.280   0.605   0.975  1.00  0.00    -0.008 C 
HETATM    7  C16 UNL     1      -4.225   0.733  -0.502  1.00  0.00     0.142 C 
HETATM    8  N2  UNL     1      -3.182   0.162  -1.196  1.00  0.00    -0.404 N 
HETATM    9  H18 UNL     1      -3.474  -0.302  -2.060  1.00  0.00     0.154 HD
BRANCH   2  10
HETATM   10  C1  UNL     1      -1.255  -0.990  -1.758  1.00  0.00     0.426 C 
HETATM   11  O1  UNL     1      -0.795  -1.330  -2.827  1.00  0.00    -0.427 OA
ENDBRANCH   2  10
ENDBRANCH   1   2
BRANCH   1  12
HETATM   12  C4  UNL     1       0.064   0.163   0.544  1.00  0.00     0.220 C 
HETATM   13  O2  UNL     1       0.141  -1.075   0.331  1.00  0.00    -0.274 OA
HETATM   14  N1  UNL     1       1.003   1.012   1.172  1.00  0.00    -0.357 N 
HETATM   15  H4  UNL     1       0.711   2.003   1.231  1.00  0.00     0.162 HD
BRANCH  14  16
HETATM   16  C5  UNL     1       2.250   0.490   1.674  1.00  0.00     0.161 C 
BRANCH  16  17
HETATM   17  C6  UNL     1       3.251   0.225   0.611  1.00  0.00    -0.041 A 
HETATM   18  C7  UNL     1       4.098   1.261   0.266  1.00  0.00     0.009 A 
HETATM   19  C8  UNL     1       5.088   1.206  -0.689  1.00  0.00     0.001 A 
HETATM   20  C9  UNL     1       5.243   0.011  -1.355  1.00  0.00     0.000 A 
HETATM   21  C10 UNL     1       4.421  -1.056  -1.047  1.00  0.00     0.001 A 
HETATM   22  C11 UNL     1       3.430  -0.961  -0.074  1.00  0.00     0.009 A 
ENDBRANCH  16  17
ENDBRANCH  14  16
ENDBRANCH   1  12
TORSDOF 5
