REMARK  3 active torsions:
REMARK  status: ('A' for Active; 'I' for Inactive)
REMARK    1  A    between atoms: C9_10  and  S1_11 
REMARK    2  A    between atoms: S1_11  and  S2_12 
REMARK    3  A    between atoms: S2_12  and  C10_13 
ROOT
HETATM    1  O1  UNL     1      -5.538   1.346   2.845  1.00  0.00    -0.292 OA
HETATM    2  C1  UNL     1      -4.659   1.480   2.009  1.00  0.00     0.163 C 
HETATM    3  C2  UNL     1      -3.730   2.619   1.633  1.00  0.00     0.085 C 
HETATM    4  C3  UNL     1      -4.223   3.054   0.248  1.00  0.00    -0.012 C 
HETATM    5  C4  UNL     1      -4.180   3.263  -1.089  1.00  0.00     0.046 C 
HETATM    6  C5  UNL     1      -3.043   2.936  -1.934  1.00  0.00     0.004 C 
HETATM    7  C6  UNL     1      -1.775   2.459  -2.085  1.00  0.00     0.010 C 
HETATM    8  C7  UNL     1      -0.430   1.994  -2.594  1.00  0.00     0.093 C 
HETATM    9  C8  UNL     1      -0.254   0.893  -1.562  1.00  0.00    -0.040 C 
HETATM   10  C9  UNL     1      -0.190   1.576  -0.402  1.00  0.00     0.083 C 
HETATM   11  N2  UNL     1      -1.188   2.601  -0.729  1.00  0.00    -0.353 N 
HETATM   12  C18 UNL     1      -0.221  -0.575  -1.711  1.00  0.00     0.038 C 
HETATM   13  C19 UNL     1      -0.828  -1.403  -0.655  1.00  0.00     0.019 C 
HETATM   14  C20 UNL     1      -2.255  -1.204  -0.281  1.00  0.00     0.092 C 
HETATM   15  N3  UNL     1      -2.537   0.038   0.399  1.00  0.00    -0.296 NA
HETATM   16  P1  UNL     1      -4.264   0.073   0.879  1.00  0.00     0.017 P 
HETATM   17  H14 UNL     1      -1.449   3.391  -0.012  1.00  0.00     0.166 HD
HETATM   18  H21 UNL     1      -1.949   0.089   1.274  1.00  0.00     0.126 HD
HETATM   19  H22 UNL     1      -5.149  -0.005  -0.244  1.00  0.00     0.082 HD
ENDROOT
BRANCH  10  20
HETATM   20  S1  UNL     1       0.756   1.325   1.088  1.00  0.00    -0.037 SA
BRANCH  20  21
HETATM   21  S2  UNL     1       2.581   0.372   0.733  1.00  0.00    -0.058 SA
BRANCH  21  22
HETATM   22  C10 UNL     1       2.576  -1.405   0.797  1.00  0.00     0.214 A 
HETATM   23  N1  UNL     1       2.241  -1.869   2.117  1.00  0.00    -0.280 NA
HETATM   24  C11 UNL     1       3.181  -2.527   2.652  1.00  0.00     0.124 A 
HETATM   25  C12 UNL     1       4.323  -2.621   1.774  1.00  0.00    -0.010 A 
HETATM   26  C13 UNL     1       5.578  -3.187   1.813  1.00  0.00     0.013 A 
HETATM   27  C17 UNL     1       3.979  -1.943   0.630  1.00  0.00    -0.011 A 
HETATM   28  C14 UNL     1       6.472  -3.097   0.770  1.00  0.00     0.001 A 
HETATM   29  C15 UNL     1       6.111  -2.410  -0.377  1.00  0.00     0.001 A 
HETATM   30  C16 UNL     1       4.856  -1.840  -0.424  1.00  0.00     0.011 A 
ENDBRANCH  21  22
ENDBRANCH  20  21
ENDBRANCH  10  20
TORSDOF 3
