REMARK  5 active torsions:
REMARK  status: ('A' for Active; 'I' for Inactive)
REMARK    1  A    between atoms: N1_2  and  C2_3 
REMARK    2  A    between atoms: C2_3  and  C3_4 
REMARK    3  A    between atoms: C11_15  and  C12_16 
REMARK    4  A    between atoms: C15_19  and  N3_20 
REMARK    5  A    between atoms: N3_20  and  C16_21 
ROOT
HETATM    1  C3  UNL     1      -1.792   0.771   1.856  1.00  0.00     0.066 C 
HETATM    2  C4  UNL     1      -3.002  -0.114   1.632  1.00  0.00     0.127 C 
HETATM    3  N2  UNL     1      -3.084  -1.082   2.659  1.00  0.00    -0.416 N 
HETATM    4  C5  UNL     1      -3.430  -0.533   3.959  1.00  0.00     0.143 C 
HETATM    5  C6  UNL     1      -2.278  -2.197   2.692  1.00  0.00     0.118 C 
HETATM    6  C7  UNL     1      -2.436  -3.337   1.750  1.00  0.00     0.046 C 
HETATM    7  C8  UNL     1      -1.110  -4.185   1.908  1.00  0.00     0.170 C 
HETATM    8  O1  UNL     1      -0.110  -3.174   1.712  1.00  0.00    -0.382 OA
HETATM    9  C9  UNL     1      -0.185  -2.708   0.425  1.00  0.00     0.236 C 
HETATM   10  S1  UNL     1       0.453  -1.048   0.249  1.00  0.00    -0.155 SA
HETATM   11  C10 UNL     1      -0.654   0.164   1.003  1.00  0.00    -0.026 A 
HETATM   12  C11 UNL     1       0.210   0.513   0.002  1.00  0.00     0.103 A 
ENDROOT
BRANCH  12  13
HETATM   13  C12 UNL     1       0.742   1.548  -0.975  1.00  0.00     0.020 C 
HETATM   14  C13 UNL     1       1.706   0.862  -1.628  1.00  0.00     0.041 A 
HETATM   15  C14 UNL     1       2.485  -0.380  -1.856  1.00  0.00     0.137 A 
HETATM   16  N4  UNL     1       2.503   1.485  -2.679  1.00  0.00    -0.239 NA
HETATM   17  C15 UNL     1       3.168   0.416  -2.868  1.00  0.00     0.110 A 
BRANCH  17  18
HETATM   18  N3  UNL     1       4.200   0.294  -3.829  1.00  0.00    -0.344 N 
HETATM   19  H23 UNL     1       4.786  -0.592  -3.877  1.00  0.00     0.167 HD
BRANCH  18  20
HETATM   20  C16 UNL     1       4.573   1.268  -4.799  1.00  0.00     0.033 A 
HETATM   21  C17 UNL     1       4.773   1.896  -5.956  1.00  0.00     0.029 A 
HETATM   22  C18 UNL     1       5.373   3.098  -5.345  1.00  0.00     0.004 A 
HETATM   23  C19 UNL     1       5.172   2.469  -4.180  1.00  0.00     0.029 A 
ENDBRANCH  18  20
ENDBRANCH  17  18
ENDBRANCH  12  13
BRANCH   1  24
HETATM   24  C2  UNL     1      -2.135   2.101   1.163  1.00  0.00     0.261 C 
BRANCH  24  25
HETATM   25  N1  UNL     1      -1.138   3.095   1.316  1.00  0.00     0.015 NA
HETATM   26  C1  UNL     1      -1.087   4.131   0.531  1.00  0.00     0.706 C 
ENDBRANCH  24  25
ENDBRANCH   1  24
TORSDOF 5
