REMARK  8 active torsions:
REMARK  status: ('A' for Active; 'I' for Inactive)
REMARK    1  A    between atoms: C2_2  and  C3_3 
REMARK    2  A    between atoms: C2_2  and  N3_15 
REMARK    3  A    between atoms: C3_3  and  C4_4 
REMARK    4  A    between atoms: C4_4  and  C5_5 
REMARK    5  A    between atoms: C6_6  and  N1_7 
REMARK    6  A    between atoms: C6_6  and  N2_8 
REMARK    7  A    between atoms: N2_8  and  C7_9 
REMARK    8  A    between atoms: N3_15  and  C13_16 
ROOT
HETATM    1  C4  UNL     1       0.187  -0.184   0.618  1.00  0.00     0.033 C 
ENDROOT
BRANCH   1   2
HETATM    2  C3  UNL     1      -1.057  -0.004  -0.173  1.00  0.00     0.028 C 
BRANCH   2   3
HETATM    3  C2  UNL     1      -1.877   1.145   0.219  1.00  0.00     0.079 C 
HETATM    4  C1  UNL     1      -1.171   2.460   0.013  1.00  0.00     0.032 C 
BRANCH   3   5
HETATM    5  N3  UNL     1      -3.164   1.221  -0.451  1.00  0.00    -0.366 N 
HETATM    6  H18 UNL     1      -3.452   2.116  -0.954  1.00  0.00     0.162 HD
BRANCH   5   7
HETATM    7  C13 UNL     1      -4.114   0.164  -0.492  1.00  0.00     0.143 C 
HETATM    8  C14 UNL     1      -4.181  -0.723   0.507  1.00  0.00     0.056 C 
HETATM    9  C15 UNL     1      -5.062  -1.889   0.698  1.00  0.00     0.004 C 
HETATM   10  C16 UNL     1      -6.210  -2.151   0.072  1.00  0.00     0.002 C 
HETATM   11  C17 UNL     1      -6.847  -1.320  -0.952  1.00  0.00     0.025 C 
HETATM   12  C18 UNL     1      -6.300  -0.356  -1.670  1.00  0.00     0.144 C 
HETATM   13  O1  UNL     1      -4.965   0.095  -1.611  1.00  0.00    -0.306 OA
ENDBRANCH   5   7
ENDBRANCH   3   5
ENDBRANCH   2   3
ENDBRANCH   1   2
BRANCH   1  14
HETATM   14  C5  UNL     1       1.158   0.882   0.611  1.00  0.00     0.021 C 
HETATM   15  C6  UNL     1       2.394   0.763   0.070  1.00  0.00     0.095 C 
BRANCH  15  16
HETATM   16  N1  UNL     1       3.314   1.879   0.099  1.00  0.00    -0.386 N 
HETATM   17  H10 UNL     1       3.343   2.217  -0.883  1.00  0.00     0.157 HD
HETATM   18  H11 UNL     1       3.983   2.622   0.340  1.00  0.00     0.157 HD
ENDBRANCH  15  16
BRANCH  15  19
HETATM   19  N2  UNL     1       2.875  -0.456  -0.542  1.00  0.00    -0.343 N 
HETATM   20  H12 UNL     1       2.199  -1.105  -1.039  1.00  0.00     0.167 HD
BRANCH  19  21
HETATM   21  C7  UNL     1       4.287  -0.621  -0.378  1.00  0.00     0.033 A 
HETATM   22  C8  UNL     1       5.213  -0.276  -1.333  1.00  0.00     0.029 A 
HETATM   23  C9  UNL     1       6.571  -0.429  -1.115  1.00  0.00     0.002 A 
HETATM   24  C10 UNL     1       6.979  -0.940   0.089  1.00  0.00     0.000 A 
HETATM   25  C11 UNL     1       6.097  -1.305   1.091  1.00  0.00     0.002 A 
HETATM   26  C12 UNL     1       4.750  -1.130   0.817  1.00  0.00     0.029 A 
ENDBRANCH  19  21
ENDBRANCH  15  19
ENDBRANCH   1  14
TORSDOF 8
