REMARK  8 active torsions:
REMARK  status: ('A' for Active; 'I' for Inactive)
REMARK    1  A    between atoms: O1_2  and  C2_3 
REMARK    2  A    between atoms: C2_3  and  C3_5 
REMARK    3  A    between atoms: C6_8  and  C7_9 
REMARK    4  A    between atoms: C7_9  and  P1_10 
REMARK    5  A    between atoms: C8_11  and  N1_12 
REMARK       I    between atoms: N1_12  and  C9_13 
REMARK    6  A    between atoms: C9_13  and  C10_15 
REMARK    7  A    between atoms: C10_15  and  C11_16 
REMARK    8  A    between atoms: C11_16  and  C12_17 
ROOT
HETATM    1  C3  UNL     1       3.909   0.435  -0.392  1.00  0.00     0.041 A 
HETATM    2  C4  UNL     1       4.557  -0.271  -1.377  1.00  0.00     0.018 A 
HETATM    3  C5  UNL     1       3.768  -1.060  -2.185  1.00  0.00     0.011 A 
HETATM    4  C6  UNL     1       2.403  -1.152  -2.035  1.00  0.00    -0.028 A 
HETATM    5  C8  UNL     1       1.744  -0.452  -1.054  1.00  0.00     0.042 A 
HETATM    6  C16 UNL     1       2.547   0.329  -0.258  1.00  0.00     0.047 A 
ENDROOT
BRANCH   5   7
HETATM    7  N1  UNL     1       0.340  -0.595  -0.959  1.00  0.00    -0.327 N 
HETATM    8  C9  UNL     1      -0.545   0.005  -0.040  1.00  0.00     0.222 C 
HETATM    9  O3  UNL     1      -0.116   0.782   0.848  1.00  0.00    -0.273 OA
HETATM   10  H10 UNL     1      -0.179  -1.195  -1.604  1.00  0.00     0.169 HD
BRANCH   8  11
HETATM   11  C10 UNL     1      -1.993  -0.155   0.039  1.00  0.00     0.107 C 
BRANCH  11  12
HETATM   12  C11 UNL     1      -2.619   0.630   1.163  1.00  0.00     0.044 C 
BRANCH  12  13
HETATM   13  C12 UNL     1      -4.075   0.373   1.113  1.00  0.00    -0.063 C 
HETATM   14  C13 UNL     1      -4.718  -0.397   0.243  1.00  0.00     0.085 C 
HETATM   15  N2  UNL     1      -6.137  -0.414   0.497  1.00  0.00    -0.398 N 
HETATM   16  C14 UNL     1      -6.415   0.632   1.468  1.00  0.00     0.123 C 
HETATM   17  H16 UNL     1      -6.855  -1.041   0.082  1.00  0.00     0.158 HD
HETATM   18  C15 UNL     1      -5.083   0.958   2.069  1.00  0.00     0.055 C 
ENDBRANCH  12  13
ENDBRANCH  11  12
ENDBRANCH   8  11
ENDBRANCH   5   7
BRANCH   4  19
HETATM   19  C7  UNL     1       1.687  -2.043  -2.984  1.00  0.00     0.069 C 
BRANCH  19  20
HETATM   20  P1  UNL     1       1.177  -3.652  -2.220  1.00  0.00    -0.137 P 
HETATM   21  H8  UNL     1       0.976  -3.534  -0.791  1.00  0.00     0.054 HD
HETATM   22  H9  UNL     1       2.163  -4.692  -2.443  1.00  0.00     0.054 HD
ENDBRANCH  19  20
ENDBRANCH   4  19
BRANCH   1  23
HETATM   23  C2  UNL     1       4.697   1.272   0.474  1.00  0.00     0.293 C 
HETATM   24  O2  UNL     1       5.939   1.361   0.345  1.00  0.00    -0.259 OA
BRANCH  23  25
HETATM   25  O1  UNL     1       4.241   2.059   1.515  1.00  0.00    -0.323 OA
HETATM   26  C1  UNL     1       5.095   2.855   2.316  1.00  0.00     0.213 C 
ENDBRANCH  23  25
ENDBRANCH   1  23
TORSDOF 8
