REMARK  1 active torsions:
REMARK  status: ('A' for Active; 'I' for Inactive)
REMARK    1  A    between atoms: C11_14  and  C15_19 
ROOT
HETATM    1  C1  UNL     1      -3.256   1.814   0.013  1.00  0.00     0.032 C 
HETATM    2  C2  UNL     1      -2.552   0.632   0.613  1.00  0.00     0.080 C 
HETATM    3  C3  UNL     1      -1.091   1.085   0.867  1.00  0.00     0.059 C 
HETATM    4  C4  UNL     1      -0.285  -0.177   0.668  1.00  0.00    -0.072 C 
HETATM    5  C5  UNL     1      -0.853  -1.032   1.509  1.00  0.00    -0.004 C 
HETATM    6  C6  UNL     1      -1.800  -1.574   0.475  1.00  0.00     0.145 C 
HETATM    7  N1  UNL     1      -2.535  -0.551  -0.151  1.00  0.00    -0.396 N 
HETATM    8  C7  UNL     1      -2.634  -0.508  -1.549  1.00  0.00     0.204 C 
HETATM    9  S1  UNL     1      -1.167  -0.814  -2.520  1.00  0.00    -0.075 SA
HETATM   10  S2  UNL     1       0.298   0.729  -2.399  1.00  0.00    -0.059 SA
HETATM   11  C8  UNL     1       1.387   0.505  -1.120  1.00  0.00     0.114 C 
HETATM   12  C9  UNL     1       1.541   1.673  -0.096  1.00  0.00     0.013 C 
HETATM   13  C10 UNL     1       2.456   1.214   0.837  1.00  0.00    -0.020 C 
HETATM   14  C11 UNL     1       3.127  -0.181   0.815  1.00  0.00     0.038 C 
HETATM   15  C12 UNL     1       3.909   0.078  -0.626  1.00  0.00     0.129 C 
HETATM   16  N2  UNL     1       2.582  -0.215  -1.084  1.00  0.00    -0.377 N 
HETATM   17  C13 UNL     1       2.649  -1.577  -1.009  1.00  0.00     0.070 A 
HETATM   18  C14 UNL     1       2.321  -2.507   0.005  1.00  0.00     0.037 A 
HETATM   19  C15 UNL     1       2.075  -1.159   0.351  1.00  0.00     0.013 A 
HETATM   20  C16 UNL     1       0.755  -0.578  -0.137  1.00  0.00     0.070 C 
ENDROOT
TORSDOF 1
