REMARK  8 active torsions:
REMARK  status: ('A' for Active; 'I' for Inactive)
REMARK    1  A    between atoms: C1_2  and  C2_3 
REMARK       I    between atoms: C1_2  and  N2_13 
REMARK    2  A    between atoms: C2_3  and  C3_4 
REMARK    3  A    between atoms: C3_4  and  C4_5 
REMARK    4  A    between atoms: C4_5  and  C5_6 
REMARK    5  A    between atoms: N2_13  and  C11_14 
REMARK    6  A    between atoms: C11_14  and  C12_15 
REMARK    7  A    between atoms: C15_18  and  C16_19 
REMARK    8  A    between atoms: C16_19  and  O3_21 
ROOT
HETATM    1  O1  UNL     1      -0.073   0.830  -1.660  1.00  0.00    -0.274 OA
HETATM    2  C1  UNL     1      -0.129   0.891  -0.403  1.00  0.00     0.217 C 
HETATM    3  N2  UNL     1       1.206   0.559   0.035  1.00  0.00    -0.357 N 
HETATM    4  H11 UNL     1       1.551   0.506   1.036  1.00  0.00     0.162 HD
ENDROOT
BRANCH   3   5
HETATM    5  C11 UNL     1       2.149   0.273  -1.060  1.00  0.00     0.161 C 
BRANCH   5   6
HETATM    6  C12 UNL     1       3.460  -0.048  -0.489  1.00  0.00    -0.040 A 
HETATM    7  C13 UNL     1       4.447   0.879  -0.225  1.00  0.00     0.010 A 
HETATM    8  C14 UNL     1       5.673   0.550   0.313  1.00  0.00     0.019 A 
HETATM    9  C15 UNL     1       5.897  -0.783   0.591  1.00  0.00     0.037 A 
HETATM   10  C17 UNL     1       4.928  -1.749   0.339  1.00  0.00     0.019 A 
HETATM   11  C18 UNL     1       3.700  -1.389  -0.204  1.00  0.00     0.010 A 
BRANCH   9  12
HETATM   12  C16 UNL     1       7.128  -1.321   1.160  1.00  0.00     0.176 C 
HETATM   13  O2  UNL     1       7.445  -2.502   1.454  1.00  0.00    -0.646 OA
BRANCH  12  14
HETATM   14  O3  UNL     1       8.118  -0.382   1.424  1.00  0.00    -0.773 OA
HETATM   15  H16 UNL     1       9.045  -0.623   1.746  1.00  0.00     0.167 HD
ENDBRANCH  12  14
ENDBRANCH   9  12
ENDBRANCH   5   6
ENDBRANCH   3   5
BRANCH   2  16
HETATM   16  C2  UNL     1      -1.004   1.163   0.794  1.00  0.00     0.103 C 
BRANCH  16  17
HETATM   17  C3  UNL     1      -2.372   1.482   0.295  1.00  0.00     0.013 C 
BRANCH  17  18
HETATM   18  C4  UNL     1      -2.901   0.294  -0.478  1.00  0.00     0.030 C 
BRANCH  18  19
HETATM   19  C5  UNL     1      -4.259   0.669  -0.946  1.00  0.00     0.005 C 
HETATM   20  C6  UNL     1      -5.411   0.099  -0.688  1.00  0.00     0.053 C 
HETATM   21  C7  UNL     1      -5.536  -1.074   0.158  1.00  0.00     0.031 C 
HETATM   22  N1  UNL     1      -6.569   0.675  -1.276  1.00  0.00    -0.247 NA
HETATM   23  C8  UNL     1      -6.768  -1.531   0.321  1.00  0.00     0.005 C 
HETATM   24  C9  UNL     1      -7.887  -0.857  -0.334  1.00  0.00     0.034 C 
HETATM   25  C10 UNL     1      -7.717   0.304  -0.890  1.00  0.00     0.086 C 
ENDBRANCH  18  19
ENDBRANCH  17  18
ENDBRANCH  16  17
ENDBRANCH   2  16
TORSDOF 8
