REMARK  7 active torsions:
REMARK  status: ('A' for Active; 'I' for Inactive)
REMARK    1  A    between atoms: C1_2  and  C2_3 
REMARK       I    between atoms: C1_2  and  N2_13 
REMARK    2  A    between atoms: C2_3  and  C3_4 
REMARK    3  A    between atoms: C3_4  and  C4_5 
REMARK    4  A    between atoms: C6_8  and  C7_9 
REMARK    5  A    between atoms: C6_8  and  C10_12 
REMARK    6  A    between atoms: N2_13  and  C11_14 
REMARK    7  A    between atoms: C11_14  and  C12_15 
ROOT
HETATM    1  O1  UNL     1      -0.227   1.008  -0.043  1.00  0.00    -0.274 OA
HETATM    2  C1  UNL     1       0.202   0.227   0.873  1.00  0.00     0.217 C 
HETATM    3  N2  UNL     1       1.370  -0.484   0.504  1.00  0.00    -0.357 N 
HETATM    4  H9  UNL     1       1.675  -1.081   1.286  1.00  0.00     0.162 HD
ENDROOT
BRANCH   2   5
HETATM    5  C2  UNL     1      -0.643   0.268   2.079  1.00  0.00     0.103 C 
BRANCH   5   6
HETATM    6  C3  UNL     1      -1.670   1.345   1.962  1.00  0.00     0.022 C 
BRANCH   6   7
HETATM    7  C4  UNL     1      -2.495   1.199   0.751  1.00  0.00     0.004 A 
HETATM    8  C5  UNL     1      -3.637   1.002   0.158  1.00  0.00     0.035 A 
HETATM    9  N1  UNL     1      -3.286   1.144  -1.280  1.00  0.00    -0.308 NA
HETATM   10  C9  UNL     1      -4.961   0.642   0.695  1.00  0.00     0.003 A 
HETATM   11  C10 UNL     1      -3.853   0.883   0.800  1.00  0.00     0.019 A 
HETATM   12  C6  UNL     1      -4.472   1.374  -0.507  1.00  0.00     0.079 A 
HETATM   13  H5  UNL     1      -3.454   1.411  -2.273  1.00  0.00     0.123 HD
HETATM   14  C8  UNL     1      -6.274   0.345   0.373  1.00  0.00     0.009 A 
HETATM   15  C7  UNL     1      -5.562   0.435  -0.735  1.00  0.00     0.022 A 
ENDBRANCH   6   7
ENDBRANCH   5   6
ENDBRANCH   2   5
BRANCH   3  16
HETATM   16  C11 UNL     1       1.914  -0.272  -0.818  1.00  0.00     0.161 C 
BRANCH  16  17
HETATM   17  C12 UNL     1       3.341  -0.569  -0.865  1.00  0.00    -0.041 A 
HETATM   18  C13 UNL     1       3.725  -1.930  -1.053  1.00  0.00     0.009 A 
HETATM   19  C14 UNL     1       5.083  -2.252  -1.121  1.00  0.00     0.001 A 
HETATM   20  C15 UNL     1       6.025  -1.271  -1.007  1.00  0.00     0.000 A 
HETATM   21  C16 UNL     1       5.790   0.128  -0.818  1.00  0.00     0.001 A 
HETATM   22  C17 UNL     1       4.414   0.176  -0.785  1.00  0.00     0.009 A 
ENDBRANCH  16  17
ENDBRANCH   3  16
TORSDOF 7
