REMARK  6 active torsions:
REMARK  status: ('A' for Active; 'I' for Inactive)
REMARK    1  A    between atoms: C10_13  and  C11_14 
REMARK    2  A    between atoms: C11_14  and  C12_15 
REMARK    3  A    between atoms: C12_15  and  C13_16 
REMARK       I    between atoms: C13_16  and  N2_17 
REMARK    4  A    between atoms: C15_20  and  C16_21 
REMARK    5  A    between atoms: C16_21  and  C17_22 
REMARK    6  A    between atoms: C17_22  and  N3_23 
ROOT
HETATM    1  C1  UNL     1      -3.067  -2.279  -1.651  1.00  0.00     0.049 C 
HETATM    2  C2  UNL     1      -2.203  -1.797  -0.541  1.00  0.00    -0.044 C 
HETATM    3  C3  UNL     1      -1.804  -2.667   0.403  1.00  0.00     0.066 C 
HETATM    4  S1  UNL     1      -0.869  -2.828   1.875  1.00  0.00    -0.046 SA
HETATM    5  S2  UNL     1       1.141  -2.250   1.734  1.00  0.00     0.028 SA
HETATM    6  N1  UNL     1       1.265  -0.727   0.899  1.00  0.00    -0.301 N 
HETATM    7  C4  UNL     1       0.608   0.169   0.068  1.00  0.00     0.061 A 
HETATM    8  C5  UNL     1      -0.582   0.311  -0.552  1.00  0.00     0.002 A 
HETATM    9  C6  UNL     1      -0.747   1.411  -1.364  1.00  0.00     0.014 A 
HETATM   10  C7  UNL     1       0.276   2.314  -1.515  1.00  0.00     0.002 A 
HETATM   11  C8  UNL     1       1.471   2.090  -0.834  1.00  0.00     0.012 A 
HETATM   12  C9  UNL     1       1.692   1.005  -0.010  1.00  0.00    -0.006 A 
HETATM   13  C10 UNL     1       2.451   0.142   0.912  1.00  0.00     0.134 A 
HETATM   14  C14 UNL     1      -1.891  -0.377  -0.638  1.00  0.00    -0.021 C 
HETATM   15  C15 UNL     1      -2.938   0.411  -0.806  1.00  0.00    -0.012 C 
ENDROOT
BRANCH  13  16
HETATM   16  C11 UNL     1       3.672  -0.459   0.283  1.00  0.00     0.040 C 
BRANCH  16  17
HETATM   17  C12 UNL     1       4.863   0.476   0.323  1.00  0.00     0.105 C 
BRANCH  17  18
HETATM   18  C13 UNL     1       6.022  -0.226  -0.331  1.00  0.00     0.215 C 
HETATM   19  N2  UNL     1       7.165   0.619  -0.314  1.00  0.00    -0.370 N 
HETATM   20  H13 UNL     1       7.957   1.201   0.032  1.00  0.00     0.159 HD
HETATM   21  H14 UNL     1       7.834   1.123  -0.957  1.00  0.00     0.159 HD
HETATM   22  O1  UNL     1       6.562  -1.202  -0.914  1.00  0.00    -0.274 OA
ENDBRANCH  17  18
ENDBRANCH  16  17
ENDBRANCH  13  16
BRANCH  15  23
HETATM   23  C16 UNL     1      -4.351   0.177  -0.915  1.00  0.00     0.047 C 
BRANCH  23  24
HETATM   24  C17 UNL     1      -5.156   0.954   0.157  1.00  0.00     0.115 C 
BRANCH  24  25
HETATM   25  N3  UNL     1      -4.762   0.568   1.482  1.00  0.00    -0.430 N 
HETATM   26  H20 UNL     1      -4.997  -0.388   1.762  1.00  0.00     0.149 HD
HETATM   27  H21 UNL     1      -4.846   1.307   2.185  1.00  0.00     0.149 HD
ENDBRANCH  24  25
ENDBRANCH  23  24
ENDBRANCH  15  23
TORSDOF 6
