REMARK  1 active torsions:
REMARK  status: ('A' for Active; 'I' for Inactive)
REMARK    1  A    between atoms: C11_13  and  C12_14 
ROOT
HETATM    1  B1  UNL     1      -2.517   3.948   1.236  1.00  0.00     0.240 B 
HETATM    2  C1  UNL     1      -3.948   3.239   1.206  1.00  0.00    -0.003 C 
HETATM    3  C2  UNL     1      -3.909   2.065   0.327  1.00  0.00    -0.074 C 
HETATM    4  C3  UNL     1      -2.757   1.782  -0.268  1.00  0.00    -0.014 C 
HETATM    5  C4  UNL     1      -2.615   0.935  -1.522  1.00  0.00     0.170 C 
HETATM    6  N1  UNL     1      -2.495  -0.457  -1.060  1.00  0.00    -0.344 N 
HETATM    7  C5  UNL     1      -1.762  -1.668  -1.003  1.00  0.00     0.160 C 
HETATM    8  C6  UNL     1      -0.336  -1.660  -1.359  1.00  0.00    -0.058 C 
HETATM    9  C7  UNL     1       0.160  -2.376  -2.392  1.00  0.00     0.005 C 
HETATM   10  C8  UNL     1       1.456  -2.637  -2.999  1.00  0.00     0.000 C 
HETATM   11  C9  UNL     1       2.699  -2.338  -2.676  1.00  0.00     0.000 C 
HETATM   12  C10 UNL     1       3.336  -1.686  -1.585  1.00  0.00     0.006 C 
HETATM   13  C11 UNL     1       3.075  -1.178  -0.398  1.00  0.00    -0.031 C 
HETATM   14  C15 UNL     1       1.855  -1.714   0.349  1.00  0.00     0.072 C 
HETATM   15  C16 UNL     1       0.857  -0.697   0.631  1.00  0.00    -0.065 C 
HETATM   16  C17 UNL     1       0.418  -0.085   1.720  1.00  0.00     0.059 C 
HETATM   17  S1  UNL     1      -0.766   1.149   2.195  1.00  0.00    -0.088 SA
HETATM   18  S2  UNL     1      -1.326   2.456   0.618  1.00  0.00    -0.172 SA
HETATM   19  C18 UNL     1       0.455  -0.522  -0.747  1.00  0.00     0.070 C 
HETATM   20  C19 UNL     1      -3.684  -0.804  -0.256  1.00  0.00     0.220 C 
HETATM   21  O2  UNL     1      -3.811  -2.024   0.147  1.00  0.00    -0.273 OA
HETATM   22  C20 UNL     1      -4.919  -0.208   0.323  1.00  0.00     0.107 C 
HETATM   23  C21 UNL     1      -5.112   1.247   0.128  1.00  0.00     0.043 C 
HETATM   24  H1  UNL     1      -2.275   4.786   0.399  1.00  0.00    -0.010 HD
HETATM   25  H2  UNL     1      -2.010   4.222   2.291  1.00  0.00    -0.010 HD
ENDROOT
BRANCH  13  26
HETATM   26  C12 UNL     1       3.635  -0.488   0.745  1.00  0.00     0.267 A 
HETATM   27  O1  UNL     1       4.792  -0.435   0.248  1.00  0.00     0.000 OA
HETATM   28  C13 UNL     1       6.142   0.193   0.840  1.00  0.00     0.311 A 
HETATM   29  N2  UNL     1       4.779   0.082   1.330  1.00  0.00     0.100 N 
HETATM   30  C14 UNL     1       4.393   0.614   2.640  1.00  0.00     0.311 C 
ENDBRANCH  13  26
TORSDOF 1
