REMARK  2 active torsions:
REMARK  status: ('A' for Active; 'I' for Inactive)
REMARK    1  A    between atoms: N1_1  and  C1_2 
REMARK    2  A    between atoms: C3_4  and  O1_5 
ROOT
HETATM    1  C1  UNL     1      -2.133   0.267   0.515  1.00  0.00     0.036 C 
HETATM    2  C2  UNL     1      -2.171   1.588   0.420  1.00  0.00     0.044 C 
HETATM    3  C3  UNL     1      -1.520   2.780  -0.220  1.00  0.00     0.235 C 
HETATM    4  C4  UNL     1      -0.042   2.453  -0.358  1.00  0.00     0.250 C 
HETATM    5  O2  UNL     1       1.196   2.411  -0.227  1.00  0.00    -0.270 OA
HETATM    6  N2  UNL     1       0.270   1.485  -1.352  1.00  0.00    -0.354 N 
HETATM    7  C5  UNL     1       1.644   1.062  -1.552  1.00  0.00     0.162 C 
HETATM    8  C6  UNL     1       2.169   0.466  -0.282  1.00  0.00    -0.029 A 
HETATM    9  C7  UNL     1       3.348   0.734   0.358  1.00  0.00     0.010 A 
HETATM   10  C8  UNL     1       3.709   0.081   1.512  1.00  0.00     0.001 A 
HETATM   11  C9  UNL     1       2.929  -0.881   2.111  1.00  0.00     0.001 A 
HETATM   12  C10 UNL     1       1.724  -1.135   1.432  1.00  0.00     0.013 A 
HETATM   13  C11 UNL     1       1.322  -0.502   0.273  1.00  0.00    -0.017 A 
HETATM   14  C12 UNL     1       0.005  -1.059  -0.121  1.00  0.00    -0.013 A 
HETATM   15  C13 UNL     1       0.418  -2.212  -0.760  1.00  0.00     0.013 A 
HETATM   16  C14 UNL     1      -0.427  -3.156  -1.369  1.00  0.00     0.001 A 
HETATM   17  C15 UNL     1      -1.786  -2.949  -1.346  1.00  0.00     0.001 A 
HETATM   18  C16 UNL     1      -2.146  -1.764  -0.683  1.00  0.00     0.014 A 
HETATM   19  C17 UNL     1      -1.322  -0.808  -0.069  1.00  0.00     0.001 A 
HETATM   20  H6  UNL     1      -0.435   1.056  -1.978  1.00  0.00     0.162 HD
ENDROOT
BRANCH   1  21
HETATM   21  N1  UNL     1      -3.148  -0.314   1.400  1.00  0.00    -0.399 N 
HETATM   22  H1  UNL     1      -3.953  -0.918   1.130  1.00  0.00     0.156 HD
HETATM   23  H2  UNL     1      -3.063  -0.103   2.432  1.00  0.00     0.156 HD
ENDBRANCH   1  21
BRANCH   3  24
HETATM   24  O1  UNL     1      -1.646   3.901   0.553  1.00  0.00    -0.382 OA
HETATM   25  H5  UNL     1      -2.438   3.867   1.113  1.00  0.00     0.211 HD
ENDBRANCH   3  24
TORSDOF 2
