REMARK  9 active torsions:
REMARK  status: ('A' for Active; 'I' for Inactive)
REMARK       I    between atoms: C1_2  and  N1_3 
REMARK    1  A    between atoms: C1_2  and  C19_24 
REMARK    2  A    between atoms: N1_3  and  C2_4 
REMARK    3  A    between atoms: C2_4  and  C3_5 
REMARK    4  A    between atoms: C2_4  and  C11_14 
REMARK    5  A    between atoms: C3_5  and  C4_6 
REMARK    6  A    between atoms: C4_6  and  C5_7 
REMARK    7  A    between atoms: C5_7  and  C6_9 
REMARK       I    between atoms: C11_14  and  N2_16 
REMARK    8  A    between atoms: N2_16  and  C12_17 
REMARK    9  A    between atoms: C12_17  and  C13_18 
ROOT
HETATM    1  C2  UNL     1      -0.502  -1.882   1.356  1.00  0.00     0.176 C 
ENDROOT
BRANCH   1   2
HETATM    2  N1  UNL     1      -0.128  -3.158   0.783  1.00  0.00    -0.343 N 
HETATM    3  C1  UNL     1      -0.288  -4.348   1.545  1.00  0.00     0.283 C 
HETATM    4  O1  UNL     1      -0.706  -4.641   2.701  1.00  0.00    -0.267 OA
HETATM    5  H1  UNL     1       0.263  -3.310  -0.173  1.00  0.00     0.163 HD
BRANCH   3   6
HETATM    6  C19 UNL     1       0.061  -5.722   1.062  1.00  0.00     0.444 C 
HETATM    7  F2  UNL     1      -0.231  -6.600   2.067  1.00  0.00    -0.204 F 
HETATM    8  F3  UNL     1      -0.660  -6.043  -0.064  1.00  0.00    -0.204 F 
ENDBRANCH   3   6
ENDBRANCH   1   2
BRANCH   1   9
HETATM    9  C3  UNL     1       0.747  -1.022   1.554  1.00  0.00     0.038 C 
BRANCH   9  10
HETATM   10  C4  UNL     1       1.442  -0.772   0.252  1.00  0.00     0.041 C 
BRANCH  10  11
HETATM   11  C5  UNL     1       2.697   0.051   0.345  1.00  0.00     0.181 C 
HETATM   12  F1  UNL     1       3.254   0.215  -0.914  1.00  0.00    -0.248 F 
BRANCH  11  13
HETATM   13  C6  UNL     1       2.377   1.343   1.003  1.00  0.00     0.065 A 
HETATM   14  C7  UNL     1       3.568   2.237   1.132  1.00  0.00    -0.015 A 
HETATM   15  C8  UNL     1       3.377   3.401   0.506  1.00  0.00    -0.004 A 
HETATM   16  C9  UNL     1       2.042   3.352  -0.080  1.00  0.00    -0.004 A 
HETATM   17  C10 UNL     1       1.465   2.192   0.195  1.00  0.00    -0.015 A 
ENDBRANCH  11  13
ENDBRANCH  10  11
ENDBRANCH   9  10
ENDBRANCH   1   9
BRANCH   1  18
HETATM   18  C11 UNL     1      -1.515  -1.182   0.550  1.00  0.00     0.240 C 
HETATM   19  O2  UNL     1      -1.850  -1.841  -0.468  1.00  0.00    -0.271 OA
HETATM   20  N2  UNL     1      -2.067   0.085   0.859  1.00  0.00    -0.355 N 
HETATM   21  H13 UNL     1      -1.662   0.477   1.746  1.00  0.00     0.162 HD
BRANCH  20  22
HETATM   22  C12 UNL     1      -3.062   0.782   0.077  1.00  0.00     0.161 C 
BRANCH  22  23
HETATM   23  C13 UNL     1      -2.549   1.409  -1.144  1.00  0.00    -0.041 A 
HETATM   24  C14 UNL     1      -2.062   2.700  -1.169  1.00  0.00     0.009 A 
HETATM   25  C15 UNL     1      -1.566   3.351  -2.285  1.00  0.00     0.001 A 
HETATM   26  C16 UNL     1      -1.567   2.638  -3.455  1.00  0.00     0.000 A 
HETATM   27  C17 UNL     1      -2.034   1.349  -3.512  1.00  0.00     0.001 A 
HETATM   28  C18 UNL     1      -2.524   0.743  -2.351  1.00  0.00     0.009 A 
ENDBRANCH  22  23
ENDBRANCH  20  22
ENDBRANCH   1  18
TORSDOF 9
