REMARK  6 active torsions:
REMARK  status: ('A' for Active; 'I' for Inactive)
REMARK    1  A    between atoms: C2_2  and  C3_3 
REMARK    2  A    between atoms: C2_2  and  N2_13 
REMARK    3  A    between atoms: C3_3  and  C4_4 
REMARK    4  A    between atoms: C4_4  and  S1_5 
REMARK    5  A    between atoms: N2_13  and  C11_14 
REMARK    6  A    between atoms: C12_15  and  O1_16 
ROOT
HETATM    1  C1  UNL     1      -0.586   1.162   0.733  1.00  0.00     0.032 C 
HETATM    2  C2  UNL     1      -0.338  -0.062  -0.104  1.00  0.00     0.081 C 
ENDROOT
BRANCH   2   3
HETATM    3  C3  UNL     1       1.062  -0.553   0.046  1.00  0.00     0.072 C 
BRANCH   3   4
HETATM    4  C4  UNL     1       2.007   0.539  -0.400  1.00  0.00     0.108 A 
HETATM    5  N1  UNL     1       2.250   1.616   0.499  1.00  0.00    -0.367 N 
HETATM    6  C5  UNL     1       3.623   1.243   0.743  1.00  0.00     0.039 A 
HETATM    7  H8  UNL     1       1.853   2.458   0.977  1.00  0.00     0.161 HD
HETATM    8  C6  UNL     1       4.913   1.304   1.281  1.00  0.00     0.030 A 
HETATM    9  C10 UNL     1       3.431   0.191  -0.122  1.00  0.00     0.006 A 
HETATM   10  C7  UNL     1       5.888   0.387   0.963  1.00  0.00     0.002 A 
HETATM   11  C8  UNL     1       5.637  -0.649   0.088  1.00  0.00     0.001 A 
HETATM   12  C9  UNL     1       4.383  -0.740  -0.459  1.00  0.00     0.013 A 
BRANCH   4  13
HETATM   13  S1  UNL     1       1.731   1.016  -2.144  1.00  0.00    -0.146 SA
HETATM   14  H7  UNL     1       1.442  -0.187  -2.844  1.00  0.00     0.104 HD
ENDBRANCH   4  13
ENDBRANCH   3   4
ENDBRANCH   2   3
BRANCH   2  15
HETATM   15  N2  UNL     1      -1.331  -1.041   0.272  1.00  0.00    -0.387 N 
HETATM   16  H13 UNL     1      -0.973  -1.941   0.651  1.00  0.00     0.159 HD
BRANCH  15  17
HETATM   17  C11 UNL     1      -2.699  -0.726   0.107  1.00  0.00     0.038 C 
HETATM   18  C12 UNL     1      -3.260  -0.236  -0.964  1.00  0.00     0.069 C 
HETATM   19  C13 UNL     1      -4.707   0.079  -1.091  1.00  0.00     0.093 C 
HETATM   20  C14 UNL     1      -5.478  -0.400   0.064  1.00  0.00    -0.024 C 
HETATM   21  C15 UNL     1      -4.917  -0.899   1.161  1.00  0.00    -0.024 C 
HETATM   22  C16 UNL     1      -3.441  -1.035   1.352  1.00  0.00     0.086 C 
BRANCH  18  23
HETATM   23  O1  UNL     1      -2.578   0.065  -2.157  1.00  0.00    -0.363 OA
HETATM   24  H14 UNL     1      -2.231  -0.672  -2.748  1.00  0.00     0.217 HD
ENDBRANCH  18  23
ENDBRANCH  15  17
ENDBRANCH   2  15
TORSDOF 6
