REMARK  8 active torsions:
REMARK  status: ('A' for Active; 'I' for Inactive)
REMARK    1  A    between atoms: C1_2  and  C2_3 
REMARK       I    between atoms: C1_2  and  N2_15 
REMARK    2  A    between atoms: C2_3  and  C3_4 
REMARK    3  A    between atoms: C3_4  and  C4_5 
REMARK    4  A    between atoms: C5_6  and  S1_7 
REMARK    5  A    between atoms: S1_7  and  S2_8 
REMARK    6  A    between atoms: N2_15  and  C11_16 
REMARK    7  A    between atoms: C11_16  and  C12_17 
REMARK    8  A    between atoms: C12_17  and  C13_18 
ROOT
HETATM    1  C2  UNL     1      -0.694  -0.141   0.373  1.00  0.00     0.107 C 
ENDROOT
BRANCH   1   2
HETATM    2  C1  UNL     1       0.484   0.777   0.566  1.00  0.00     0.217 C 
HETATM    3  O1  UNL     1      -0.088   1.867   0.277  1.00  0.00    -0.274 OA
HETATM    4  N2  UNL     1       1.780   0.363   0.958  1.00  0.00    -0.361 N 
HETATM    5  H11 UNL     1       1.802  -0.671   1.096  1.00  0.00     0.162 HD
BRANCH   4   6
HETATM    6  C11 UNL     1       2.648   1.506   1.041  1.00  0.00     0.127 C 
BRANCH   6   7
HETATM    7  C12 UNL     1       4.026   1.104   1.454  1.00  0.00     0.058 C 
BRANCH   7   8
HETATM    8  C13 UNL     1       4.613   0.163   0.492  1.00  0.00    -0.057 A 
HETATM    9  C14 UNL     1       4.533  -1.206   0.518  1.00  0.00     0.007 A 
HETATM   10  C15 UNL     1       5.127  -1.996  -0.445  1.00  0.00     0.001 A 
HETATM   11  C16 UNL     1       5.829  -1.416  -1.479  1.00  0.00     0.000 A 
HETATM   12  C17 UNL     1       5.926  -0.028  -1.530  1.00  0.00     0.001 A 
HETATM   13  C18 UNL     1       5.319   0.728  -0.549  1.00  0.00     0.007 A 
ENDBRANCH   7   8
ENDBRANCH   6   7
ENDBRANCH   4   6
ENDBRANCH   1   2
BRANCH   1  14
HETATM   14  C3  UNL     1      -1.875   0.706  -0.044  1.00  0.00     0.047 C 
BRANCH  14  15
HETATM   15  C4  UNL     1      -3.089  -0.065  -0.265  1.00  0.00    -0.032 C 
HETATM   16  C5  UNL     1      -3.549  -1.302  -0.232  1.00  0.00     0.084 C 
HETATM   17  N1  UNL     1      -4.988  -1.454  -0.298  1.00  0.00    -0.352 N 
HETATM   18  C6  UNL     1      -5.419  -0.078  -0.354  1.00  0.00     0.022 A 
HETATM   19  H6  UNL     1      -5.618  -2.276  -0.301  1.00  0.00     0.166 HD
HETATM   20  C7  UNL     1      -6.345   0.847  -0.144  1.00  0.00     0.026 A 
HETATM   21  C10 UNL     1      -4.220   0.510  -0.955  1.00  0.00     0.090 A 
HETATM   22  C8  UNL     1      -5.701   2.081  -0.584  1.00  0.00    -0.001 A 
HETATM   23  C9  UNL     1      -4.473   1.920  -1.044  1.00  0.00    -0.011 A 
BRANCH  16  24
HETATM   24  S1  UNL     1      -2.519  -2.743   0.180  1.00  0.00    -0.042 SA
BRANCH  24  25
HETATM   25  S2  UNL     1      -3.703  -4.435   0.539  1.00  0.00    -0.104 SA
HETATM   26  H5  UNL     1      -4.091  -4.588   1.875  1.00  0.00     0.114 HD
ENDBRANCH  24  25
ENDBRANCH  16  24
ENDBRANCH  14  15
ENDBRANCH   1  14
TORSDOF 8
