REMARK  7 active torsions:
REMARK  status: ('A' for Active; 'I' for Inactive)
REMARK    1  A    between atoms: N1_1  and  C1_2 
REMARK    2  A    between atoms: C6_7  and  C7_8 
REMARK    3  A    between atoms: C7_8  and  C8_9 
REMARK    4  A    between atoms: C8_9  and  N2_10 
REMARK    5  A    between atoms: C8_9  and  C9_11 
REMARK       I    between atoms: C9_11  and  N3_13 
REMARK    6  A    between atoms: N3_13  and  C10_14 
REMARK    7  A    between atoms: C10_14  and  C11_15 
ROOT
HETATM    1  C8  UNL     1       0.809  -1.125  -1.332  1.00  0.00     0.313 C 
ENDROOT
BRANCH   1   2
HETATM    2  C7  UNL     1       2.030  -0.412  -1.802  1.00  0.00     0.086 C 
BRANCH   2   3
HETATM    3  C6  UNL     1       2.874   0.167  -0.748  1.00  0.00    -0.029 A 
HETATM    4  C1  UNL     1       3.734  -0.563   0.042  1.00  0.00     0.032 A 
HETATM    5  C2  UNL     1       4.457   0.132   1.001  1.00  0.00     0.029 A 
HETATM    6  C3  UNL     1       4.338   1.503   1.177  1.00  0.00     0.002 A 
HETATM    7  C4  UNL     1       3.477   2.232   0.385  1.00  0.00     0.001 A 
HETATM    8  C5  UNL     1       2.745   1.542  -0.583  1.00  0.00     0.009 A 
BRANCH   4   9
HETATM    9  N1  UNL     1       3.854  -1.965  -0.149  1.00  0.00    -0.399 N 
HETATM   10  H1  UNL     1       3.907  -2.547   0.731  1.00  0.00     0.156 HD
HETATM   11  H2  UNL     1       3.891  -2.442  -1.090  1.00  0.00     0.156 HD
ENDBRANCH   4   9
ENDBRANCH   2   3
ENDBRANCH   1   2
BRANCH   1  12
HETATM   12  N2  UNL     1       1.020  -2.240  -0.471  1.00  0.00     0.092 N 
HETATM   13  H10 UNL     1       0.328  -3.002  -0.607  1.00  0.00     0.313 HD
HETATM   14  H11 UNL     1       1.161  -2.029   0.522  1.00  0.00     0.313 HD
ENDBRANCH   1  12
BRANCH   1  15
HETATM   15  C9  UNL     1      -0.188  -0.192  -0.716  1.00  0.00     0.251 C 
HETATM   16  O1  UNL     1      -0.394   0.848  -1.387  1.00  0.00    -0.271 OA
HETATM   17  N3  UNL     1      -0.881  -0.385   0.504  1.00  0.00    -0.355 N 
HETATM   18  H12 UNL     1      -0.648  -1.280   0.985  1.00  0.00     0.162 HD
BRANCH  17  19
HETATM   19  C10 UNL     1      -1.829   0.510   1.088  1.00  0.00     0.161 C 
BRANCH  19  20
HETATM   20  C11 UNL     1      -3.165   0.494   0.450  1.00  0.00    -0.041 A 
HETATM   21  C12 UNL     1      -3.550   1.310  -0.589  1.00  0.00     0.009 A 
HETATM   22  C13 UNL     1      -4.796   1.292  -1.180  1.00  0.00     0.001 A 
HETATM   23  C14 UNL     1      -5.736   0.398  -0.708  1.00  0.00     0.000 A 
HETATM   24  C15 UNL     1      -5.382  -0.429   0.326  1.00  0.00     0.001 A 
HETATM   25  C16 UNL     1      -4.117  -0.399   0.914  1.00  0.00     0.009 A 
ENDBRANCH  19  20
ENDBRANCH  17  19
ENDBRANCH   1  15
TORSDOF 7
