REMARK  6 active torsions:
REMARK  status: ('A' for Active; 'I' for Inactive)
REMARK    1  A    between atoms: C2_2  and  O2_4 
REMARK    2  A    between atoms: O2_4  and  C3_5 
REMARK    3  A    between atoms: C3_5  and  C4_6 
REMARK    4  A    between atoms: C3_5  and  C13_17 
REMARK       I    between atoms: C4_6  and  N1_8 
REMARK    5  A    between atoms: N1_8  and  C5_9 
REMARK    6  A    between atoms: C5_9  and  C6_10 
ROOT
HETATM    1  C3  UNL     1      -1.636   1.348   0.062  1.00  0.00     0.254 C 
ENDROOT
BRANCH   1   2
HETATM    2  O2  UNL     1      -2.274   2.563   0.478  1.00  0.00    -0.302 OA
BRANCH   2   3
HETATM    3  C2  UNL     1      -3.281   3.147  -0.280  1.00  0.00     0.255 C 
HETATM    4  C1  UNL     1      -3.826   4.402   0.306  1.00  0.00     0.126 C 
HETATM    5  O1  UNL     1      -3.728   2.687  -1.378  1.00  0.00    -0.266 OA
ENDBRANCH   2   3
ENDBRANCH   1   2
BRANCH   1   6
HETATM    6  C4  UNL     1      -0.213   1.695  -0.136  1.00  0.00     0.252 C 
HETATM    7  O3  UNL     1       0.176   2.887   0.111  1.00  0.00    -0.270 OA
HETATM    8  N1  UNL     1       0.792   0.799  -0.593  1.00  0.00    -0.354 N 
HETATM    9  H5  UNL     1       0.507  -0.180  -0.808  1.00  0.00     0.162 HD
BRANCH   8  10
HETATM   10  C5  UNL     1       2.192   1.114  -0.794  1.00  0.00     0.161 C 
BRANCH  10  11
HETATM   11  C6  UNL     1       2.966  -0.044  -1.279  1.00  0.00    -0.035 A 
HETATM   12  C7  UNL     1       3.385  -0.218  -2.582  1.00  0.00     0.009 A 
HETATM   13  C8  UNL     1       4.107  -1.312  -3.010  1.00  0.00     0.001 A 
HETATM   14  C9  UNL     1       4.413  -2.274  -2.056  1.00  0.00     0.001 A 
HETATM   15  C10 UNL     1       3.996  -2.106  -0.745  1.00  0.00     0.007 A 
HETATM   16  C11 UNL     1       3.274  -1.009  -0.324  1.00  0.00    -0.054 A 
HETATM   17  C12 UNL     1       2.912  -0.997   1.115  1.00  0.00     0.049 C 
ENDBRANCH  10  11
ENDBRANCH   8  10
ENDBRANCH   1   6
BRANCH   1  18
HETATM   18  C13 UNL     1      -1.839   0.283   1.083  1.00  0.00    -0.018 C 
HETATM   19  C14 UNL     1      -2.571   0.505   2.174  1.00  0.00    -0.019 C 
HETATM   20  C15 UNL     1      -3.444  -0.436   2.516  1.00  0.00     0.020 C 
HETATM   21  C16 UNL     1      -3.059  -1.580   1.704  1.00  0.00    -0.045 A 
HETATM   22  C17 UNL     1      -3.114  -2.736   1.021  1.00  0.00     0.008 A 
HETATM   23  C20 UNL     1      -1.645  -1.058   1.613  1.00  0.00     0.074 A 
HETATM   24  C18 UNL     1      -1.804  -3.059   0.413  1.00  0.00    -0.002 A 
HETATM   25  C19 UNL     1      -0.992  -2.067   0.770  1.00  0.00    -0.013 A 
ENDBRANCH   1  18
TORSDOF 6
