REMARK  8 active torsions:
REMARK  status: ('A' for Active; 'I' for Inactive)
REMARK    1  A    between atoms: O1_2  and  C2_3 
REMARK    2  A    between atoms: C2_3  and  C3_5 
REMARK    3  A    between atoms: C6_8  and  C7_9 
REMARK    4  A    between atoms: C7_9  and  N1_10 
REMARK       I    between atoms: N1_10  and  C8_11 
REMARK    5  A    between atoms: C8_11  and  C9_13 
REMARK    6  A    between atoms: C9_13  and  C10_14 
REMARK    7  A    between atoms: C10_14  and  C11_15 
REMARK    8  A    between atoms: C20_26  and  O4_27 
ROOT
HETATM    1  N1  UNL     1       1.062   0.298   0.453  1.00  0.00    -0.357 N 
HETATM    2  C8  UNL     1      -0.275   0.342  -0.010  1.00  0.00     0.218 C 
HETATM    3  O3  UNL     1      -0.689  -0.549  -0.832  1.00  0.00    -0.274 OA
HETATM    4  H8  UNL     1       1.224   1.091   1.099  1.00  0.00     0.162 HD
ENDROOT
BRANCH   2   5
HETATM    5  C9  UNL     1      -1.419   1.286   0.273  1.00  0.00     0.106 C 
BRANCH   5   6
HETATM    6  C10 UNL     1      -2.496   0.835  -0.707  1.00  0.00     0.039 C 
BRANCH   6   7
HETATM    7  C11 UNL     1      -3.732   1.572  -0.640  1.00  0.00     0.006 C 
HETATM    8  C12 UNL     1      -5.043   1.513  -0.478  1.00  0.00     0.057 A 
HETATM    9  N2  UNL     1      -5.965   2.603  -0.484  1.00  0.00    -0.300 N 
HETATM   10  C18 UNL     1      -5.822   0.286  -0.274  1.00  0.00     0.020 A 
HETATM   11  N3  UNL     1      -7.200   2.005  -0.292  1.00  0.00    -0.299 N 
HETATM   12  H14 UNL     1      -5.746   3.615  -0.606  1.00  0.00     0.187 HD
HETATM   13  C13 UNL     1      -7.162   0.592  -0.158  1.00  0.00     0.060 A 
HETATM   14  H15 UNL     1      -8.062   2.592  -0.256  1.00  0.00     0.187 HD
HETATM   15  C14 UNL     1      -8.190  -0.306   0.040  1.00  0.00     0.032 A 
HETATM   16  C15 UNL     1      -7.820  -1.644   0.129  1.00  0.00     0.002 A 
HETATM   17  C16 UNL     1      -6.494  -2.041   0.024  1.00  0.00     0.001 A 
HETATM   18  C17 UNL     1      -5.546  -1.063  -0.173  1.00  0.00     0.016 A 
ENDBRANCH   6   7
ENDBRANCH   5   6
ENDBRANCH   2   5
BRANCH   1  19
HETATM   19  C7  UNL     1       1.674  -0.853  -0.171  1.00  0.00     0.161 C 
BRANCH  19  20
HETATM   20  C6  UNL     1       3.128  -0.816   0.066  1.00  0.00    -0.038 A 
HETATM   21  C5  UNL     1       3.873  -0.186  -0.942  1.00  0.00     0.010 A 
HETATM   22  C4  UNL     1       5.238  -0.076  -0.884  1.00  0.00     0.021 A 
HETATM   23  C3  UNL     1       5.959  -0.575   0.165  1.00  0.00     0.072 A 
HETATM   24  C20 UNL     1       5.229  -1.196   1.161  1.00  0.00     0.082 A 
HETATM   25  C19 UNL     1       3.855  -1.318   1.122  1.00  0.00     0.046 A 
BRANCH  23  26
HETATM   26  C2  UNL     1       7.411  -0.446   0.194  1.00  0.00     0.295 C 
HETATM   27  O2  UNL     1       8.099  -0.894   1.145  1.00  0.00    -0.259 OA
BRANCH  26  28
HETATM   28  O1  UNL     1       8.046   0.185  -0.858  1.00  0.00    -0.322 OA
HETATM   29  C1  UNL     1       9.439   0.368  -0.950  1.00  0.00     0.213 C 
ENDBRANCH  26  28
ENDBRANCH  23  26
BRANCH  24  30
HETATM   30  O4  UNL     1       5.913  -1.714   2.239  1.00  0.00    -0.360 OA
HETATM   31  H21 UNL     1       6.205  -2.687   2.187  1.00  0.00     0.217 HD
ENDBRANCH  24  30
ENDBRANCH  19  20
ENDBRANCH   1  19
TORSDOF 8
