REMARK  3 active torsions:
REMARK  status: ('A' for Active; 'I' for Inactive)
REMARK    1  A    between atoms: C1_2  and  C2_3 
REMARK       I    between atoms: C1_2  and  N2_14 
REMARK    2  A    between atoms: C2_3  and  C3_4 
REMARK    3  A    between atoms: C10_15  and  C11_16 
ROOT
HETATM    1  C2  UNL     1      -0.984   1.204   0.254  1.00  0.00     0.119 C 
ENDROOT
BRANCH   1   2
HETATM    2  C1  UNL     1       0.002   1.028  -0.638  1.00  0.00     0.218 C 
HETATM    3  O1  UNL     1       0.129   1.167  -1.860  1.00  0.00    -0.274 OA
HETATM    4  N2  UNL     1       1.159   0.503   0.096  1.00  0.00    -0.357 N 
HETATM    5  C10 UNL     1       2.446   0.388  -0.280  1.00  0.00     0.161 C 
HETATM    6  H9  UNL     1       1.062  -0.132   1.026  1.00  0.00     0.162 HD
BRANCH   5   7
HETATM    7  C11 UNL     1       3.550  -0.453  -0.565  1.00  0.00    -0.041 C 
HETATM    8  C12 UNL     1       4.108  -0.495  -1.767  1.00  0.00     0.009 C 
HETATM    9  C13 UNL     1       5.386  -1.077  -1.971  1.00  0.00     0.001 C 
HETATM   10  C14 UNL     1       5.993  -1.429  -0.797  1.00  0.00     0.000 C 
HETATM   11  C15 UNL     1       5.455  -1.407   0.414  1.00  0.00     0.001 C 
HETATM   12  C16 UNL     1       4.149  -0.972   0.625  1.00  0.00     0.009 C 
ENDBRANCH   5   7
ENDBRANCH   1   2
BRANCH   1  13
HETATM   13  C3  UNL     1      -1.843   0.250   0.999  1.00  0.00     0.093 C 
HETATM   14  C4  UNL     1      -2.601   1.237   1.861  1.00  0.00     0.087 C 
HETATM   15  S1  UNL     1      -2.054   1.640   3.432  1.00  0.00    -0.065 SA
HETATM   16  N1  UNL     1      -3.846   1.564   1.322  1.00  0.00    -0.350 N 
HETATM   17  C5  UNL     1      -4.067   0.538   0.360  1.00  0.00     0.040 C 
HETATM   18  H4  UNL     1      -4.349   2.408   1.644  1.00  0.00     0.166 HD
HETATM   19  C6  UNL     1      -5.196   0.506  -0.306  1.00  0.00     0.029 C 
HETATM   20  C9  UNL     1      -3.066  -0.366   0.208  1.00  0.00     0.001 C 
HETATM   21  C7  UNL     1      -5.322  -0.688  -1.266  1.00  0.00     0.204 C 
HETATM   22  O2  UNL     1      -4.300  -1.619  -1.145  1.00  0.00    -0.359 OA
HETATM   23  C8  UNL     1      -3.006  -1.362  -0.521  1.00  0.00     0.145 C 
ENDBRANCH   1  13
TORSDOF 3
