REMARK  7 active torsions:
REMARK  status: ('A' for Active; 'I' for Inactive)
REMARK    1  A    between atoms: C7_7  and  C8_8 
REMARK    2  A    between atoms: C8_8  and  C9_9 
REMARK    3  A    between atoms: C9_9  and  N1_10 
REMARK    4  A    between atoms: C9_9  and  C10_11 
REMARK    5  A    between atoms: C10_11  and  C11_12 
REMARK    6  A    between atoms: C11_12  and  C12_13 
REMARK    7  A    between atoms: C12_13  and  S1_14 
ROOT
HETATM    1  C10 UNL     1       0.450  -1.151   0.705  1.00  0.00     0.028 C 
ENDROOT
BRANCH   1   2
HETATM    2  C9  UNL     1      -0.681  -0.426   0.043  1.00  0.00     0.078 C 
BRANCH   2   3
HETATM    3  C8  UNL     1      -1.572   0.024   1.215  1.00  0.00     0.063 C 
BRANCH   3   4
HETATM    4  C7  UNL     1      -2.733   0.793   0.800  1.00  0.00    -0.050 A 
HETATM    5  C2  UNL     1      -3.885   0.182   0.347  1.00  0.00    -0.056 A 
HETATM    6  C1  UNL     1      -4.129  -1.260   0.282  1.00  0.00     0.049 C 
HETATM    7  C3  UNL     1      -4.923   1.002  -0.060  1.00  0.00     0.007 A 
HETATM    8  C4  UNL     1      -4.887   2.386  -0.044  1.00  0.00     0.001 A 
HETATM    9  C5  UNL     1      -3.735   2.999   0.410  1.00  0.00     0.001 A 
HETATM   10  C6  UNL     1      -2.686   2.170   0.820  1.00  0.00     0.007 A 
ENDBRANCH   3   4
ENDBRANCH   2   3
BRANCH   2  11
HETATM   11  N1  UNL     1      -1.460  -1.231  -0.829  1.00  0.00    -0.426 N 
HETATM   12  H11 UNL     1      -1.511  -2.237  -0.565  1.00  0.00     0.150 HD
HETATM   13  H12 UNL     1      -1.373  -1.061  -1.833  1.00  0.00     0.150 HD
ENDBRANCH   2  11
ENDBRANCH   1   2
BRANCH   1  14
HETATM   14  C11 UNL     1       1.497  -1.729  -0.152  1.00  0.00     0.049 C 
BRANCH  14  15
HETATM   15  C12 UNL     1       2.274  -0.815  -1.023  1.00  0.00     0.106 A 
HETATM   16  N2  UNL     1       3.423  -1.495  -1.629  1.00  0.00    -0.367 N 
HETATM   17  C13 UNL     1       4.398  -0.710  -0.938  1.00  0.00     0.039 A 
HETATM   18  H18 UNL     1       3.584  -2.264  -2.309  1.00  0.00     0.161 HD
HETATM   19  C14 UNL     1       5.655  -0.287  -0.568  1.00  0.00     0.030 A 
HETATM   20  C18 UNL     1       3.349  -0.041  -0.342  1.00  0.00     0.006 A 
HETATM   21  C15 UNL     1       5.799   0.748   0.348  1.00  0.00     0.002 A 
HETATM   22  C16 UNL     1       4.718   1.381   0.912  1.00  0.00     0.001 A 
HETATM   23  C17 UNL     1       3.458   0.989   0.569  1.00  0.00     0.013 A 
BRANCH  15  24
HETATM   24  S1  UNL     1       1.356   0.101  -2.254  1.00  0.00    -0.146 SA
HETATM   25  H17 UNL     1       1.642  -0.420  -3.527  1.00  0.00     0.104 HD
ENDBRANCH  15  24
ENDBRANCH  14  15
ENDBRANCH   1  14
TORSDOF 7
