REMARK  7 active torsions:
REMARK  status: ('A' for Active; 'I' for Inactive)
REMARK    1  A    between atoms: S1_2  and  C1_3 
REMARK    2  A    between atoms: C1_3  and  C2_4 
REMARK    3  A    between atoms: C1_3  and  N3_15 
REMARK    4  A    between atoms: C2_4  and  C3_5 
REMARK    5  A    between atoms: C3_5  and  C4_6 
REMARK    6  A    between atoms: N3_15  and  C11_16 
REMARK    7  A    between atoms: C11_16  and  C12_17 
ROOT
HETATM    1  C2  UNL     1      -0.231   1.861  -0.397  1.00  0.00     0.071 C 
ENDROOT
BRANCH   1   2
HETATM    2  C1  UNL     1       1.051   2.080   0.291  1.00  0.00     0.073 C 
BRANCH   2   3
HETATM    3  S1  UNL     1       1.057   3.660   0.849  1.00  0.00     0.083 SA
HETATM    4  O1  UNL     1       0.469   3.661   2.308  1.00  0.00    -0.143 OA
ENDBRANCH   2   3
BRANCH   2   5
HETATM    5  N3  UNL     1       2.223   1.371   0.628  1.00  0.00    -0.382 N 
HETATM    6  H14 UNL     1       2.985   1.835   1.146  1.00  0.00     0.160 HD
BRANCH   5   7
HETATM    7  C11 UNL     1       2.396  -0.018   0.261  1.00  0.00     0.158 C 
BRANCH   7   8
HETATM    8  C12 UNL     1       3.772  -0.425   0.719  1.00  0.00    -0.041 A 
HETATM    9  C13 UNL     1       4.820  -0.262  -0.154  1.00  0.00     0.009 A 
HETATM   10  C14 UNL     1       6.120  -0.593   0.140  1.00  0.00     0.001 A 
HETATM   11  C15 UNL     1       6.356  -1.123   1.406  1.00  0.00     0.000 A 
HETATM   12  C16 UNL     1       5.294  -1.290   2.293  1.00  0.00     0.001 A 
HETATM   13  C17 UNL     1       3.987  -0.948   1.975  1.00  0.00     0.009 A 
ENDBRANCH   7   8
ENDBRANCH   5   7
ENDBRANCH   2   5
ENDBRANCH   1   2
BRANCH   1  14
HETATM   14  C3  UNL     1      -1.094   0.897   0.417  1.00  0.00     0.043 C 
BRANCH  14  15
HETATM   15  C4  UNL     1      -2.365   0.739  -0.340  1.00  0.00    -0.042 C 
HETATM   16  C5  UNL     1      -2.892  -0.366  -0.841  1.00  0.00     0.008 C 
HETATM   17  C6  UNL     1      -2.432  -1.750  -0.828  1.00  0.00     0.009 C 
HETATM   18  C9  UNL     1      -4.177  -0.124  -1.534  1.00  0.00     0.485 C 
HETATM   19  C7  UNL     1      -3.340  -2.667  -1.122  1.00  0.00     0.003 C 
HETATM   20  C8  UNL     1      -4.754  -2.391  -1.454  1.00  0.00     0.300 C 
HETATM   21  N1  UNL     1      -5.128  -1.071  -0.987  1.00  0.00     0.125 N 
HETATM   22  H9  UNL     1      -5.044  -1.057   0.037  1.00  0.00     0.319 HD
HETATM   23  N2  UNL     1      -4.490   1.238  -1.169  1.00  0.00     0.125 N 
HETATM   24  C10 UNL     1      -3.290   1.857  -0.667  1.00  0.00     0.307 C 
HETATM   25  H11 UNL     1      -5.299   1.308  -0.536  1.00  0.00     0.319 HD
ENDBRANCH  14  15
ENDBRANCH   1  14
TORSDOF 7
