REMARK  6 active torsions:
REMARK  status: ('A' for Active; 'I' for Inactive)
REMARK    1  A    between atoms: C2_2  and  O1_3 
REMARK    2  A    between atoms: O1_3  and  C3_4 
REMARK    3  A    between atoms: C8_11  and  N3_12 
REMARK    4  A    between atoms: N3_12  and  C9_13 
REMARK    5  A    between atoms: C16_22  and  O2_23 
REMARK    6  A    between atoms: O2_23  and  C17_24 
ROOT
HETATM    1  C3  UNL     1      -1.843  -1.799   0.435  1.00  0.00     0.103 A 
HETATM    2  C4  UNL     1      -1.946  -3.193   0.562  1.00  0.00     0.042 A 
HETATM    3  C5  UNL     1      -0.776  -3.916   0.595  1.00  0.00     0.035 A 
HETATM    4  C6  UNL     1       0.476  -3.323   0.511  1.00  0.00     0.075 A 
HETATM    5  N1  UNL     1       1.586  -4.072   0.557  1.00  0.00    -0.241 NA
HETATM    6  C7  UNL     1       2.774  -3.459   0.483  1.00  0.00     0.236 A 
HETATM    7  N2  UNL     1       2.789  -2.124   0.369  1.00  0.00    -0.223 NA
HETATM    8  C8  UNL     1       1.682  -1.373   0.323  1.00  0.00     0.144 A 
HETATM    9  C15 UNL     1       0.474  -1.974   0.393  1.00  0.00     0.075 A 
HETATM   10  C16 UNL     1      -0.596  -1.129   0.345  1.00  0.00     0.118 A 
ENDROOT
BRANCH   8  11
HETATM   11  N3  UNL     1       1.869   0.011   0.232  1.00  0.00    -0.340 N 
HETATM   12  H9  UNL     1       1.524   0.959   0.203  1.00  0.00     0.167 HD
BRANCH  11  13
HETATM   13  C9  UNL     1       3.180   0.547   0.109  1.00  0.00     0.035 A 
HETATM   14  C10 UNL     1       3.880   1.609   0.701  1.00  0.00     0.032 A 
HETATM   15  C11 UNL     1       5.170   1.986   0.418  1.00  0.00     0.046 A 
HETATM   16  C12 UNL     1       5.814   1.246  -0.529  1.00  0.00     0.138 A 
HETATM   17  F1  UNL     1       7.083   1.652  -0.778  1.00  0.00    -0.204 F 
HETATM   18  C13 UNL     1       5.201   0.189  -1.159  1.00  0.00     0.074 A 
HETATM   19 CL1  UNL     1       6.236  -0.613  -2.345  1.00  0.00    -0.081 Cl
HETATM   20  C14 UNL     1       3.898  -0.180  -0.864  1.00  0.00     0.056 A 
ENDBRANCH  11  13
ENDBRANCH   8  11
BRANCH  10  21
HETATM   21  O2  UNL     1      -0.819   0.123   0.242  1.00  0.00    -0.342 OA
BRANCH  21  22
HETATM   22  C17 UNL     1      -1.042   1.406   0.176  1.00  0.00     0.132 C 
HETATM   23  C18 UNL     1      -0.747   2.168  -1.104  1.00  0.00     0.062 C 
HETATM   24  C19 UNL     1      -0.824   3.663  -0.867  1.00  0.00     0.272 C 
HETATM   25  N4  UNL     1      -1.081   3.860   0.546  1.00  0.00     0.083 N 
HETATM   26  C20 UNL     1      -2.394   3.320   0.847  1.00  0.00     0.272 C 
HETATM   27  H18 UNL     1      -1.080   4.863   0.806  1.00  0.00     0.315 HD
HETATM   28  C21 UNL     1      -2.486   1.835   0.565  1.00  0.00     0.062 C 
ENDBRANCH  21  22
ENDBRANCH  10  21
BRANCH   1  29
HETATM   29  O1  UNL     1      -3.055  -1.150   0.404  1.00  0.00    -0.349 OA
BRANCH  29  30
HETATM   30  C2  UNL     1      -4.284  -1.772   0.462  1.00  0.00     0.171 C 
HETATM   31  C1  UNL     1      -4.522  -2.698  -0.690  1.00  0.00     0.034 C 
ENDBRANCH  29  30
ENDBRANCH   1  29
TORSDOF 6
