REMARK  7 active torsions:
REMARK  status: ('A' for Active; 'I' for Inactive)
REMARK    1  A    between atoms: C1_2  and  C2_3 
REMARK       I    between atoms: C1_2  and  N2_14 
REMARK    2  A    between atoms: C2_3  and  C3_4 
REMARK    3  A    between atoms: C3_4  and  C4_5 
REMARK    4  A    between atoms: C9_10  and  N1_11 
REMARK    5  A    between atoms: N1_11  and  C10_12 
REMARK    6  A    between atoms: N2_14  and  C11_15 
REMARK    7  A    between atoms: C11_15  and  C12_16 
ROOT
HETATM    1  O1  UNL     1       0.810  -1.883   0.495  1.00  0.00    -0.274 OA
HETATM    2  C1  UNL     1       0.540  -1.180  -0.507  1.00  0.00     0.218 C 
HETATM    3  N2  UNL     1       1.463  -0.875  -1.523  1.00  0.00    -0.357 N 
HETATM    4  H9  UNL     1       1.187  -0.274  -2.354  1.00  0.00     0.162 HD
ENDROOT
BRANCH   2   5
HETATM    5  C2  UNL     1      -0.832  -0.609  -0.674  1.00  0.00     0.107 C 
BRANCH   5   6
HETATM    6  C3  UNL     1      -1.728  -0.998   0.482  1.00  0.00     0.050 C 
BRANCH   6   7
HETATM    7  C4  UNL     1      -3.102  -0.433   0.325  1.00  0.00    -0.029 A 
HETATM    8  C5  UNL     1      -4.171  -1.208  -0.076  1.00  0.00     0.009 A 
HETATM    9  C6  UNL     1      -5.460  -0.727  -0.235  1.00  0.00     0.001 A 
HETATM   10  C7  UNL     1      -5.710   0.600   0.019  1.00  0.00     0.002 A 
HETATM   11  C8  UNL     1      -4.672   1.419   0.424  1.00  0.00     0.032 A 
HETATM   12  C9  UNL     1      -3.381   0.906   0.575  1.00  0.00     0.065 A 
BRANCH  12  13
HETATM   13  N1  UNL     1      -2.291   1.746   0.998  1.00  0.00    -0.234 NA
BRANCH  13  14
HETATM   14  C10 UNL     1      -2.557   2.971   1.241  1.00  0.00     0.163 C 
HETATM   15  S1  UNL     1      -2.875   4.273   2.158  1.00  0.00    -0.055 SA
ENDBRANCH  13  14
ENDBRANCH  12  13
ENDBRANCH   6   7
ENDBRANCH   5   6
ENDBRANCH   2   5
BRANCH   3  16
HETATM   16  C11 UNL     1       2.836  -1.333  -1.540  1.00  0.00     0.161 C 
BRANCH  16  17
HETATM   17  C12 UNL     1       3.665  -0.553  -0.590  1.00  0.00    -0.041 A 
HETATM   18  C13 UNL     1       3.920  -0.844   0.740  1.00  0.00     0.009 A 
HETATM   19  C14 UNL     1       4.717   0.009   1.468  1.00  0.00     0.001 A 
HETATM   20  C15 UNL     1       5.287   1.154   0.950  1.00  0.00     0.000 A 
HETATM   21  C16 UNL     1       5.042   1.466  -0.392  1.00  0.00     0.001 A 
HETATM   22  C17 UNL     1       4.236   0.590  -1.102  1.00  0.00     0.009 A 
ENDBRANCH  16  17
ENDBRANCH   3  16
TORSDOF 7
