REMARK  6 active torsions:
REMARK  status: ('A' for Active; 'I' for Inactive)
REMARK    1  A    between atoms: C2_2  and  C3_3 
REMARK    2  A    between atoms: C2_2  and  N2_15 
REMARK    3  A    between atoms: C3_3  and  C4_4 
REMARK    4  A    between atoms: C5_5  and  S1_6 
REMARK    5  A    between atoms: N2_15  and  C12_16 
REMARK    6  A    between atoms: C12_16  and  C13_17 
ROOT
HETATM    1  C4  UNL     1      -1.761   0.397   0.336  1.00  0.00     0.082 C 
HETATM    2  C5  UNL     1      -2.450   0.050   1.555  1.00  0.00     0.086 C 
HETATM    3  N1  UNL     1      -3.450  -0.939   1.380  1.00  0.00    -0.351 N 
HETATM    4  C6  UNL     1      -3.569  -1.121  -0.053  1.00  0.00     0.039 A 
HETATM    5  C7  UNL     1      -4.504  -1.950  -0.600  1.00  0.00     0.030 A 
HETATM    6  C8  UNL     1      -4.541  -1.928  -1.997  1.00  0.00     0.002 A 
HETATM    7  C9  UNL     1      -3.672  -1.108  -2.708  1.00  0.00     0.001 A 
HETATM    8  C10 UNL     1      -2.746  -0.293  -2.091  1.00  0.00     0.010 A 
HETATM    9  C11 UNL     1      -2.684  -0.293  -0.715  1.00  0.00    -0.021 A 
HETATM   10  H8  UNL     1      -3.834  -1.259   2.291  1.00  0.00     0.166 HD
ENDROOT
BRANCH   1  11
HETATM   11  C3  UNL     1      -0.471  -0.278   0.082  1.00  0.00     0.051 C 
BRANCH  11  12
HETATM   12  C2  UNL     1       0.674  -0.187   0.997  1.00  0.00     0.218 C 
HETATM   13  C1  UNL     1       0.463  -0.769   2.380  1.00  0.00     0.042 C 
BRANCH  12  14
HETATM   14  N2  UNL     1       1.164   1.161   1.206  1.00  0.00     0.091 N 
HETATM   15  H13 UNL     1       0.553   1.775   1.746  1.00  0.00     0.316 HD
BRANCH  14  16
HETATM   16  C12 UNL     1       1.618   1.824   0.017  1.00  0.00     0.308 C 
BRANCH  16  17
HETATM   17  C13 UNL     1       2.822   1.191  -0.580  1.00  0.00    -0.030 A 
HETATM   18  C14 UNL     1       2.976   0.220  -1.545  1.00  0.00     0.009 A 
HETATM   19  C15 UNL     1       4.216  -0.223  -1.939  1.00  0.00     0.001 A 
HETATM   20  C16 UNL     1       5.381   0.260  -1.408  1.00  0.00     0.000 A 
HETATM   21  C17 UNL     1       5.295   1.229  -0.442  1.00  0.00     0.001 A 
HETATM   22  C18 UNL     1       4.041   1.658  -0.063  1.00  0.00     0.009 A 
ENDBRANCH  16  17
ENDBRANCH  14  16
ENDBRANCH  12  14
ENDBRANCH  11  12
ENDBRANCH   1  11
BRANCH   2  23
HETATM   23  S1  UNL     1      -2.054   0.902   2.937  1.00  0.00     0.084 SA
HETATM   24  O1  UNL     1      -3.274   1.837   3.260  1.00  0.00    -0.143 OA
ENDBRANCH   2  23
TORSDOF 6
