REMARK  6 active torsions:
REMARK  status: ('A' for Active; 'I' for Inactive)
REMARK    1  A    between atoms: N1_2  and  C2_3 
REMARK    2  A    between atoms: C6_7  and  C7_8 
REMARK    3  A    between atoms: C7_8  and  C8_9 
REMARK    4  A    between atoms: C8_9  and  C9_10 
REMARK       I    between atoms: C9_10  and  N2_12 
REMARK    5  A    between atoms: N2_12  and  C10_13 
REMARK    6  A    between atoms: C10_13  and  C11_14 
ROOT
HETATM    1  C9  UNL     1       1.231  -1.079   0.330  1.00  0.00     0.218 C 
HETATM    2  O1  UNL     1       1.301  -0.524   1.467  1.00  0.00    -0.274 OA
HETATM    3  N2  UNL     1       2.243  -1.649  -0.476  1.00  0.00    -0.357 N 
HETATM    4  H11 UNL     1       1.791  -2.008  -1.347  1.00  0.00     0.162 HD
ENDROOT
BRANCH   1   5
HETATM    5  C8  UNL     1      -0.235  -0.957   0.086  1.00  0.00     0.107 C 
BRANCH   5   6
HETATM    6  C7  UNL     1      -0.937  -0.275   1.210  1.00  0.00     0.043 C 
BRANCH   6   7
HETATM    7  C6  UNL     1      -2.387  -0.195   0.892  1.00  0.00    -0.077 C 
HETATM    8  C5  UNL     1      -3.333  -0.737   1.627  1.00  0.00    -0.020 C 
HETATM    9  C4  UNL     1      -4.808  -0.762   1.472  1.00  0.00     0.056 C 
HETATM   10  C3  UNL     1      -5.210  -0.182   0.193  1.00  0.00     0.004 C 
HETATM   11  C2  UNL     1      -4.299   0.384  -0.569  1.00  0.00     0.033 C 
HETATM   12  C17 UNL     1      -2.864   0.528  -0.314  1.00  0.00     0.092 C 
BRANCH  11  13
HETATM   13  N1  UNL     1      -4.777   0.920  -1.789  1.00  0.00    -0.276 NA
HETATM   14  C1  UNL     1      -5.849   1.633  -1.829  1.00  0.00     0.149 C 
ENDBRANCH  11  13
ENDBRANCH   6   7
ENDBRANCH   5   6
ENDBRANCH   1   5
BRANCH   3  15
HETATM   15  C10 UNL     1       3.605  -1.635   0.003  1.00  0.00     0.161 C 
BRANCH  15  16
HETATM   16  C11 UNL     1       4.290  -0.349  -0.097  1.00  0.00    -0.041 A 
HETATM   17  C12 UNL     1       4.351   0.666   0.821  1.00  0.00     0.009 A 
HETATM   18  C13 UNL     1       5.063   1.833   0.542  1.00  0.00     0.001 A 
HETATM   19  C14 UNL     1       5.715   1.969  -0.672  1.00  0.00     0.000 A 
HETATM   20  C15 UNL     1       5.669   0.951  -1.624  1.00  0.00     0.001 A 
HETATM   21  C16 UNL     1       4.946  -0.196  -1.301  1.00  0.00     0.009 A 
ENDBRANCH  15  16
ENDBRANCH   3  15
TORSDOF 6
