REMARK  4 active torsions:
REMARK  status: ('A' for Active; 'I' for Inactive)
REMARK    1  A    between atoms: O1_2  and  C2_3 
REMARK    2  A    between atoms: C8_9  and  C9_10 
REMARK       I    between atoms: C9_10  and  N1_12 
REMARK    3  A    between atoms: N1_12  and  C10_13 
REMARK    4  A    between atoms: C16_19  and  S1_20 
ROOT
HETATM    1  C2  UNL     1      -1.803   1.146  -0.722  1.00  0.00     0.081 A 
HETATM    2  C3  UNL     1      -2.978   1.669  -1.212  1.00  0.00     0.038 A 
HETATM    3  C4  UNL     1      -4.208   1.120  -0.935  1.00  0.00     0.005 A 
HETATM    4  C5  UNL     1      -4.218   0.001  -0.129  1.00  0.00     0.031 A 
HETATM    5  C6  UNL     1      -3.049  -0.530   0.366  1.00  0.00     0.049 A 
HETATM    6  C7  UNL     1      -1.840   0.039   0.071  1.00  0.00     0.043 A 
HETATM    7  C8  UNL     1      -0.774  -0.607   0.655  1.00  0.00     0.083 A 
HETATM    8  C16 UNL     1      -1.425  -1.632   1.349  1.00  0.00     0.121 A 
HETATM    9  N2  UNL     1      -2.751  -1.563   1.162  1.00  0.00    -0.342 N 
HETATM   10  C17 UNL     1      -3.804  -2.427   1.692  1.00  0.00     0.157 C 
ENDROOT
BRANCH   7  11
HETATM   11  C9  UNL     1       0.662  -0.565   0.659  1.00  0.00     0.260 C 
HETATM   12  O2  UNL     1       1.235  -0.981   1.733  1.00  0.00    -0.267 OA
HETATM   13  N1  UNL     1       1.649  -0.170  -0.260  1.00  0.00    -0.323 N 
HETATM   14  H7  UNL     1       1.228   0.122  -1.166  1.00  0.00     0.169 HD
BRANCH  13  15
HETATM   15  C10 UNL     1       3.049  -0.134  -0.214  1.00  0.00     0.035 A 
HETATM   16  C11 UNL     1       3.754   0.327  -1.328  1.00  0.00     0.029 A 
HETATM   17  C12 UNL     1       5.122   0.400  -1.381  1.00  0.00     0.002 A 
HETATM   18  C13 UNL     1       5.852   0.002  -0.286  1.00  0.00     0.000 A 
HETATM   19  C14 UNL     1       5.244  -0.467   0.856  1.00  0.00     0.002 A 
HETATM   20  C15 UNL     1       3.875  -0.506   0.822  1.00  0.00     0.029 A 
ENDBRANCH  13  15
ENDBRANCH   7  11
BRANCH   8  21
HETATM   21  S1  UNL     1      -0.729  -2.916   2.373  1.00  0.00     0.101 SA
HETATM   22  F1  UNL     1      -0.624  -2.380   3.995  1.00  0.00    -0.157 F 
ENDBRANCH   8  21
BRANCH   1  23
HETATM   23  O1  UNL     1      -0.644   1.777  -1.058  1.00  0.00    -0.355 OA
HETATM   24  C1  UNL     1      -0.599   2.919  -1.874  1.00  0.00     0.210 C 
ENDBRANCH   1  23
TORSDOF 4
