REMARK  5 active torsions:
REMARK  status: ('A' for Active; 'I' for Inactive)
REMARK    1  A    between atoms: C1_2  and  C2_3 
REMARK       I    between atoms: C1_2  and  N2_14 
REMARK    2  A    between atoms: C2_3  and  C3_4 
REMARK    3  A    between atoms: C3_4  and  C4_5 
REMARK    4  A    between atoms: N2_14  and  C11_15 
REMARK    5  A    between atoms: C11_15  and  C12_16 
ROOT
HETATM    1  C2  UNL     1      -0.267   0.571   1.496  1.00  0.00     0.104 C 
ENDROOT
BRANCH   1   2
HETATM    2  C1  UNL     1       0.713  -0.341   0.899  1.00  0.00     0.217 C 
HETATM    3  O1  UNL     1       0.477  -0.762  -0.258  1.00  0.00    -0.274 OA
HETATM    4  N2  UNL     1       1.883  -0.735   1.598  1.00  0.00    -0.357 N 
HETATM    5  H11 UNL     1       1.981  -0.326   2.559  1.00  0.00     0.162 HD
BRANCH   4   6
HETATM    6  C11 UNL     1       2.910  -1.632   1.084  1.00  0.00     0.161 C 
BRANCH   6   7
HETATM    7  C12 UNL     1       3.759  -0.916   0.117  1.00  0.00    -0.041 A 
HETATM    8  C13 UNL     1       3.589  -0.820  -1.248  1.00  0.00     0.009 A 
HETATM    9  C14 UNL     1       4.416  -0.133  -2.088  1.00  0.00     0.001 A 
HETATM   10  C15 UNL     1       5.510   0.517  -1.514  1.00  0.00     0.000 A 
HETATM   11  C16 UNL     1       5.768   0.482  -0.162  1.00  0.00     0.001 A 
HETATM   12  C17 UNL     1       4.870  -0.244   0.622  1.00  0.00     0.009 A 
ENDBRANCH   6   7
ENDBRANCH   4   6
ENDBRANCH   1   2
BRANCH   1  13
HETATM   13  C3  UNL     1      -1.435   0.877   0.641  1.00  0.00     0.025 C 
BRANCH  13  14
HETATM   14  C4  UNL     1      -2.291  -0.271   0.230  1.00  0.00     0.082 A 
HETATM   15  C5  UNL     1      -2.872  -0.974   1.404  1.00  0.00     0.086 A 
HETATM   16  S1  UNL     1      -2.194  -1.836   2.582  1.00  0.00    -0.065 SA
HETATM   17  N1  UNL     1      -4.260  -0.743   1.313  1.00  0.00    -0.350 N 
HETATM   18  C6  UNL     1      -4.870  -0.003   0.296  1.00  0.00     0.036 A 
HETATM   19  H6  UNL     1      -4.998  -1.108   2.008  1.00  0.00     0.166 HD
HETATM   20  C7  UNL     1      -5.631   0.659  -0.570  1.00  0.00     0.007 A 
HETATM   21  C10 UNL     1      -3.550   0.285  -0.391  1.00  0.00    -0.024 A 
HETATM   22  C8  UNL     1      -5.037   1.356  -1.758  1.00  0.00     0.057 A 
HETATM   23  C9  UNL     1      -3.586   1.028  -1.520  1.00  0.00    -0.013 A 
ENDBRANCH  13  14
ENDBRANCH   1  13
TORSDOF 5
