REMARK  3 active torsions:
REMARK  status: ('A' for Active; 'I' for Inactive)
REMARK    1  A    between atoms: C1_2  and  C2_3 
REMARK    2  A    between atoms: C4_5  and  N1_6 
REMARK    3  A    between atoms: N1_6  and  C5_7 
ROOT
HETATM    1  C2  UNL     1      -2.280   1.186  -1.691  1.00  0.00     0.168 A 
HETATM    2  C3  UNL     1      -0.882   1.265  -1.212  1.00  0.00     0.035 A 
HETATM    3  C4  UNL     1      -0.461   0.671  -0.091  1.00  0.00     0.043 A 
HETATM    4  C11 UNL     1      -1.395  -0.097   0.714  1.00  0.00     0.017 A 
HETATM    5  C12 UNL     1      -0.832  -0.656   1.839  1.00  0.00     0.016 A 
HETATM    6  C13 UNL     1      -1.636  -1.406   2.670  1.00  0.00     0.001 A 
HETATM    7  C14 UNL     1      -2.972  -1.555   2.326  1.00  0.00     0.002 A 
HETATM    8  C15 UNL     1      -3.518  -0.984   1.189  1.00  0.00     0.030 A 
HETATM    9  C16 UNL     1      -2.712  -0.234   0.358  1.00  0.00     0.041 A 
HETATM   10  N2  UNL     1      -3.119   0.412  -0.837  1.00  0.00    -0.375 N 
HETATM   11  H13 UNL     1      -4.115   0.312  -1.116  1.00  0.00     0.160 HD
ENDROOT
BRANCH   3  12
HETATM   12  N1  UNL     1       0.915   0.931   0.090  1.00  0.00    -0.356 N 
HETATM   13  H4  UNL     1       1.163   1.951   0.260  1.00  0.00     0.166 HD
BRANCH  12  14
HETATM   14  C5  UNL     1       2.212   0.407   0.154  1.00  0.00     0.034 A 
HETATM   15  C6  UNL     1       2.760   0.286  -1.128  1.00  0.00     0.029 A 
HETATM   16  C7  UNL     1       4.052  -0.215  -1.314  1.00  0.00     0.004 A 
HETATM   17  C8  UNL     1       4.723  -0.571  -0.165  1.00  0.00     0.024 A 
HETATM   18  C9  UNL     1       4.213  -0.465   1.108  1.00  0.00     0.036 A 
HETATM   19 CL1  UNL     1       5.102  -0.930   2.544  1.00  0.00    -0.084 Cl
HETATM   20  C10 UNL     1       2.938   0.033   1.263  1.00  0.00     0.053 A 
ENDBRANCH  12  14
ENDBRANCH   3  12
BRANCH   1  21
HETATM   21  C1  UNL     1      -2.336   0.659  -3.094  1.00  0.00     0.260 C 
HETATM   22  O1  UNL     1      -1.626   1.307  -3.840  1.00  0.00    -0.304 OA
ENDBRANCH   1  21
TORSDOF 3
