REMARK  6 active torsions:
REMARK  status: ('A' for Active; 'I' for Inactive)
REMARK    1  A    between atoms: C1_2  and  C2_3 
REMARK       I    between atoms: C1_2  and  N2_15 
REMARK    2  A    between atoms: C2_3  and  C3_4 
REMARK    3  A    between atoms: C3_4  and  C4_5 
REMARK    4  A    between atoms: N2_15  and  C12_16 
REMARK    5  A    between atoms: C12_16  and  C13_17 
REMARK    6  A    between atoms: C13_17  and  C14_18 
ROOT
HETATM    1  C2  UNL     1      -1.108  -0.315  -0.469  1.00  0.00     0.104 C 
ENDROOT
BRANCH   1   2
HETATM    2  C1  UNL     1       0.264  -0.342   0.148  1.00  0.00     0.217 C 
HETATM    3  O1  UNL     1       0.521  -1.268   0.965  1.00  0.00    -0.274 OA
HETATM    4  N2  UNL     1       1.157   0.693  -0.251  1.00  0.00    -0.361 N 
HETATM    5  H11 UNL     1       0.841   1.422  -0.943  1.00  0.00     0.162 HD
BRANCH   4   6
HETATM    6  C12 UNL     1       2.479   0.702   0.317  1.00  0.00     0.127 C 
BRANCH   6   7
HETATM    7  C13 UNL     1       3.296  -0.518   0.045  1.00  0.00     0.054 C 
BRANCH   7   8
HETATM    8  C14 UNL     1       4.630  -0.376   0.685  1.00  0.00    -0.075 A 
HETATM    9  C15 UNL     1       5.067   0.648   1.394  1.00  0.00     0.003 A 
HETATM   10  C16 UNL     1       6.430   0.480   1.889  1.00  0.00    -0.003 A 
HETATM   11  C17 UNL     1       6.815  -0.705   1.449  1.00  0.00    -0.022 A 
HETATM   12  C18 UNL     1       5.731  -1.352   0.658  1.00  0.00     0.061 A 
ENDBRANCH   7   8
ENDBRANCH   6   7
ENDBRANCH   4   6
ENDBRANCH   1   2
BRANCH   1  13
HETATM   13  C3  UNL     1      -1.949  -1.462   0.039  1.00  0.00     0.025 C 
BRANCH  13  14
HETATM   14  C4  UNL     1      -3.338  -1.446  -0.578  1.00  0.00     0.083 A 
HETATM   15  C5  UNL     1      -3.327  -1.556  -2.041  1.00  0.00     0.086 A 
HETATM   16  S1  UNL     1      -2.660  -2.784  -2.885  1.00  0.00    -0.065 SA
HETATM   17  N1  UNL     1      -4.003  -0.397  -2.544  1.00  0.00    -0.350 N 
HETATM   18  C6  UNL     1      -4.430   0.425  -1.451  1.00  0.00     0.040 A 
HETATM   19  H6  UNL     1      -4.165  -0.176  -3.567  1.00  0.00     0.166 HD
HETATM   20  C7  UNL     1      -5.113   1.627  -1.469  1.00  0.00     0.030 A 
HETATM   21  C11 UNL     1      -4.046  -0.179  -0.277  1.00  0.00    -0.021 A 
HETATM   22  C8  UNL     1      -5.419   2.245  -0.269  1.00  0.00     0.002 A 
HETATM   23  C9  UNL     1      -5.039   1.649   0.906  1.00  0.00     0.001 A 
HETATM   24  C10 UNL     1      -4.352   0.437   0.911  1.00  0.00     0.010 A 
ENDBRANCH  13  14
ENDBRANCH   1  13
TORSDOF 6
