REMARK  7 active torsions:
REMARK  status: ('A' for Active; 'I' for Inactive)
REMARK    1  A    between atoms: P1_2  and  C2_3 
REMARK    2  A    between atoms: C4_7  and  N3_8 
REMARK    3  A    between atoms: N3_8  and  C5_9 
REMARK    4  A    between atoms: C12_18  and  O1_19 
REMARK    5  A    between atoms: C12_18  and  C19_27 
REMARK    6  A    between atoms: O1_19  and  C13_20 
REMARK    7  A    between atoms: C19_27  and  O2_29 
ROOT
HETATM    1  C2  UNL     1      -2.153   2.504   0.967  1.00  0.00     0.184 C 
HETATM    2  N1  UNL     1      -3.306   2.066   1.702  1.00  0.00    -0.267 NA
HETATM    3  C3  UNL     1      -3.753   0.882   1.633  1.00  0.00     0.230 C 
HETATM    4  N2  UNL     1      -3.214  -0.172   0.857  1.00  0.00    -0.224 NA
HETATM    5  C4  UNL     1      -2.142   0.044   0.128  1.00  0.00     0.141 C 
HETATM    6  C11 UNL     1      -1.546   1.369   0.240  1.00  0.00     0.054 C 
HETATM    7  C12 UNL     1      -0.379   1.463  -0.363  1.00  0.00     0.114 C 
ENDROOT
BRANCH   1   8
HETATM    8  P1  UNL     1      -2.772   3.807  -0.218  1.00  0.00    -0.039 P 
HETATM    9  C1  UNL     1      -4.308   3.688  -0.867  1.00  0.00     0.026 C 
ENDBRANCH   1   8
BRANCH   5  10
HETATM   10  N3  UNL     1      -1.714  -1.081  -0.603  1.00  0.00    -0.340 N 
HETATM   11  H5  UNL     1      -1.137  -0.799  -1.452  1.00  0.00     0.167 HD
BRANCH  10  12
HETATM   12  C5  UNL     1      -2.079  -2.407  -0.169  1.00  0.00     0.035 A 
HETATM   13  C6  UNL     1      -3.258  -2.764  -0.834  1.00  0.00     0.032 A 
HETATM   14  C7  UNL     1      -3.844  -4.014  -0.595  1.00  0.00     0.046 A 
HETATM   15  C8  UNL     1      -3.251  -4.898   0.302  1.00  0.00     0.138 A 
HETATM   16  F1  UNL     1      -3.769  -6.125   0.577  1.00  0.00    -0.204 F 
HETATM   17  C9  UNL     1      -2.091  -4.501   0.933  1.00  0.00     0.074 A 
HETATM   18 CL1  UNL     1      -1.264  -5.536   2.080  1.00  0.00    -0.081 Cl
HETATM   19  C10 UNL     1      -1.492  -3.280   0.719  1.00  0.00     0.056 A 
ENDBRANCH  10  12
ENDBRANCH   5  10
BRANCH   7  20
HETATM   20  O1  UNL     1       0.458   0.652  -1.103  1.00  0.00    -0.342 OA
BRANCH  20  21
HETATM   21  C13 UNL     1       1.701   0.162  -0.709  1.00  0.00     0.132 C 
HETATM   22  C14 UNL     1       2.473  -0.403  -1.913  1.00  0.00     0.062 C 
HETATM   23  C15 UNL     1       3.839  -0.762  -1.378  1.00  0.00     0.274 C 
HETATM   24  N4  UNL     1       3.864  -0.803   0.080  1.00  0.00     0.084 N 
HETATM   25  C16 UNL     1       5.154  -1.234   0.538  1.00  0.00     0.309 C 
HETATM   26  C17 UNL     1       2.820  -1.622   0.634  1.00  0.00     0.274 C 
HETATM   27  C18 UNL     1       1.495  -1.019   0.233  1.00  0.00     0.062 C 
ENDBRANCH  20  21
ENDBRANCH   7  20
BRANCH   7  28
HETATM   28  C19 UNL     1       0.343   2.731  -0.311  1.00  0.00     0.092 C 
HETATM   29  C20 UNL     1       1.509   3.069  -0.835  1.00  0.00     0.053 C 
BRANCH  28  30
HETATM   30  O2  UNL     1       0.075   3.951   0.271  1.00  0.00    -0.354 OA
HETATM   31  C21 UNL     1       0.814   4.610   1.252  1.00  0.00     0.210 C 
ENDBRANCH  28  30
ENDBRANCH   7  28
TORSDOF 7
