REMARK  3 active torsions:
REMARK  status: ('A' for Active; 'I' for Inactive)
REMARK    1  A    between atoms: C2_2  and  C3_4 
REMARK    2  A    between atoms: N1_7  and  N2_8 
REMARK    3  A    between atoms: C8_13  and  C9_14 
ROOT
HETATM    1  C3  UNL     1       0.977  -1.019   1.487  1.00  0.00     0.032 C 
HETATM    2  C4  UNL     1       0.555  -0.484   0.370  1.00  0.00    -0.035 C 
HETATM    3  C5  UNL     1       1.012   0.261  -0.898  1.00  0.00     0.147 C 
HETATM    4  N1  UNL     1       0.578   1.571  -0.935  1.00  0.00    -0.240 NA
HETATM    5  C6  UNL     1       0.378   2.328  -2.115  1.00  0.00     0.193 C 
HETATM    6  S1  UNL     1      -1.159   1.681  -2.899  1.00  0.00    -0.090 SA
HETATM    7  S2  UNL     1      -2.794   1.932  -1.434  1.00  0.00    -0.130 SA
HETATM    8  C7  UNL     1      -2.642   0.326  -0.420  1.00  0.00     0.058 A 
HETATM    9  C8  UNL     1      -2.219   1.366   0.045  1.00  0.00     0.074 A 
HETATM   10  C10 UNL     1      -2.069  -0.063  -0.232  1.00  0.00     0.042 A 
HETATM   11  C11 UNL     1      -0.891  -0.758  -0.007  1.00  0.00    -0.037 A 
HETATM   12  C12 UNL     1      -0.685  -2.103  -0.361  1.00  0.00     0.008 A 
HETATM   13  C13 UNL     1      -1.582  -2.990  -0.996  1.00  0.00    -0.002 A 
HETATM   14  C14 UNL     1      -2.725  -2.200  -1.197  1.00  0.00    -0.013 A 
HETATM   15  C15 UNL     1      -2.969  -0.936  -0.887  1.00  0.00     0.026 A 
ENDROOT
BRANCH   1  16
HETATM   16  C2  UNL     1       2.356  -1.052   1.927  1.00  0.00     0.025 C 
HETATM   17  C1  UNL     1       2.780  -1.599   3.063  1.00  0.00     0.037 C 
HETATM   18 CL1  UNL     1       3.877  -0.478   1.286  1.00  0.00    -0.085 Cl
ENDBRANCH   1  16
BRANCH   4  19
HETATM   19  N2  UNL     1       1.518   2.338  -0.121  1.00  0.00    -0.267 NA
HETATM   20  H6  UNL     1       1.707   1.807   0.746  1.00  0.00     0.137 HD
HETATM   21  H7  UNL     1       1.060   3.247   0.103  1.00  0.00     0.137 HD
ENDBRANCH   4  19
BRANCH   9  22
HETATM   22  C9  UNL     1      -1.407   1.989   1.073  1.00  0.00     0.414 C 
HETATM   23  O1  UNL     1      -0.707   1.625   2.048  1.00  0.00    -0.428 OA
ENDBRANCH   9  22
TORSDOF 3
