REMARK  5 active torsions:
REMARK  status: ('A' for Active; 'I' for Inactive)
REMARK    1  A    between atoms: O1_2  and  C2_3 
REMARK    2  A    between atoms: C8_9  and  C9_10 
REMARK       I    between atoms: C9_10  and  N1_12 
REMARK    3  A    between atoms: N1_12  and  C10_13 
REMARK    4  A    between atoms: C16_19  and  S1_20 
REMARK    5  A    between atoms: S1_20  and  S2_21 
ROOT
HETATM    1  S2  UNL     1      -1.816   4.522   0.709  1.00  0.00     0.029 SA
HETATM    2  C17 UNL     1      -2.361   5.115  -0.852  1.00  0.00     0.145 C 
HETATM    3  N2  UNL     1      -2.741   5.508  -1.894  1.00  0.00    -0.183 NA
ENDROOT
BRANCH   1   4
HETATM    4  S1  UNL     1      -0.363   3.025   0.454  1.00  0.00    -0.023 SA
BRANCH   4   5
HETATM    5  C16 UNL     1      -1.155   1.427   0.376  1.00  0.00     0.100 A 
HETATM    6  C8  UNL     1      -0.519   0.178   0.191  1.00  0.00     0.082 A 
HETATM    7  C7  UNL     1      -1.514  -0.750   0.210  1.00  0.00     0.043 A 
HETATM    8  C2  UNL     1      -1.464  -2.118   0.092  1.00  0.00     0.081 A 
HETATM    9  C6  UNL     1      -2.734  -0.178   0.391  1.00  0.00     0.049 A 
HETATM   10  C3  UNL     1      -2.633  -2.842   0.158  1.00  0.00     0.038 A 
HETATM   11  C4  UNL     1      -3.875  -2.282   0.339  1.00  0.00     0.005 A 
HETATM   12  C5  UNL     1      -3.899  -0.910   0.456  1.00  0.00     0.031 A 
HETATM   13  N3  UNL     1      -2.461   1.137   0.486  1.00  0.00    -0.344 N 
HETATM   14  C18 UNL     1      -3.536   2.117   0.698  1.00  0.00     0.157 C 
BRANCH   6  15
HETATM   15  C9  UNL     1       0.902   0.168  -0.043  1.00  0.00     0.260 C 
HETATM   16  O2  UNL     1       1.650   1.100   0.447  1.00  0.00    -0.267 OA
HETATM   17  N1  UNL     1       1.874  -0.602  -0.711  1.00  0.00    -0.323 N 
HETATM   18  H7  UNL     1       1.503  -1.406  -1.219  1.00  0.00     0.169 HD
BRANCH  17  19
HETATM   19  C10 UNL     1       3.150   0.030  -0.482  1.00  0.00     0.035 A 
HETATM   20  C11 UNL     1       3.614   0.994  -1.348  1.00  0.00     0.029 A 
HETATM   21  C12 UNL     1       4.834   1.574  -1.099  1.00  0.00     0.002 A 
HETATM   22  C13 UNL     1       5.591   1.219  -0.021  1.00  0.00     0.000 A 
HETATM   23  C14 UNL     1       5.080   0.241   0.824  1.00  0.00     0.002 A 
HETATM   24  C15 UNL     1       3.876  -0.376   0.634  1.00  0.00     0.029 A 
ENDBRANCH  17  19
ENDBRANCH   6  15
BRANCH   8  25
HETATM   25  O1  UNL     1      -0.267  -2.772  -0.086  1.00  0.00    -0.355 OA
HETATM   26  C1  UNL     1      -0.242  -4.177  -0.204  1.00  0.00     0.210 C 
ENDBRANCH   8  25
ENDBRANCH   4   5
ENDBRANCH   1   4
TORSDOF 5
