REMARK  1 active torsions:
REMARK  status: ('A' for Active; 'I' for Inactive)
REMARK    1  A    between atoms: C7_9  and  C8_10 
ROOT
HETATM    1 BR1  UNL     1       6.372   2.770   0.731  1.00  0.00    -0.050 Br
HETATM    2  C1  UNL     1       5.822   0.982   0.378  1.00  0.00     0.023 A 
HETATM    3  C2  UNL     1       6.527  -0.133   0.340  1.00  0.00     0.022 A 
HETATM    4  C3  UNL     1       5.726  -1.309   0.031  1.00  0.00     0.031 A 
HETATM    5  C4  UNL     1       4.496  -0.844  -0.116  1.00  0.00     0.040 A 
HETATM    6  N1  UNL     1       3.252  -1.450  -0.420  1.00  0.00    -0.385 N 
HETATM    7  C5  UNL     1       2.238  -0.633  -1.120  1.00  0.00     0.158 C 
HETATM    8  C6  UNL     1       1.925   0.596  -0.351  1.00  0.00    -0.037 C 
HETATM    9  C7  UNL     1       0.922   1.302   0.143  1.00  0.00     0.048 C 
HETATM   10  C16 UNL     1       3.243   1.223  -0.030  1.00  0.00     0.024 C 
HETATM   11  C17 UNL     1       4.425   0.597   0.080  1.00  0.00     0.008 A 
HETATM   12  H3  UNL     1       3.074  -2.462  -0.145  1.00  0.00     0.160 HD
ENDROOT
BRANCH   9  13
HETATM   13  C8  UNL     1      -0.520   1.168   0.157  1.00  0.00     0.100 A 
HETATM   14  C9  UNL     1      -1.164   0.165  -0.411  1.00  0.00     0.048 A 
HETATM   15  C10 UNL     1      -2.596  -0.033  -0.438  1.00  0.00    -0.031 A 
HETATM   16  C11 UNL     1      -3.361   0.862   0.157  1.00  0.00     0.039 A 
HETATM   17  C15 UNL     1      -3.324  -1.157  -1.074  1.00  0.00     0.040 C 
HETATM   18  C12 UNL     1      -4.838   0.754   0.189  1.00  0.00     0.059 C 
HETATM   19  N2  UNL     1      -2.724   1.959   0.783  1.00  0.00    -0.264 N 
HETATM   20  C13 UNL     1      -5.209  -0.671   0.536  1.00  0.00     0.006 C 
HETATM   21  C14 UNL     1      -4.280  -1.691  -0.031  1.00  0.00     0.005 C 
HETATM   22  O1  UNL     1      -1.367   2.077   0.766  1.00  0.00    -0.238 OA
HETATM   23  H16 UNL     1      -3.223   2.728   1.284  1.00  0.00     0.194 HD
ENDBRANCH   9  13
TORSDOF 1
