REMARK  0 active torsions:
REMARK  status: ('A' for Active; 'I' for Inactive)
ROOT
HETATM    1  C1  UNL     1       5.457  -0.963  -0.577  1.00  0.00     0.045 C 
HETATM    2  C2  UNL     1       3.996  -0.664  -0.550  1.00  0.00    -0.067 C 
HETATM    3  C3  UNL     1       3.035  -1.583  -0.550  1.00  0.00     0.088 C 
HETATM    4  N1  UNL     1       1.760  -0.945  -0.520  1.00  0.00    -0.381 N 
HETATM    5  C4  UNL     1       0.300  -1.028  -0.386  1.00  0.00     0.158 C 
HETATM    6  C5  UNL     1      -0.104   0.288   0.186  1.00  0.00    -0.044 C 
HETATM    7  C6  UNL     1      -1.308   0.783   0.406  1.00  0.00     0.049 A 
HETATM    8  C7  UNL     1      -1.672   2.096   0.977  1.00  0.00     0.257 A 
HETATM    9  O1  UNL     1      -0.865   2.983   1.357  1.00  0.00    -0.267 OA
HETATM   10  N2  UNL     1      -3.076   2.199   1.028  1.00  0.00    -0.322 N 
HETATM   11  C8  UNL     1      -3.635   1.002   0.512  1.00  0.00     0.046 A 
HETATM   12  C9  UNL     1      -4.969   0.651   0.367  1.00  0.00     0.032 A 
HETATM   13  C10 UNL     1      -5.290  -0.582  -0.166  1.00  0.00     0.021 A 
HETATM   14  C11 UNL     1      -4.290  -1.451  -0.547  1.00  0.00     0.011 A 
HETATM   15 BR1  UNL     1      -4.810  -3.127  -1.271  1.00  0.00    -0.051 Br
HETATM   16  C12 UNL     1      -2.982  -1.044  -0.377  1.00  0.00     0.034 A 
HETATM   17  C13 UNL     1      -2.601   0.161   0.143  1.00  0.00     0.008 A 
HETATM   18  C14 UNL     1       1.173   0.992   0.485  1.00  0.00     0.062 C 
HETATM   19  C15 UNL     1       1.985   0.480  -0.712  1.00  0.00     0.092 C 
HETATM   20  C16 UNL     1       3.454   0.714  -0.519  1.00  0.00     0.060 C 
HETATM   21  H7  UNL     1      -3.630   3.022   1.388  1.00  0.00     0.169 HD
ENDROOT
TORSDOF 0
