REMARK  2 active torsions:
REMARK  status: ('A' for Active; 'I' for Inactive)
REMARK    1  A    between atoms: N1_1  and  S1_2 
REMARK    2  A    between atoms: S1_2  and  C1_4 
ROOT
HETATM    1  C1  UNL     1       3.331   1.298  -1.225  1.00  0.00     0.151 C 
HETATM    2  C2  UNL     1       3.774   0.240  -1.859  1.00  0.00     0.048 C 
HETATM    3  C3  UNL     1       3.148  -1.036  -2.042  1.00  0.00     0.003 C 
HETATM    4  C4  UNL     1       2.102  -1.800  -1.827  1.00  0.00    -0.000 C 
HETATM    5  C5  UNL     1       1.282  -2.982  -1.877  1.00  0.00    -0.004 C 
HETATM    6  C6  UNL     1       0.083  -3.245  -1.421  1.00  0.00    -0.021 C 
HETATM    7  C7  UNL     1      -0.593  -2.115  -0.712  1.00  0.00     0.053 C 
HETATM    8  C8  UNL     1      -1.843  -2.289  -0.199  1.00  0.00     0.011 C 
HETATM    9  C9  UNL     1      -2.503  -1.160   0.498  1.00  0.00    -0.054 C 
HETATM   10  C10 UNL     1      -2.351  -0.647   1.696  1.00  0.00     0.037 C 
HETATM   11  C11 UNL     1      -2.911   0.447   2.527  1.00  0.00     0.059 C 
HETATM   12  C12 UNL     1      -3.638   1.431   1.644  1.00  0.00     0.006 C 
HETATM   13  C13 UNL     1      -3.228   1.153   0.211  1.00  0.00     0.005 C 
HETATM   14  C14 UNL     1      -3.589  -0.282  -0.072  1.00  0.00     0.036 C 
HETATM   15  N2  UNL     1      -1.321  -1.405   2.365  1.00  0.00    -0.244 N 
HETATM   16  O2  UNL     1      -0.011  -1.723   2.530  1.00  0.00    -0.133 OA
HETATM   17  N3  UNL     1       0.945  -0.923   1.945  1.00  0.00    -0.114 NA
HETATM   18  P1  UNL     1       0.567   0.597   1.509  1.00  0.00     0.121 P 
HETATM   19  C15 UNL     1       1.905   1.604   0.731  1.00  0.00     0.243 C 
HETATM   20  O3  UNL     1       2.075   1.186  -0.623  1.00  0.00    -0.334 OA
HETATM   21  H18 UNL     1      -1.841  -2.002   3.071  1.00  0.00     0.196 HD
ENDROOT
BRANCH   1  22
HETATM   22  S1  UNL     1       4.419   2.693  -1.238  1.00  0.00     0.146 S 
HETATM   23  O1  UNL     1       4.914   3.037   0.138  1.00  0.00    -0.234 OA
BRANCH  22  24
HETATM   24  N1  UNL     1       3.616   4.022  -2.036  1.00  0.00    -0.246 NA
HETATM   25  H1  UNL     1       4.187   4.880  -2.019  1.00  0.00     0.134 HD
HETATM   26  H2  UNL     1       2.638   4.138  -1.716  1.00  0.00     0.134 HD
ENDBRANCH  22  24
ENDBRANCH   1  22
TORSDOF 2
