REMARK  3 active torsions:
REMARK  status: ('A' for Active; 'I' for Inactive)
REMARK    1  A    between atoms: N1_1  and  C1_2 
REMARK    2  A    between atoms: C14_16  and  S1_17 
REMARK    3  A    between atoms: S1_17  and  N3_18 
ROOT
HETATM    1  C1  UNL     1       2.941  -1.401  -0.842  1.00  0.00     0.274 C 
HETATM    2  C2  UNL     1       2.212  -1.080   0.439  1.00  0.00    -0.015 A 
HETATM    3  C3  UNL     1       1.690  -1.219   1.634  1.00  0.00     0.022 A 
HETATM    4  C4  UNL     1       1.239   0.153   1.528  1.00  0.00    -0.027 A 
HETATM    5  C5  UNL     1       1.765   0.330   0.316  1.00  0.00    -0.037 A 
HETATM    6  C6  UNL     1       2.207   0.863  -0.985  1.00  0.00     0.067 C 
HETATM    7  C7  UNL     1       2.152  -0.497  -1.760  1.00  0.00     0.123 C 
HETATM    8  N2  UNL     1       0.750  -0.701  -1.848  1.00  0.00    -0.385 N 
HETATM    9  C8  UNL     1      -0.298  -0.542  -0.874  1.00  0.00     0.013 C 
HETATM   10  C9  UNL     1      -0.757   0.286   0.103  1.00  0.00    -0.013 C 
HETATM   11  C10 UNL     1      -1.969   0.150   0.996  1.00  0.00     0.042 C 
HETATM   12  C11 UNL     1      -2.742  -1.134   0.736  1.00  0.00     0.005 C 
HETATM   13  C12 UNL     1      -2.674  -1.320  -0.764  1.00  0.00     0.006 C 
HETATM   14  C13 UNL     1      -1.213  -1.732  -0.987  1.00  0.00     0.057 C 
HETATM   15  C14 UNL     1      -0.341   1.562   0.701  1.00  0.00     0.083 C 
HETATM   16  C15 UNL     1       0.753   1.525   1.491  1.00  0.00     0.037 C 
HETATM   17  H8  UNL     1       0.453  -1.011  -2.800  1.00  0.00     0.160 HD
ENDROOT
BRANCH  15  18
HETATM   18  S1  UNL     1      -1.013   3.160   0.597  1.00  0.00     0.239 S 
HETATM   19  O1  UNL     1       0.055   4.180   0.769  1.00  0.00    -0.206 OA
HETATM   20  O2  UNL     1      -1.751   3.330  -0.704  1.00  0.00    -0.206 OA
BRANCH  18  21
HETATM   21  N3  UNL     1      -2.170   3.427   1.883  1.00  0.00    -0.225 NA
HETATM   22  H17 UNL     1      -1.630   3.595   2.772  1.00  0.00     0.136 HD
HETATM   23  H18 UNL     1      -2.705   4.269   1.586  1.00  0.00     0.136 HD
ENDBRANCH  18  21
ENDBRANCH  15  18
BRANCH   1  24
HETATM   24  N1  UNL     1       2.874  -2.783  -1.138  1.00  0.00     0.089 N 
HETATM   25  H1  UNL     1       2.458  -3.337  -0.351  1.00  0.00     0.313 HD
HETATM   26  H2  UNL     1       2.460  -2.969  -2.061  1.00  0.00     0.313 HD
ENDBRANCH   1  24
TORSDOF 3
