REMARK  5 active torsions:
REMARK  status: ('A' for Active; 'I' for Inactive)
REMARK    1  A    between atoms: N1_1  and  S1_2 
REMARK    2  A    between atoms: S1_2  and  C1_5 
REMARK    3  A    between atoms: C1_5  and  C2_6 
REMARK    4  A    between atoms: C2_6  and  C4_9 
REMARK    5  A    between atoms: C8_15  and  P1_16 
ROOT
HETATM    1  C4  UNL     1      -1.250  -0.057  -0.821  1.00  0.00     0.039 C 
HETATM    2  C5  UNL     1      -0.925  -0.461   0.375  1.00  0.00     0.048 A 
HETATM    3  N2  UNL     1      -1.539  -1.437   1.244  1.00  0.00    -0.323 N 
HETATM    4  C6  UNL     1      -0.867  -1.555   2.491  1.00  0.00     0.246 A 
HETATM    5  O3  UNL     1      -1.178  -2.322   3.437  1.00  0.00    -0.268 OA
HETATM    6  C7  UNL     1       0.205  -0.605   2.369  1.00  0.00     0.090 A 
HETATM    7  C8  UNL     1       0.185   0.008   1.204  1.00  0.00     0.021 A 
HETATM    8  H7  UNL     1      -2.374  -2.026   1.016  1.00  0.00     0.169 HD
ENDROOT
BRANCH   1   9
HETATM    9  C2  UNL     1      -2.336  -0.453  -1.662  1.00  0.00    -0.034 C 
HETATM   10  C3  UNL     1      -2.195   0.002  -2.932  1.00  0.00     0.064 C 
HETATM   11 BR1  UNL     1      -1.378   0.914  -4.406  1.00  0.00    -0.063 Br
BRANCH   9  12
HETATM   12  C1  UNL     1      -3.584  -1.218  -1.554  1.00  0.00     0.196 C 
BRANCH  12  13
HETATM   13  S1  UNL     1      -4.818  -0.499  -0.525  1.00  0.00     0.211 S 
HETATM   14  O1  UNL     1      -4.429  -0.379   0.905  1.00  0.00    -0.211 OA
HETATM   15  O2  UNL     1      -6.097  -1.303  -0.550  1.00  0.00    -0.211 OA
BRANCH  13  16
HETATM   16  N1  UNL     1      -5.255   1.066  -1.165  1.00  0.00    -0.229 NA
HETATM   17  H1  UNL     1      -4.346   1.533  -1.404  1.00  0.00     0.136 HD
HETATM   18  H2  UNL     1      -5.786   1.583  -0.429  1.00  0.00     0.136 HD
ENDBRANCH  13  16
ENDBRANCH  12  13
ENDBRANCH   9  12
ENDBRANCH   1   9
BRANCH   7  19
HETATM   19  P1  UNL     1       1.396   1.276   0.707  1.00  0.00     0.014 P 
HETATM   20  C9  UNL     1       2.692   1.571   1.935  1.00  0.00     0.061 C 
HETATM   21  C10 UNL     1       3.745   0.499   2.041  1.00  0.00     0.006 C 
HETATM   22  C11 UNL     1       3.619  -0.398   0.842  1.00  0.00     0.002 C 
HETATM   23  C12 UNL     1       4.022   0.392  -0.368  1.00  0.00     0.019 C 
HETATM   24  C13 UNL     1       2.925   0.494  -1.384  1.00  0.00     0.118 C 
HETATM   25  N3  UNL     1       1.813   1.288  -0.965  1.00  0.00    -0.394 N 
HETATM   26  H19 UNL     1       1.762   2.219  -1.442  1.00  0.00     0.158 HD
ENDBRANCH   7  19
TORSDOF 5
