REMARK  3 active torsions:
REMARK  status: ('A' for Active; 'I' for Inactive)
REMARK    1  A    between atoms: O1_2  and  C2_3 
REMARK    2  A    between atoms: C7_9  and  N2_10 
REMARK    3  A    between atoms: N2_10  and  C8_11 
ROOT
HETATM    1  C2  UNL     1       3.203   0.616   0.280  1.00  0.00     0.161 C 
HETATM    2  C3  UNL     1       2.739   1.568  -0.524  1.00  0.00     0.060 C 
HETATM    3  C4  UNL     1       1.418   1.753  -1.195  1.00  0.00     0.032 C 
HETATM    4  C5  UNL     1       0.410   0.884  -1.205  1.00  0.00     0.042 C 
HETATM    5  N1  UNL     1      -0.690   1.876  -1.326  1.00  0.00    -0.267 NA
HETATM    6  C6  UNL     1      -1.752   1.885  -0.455  1.00  0.00     0.119 C 
HETATM    7  C7  UNL     1      -2.490   1.189   0.601  1.00  0.00     0.145 C 
HETATM    8  C10 UNL     1      -2.193  -0.215   0.918  1.00  0.00     0.010 C 
HETATM    9  C11 UNL     1      -1.050  -0.849   0.723  1.00  0.00    -0.032 C 
HETATM   10  C12 UNL     1      -0.938  -2.292   0.458  1.00  0.00     0.153 C 
HETATM   11  N3  UNL     1       0.106  -2.706  -0.417  1.00  0.00    -0.412 N 
HETATM   12  C13 UNL     1      -0.146  -3.942  -1.057  1.00  0.00     0.143 C 
HETATM   13  C14 UNL     1       0.879  -1.770  -1.218  1.00  0.00     0.130 C 
HETATM   14  C15 UNL     1       0.347  -0.528  -1.023  1.00  0.00     0.091 C 
HETATM   15  C16 UNL     1       0.360  -0.478   0.590  1.00  0.00     0.194 C 
HETATM   16  O2  UNL     1       1.379  -1.182   1.077  1.00  0.00    -0.268 OA
HETATM   17  N4  UNL     1       2.565  -0.542   0.871  1.00  0.00    -0.244 N 
HETATM   18  H21 UNL     1       3.343  -1.099   1.313  1.00  0.00     0.196 HD
ENDROOT
BRANCH   7  19
HETATM   19  N2  UNL     1      -3.899   1.300   0.274  1.00  0.00    -0.386 N 
HETATM   20  H8  UNL     1      -4.867   1.000   0.040  1.00  0.00     0.160 HD
BRANCH  19  21
HETATM   21  C8  UNL     1      -4.300   2.664   0.214  1.00  0.00     0.095 C 
HETATM   22  C9  UNL     1      -4.529   3.370   1.307  1.00  0.00     0.234 C 
HETATM   23 CL1  UNL     1      -4.949   4.731   2.301  1.00  0.00    -0.229 Cl
ENDBRANCH  19  21
ENDBRANCH   7  19
BRANCH   1  24
HETATM   24  O1  UNL     1       4.518   0.884   0.520  1.00  0.00    -0.340 OA
HETATM   25  C1  UNL     1       5.537  -0.057   0.279  1.00  0.00     0.211 C 
ENDBRANCH   1  24
TORSDOF 3
