REMARK  5 active torsions:
REMARK  status: ('A' for Active; 'I' for Inactive)
REMARK    1  A    between atoms: O1_2  and  C2_3 
REMARK    2  A    between atoms: C5_6  and  C6_7 
REMARK    3  A    between atoms: C7_8  and  N1_9 
REMARK    4  A    between atoms: N1_9  and  C8_10 
REMARK    5  A    between atoms: C15_18  and  N2_19 
ROOT
HETATM    1  C6  UNL     1       0.769  -0.022   0.903  1.00  0.00     0.060 A 
HETATM    2  C7  UNL     1      -0.545   0.129   0.602  1.00  0.00     0.099 A 
HETATM    3  C14 UNL     1      -0.200  -0.699   1.659  1.00  0.00     0.213 A 
HETATM    4  O2  UNL     1      -0.476  -1.480   2.605  1.00  0.00    -0.285 OA
ENDROOT
BRANCH   1   5
HETATM    5  C5  UNL     1       2.196   0.217   0.730  1.00  0.00     0.007 A 
HETATM    6  C4  UNL     1       2.894   1.234   1.355  1.00  0.00     0.017 A 
HETATM    7  C3  UNL     1       4.244   1.318   1.079  1.00  0.00     0.038 A 
HETATM    8  C2  UNL     1       4.920   0.474   0.243  1.00  0.00     0.070 A 
HETATM    9  C16 UNL     1       4.212  -0.541  -0.378  1.00  0.00     0.066 A 
HETATM   10  C15 UNL     1       2.853  -0.658  -0.126  1.00  0.00     0.039 A 
BRANCH   8  11
HETATM   11  O1  UNL     1       6.268   0.653   0.043  1.00  0.00    -0.356 OA
HETATM   12  C1  UNL     1       7.020  -0.183  -0.807  1.00  0.00     0.210 C 
ENDBRANCH   8  11
BRANCH  10  13
HETATM   13  N2  UNL     1       2.217  -1.740  -0.818  1.00  0.00    -0.398 N 
HETATM   14  H16 UNL     1       2.433  -2.753  -0.783  1.00  0.00     0.156 HD
HETATM   15  H17 UNL     1       1.405  -1.676  -1.493  1.00  0.00     0.156 HD
ENDBRANCH  10  13
ENDBRANCH   1   5
BRANCH   2  16
HETATM   16  N1  UNL     1      -1.597   0.685  -0.179  1.00  0.00    -0.356 N 
HETATM   17  H6  UNL     1      -1.367   1.335  -0.966  1.00  0.00     0.166 HD
BRANCH  16  18
HETATM   18  C8  UNL     1      -2.986   0.437   0.011  1.00  0.00     0.006 C 
HETATM   19  C9  UNL     1      -3.807   1.489  -0.032  1.00  0.00    -0.002 C 
HETATM   20  C10 UNL     1      -5.270   1.342   0.153  1.00  0.00     0.029 C 
HETATM   21  C11 UNL     1      -5.823   0.159  -0.600  1.00  0.00     0.004 C 
HETATM   22  C12 UNL     1      -4.926  -1.045  -0.540  1.00  0.00     0.006 C 
HETATM   23  C13 UNL     1      -3.675  -0.846   0.254  1.00  0.00     0.057 C 
ENDBRANCH  16  18
ENDBRANCH   2  16
TORSDOF 5
