REMARK  0 active torsions:
REMARK  status: ('A' for Active; 'I' for Inactive)
ROOT
HETATM    1  C1  UNL     1      -3.514   0.446  -1.423  1.00  0.00     0.017 A 
HETATM    2  C2  UNL     1      -2.528   0.508  -0.492  1.00  0.00    -0.027 A 
HETATM    3  C3  UNL     1      -2.241   1.442  -1.531  1.00  0.00     0.049 A 
HETATM    4  C4  UNL     1      -1.144   2.151  -1.367  1.00  0.00     0.004 C 
HETATM    5  C5  UNL     1      -0.283   1.619  -0.535  1.00  0.00     0.037 C 
HETATM    6  N1  UNL     1      -0.129   0.149  -0.941  1.00  0.00    -0.388 N 
HETATM    7  C6  UNL     1       0.289  -1.037  -0.239  1.00  0.00     0.092 C 
HETATM    8  C7  UNL     1      -0.502  -1.395   0.991  1.00  0.00     0.026 C 
HETATM    9  C8  UNL     1      -1.959  -1.607   0.755  1.00  0.00     0.003 C 
HETATM   10  C9  UNL     1      -2.791  -0.421   0.565  1.00  0.00     0.011 C 
HETATM   11  C10 UNL     1       1.690  -1.499  -0.207  1.00  0.00     0.055 C 
HETATM   12  C11 UNL     1       2.298  -1.254  -1.568  1.00  0.00    -0.016 C 
HETATM   13  C12 UNL     1       2.531   0.050  -1.834  1.00  0.00    -0.001 C 
HETATM   14  C13 UNL     1       2.023   1.341  -1.297  1.00  0.00     0.037 C 
HETATM   15  C14 UNL     1       1.730   1.394  -0.032  1.00  0.00     0.179 A 
HETATM   16  C15 UNL     1       0.612   1.870   0.683  1.00  0.00     0.261 A 
HETATM   17  C16 UNL     1       0.116   2.084   1.861  1.00  0.00     0.110 A 
HETATM   18  C17 UNL     1       1.333   1.512   2.557  1.00  0.00     0.353 A 
HETATM   19  O1  UNL     1       1.762   1.294   3.680  1.00  0.00    -0.260 OA
HETATM   20  N2  UNL     1       2.018   1.221   1.353  1.00  0.00     0.072 N 
HETATM   21  C18 UNL     1       3.129   0.223   1.356  1.00  0.00     0.218 C 
HETATM   22  C19 UNL     1       2.617  -1.038   0.889  1.00  0.00     0.010 C 
HETATM   23  H4  UNL     1      -0.372  -0.003  -1.983  1.00  0.00     0.159 HD
ENDROOT
TORSDOF 0
