REMARK  4 active torsions:
REMARK  status: ('A' for Active; 'I' for Inactive)
REMARK    1  A    between atoms: O1_2  and  C2_3 
REMARK    2  A    between atoms: C9_12  and  C10_13 
REMARK    3  A    between atoms: C10_13  and  C11_14 
REMARK    4  A    between atoms: C13_16  and  N1_17 
ROOT
HETATM    1  C2  UNL     1       3.932   0.278   1.451  1.00  0.00     0.069 A 
HETATM    2  C3  UNL     1       2.664   0.642   1.784  1.00  0.00     0.037 A 
HETATM    3  C4  UNL     1       1.547   0.386   1.049  1.00  0.00     0.017 A 
HETATM    4  C5  UNL     1       1.669  -0.300  -0.145  1.00  0.00     0.004 A 
HETATM    5  C6  UNL     1       2.976  -0.683  -0.504  1.00  0.00     0.023 A 
HETATM    6  C7  UNL     1       4.062  -0.405   0.264  1.00  0.00     0.056 A 
HETATM    7  S1  UNL     1       3.010  -1.572  -2.083  1.00  0.00    -0.046 SA
HETATM    8  C8  UNL     1       1.234  -1.440  -2.292  1.00  0.00     0.232 A 
HETATM    9  O2  UNL     1       0.662  -1.919  -3.291  1.00  0.00    -0.279 OA
HETATM   10  C9  UNL     1       0.742  -0.720  -1.129  1.00  0.00     0.079 A 
ENDROOT
BRANCH  10  11
HETATM   11  C10 UNL     1      -0.546  -0.510  -1.076  1.00  0.00    -0.103 C 
BRANCH  11  12
HETATM   12  C11 UNL     1      -1.831  -0.357  -0.859  1.00  0.00    -0.006 C 
HETATM   13  C12 UNL     1      -2.539  -1.364  -0.174  1.00  0.00     0.040 C 
HETATM   14  C13 UNL     1      -3.863  -1.085  -0.147  1.00  0.00     0.003 C 
HETATM   15  C14 UNL     1      -4.602   0.072  -0.715  1.00  0.00     0.057 C 
HETATM   16  C15 UNL     1      -3.747   1.222  -1.103  1.00  0.00     0.015 C 
HETATM   17  C16 UNL     1      -2.317   0.907  -1.398  1.00  0.00     0.023 C 
HETATM   18  C17 UNL     1      -1.453   1.996  -0.790  1.00  0.00     0.015 C 
BRANCH  14  19
HETATM   19  N1  UNL     1      -4.663  -2.071   0.539  1.00  0.00    -0.402 N 
HETATM   20  H8  UNL     1      -4.791  -2.053   1.566  1.00  0.00     0.156 HD
HETATM   21  H9  UNL     1      -5.252  -2.921   0.404  1.00  0.00     0.156 HD
ENDBRANCH  14  19
ENDBRANCH  11  12
ENDBRANCH  10  11
BRANCH   1  22
HETATM   22  O1  UNL     1       5.028   0.573   2.251  1.00  0.00    -0.356 OA
HETATM   23  C1  UNL     1       6.347   0.200   1.915  1.00  0.00     0.210 C 
ENDBRANCH   1  22
TORSDOF 4
