REMARK  2 active torsions:
REMARK  status: ('A' for Active; 'I' for Inactive)
REMARK    1  A    between atoms: C4_6  and  O2_7 
REMARK    2  A    between atoms: C9_12  and  C10_13 
ROOT
HETATM    1  O1  UNL     1      -1.946   0.346   3.577  1.00  0.00    -0.267 OA
HETATM    2  C1  UNL     1      -2.592   0.252   2.503  1.00  0.00     0.256 A 
HETATM    3  N1  UNL     1      -3.980   0.328   2.271  1.00  0.00    -0.322 N 
HETATM    4  C2  UNL     1      -4.351   0.175   0.909  1.00  0.00     0.049 A 
HETATM    5  C3  UNL     1      -5.595   0.191   0.315  1.00  0.00     0.066 A 
HETATM    6  C4  UNL     1      -5.674   0.015  -1.050  1.00  0.00     0.067 A 
HETATM    7  C5  UNL     1      -4.519  -0.171  -1.779  1.00  0.00     0.037 A 
HETATM    8  C6  UNL     1      -3.314  -0.174  -1.110  1.00  0.00     0.017 A 
HETATM    9  C7  UNL     1      -3.154  -0.005   0.249  1.00  0.00     0.006 A 
HETATM   10  C8  UNL     1      -2.020   0.031   1.168  1.00  0.00     0.043 A 
HETATM   11  C9  UNL     1      -0.753  -0.108   0.866  1.00  0.00     0.020 C 
HETATM   12  H1  UNL     1      -4.611   0.485   3.085  1.00  0.00     0.169 HD
ENDROOT
BRANCH  11  13
HETATM   13  C10 UNL     1       0.248  -0.325  -0.187  1.00  0.00     0.129 A 
HETATM   14  C11 UNL     1       0.887  -1.671   0.070  1.00  0.00     0.003 A 
HETATM   15  C12 UNL     1       2.167  -1.936   0.276  1.00  0.00     0.007 A 
HETATM   16  C13 UNL     1       3.059  -0.781   0.249  1.00  0.00    -0.036 A 
HETATM   17  C14 UNL     1       2.673   0.455   0.040  1.00  0.00     0.012 A 
HETATM   18  C18 UNL     1       4.506  -1.038   0.476  1.00  0.00     0.040 C 
HETATM   19  C15 UNL     1       3.558   1.621   0.010  1.00  0.00     0.057 C 
HETATM   20  N2  UNL     1       1.299   0.712  -0.178  1.00  0.00    -0.382 N 
HETATM   21  C16 UNL     1       4.989   1.299  -0.279  1.00  0.00     0.006 C 
HETATM   22  C17 UNL     1       5.252  -0.163  -0.514  1.00  0.00     0.005 C 
HETATM   23  H18 UNL     1       0.837   1.638  -0.358  1.00  0.00     0.160 HD
ENDBRANCH  11  13
BRANCH   6  24
HETATM   24  O2  UNL     1      -6.947   0.040  -1.597  1.00  0.00    -0.361 OA
HETATM   25  H3  UNL     1      -7.236   0.518  -2.417  1.00  0.00     0.217 HD
ENDBRANCH   6  24
TORSDOF 2
