REMARK  4 active torsions:
REMARK  status: ('A' for Active; 'I' for Inactive)
REMARK    1  A    between atoms: C2_2  and  O1_3 
REMARK    2  A    between atoms: C2_2  and  C3_4 
REMARK    3  A    between atoms: N1_8  and  C7_9 
REMARK    4  A    between atoms: C8_11  and  C9_12 
ROOT
HETATM    1  C3  UNL     1      -2.331  -0.179   1.109  1.00  0.00    -0.025 A 
HETATM    2  C4  UNL     1      -3.203  -0.733   0.277  1.00  0.00     0.009 A 
HETATM    3  C5  UNL     1      -3.626   0.105  -0.844  1.00  0.00     0.018 A 
HETATM    4  C6  UNL     1      -3.198   1.340  -1.062  1.00  0.00     0.094 A 
HETATM    5  N1  UNL     1      -2.263   1.832  -0.106  1.00  0.00    -0.323 N 
HETATM    6  C8  UNL     1      -1.734   1.180   1.047  1.00  0.00     0.148 A 
ENDROOT
BRANCH   6   7
HETATM    7  C9  UNL     1      -0.279   1.225   1.219  1.00  0.00     0.028 C 
HETATM    8  C10 UNL     1       0.610   0.690   0.393  1.00  0.00     0.011 A 
HETATM    9  C11 UNL     1       2.107   0.642   0.416  1.00  0.00     0.092 A 
HETATM   10  N2  UNL     1       0.198  -0.004  -0.779  1.00  0.00    -0.363 N 
HETATM   11  C12 UNL     1       2.395  -0.120  -0.826  1.00  0.00    -0.052 A 
HETATM   12  C13 UNL     1       1.322  -0.488  -1.506  1.00  0.00     0.012 A 
HETATM   13  C17 UNL     1       3.828  -0.365  -1.137  1.00  0.00     0.036 C 
HETATM   14  C14 UNL     1       1.522  -1.264  -2.774  1.00  0.00     0.057 C 
HETATM   15  C15 UNL     1       2.787  -2.092  -2.611  1.00  0.00     0.006 C 
HETATM   16  C16 UNL     1       3.917  -1.094  -2.472  1.00  0.00     0.005 C 
HETATM   17  H22 UNL     1      -0.749  -0.201  -1.169  1.00  0.00     0.165 HD
ENDBRANCH   6   7
BRANCH   1  18
HETATM   18  C2  UNL     1      -1.797  -0.890   2.299  1.00  0.00     0.145 C 
HETATM   19  C1  UNL     1      -2.117  -0.177   3.587  1.00  0.00     0.044 C 
BRANCH  18  20
HETATM   20  O1  UNL     1      -0.426  -1.072   2.270  1.00  0.00    -0.392 OA
HETATM   21  H5  UNL     1      -0.246  -1.837   1.667  1.00  0.00     0.210 HD
ENDBRANCH  18  20
ENDBRANCH   1  18
BRANCH   5  22
HETATM   22  C7  UNL     1      -1.781   3.154  -0.314  1.00  0.00     0.356 C 
HETATM   23  O2  UNL     1      -2.042   3.988  -1.220  1.00  0.00    -0.283 OA
ENDBRANCH   5  22
TORSDOF 4
