REMARK  0 active torsions:
REMARK  status: ('A' for Active; 'I' for Inactive)
ROOT
HETATM    1  O1  UNL     1      -1.150  -4.453  -1.193  1.00  0.00    -0.271 OA
HETATM    2  C1  UNL     1      -1.913  -3.561  -0.682  1.00  0.00     0.291 A 
HETATM    3  N1  UNL     1      -3.253  -3.503  -0.262  1.00  0.00     0.018 N 
HETATM    4  C2  UNL     1      -3.699  -2.284   0.259  1.00  0.00     0.190 A 
HETATM    5  C3  UNL     1      -4.602  -1.432   0.804  1.00  0.00     0.040 A 
HETATM    6  C4  UNL     1      -4.791   0.032   1.338  1.00  0.00    -0.031 A 
HETATM    7  C5  UNL     1      -3.919  -0.634   0.861  1.00  0.00     0.044 A 
HETATM    8  C6  UNL     1      -3.017  -1.332   0.365  1.00  0.00     0.076 A 
HETATM    9  C7  UNL     1      -2.357  -2.236  -0.127  1.00  0.00     0.237 A 
HETATM   10  C8  UNL     1      -1.068  -2.405  -0.566  1.00  0.00     0.128 A 
HETATM   11  C9  UNL     1      -0.455  -1.311  -0.374  1.00  0.00     0.026 C 
HETATM   12  C10 UNL     1       0.711  -0.526  -0.563  1.00  0.00     0.033 A 
HETATM   13  C11 UNL     1       1.869  -1.134  -0.989  1.00  0.00     0.038 A 
HETATM   14  C12 UNL     1       2.884  -0.185  -1.188  1.00  0.00    -0.033 A 
HETATM   15  C13 UNL     1       2.194   0.958  -0.844  1.00  0.00     0.018 A 
HETATM   16  N2  UNL     1       0.927   0.817  -0.469  1.00  0.00    -0.347 N 
HETATM   17  C14 UNL     1      -0.127   1.770  -0.014  1.00  0.00     0.156 C 
HETATM   18  C15 UNL     1      -0.277   1.663   1.450  1.00  0.00    -0.007 C 
HETATM   19  C16 UNL     1      -0.942   1.385   2.611  1.00  0.00    -0.006 C 
HETATM   20  C17 UNL     1      -2.215   0.956   2.063  1.00  0.00    -0.021 C 
HETATM   21  C18 UNL     1      -3.306   0.602   1.434  1.00  0.00     0.019 A 
HETATM   22  C19 UNL     1       2.860   2.285  -0.953  1.00  0.00     0.058 C 
HETATM   23  C20 UNL     1       4.233   2.158  -1.519  1.00  0.00     0.006 C 
HETATM   24  C21 UNL     1       4.962   0.964  -0.943  1.00  0.00     0.005 C 
HETATM   25  C22 UNL     1       4.300  -0.247  -1.617  1.00  0.00     0.040 C 
HETATM   26  H1  UNL     1      -3.950  -4.297  -0.306  1.00  0.00     0.292 HD
ENDROOT
TORSDOF 0
