REMARK  1 active torsions:
REMARK  status: ('A' for Active; 'I' for Inactive)
REMARK    1  A    between atoms: N1_1  and  C1_2 
ROOT
HETATM    1  C1  UNL     1       2.787  -0.647  -0.335  1.00  0.00     0.250 C 
HETATM    2  C2  UNL     1       3.442   0.483   0.440  1.00  0.00     0.041 C 
HETATM    3  C3  UNL     1       2.787   1.828   0.123  1.00  0.00     0.016 C 
HETATM    4  C4  UNL     1       1.493   1.554  -0.537  1.00  0.00     0.045 C 
HETATM    5  C5  UNL     1       0.929   0.365   0.237  1.00  0.00    -0.008 C 
HETATM    6  C6  UNL     1       1.389  -0.859   0.106  1.00  0.00    -0.028 C 
HETATM    7  C7  UNL     1       0.686  -2.062   0.351  1.00  0.00     0.027 C 
HETATM    8  C8  UNL     1      -0.480  -2.590   0.105  1.00  0.00     0.046 A 
HETATM    9  C9  UNL     1      -1.162  -3.849   0.384  1.00  0.00     0.257 A 
HETATM   10  O1  UNL     1      -0.677  -4.829   1.001  1.00  0.00    -0.267 OA
HETATM   11  N2  UNL     1      -2.475  -3.802  -0.154  1.00  0.00    -0.322 N 
HETATM   12  C10 UNL     1      -2.488  -2.500  -0.724  1.00  0.00     0.048 A 
HETATM   13  C11 UNL     1      -3.378  -1.677  -1.355  1.00  0.00     0.042 C 
HETATM   14  C12 UNL     1      -2.754  -0.438  -0.891  1.00  0.00    -0.021 C 
HETATM   15  C13 UNL     1      -1.488  -0.552  -1.205  1.00  0.00    -0.000 C 
HETATM   16  C14 UNL     1      -1.256  -1.663  -0.607  1.00  0.00     0.018 A 
HETATM   17  C15 UNL     1      -2.978   0.816  -0.238  1.00  0.00     0.021 C 
HETATM   18  C16 UNL     1      -2.182   1.815   0.018  1.00  0.00    -0.039 C 
HETATM   19  C17 UNL     1      -2.737   3.000   0.730  1.00  0.00     0.015 C 
HETATM   20  C18 UNL     1      -1.801   3.926   0.917  1.00  0.00     0.040 C 
HETATM   21  S1  UNL     1      -0.388   4.209  -0.141  1.00  0.00    -0.154 SA
HETATM   22  C19 UNL     1       0.412   2.590  -0.313  1.00  0.00    -0.023 A 
HETATM   23  C20 UNL     1      -0.862   2.429  -0.046  1.00  0.00     0.114 A 
HETATM   24  H11 UNL     1      -3.256  -4.474  -0.170  1.00  0.00     0.169 HD
ENDROOT
BRANCH   1  25
HETATM   25  N1  UNL     1       3.506  -1.858   0.015  1.00  0.00     0.087 N 
HETATM   26  H1  UNL     1       4.538  -1.780  -0.133  1.00  0.00     0.313 HD
HETATM   27  H2  UNL     1       3.372  -2.007   1.058  1.00  0.00     0.313 HD
ENDBRANCH   1  25
TORSDOF 1
