REMARK  7 active torsions:
REMARK  status: ('A' for Active; 'I' for Inactive)
REMARK    1  A    between atoms: C6_7  and  C7_8 
REMARK    2  A    between atoms: C6_7  and  N3_25 
REMARK    3  A    between atoms: C7_8  and  N1_9 
REMARK    4  A    between atoms: C8_10  and  C9_11 
REMARK    5  A    between atoms: C9_11  and  N2_12 
REMARK    6  A    between atoms: N2_12  and  C10_13 
REMARK    7  A    between atoms: C14_17  and  C15_18 
ROOT
HETATM    1  N2  UNL     1       0.408  -2.255  -0.564  1.00  0.00    -0.385 N 
HETATM    2  H11 UNL     1       0.649  -2.501   0.443  1.00  0.00     0.160 HD
ENDROOT
BRANCH   1   3
HETATM    3  C9  UNL     1      -0.803  -2.724  -1.152  1.00  0.00     0.166 C 
BRANCH   3   4
HETATM    4  C8  UNL     1      -1.723  -1.658  -1.607  1.00  0.00     0.102 C 
HETATM    5  N1  UNL     1      -2.558  -0.849  -1.138  1.00  0.00    -0.302 NA
BRANCH   5   6
HETATM    6  C7  UNL     1      -2.690  -0.968   0.327  1.00  0.00     0.178 C 
BRANCH   6   7
HETATM    7  C6  UNL     1      -3.590   0.077   0.743  1.00  0.00     0.065 A 
HETATM    8  C5  UNL     1      -4.830  -0.537   0.688  1.00  0.00    -0.008 A 
HETATM    9  C4  UNL     1      -5.041   0.763   1.467  1.00  0.00     0.051 A 
HETATM   10  C3  UNL     1      -6.485   1.378   2.109  1.00  0.00     0.025 A 
HETATM   11  C22 UNL     1      -3.864   1.894   1.821  1.00  0.00     0.129 A 
HETATM   12  C1  UNL     1      -4.295   1.888   1.929  1.00  0.00     0.141 A 
HETATM   13  C2  UNL     1      -5.693   2.682   2.533  1.00  0.00     0.058 A 
HETATM   14  N3  UNL     1      -3.009   1.249   1.251  1.00  0.00    -0.258 NA
HETATM   15  O1  UNL     1      -4.239   0.870   3.226  1.00  0.00    -0.213 OA
ENDBRANCH   6   7
ENDBRANCH   5   6
ENDBRANCH   3   4
ENDBRANCH   1   3
BRANCH   1  16
HETATM   16  C10 UNL     1       1.344  -1.454  -1.256  1.00  0.00     0.029 A 
HETATM   17  C11 UNL     1       1.138  -1.044  -2.563  1.00  0.00     0.029 A 
HETATM   18  C12 UNL     1       2.030  -0.267  -3.293  1.00  0.00     0.003 A 
HETATM   19  C13 UNL     1       3.216   0.135  -2.675  1.00  0.00     0.012 A 
HETATM   20  C14 UNL     1       3.444  -0.266  -1.357  1.00  0.00    -0.024 A 
HETATM   21  C21 UNL     1       2.525  -1.041  -0.676  1.00  0.00     0.041 A 
BRANCH  20  22
HETATM   22  C15 UNL     1       4.715   0.200  -0.802  1.00  0.00    -0.026 A 
HETATM   23  C16 UNL     1       5.231   1.413  -1.211  1.00  0.00     0.012 A 
HETATM   24  C17 UNL     1       6.451   1.850  -0.683  1.00  0.00     0.001 A 
HETATM   25  C18 UNL     1       7.092   1.019   0.248  1.00  0.00     0.000 A 
HETATM   26  C19 UNL     1       6.579  -0.187   0.655  1.00  0.00     0.001 A 
HETATM   27  C20 UNL     1       5.359  -0.603   0.114  1.00  0.00     0.012 A 
ENDBRANCH  20  22
ENDBRANCH   1  16
TORSDOF 7
