REMARK  5 active torsions:
REMARK  status: ('A' for Active; 'I' for Inactive)
REMARK    1  A    between atoms: C2_2  and  C3_3 
REMARK    2  A    between atoms: C3_3  and  C4_4 
REMARK    3  A    between atoms: C9_11  and  C10_12 
REMARK    4  A    between atoms: C10_12  and  C11_13 
REMARK    5  A    between atoms: C12_14  and  C14_16 
ROOT
HETATM    1  C4  UNL     1       2.499   1.002   1.215  1.00  0.00     0.021 A 
HETATM    2  C5  UNL     1       2.504   2.089   2.290  1.00  0.00    -0.018 A 
HETATM    3  C6  UNL     1       1.702   1.059   2.506  1.00  0.00     0.083 A 
HETATM    4  C7  UNL     1       2.745   0.238   3.189  1.00  0.00     0.233 C 
HETATM    5  O1  UNL     1       3.749  -0.290   3.786  1.00  0.00    -0.272 OA
HETATM    6  N1  UNL     1       1.673  -0.608   2.881  1.00  0.00    -0.354 N 
HETATM    7  C8  UNL     1       1.429  -0.017   1.553  1.00  0.00     0.112 A 
HETATM    8  C9  UNL     1       0.394   0.964   1.938  1.00  0.00     0.034 A 
HETATM    9  H8  UNL     1       1.171  -1.448   3.386  1.00  0.00     0.162 HD
ENDROOT
BRANCH   8  10
HETATM   10  C10 UNL     1      -0.450   0.402   1.214  1.00  0.00    -0.012 C 
BRANCH  10  11
HETATM   11  C11 UNL     1      -1.223  -0.399   0.344  1.00  0.00     0.004 C 
HETATM   12  C12 UNL     1      -2.460  -0.230  -0.010  1.00  0.00    -0.052 C 
HETATM   13  C13 UNL     1      -3.252   0.904   0.496  1.00  0.00     0.049 C 
BRANCH  12  14
HETATM   14  C14 UNL     1      -2.982  -1.235  -0.915  1.00  0.00    -0.030 A 
HETATM   15  C15 UNL     1      -4.255  -1.119  -1.417  1.00  0.00     0.012 A 
HETATM   16  C16 UNL     1      -4.819  -2.044  -2.275  1.00  0.00     0.001 A 
HETATM   17  C17 UNL     1      -4.088  -3.168  -2.675  1.00  0.00     0.000 A 
HETATM   18  C18 UNL     1      -2.793  -3.324  -2.188  1.00  0.00     0.001 A 
HETATM   19  C19 UNL     1      -2.322  -2.351  -1.343  1.00  0.00     0.012 A 
ENDBRANCH  12  14
ENDBRANCH  10  11
ENDBRANCH   8  10
BRANCH   1  20
HETATM   20  C3  UNL     1       3.302   0.885   0.071  1.00  0.00     0.006 C 
BRANCH  20  21
HETATM   21  C2  UNL     1       4.372   1.806  -0.384  1.00  0.00     0.002 C 
HETATM   22  C1  UNL     1       4.124   2.363  -1.756  1.00  0.00     0.005 C 
ENDBRANCH  20  21
ENDBRANCH   1  20
TORSDOF 5
