REMARK  2 active torsions:
REMARK  status: ('A' for Active; 'I' for Inactive)
REMARK    1  A    between atoms: C1_2  and  C2_3 
REMARK    2  A    between atoms: C6_7  and  C7_8 
ROOT
HETATM    1  C7  UNL     1      -2.229  -0.442  -1.486  1.00  0.00     0.147 A 
HETATM    2  C8  UNL     1      -2.325   0.834  -2.209  1.00  0.00     0.235 A 
HETATM    3  O2  UNL     1      -3.405   1.144  -2.774  1.00  0.00    -0.272 OA
HETATM    4  N1  UNL     1      -1.084   1.537  -2.131  1.00  0.00    -0.326 N 
HETATM    5  C9  UNL     1      -0.170   0.752  -1.369  1.00  0.00     0.043 A 
HETATM    6  C10 UNL     1       1.144   0.942  -0.985  1.00  0.00     0.042 A 
HETATM    7  C11 UNL     1       1.851   0.029  -0.229  1.00  0.00    -0.024 A 
HETATM    8  C12 UNL     1       3.215   0.142   0.211  1.00  0.00    -0.026 A 
HETATM    9  C13 UNL     1       3.844   1.310   0.512  1.00  0.00     0.012 A 
HETATM   10  C14 UNL     1       5.157   1.432   0.937  1.00  0.00     0.001 A 
HETATM   11  C15 UNL     1       5.877   0.259   1.060  1.00  0.00     0.000 A 
HETATM   12  C16 UNL     1       5.304  -0.963   0.772  1.00  0.00     0.001 A 
HETATM   13  C17 UNL     1       3.980  -1.003   0.351  1.00  0.00     0.012 A 
HETATM   14  C18 UNL     1       1.130  -1.117   0.124  1.00  0.00     0.013 A 
HETATM   15  C19 UNL     1      -0.198  -1.373  -0.230  1.00  0.00     0.011 A 
HETATM   16  C20 UNL     1      -0.825  -0.405  -0.987  1.00  0.00    -0.014 A 
HETATM   17  H7  UNL     1      -0.902   2.472  -2.571  1.00  0.00     0.169 HD
ENDROOT
BRANCH   1  18
HETATM   18  C6  UNL     1      -3.170  -0.599  -0.377  1.00  0.00    -0.032 A 
HETATM   19  C2  UNL     1      -3.401   0.230   0.761  1.00  0.00    -0.009 A 
HETATM   20  C3  UNL     1      -4.318  -0.137   1.625  1.00  0.00    -0.009 A 
HETATM   21  C4  UNL     1      -4.811  -1.385   1.036  1.00  0.00     0.055 A 
HETATM   22  C5  UNL     1      -4.036  -1.577  -0.196  1.00  0.00    -0.014 A 
BRANCH  19  23
HETATM   23  C1  UNL     1      -2.686   1.452   1.029  1.00  0.00     0.389 C 
HETATM   24  O1  UNL     1      -1.890   2.408   0.920  1.00  0.00    -0.405 OA
ENDBRANCH  19  23
ENDBRANCH   1  18
TORSDOF 2
