REMARK  2 active torsions:
REMARK  status: ('A' for Active; 'I' for Inactive)
REMARK    1  A    between atoms: C2_2  and  C3_3 
REMARK    2  A    between atoms: C7_8  and  C8_9 
ROOT
HETATM    1  C3  UNL     1       4.007   1.130   0.036  1.00  0.00     0.003 C 
HETATM    2  C4  UNL     1       2.827   1.020  -0.487  1.00  0.00    -0.052 C 
HETATM    3  C5  UNL     1       2.051   2.193  -0.894  1.00  0.00     0.037 C 
HETATM    4  C6  UNL     1       0.730   2.093  -0.699  1.00  0.00     0.040 C 
HETATM    5  N1  UNL     1      -0.271   3.087  -0.982  1.00  0.00    -0.377 N 
HETATM    6  C7  UNL     1      -1.238   2.701   0.058  1.00  0.00     0.138 C 
HETATM    7  C10 UNL     1      -1.435   1.215  -0.158  1.00  0.00    -0.021 C 
HETATM    8  C11 UNL     1      -2.634   0.612  -0.097  1.00  0.00     0.003 C 
HETATM    9  C12 UNL     1      -2.891  -0.764  -0.286  1.00  0.00     0.142 C 
HETATM   10  N2  UNL     1      -3.158  -2.065  -0.493  1.00  0.00    -0.418 N 
HETATM   11  C13 UNL     1      -2.441  -3.195   0.006  1.00  0.00     0.114 C 
HETATM   12  C14 UNL     1      -1.120  -3.585  -0.495  1.00  0.00     0.020 C 
HETATM   13  C15 UNL     1       0.188  -2.877  -0.343  1.00  0.00     0.010 C 
HETATM   14  C16 UNL     1       0.059  -1.480   0.015  1.00  0.00     0.012 C 
HETATM   15  C17 UNL     1      -0.252  -1.381   1.457  1.00  0.00     0.015 C 
HETATM   16  C18 UNL     1       0.751  -0.265  -0.312  1.00  0.00    -0.059 C 
HETATM   17  C19 UNL     1      -0.008   0.885  -0.381  1.00  0.00     0.002 C 
HETATM   18  C20 UNL     1       2.148  -0.265  -0.661  1.00  0.00     0.074 C 
HETATM   19  H6  UNL     1      -0.251   3.824  -1.731  1.00  0.00     0.160 HD
HETATM   20  H14 UNL     1      -3.811  -2.249  -1.255  1.00  0.00     0.153 HD
ENDROOT
BRANCH   1  21
HETATM   21  C2  UNL     1       4.687  -0.100   0.400  1.00  0.00    -0.026 C 
HETATM   22  C1  UNL     1       5.870  -0.293   0.952  1.00  0.00     0.031 C 
ENDBRANCH   1  21
BRANCH   6  23
HETATM   23  C8  UNL     1      -2.410   3.526  -0.131  1.00  0.00    -0.007 C 
HETATM   24  C9  UNL     1      -2.944   4.521   0.611  1.00  0.00     0.009 C 
ENDBRANCH   6  23
TORSDOF 2
