REMARK  2 active torsions:
REMARK  status: ('A' for Active; 'I' for Inactive)
REMARK    1  A    between atoms: O1_2  and  C2_3 
REMARK    2  A    between atoms: C6_7  and  C7_8 
ROOT
HETATM    1  C7  UNL     1       2.630  -0.595   0.180  1.00  0.00    -0.024 A 
HETATM    2  C8  UNL     1       1.779   0.460  -0.107  1.00  0.00     0.013 A 
HETATM    3  C9  UNL     1       0.426   0.198  -0.174  1.00  0.00     0.015 A 
HETATM    4  C10 UNL     1      -0.125  -1.050   0.027  1.00  0.00     0.007 A 
HETATM    5  C11 UNL     1       0.733  -2.094   0.313  1.00  0.00     0.047 A 
HETATM    6  C12 UNL     1       2.109  -1.865   0.389  1.00  0.00     0.042 A 
HETATM    7  N1  UNL     1      -0.036  -3.279   0.482  1.00  0.00    -0.322 N 
HETATM    8  C13 UNL     1      -1.395  -2.938   0.293  1.00  0.00     0.257 A 
HETATM    9  O2  UNL     1      -2.278  -3.806   0.389  1.00  0.00    -0.267 OA
HETATM   10  C14 UNL     1      -1.503  -1.516  -0.002  1.00  0.00     0.048 A 
HETATM   11  C15 UNL     1      -2.620  -0.854  -0.235  1.00  0.00    -0.044 C 
HETATM   12  C16 UNL     1      -2.840   0.582  -0.544  1.00  0.00     0.062 C 
HETATM   13  C17 UNL     1      -4.352   0.635  -0.703  1.00  0.00     0.088 A 
HETATM   14  C18 UNL     1      -4.930   1.991  -0.590  1.00  0.00     0.029 A 
HETATM   15  C19 UNL     1      -5.906   2.235   0.500  1.00  0.00     0.030 A 
HETATM   16  C20 UNL     1      -6.224   1.094   1.359  1.00  0.00    -0.010 A 
HETATM   17  C21 UNL     1      -5.734  -0.124   1.284  1.00  0.00     0.082 A 
HETATM   18  N2  UNL     1      -4.802  -0.317   0.252  1.00  0.00    -0.381 N 
HETATM   19  C22 UNL     1      -3.987  -1.434  -0.238  1.00  0.00     0.158 C 
HETATM   20  H10 UNL     1       0.390  -4.224   0.710  1.00  0.00     0.169 HD
ENDROOT
BRANCH   1  21
HETATM   21  C6  UNL     1       4.081  -0.485   0.286  1.00  0.00    -0.023 A 
HETATM   22  C5  UNL     1       4.882  -1.268   1.121  1.00  0.00     0.012 A 
HETATM   23  C4  UNL     1       6.250  -1.085   1.147  1.00  0.00     0.004 A 
HETATM   24  C3  UNL     1       6.831  -0.116   0.337  1.00  0.00     0.037 A 
HETATM   25  C2  UNL     1       6.042   0.676  -0.503  1.00  0.00     0.069 A 
HETATM   26  C23 UNL     1       4.679   0.455  -0.495  1.00  0.00     0.049 A 
BRANCH  25  27
HETATM   27  O1  UNL     1       6.752   1.596  -1.250  1.00  0.00    -0.356 OA
HETATM   28  C1  UNL     1       6.095   2.461  -2.140  1.00  0.00     0.210 C 
ENDBRANCH  25  27
ENDBRANCH   1  21
TORSDOF 2
