REMARK  2 active torsions:
REMARK  status: ('A' for Active; 'I' for Inactive)
REMARK    1  A    between atoms: C3_3  and  C4_4 
REMARK    2  A    between atoms: C5_5  and  C6_6 
ROOT
HETATM    1  C6  UNL     1       1.110  -0.786  -0.151  1.00  0.00    -0.028 A 
HETATM    2  C7  UNL     1       0.797  -0.752  -1.523  1.00  0.00     0.012 A 
HETATM    3  C8  UNL     1      -0.540  -0.819  -1.957  1.00  0.00     0.011 A 
HETATM    4  C9  UNL     1      -1.614  -0.929  -1.049  1.00  0.00    -0.012 A 
HETATM    5  C10 UNL     1      -1.359  -0.975   0.280  1.00  0.00     0.048 A 
HETATM    6  C11 UNL     1      -0.028  -0.889   0.588  1.00  0.00    -0.021 A 
HETATM    7  C12 UNL     1      -0.074  -0.450   2.046  1.00  0.00     0.042 C 
HETATM    8  C13 UNL     1      -0.115   1.099   1.964  1.00  0.00     0.008 C 
HETATM    9  C14 UNL     1      -0.889   1.679   0.879  1.00  0.00     0.027 C 
HETATM   10  C15 UNL     1      -2.291   1.941   0.704  1.00  0.00    -0.027 C 
HETATM   11  C16 UNL     1      -3.553   1.866   0.227  1.00  0.00    -0.008 C 
HETATM   12  C17 UNL     1      -4.287   1.097  -0.758  1.00  0.00     0.001 C 
HETATM   13  C18 UNL     1      -5.016   0.424  -1.654  1.00  0.00     0.005 C 
HETATM   14  C19 UNL     1      -4.129  -0.717  -2.244  1.00  0.00     0.018 C 
HETATM   15  C20 UNL     1      -2.879  -0.939  -1.768  1.00  0.00     0.081 A 
HETATM   16  C21 UNL     1      -3.422  -1.056  -0.285  1.00  0.00     0.171 A 
HETATM   17  O1  UNL     1      -4.619  -1.174   0.319  1.00  0.00    -0.176 OA
HETATM   18  N1  UNL     1      -2.603  -1.084   0.940  1.00  0.00    -0.336 N 
HETATM   19  H21 UNL     1      -2.747  -1.159   1.954  1.00  0.00     0.168 HD
ENDROOT
BRANCH   1  20
HETATM   20  C5  UNL     1       2.393  -0.721   0.469  1.00  0.00     0.012 C 
HETATM   21  C4  UNL     1       3.493  -0.585  -0.249  1.00  0.00     0.001 C 
BRANCH  21  22
HETATM   22  C3  UNL     1       4.816  -0.518   0.356  1.00  0.00    -0.004 C 
HETATM   23  C2  UNL     1       5.953  -0.378  -0.299  1.00  0.00    -0.031 C 
HETATM   24  C1  UNL     1       6.058  -0.268  -1.758  1.00  0.00     0.036 C 
ENDBRANCH  21  22
ENDBRANCH   1  20
TORSDOF 2
