REMARK  10 active torsions:
REMARK  status: ('A' for Active; 'I' for Inactive)
REMARK    1  A    between atoms: B1_2  and  C2_3 
REMARK    2  A    between atoms: C2_3  and  C3_4 
REMARK    3  A    between atoms: C3_4  and  C4_5 
REMARK    4  A    between atoms: C4_5  and  C5_6 
REMARK    5  A    between atoms: C5_6  and  C6_7 
REMARK    6  A    between atoms: C5_6  and  C18_23 
REMARK    7  A    between atoms: C7_8  and  N1_9 
REMARK       I    between atoms: N1_9  and  C8_10 
REMARK       I    between atoms: C8_10  and  N2_12 
REMARK    8  A    between atoms: N2_12  and  C9_13 
REMARK    9  A    between atoms: C10_14  and  C11_15 
REMARK   10  A    between atoms: C22_27  and  O2_28 
ROOT
HETATM    1  C6  UNL     1      -2.299  -0.151  -1.063  1.00  0.00     0.029 C 
HETATM    2  C7  UNL     1      -1.170  -0.783  -0.834  1.00  0.00     0.093 C 
ENDROOT
BRANCH   2   3
HETATM    3  N1  UNL     1       0.107  -0.332  -1.270  1.00  0.00    -0.319 N 
HETATM    4  C8  UNL     1       1.316   0.052  -0.675  1.00  0.00     0.323 C 
HETATM    5  O1  UNL     1       1.366   0.010   0.579  1.00  0.00    -0.247 OA
HETATM    6  N2  UNL     1       2.434   0.472  -1.470  1.00  0.00    -0.319 N 
HETATM    7  H9  UNL     1       2.353   0.494  -2.520  1.00  0.00     0.170 HD
HETATM    8  H8  UNL     1       0.044  -0.308  -2.331  1.00  0.00     0.170 HD
BRANCH   6   9
HETATM    9  C9  UNL     1       3.570   0.821  -0.652  1.00  0.00     0.095 C 
HETATM   10  C10 UNL     1       4.705   0.154  -0.810  1.00  0.00     0.049 C 
BRANCH  10  11
HETATM   11  C11 UNL     1       5.861   0.497   0.012  1.00  0.00     0.066 A 
HETATM   12  N3  UNL     1       6.144   1.332   0.933  1.00  0.00    -0.252 NA
HETATM   13  C12 UNL     1       7.505   0.874   1.073  1.00  0.00     0.043 A 
HETATM   14  C13 UNL     1       7.229   0.001   0.117  1.00  0.00    -0.005 A 
HETATM   15  C17 UNL     1       8.929   0.726   1.537  1.00  0.00     0.060 C 
HETATM   16  C14 UNL     1       8.283  -0.926  -0.324  1.00  0.00     0.043 C 
HETATM   17  C15 UNL     1       9.597  -0.251  -0.607  1.00  0.00     0.005 C 
HETATM   18  C16 UNL     1       9.793   0.913   0.309  1.00  0.00     0.006 C 
ENDBRANCH  10  11
ENDBRANCH   6   9
ENDBRANCH   2   3
BRANCH   1  19
HETATM   19  C5  UNL     1      -3.705  -0.338  -0.767  1.00  0.00    -0.024 C 
BRANCH  19  20
HETATM   20  C4  UNL     1      -4.461   0.616  -1.237  1.00  0.00     0.019 C 
BRANCH  20  21
HETATM   21  C3  UNL     1      -5.751   1.220  -1.428  1.00  0.00     0.035 C 
BRANCH  21  22
HETATM   22  C2  UNL     1      -6.333   2.147  -0.685  1.00  0.00    -0.224 C 
BRANCH  22  23
HETATM   23  B1  UNL     1      -6.633   3.497   0.435  1.00  0.00     0.231 B 
HETATM   24  C1  UNL     1      -6.885   5.016   1.321  1.00  0.00    -0.048 C 
ENDBRANCH  22  23
ENDBRANCH  21  22
ENDBRANCH  20  21
ENDBRANCH  19  20
BRANCH  19  25
HETATM   25  C18 UNL     1      -4.322  -1.427  -0.036  1.00  0.00    -0.023 A 
HETATM   26  C19 UNL     1      -3.681  -2.507   0.524  1.00  0.00     0.012 A 
HETATM   27  C20 UNL     1      -4.282  -3.526   1.211  1.00  0.00     0.004 A 
HETATM   28  C21 UNL     1      -5.632  -3.512   1.380  1.00  0.00     0.037 A 
HETATM   29  C22 UNL     1      -6.342  -2.450   0.840  1.00  0.00     0.069 A 
HETATM   30  C24 UNL     1      -5.672  -1.463   0.162  1.00  0.00     0.049 A 
BRANCH  29  31
HETATM   31  O2  UNL     1      -7.712  -2.463   1.027  1.00  0.00    -0.356 OA
HETATM   32  C23 UNL     1      -8.530  -1.415   0.509  1.00  0.00     0.210 C 
ENDBRANCH  29  31
ENDBRANCH  19  25
ENDBRANCH   1  19
TORSDOF 10
