REMARK  0 active torsions:
REMARK  status: ('A' for Active; 'I' for Inactive)
ROOT
HETATM    1  O1  UNL     1      -0.938   5.982  -0.604  1.00  0.00    -0.268 OA
HETATM    2  C1  UNL     1      -1.139   4.775  -0.369  1.00  0.00     0.252 A 
HETATM    3  N1  UNL     1      -2.271   3.980  -0.124  1.00  0.00    -0.329 N 
HETATM    4  C2  UNL     1      -2.021   2.623   0.099  1.00  0.00     0.006 A 
HETATM    5  C3  UNL     1      -2.703   1.468   0.371  1.00  0.00     0.059 A 
HETATM    6  C4  UNL     1      -2.109   0.249   0.547  1.00  0.00     0.019 A 
HETATM    7  C5  UNL     1      -0.688   0.200   0.440  1.00  0.00    -0.030 A 
HETATM    8  C6  UNL     1      -1.247   1.433   0.254  1.00  0.00     0.088 A 
HETATM    9  C7  UNL     1      -0.603   2.605  -0.022  1.00  0.00     0.027 A 
HETATM   10  C8  UNL     1       0.012   3.894  -0.314  1.00  0.00     0.018 A 
HETATM   11  C9  UNL     1       1.328   3.797  -0.380  1.00  0.00     0.016 C 
HETATM   12  C10 UNL     1       2.568   2.995  -0.348  1.00  0.00     0.297 C 
HETATM   13  N2  UNL     1       2.354   1.572  -0.239  1.00  0.00     0.086 N 
HETATM   14  C11 UNL     1       3.563   0.821  -0.217  1.00  0.00     0.271 C 
HETATM   15  C12 UNL     1       3.218  -0.670  -0.102  1.00  0.00     0.049 C 
HETATM   16  C13 UNL     1       2.371  -1.126  -1.240  1.00  0.00     0.121 C 
HETATM   17  N3  UNL     1       2.070  -2.554  -1.144  1.00  0.00    -0.397 N 
HETATM   18  C14 UNL     1       1.389  -3.594  -0.434  1.00  0.00     0.107 C 
HETATM   19  C15 UNL     1       0.100  -3.991  -0.419  1.00  0.00     0.159 C 
HETATM   20  O2  UNL     1      -1.275  -4.302  -0.499  1.00  0.00    -0.321 OA
HETATM   21  C16 UNL     1      -2.148  -3.479   0.275  1.00  0.00     0.075 A 
HETATM   22  C17 UNL     1      -3.176  -3.863   1.106  1.00  0.00     0.037 A 
HETATM   23  C18 UNL     1      -3.881  -2.876   1.760  1.00  0.00     0.003 A 
HETATM   24  C19 UNL     1      -3.603  -1.532   1.621  1.00  0.00     0.008 A 
HETATM   25  C20 UNL     1      -2.586  -1.079   0.805  1.00  0.00    -0.042 A 
HETATM   26  C21 UNL     1      -1.898  -2.131   0.157  1.00  0.00     0.045 A 
HETATM   27  H1  UNL     1      -3.228   4.367  -0.109  1.00  0.00     0.168 HD
HETATM   28  H8  UNL     1       1.782   1.298  -1.111  1.00  0.00     0.316 HD
HETATM   29  H15 UNL     1       2.492  -3.179  -1.896  1.00  0.00     0.158 HD
ENDROOT
TORSDOF 0
