REMARK  2 active torsions:
REMARK  status: ('A' for Active; 'I' for Inactive)
REMARK    1  A    between atoms: O1_2  and  B1_3 
REMARK    2  A    between atoms: B1_3  and  C2_4 
ROOT
HETATM    1  C2  UNL     1       1.310   2.640  -1.125  1.00  0.00    -0.074 C 
HETATM    2  C3  UNL     1       2.516   3.120  -0.816  1.00  0.00    -0.006 C 
HETATM    3  C4  UNL     1       3.719   2.351  -0.594  1.00  0.00    -0.004 C 
HETATM    4  C5  UNL     1       4.502   1.290  -0.486  1.00  0.00    -0.022 C 
HETATM    5  C6  UNL     1       5.217   0.004  -0.408  1.00  0.00     0.065 C 
HETATM    6  C7  UNL     1       4.275  -1.146  -0.570  1.00  0.00    -0.055 A 
HETATM    7  C8  UNL     1       3.310  -1.705  -1.488  1.00  0.00     0.008 A 
HETATM    8  C9  UNL     1       2.522  -2.803  -1.323  1.00  0.00     0.008 A 
HETATM    9  C10 UNL     1       2.721  -3.411  -0.118  1.00  0.00    -0.053 A 
HETATM   10  C11 UNL     1       3.585  -3.031   0.861  1.00  0.00     0.008 A 
HETATM   11  C12 UNL     1       4.365  -1.883   0.622  1.00  0.00     0.008 A 
HETATM   12  C13 UNL     1       1.735  -4.506  -0.218  1.00  0.00     0.082 C 
HETATM   13  P1  UNL     1      -0.021  -3.900  -0.212  1.00  0.00    -0.055 P 
HETATM   14  C14 UNL     1      -0.466  -2.573   0.691  1.00  0.00     0.042 C 
HETATM   15  C15 UNL     1      -1.768  -1.925   0.847  1.00  0.00     0.045 A 
HETATM   16  C16 UNL     1      -2.908  -2.117   1.570  1.00  0.00     0.039 A 
HETATM   17  C17 UNL     1      -3.832  -1.111   1.249  1.00  0.00    -0.033 A 
HETATM   18  C18 UNL     1      -3.212  -0.316   0.317  1.00  0.00     0.028 A 
HETATM   19  N1  UNL     1      -2.003  -0.806   0.091  1.00  0.00    -0.268 N 
HETATM   20  C19 UNL     1      -0.969  -0.301  -0.787  1.00  0.00     0.327 C 
HETATM   21  O2  UNL     1      -0.481  -0.799  -1.821  1.00  0.00    -0.246 OA
HETATM   22  N2  UNL     1      -0.370   0.975  -0.463  1.00  0.00    -0.339 N 
HETATM   23  C20 UNL     1       0.668   1.368  -1.413  1.00  0.00     0.148 C 
HETATM   24  C21 UNL     1      -4.084   0.796  -0.142  1.00  0.00     0.058 C 
HETATM   25  C22 UNL     1      -5.547   0.387  -0.067  1.00  0.00     0.006 C 
HETATM   26  C23 UNL     1      -5.946   0.059   1.359  1.00  0.00     0.005 C 
HETATM   27  C24 UNL     1      -5.165  -1.099   1.936  1.00  0.00     0.040 C 
HETATM   28  H18 UNL     1      -0.670   1.537   0.384  1.00  0.00     0.164 HD
ENDROOT
BRANCH   1  29
HETATM   29  B1  UNL     1       0.176   3.717  -1.302  1.00  0.00     0.342 B 
HETATM   30  H4  UNL     1      -0.208   3.860  -2.440  1.00  0.00     0.013 HD
BRANCH  29  31
HETATM   31  O1  UNL     1       0.330   4.985  -0.562  1.00  0.00    -0.455 OA
HETATM   32  C1  UNL     1       0.057   4.856   0.788  1.00  0.00     0.173 C 
ENDBRANCH  29  31
ENDBRANCH   1  29
TORSDOF 2
