REMARK  3 active torsions:
REMARK  status: ('A' for Active; 'I' for Inactive)
REMARK    1  A    between atoms: O1_2  and  C2_3 
REMARK    2  A    between atoms: C7_8  and  N1_9 
REMARK    3  A    between atoms: C16_20  and  C17_21 
ROOT
HETATM    1  C2  UNL     1       2.903  -2.172  -0.962  1.00  0.00     0.045 C 
HETATM    2  C3  UNL     1       2.008  -2.951  -0.406  1.00  0.00     0.032 C 
HETATM    3  C4  UNL     1       0.648  -3.162  -0.107  1.00  0.00    -0.002 C 
HETATM    4  C5  UNL     1      -0.629  -2.941  -0.068  1.00  0.00    -0.024 C 
HETATM    5  C6  UNL     1      -1.514  -1.813  -0.603  1.00  0.00     0.054 C 
HETATM    6  C7  UNL     1      -2.132  -1.134   0.573  1.00  0.00     0.131 A 
HETATM    7  C8  UNL     1      -2.607   0.272   0.258  1.00  0.00     0.175 A 
HETATM    8  C9  UNL     1      -3.749  -0.253   0.563  1.00  0.00     0.051 A 
HETATM    9  C10 UNL     1      -5.145  -0.218   1.048  1.00  0.00     0.059 C 
HETATM   10  P1  UNL     1      -5.760   1.456   0.337  1.00  0.00    -0.064 P 
HETATM   11  C11 UNL     1      -4.351   2.241  -0.057  1.00  0.00     0.001 C 
HETATM   12  C12 UNL     1      -2.994   1.686  -0.076  1.00  0.00     0.068 A 
HETATM   13  C13 UNL     1      -2.594   0.420   0.215  1.00  0.00     0.175 A 
HETATM   14  N2  UNL     1      -1.292   0.950  -0.132  1.00  0.00    -0.042 N 
HETATM   15  C14 UNL     1      -0.384   1.884  -0.727  1.00  0.00     0.265 C 
HETATM   16  C15 UNL     1      -0.226   3.167   0.029  1.00  0.00     0.011 C 
HETATM   17  C16 UNL     1       0.745   3.935   0.696  1.00  0.00    -0.017 C 
HETATM   18  C18 UNL     1       1.647   2.880   0.320  1.00  0.00     0.035 C 
HETATM   19  C19 UNL     1       2.914   2.558   0.473  1.00  0.00     0.005 C 
HETATM   20  C20 UNL     1       3.470   1.336  -0.106  1.00  0.00     0.023 C 
HETATM   21  C21 UNL     1       3.483   0.159  -0.816  1.00  0.00    -0.017 C 
HETATM   22  C22 UNL     1       2.771  -0.892  -1.661  1.00  0.00     0.065 C 
HETATM   23  H15 UNL     1      -0.406   0.558   0.209  1.00  0.00     0.282 HD
ENDROOT
BRANCH   6  24
HETATM   24  N1  UNL     1      -2.932  -2.034   1.300  1.00  0.00    -0.423 N 
HETATM   25  H10 UNL     1      -3.017  -1.877   2.305  1.00  0.00     0.150 HD
HETATM   26  H11 UNL     1      -3.769  -2.305   0.807  1.00  0.00     0.150 HD
ENDBRANCH   6  24
BRANCH   1  27
HETATM   27  O1  UNL     1       4.245  -2.390  -1.018  1.00  0.00    -0.360 OA
HETATM   28  C1  UNL     1       4.989  -3.400  -0.408  1.00  0.00     0.209 C 
ENDBRANCH   1  27
BRANCH  17  29
HETATM   29  C17 UNL     1       0.002   5.006   1.122  1.00  0.00     0.265 C 
HETATM   30  O2  UNL     1      -1.206   5.244   0.954  1.00  0.00    -0.302 OA
ENDBRANCH  17  29
TORSDOF 3
