REMARK  4 active torsions:
REMARK  status: ('A' for Active; 'I' for Inactive)
REMARK    1  A    between atoms: C13_14  and  C14_15 
REMARK    2  A    between atoms: C14_15  and  C15_16 
REMARK    3  A    between atoms: C15_16  and  C16_17 
REMARK    4  A    between atoms: C16_17  and  O2_18 
ROOT
HETATM    1  O1  UNL     1      -3.431   3.766   1.002  1.00  0.00    -0.268 OA
HETATM    2  C1  UNL     1      -2.970   2.606   0.829  1.00  0.00     0.246 C 
HETATM    3  C2  UNL     1      -3.733   1.480   1.439  1.00  0.00     0.078 C 
HETATM    4  C3  UNL     1      -3.810   0.312   0.806  1.00  0.00    -0.057 C 
HETATM    5  C4  UNL     1      -4.558  -0.878   1.369  1.00  0.00     0.040 C 
HETATM    6  C5  UNL     1      -3.645  -1.936   0.660  1.00  0.00     0.040 C 
HETATM    7  C6  UNL     1      -3.945  -1.486  -0.729  1.00  0.00    -0.066 C 
HETATM    8  C7  UNL     1      -4.233  -1.175  -2.009  1.00  0.00    -0.021 C 
HETATM    9  C8  UNL     1      -4.035   0.236  -1.667  1.00  0.00     0.051 C 
HETATM   10  C9  UNL     1      -3.302  -0.177  -0.452  1.00  0.00     0.039 C 
HETATM   11  C10 UNL     1      -1.825  -0.088  -0.594  1.00  0.00    -0.014 A 
HETATM   12  C11 UNL     1      -1.049  -1.158  -0.978  1.00  0.00     0.011 A 
HETATM   13  C12 UNL     1       0.309  -0.970  -1.113  1.00  0.00     0.008 A 
HETATM   14  C13 UNL     1       0.964   0.223  -0.891  1.00  0.00    -0.055 A 
HETATM   15  C22 UNL     1       0.170   1.279  -0.510  1.00  0.00     0.037 A 
HETATM   16  C23 UNL     1      -1.204   1.150  -0.356  1.00  0.00     0.043 A 
HETATM   17  N1  UNL     1      -1.742   2.439   0.062  1.00  0.00    -0.323 N 
HETATM   18  H23 UNL     1      -1.229   3.320  -0.187  1.00  0.00     0.169 HD
ENDROOT
BRANCH  14  19
HETATM   19  C14 UNL     1       2.421   0.194  -1.116  1.00  0.00     0.054 C 
BRANCH  19  20
HETATM   20  C15 UNL     1       3.255  -0.275   0.023  1.00  0.00     0.006 A 
HETATM   21  C17 UNL     1       4.679  -0.221  -0.444  1.00  0.00    -0.014 A 
HETATM   22  C18 UNL     1       5.759   0.417  -0.057  1.00  0.00    -0.003 A 
HETATM   23  C19 UNL     1       5.570   1.286   1.091  1.00  0.00    -0.004 A 
HETATM   24  C20 UNL     1       4.353   1.329   1.599  1.00  0.00    -0.026 A 
HETATM   25  C21 UNL     1       3.091   0.634   1.207  1.00  0.00     0.043 A 
BRANCH  20  26
HETATM   26  C16 UNL     1       2.910  -1.690   0.448  1.00  0.00     0.178 C 
BRANCH  26  27
HETATM   27  O2  UNL     1       3.730  -2.052   1.512  1.00  0.00    -0.400 OA
HETATM   28  H15 UNL     1       4.132  -2.944   1.423  1.00  0.00     0.209 HD
ENDBRANCH  26  27
ENDBRANCH  20  26
ENDBRANCH  19  20
ENDBRANCH  14  19
TORSDOF 4
