REMARK  1 active torsions:
REMARK  status: ('A' for Active; 'I' for Inactive)
REMARK    1  A    between atoms: O1_2  and  C2_3 
ROOT
HETATM    1  C2  UNL     1       0.618   2.348   1.546  1.00  0.00     0.080 C 
HETATM    2  C3  UNL     1      -0.343   1.815   2.245  1.00  0.00     0.028 C 
HETATM    3  C4  UNL     1      -0.233   0.486   2.317  1.00  0.00     0.112 C 
HETATM    4  N1  UNL     1      -0.549  -0.305   1.169  1.00  0.00    -0.325 N 
HETATM    5  C5  UNL     1      -0.150  -1.553   0.927  1.00  0.00     0.037 A 
HETATM    6  C6  UNL     1      -0.838  -1.867  -0.298  1.00  0.00     0.038 A 
HETATM    7  C7  UNL     1      -1.631  -0.834  -0.782  1.00  0.00    -0.033 A 
HETATM    8  C8  UNL     1      -1.411   0.119   0.180  1.00  0.00     0.023 A 
HETATM    9  C9  UNL     1      -2.187   1.382  -0.100  1.00  0.00     0.058 C 
HETATM   10  C10 UNL     1      -3.661   0.943  -0.138  1.00  0.00     0.006 C 
HETATM   11  C11 UNL     1      -3.859   0.103  -1.375  1.00  0.00     0.005 C 
HETATM   12  C12 UNL     1      -2.548  -0.423  -1.868  1.00  0.00     0.040 C 
HETATM   13  C13 UNL     1       0.591  -2.865   1.164  1.00  0.00     0.027 C 
HETATM   14  C14 UNL     1       1.295  -3.672   0.280  1.00  0.00     0.128 A 
HETATM   15  C15 UNL     1       1.846  -4.022  -1.066  1.00  0.00     0.291 A 
HETATM   16  O2  UNL     1       1.689  -5.298  -0.879  1.00  0.00    -0.271 OA
HETATM   17  N2  UNL     1       2.316  -3.045  -2.041  1.00  0.00     0.019 N 
HETATM   18  C16 UNL     1       2.149  -1.704  -1.438  1.00  0.00     0.194 A 
HETATM   19  C17 UNL     1       2.597  -0.531  -1.889  1.00  0.00     0.051 A 
HETATM   20  C18 UNL     1       2.659   0.002  -0.670  1.00  0.00     0.010 A 
HETATM   21  C19 UNL     1       2.424  -0.379   0.624  1.00  0.00    -0.028 A 
HETATM   22  C20 UNL     1       2.129  -1.414  -0.206  1.00  0.00     0.097 A 
HETATM   23  C21 UNL     1       1.728  -2.641  -0.585  1.00  0.00     0.241 A 
HETATM   24  C22 UNL     1       2.591   1.443  -0.268  1.00  0.00    -0.009 C 
HETATM   25  C23 UNL     1       1.603   1.828   0.624  1.00  0.00     0.035 C 
HETATM   26  H15 UNL     1       2.689  -3.426  -2.978  1.00  0.00     0.292 HD
ENDROOT
BRANCH   1  27
HETATM   27  O1  UNL     1       0.476   3.653   1.929  1.00  0.00    -0.355 OA
HETATM   28  C1  UNL     1       0.708   4.662   0.969  1.00  0.00     0.210 C 
ENDBRANCH   1  27
TORSDOF 1
