REMARK  1 active torsions:
REMARK  status: ('A' for Active; 'I' for Inactive)
REMARK    1  A    between atoms: C2_2  and  C3_3 
ROOT
HETATM    1  C3  UNL     1       2.629   0.361  -0.571  1.00  0.00    -0.035 C 
HETATM    2  C4  UNL     1       2.091  -0.794  -0.820  1.00  0.00     0.009 C 
HETATM    3  C5  UNL     1       2.747  -2.116  -1.038  1.00  0.00     0.059 C 
HETATM    4  C6  UNL     1       1.953  -2.858   0.109  1.00  0.00     0.031 C 
HETATM    5  C7  UNL     1       0.548  -2.426  -0.209  1.00  0.00     0.087 C 
HETATM    6  C8  UNL     1      -0.357  -2.114   0.889  1.00  0.00     0.037 A 
HETATM    7  C9  UNL     1      -0.060  -0.760   0.901  1.00  0.00     0.041 A 
HETATM    8  C10 UNL     1      -0.995  -0.803   1.916  1.00  0.00     0.020 A 
HETATM    9  C11 UNL     1      -2.138  -0.227   1.126  1.00  0.00     0.060 A 
HETATM   10  C12 UNL     1      -2.576   0.305  -0.153  1.00  0.00    -0.044 C 
HETATM   11  C13 UNL     1      -3.201  -0.604  -0.938  1.00  0.00    -0.017 C 
HETATM   12  C14 UNL     1      -3.774  -0.381  -2.312  1.00  0.00     0.054 C 
HETATM   13  C15 UNL     1      -2.989   0.693  -2.948  1.00  0.00    -0.024 C 
HETATM   14  C16 UNL     1      -2.415   1.578  -2.145  1.00  0.00     0.005 C 
HETATM   15  C17 UNL     1      -2.401   1.708  -0.596  1.00  0.00     0.173 C 
HETATM   16  O1  UNL     1      -1.372   2.464  -0.283  1.00  0.00    -0.374 OA
HETATM   17  C18 UNL     1      -0.671   2.320   0.891  1.00  0.00     0.210 C 
HETATM   18  C19 UNL     1      -0.346   0.831   0.902  1.00  0.00     0.118 C 
HETATM   19  C20 UNL     1      -0.799  -0.065   2.010  1.00  0.00     0.065 A 
HETATM   20  N1  UNL     1      -1.543   0.672   3.143  1.00  0.00    -0.409 N 
HETATM   21  C21 UNL     1      -1.551  -0.930   3.279  1.00  0.00     0.128 C 
HETATM   22  O2  UNL     1       0.381   0.915  -0.344  1.00  0.00    -0.370 OA
HETATM   23  C22 UNL     1       1.694   1.485  -0.272  1.00  0.00     0.205 C 
HETATM   24  N2  UNL     1       0.770  -1.195  -1.029  1.00  0.00    -0.388 N 
HETATM   25  H21 UNL     1      -1.733   1.605   3.416  1.00  0.00     0.154 HD
HETATM   26  H26 UNL     1      -0.101  -0.906  -1.578  1.00  0.00     0.159 HD
ENDROOT
BRANCH   1  27
HETATM   27  C2  UNL     1       3.990   0.895  -0.412  1.00  0.00     0.034 C 
HETATM   28  C1  UNL     1       4.263   1.511   0.929  1.00  0.00     0.010 C 
ENDBRANCH   1  27
TORSDOF 1
