REMARK  5 active torsions:
REMARK  status: ('A' for Active; 'I' for Inactive)
REMARK    1  A    between atoms: N1_5  and  C5_6 
REMARK    2  A    between atoms: C5_6  and  C6_7 
REMARK    3  A    between atoms: C6_7  and  C7_8 
REMARK    4  A    between atoms: C7_8  and  O2_10 
REMARK    5  A    between atoms: C9_12  and  C10_13 
ROOT
HETATM    1  C1  UNL     1      -1.708  -3.201  -0.677  1.00  0.00     0.020 C 
HETATM    2  C2  UNL     1      -2.078  -1.840  -1.243  1.00  0.00     0.055 A 
HETATM    3  C3  UNL     1      -3.558  -1.653  -1.044  1.00  0.00     0.001 A 
HETATM    4  C4  UNL     1      -3.720  -0.638  -0.233  1.00  0.00     0.087 A 
HETATM    5  N1  UNL     1      -2.554   0.003   0.232  1.00  0.00    -0.359 N 
HETATM    6  C8  UNL     1      -1.522  -0.739  -0.399  1.00  0.00     0.018 A 
HETATM    7  C9  UNL     1      -0.235  -0.502  -0.293  1.00  0.00     0.027 C 
ENDROOT
BRANCH   7   8
HETATM    8  C10 UNL     1       0.959  -1.059  -0.819  1.00  0.00     0.020 C 
HETATM    9  C11 UNL     1       2.242  -0.969  -0.827  1.00  0.00     0.044 A 
HETATM   10  C12 UNL     1       3.148  -1.851  -1.598  1.00  0.00     0.257 A 
HETATM   11  C18 UNL     1       3.122  -0.044  -0.129  1.00  0.00     0.006 A 
HETATM   12  O3  UNL     1       2.820  -2.810  -2.358  1.00  0.00    -0.267 OA
HETATM   13  N2  UNL     1       4.443  -1.382  -1.295  1.00  0.00    -0.322 N 
HETATM   14  C13 UNL     1       4.448  -0.281  -0.401  1.00  0.00     0.046 A 
HETATM   15  H14 UNL     1       5.280  -1.844  -1.722  1.00  0.00     0.169 HD
HETATM   16  C14 UNL     1       5.529   0.411   0.098  1.00  0.00     0.030 A 
HETATM   17  C15 UNL     1       5.267   1.456   0.964  1.00  0.00     0.002 A 
HETATM   18  C16 UNL     1       3.960   1.751   1.281  1.00  0.00     0.001 A 
HETATM   19  C17 UNL     1       2.942   1.008   0.739  1.00  0.00     0.015 A 
ENDBRANCH   7   8
BRANCH   5  20
HETATM   20  C5  UNL     1      -2.324   1.113   1.085  1.00  0.00     0.138 C 
BRANCH  20  21
HETATM   21  C6  UNL     1      -2.663   2.466   0.600  1.00  0.00     0.130 C 
BRANCH  21  22
HETATM   22  C7  UNL     1      -4.079   2.724   0.273  1.00  0.00     0.141 C 
HETATM   23  O1  UNL     1      -5.226   2.180   0.278  1.00  0.00    -0.650 OA
BRANCH  22  24
HETATM   24  O2  UNL     1      -4.165   4.024  -0.205  1.00  0.00    -0.776 OA
HETATM   25  H11 UNL     1      -5.019   4.379  -0.595  1.00  0.00     0.167 HD
ENDBRANCH  22  24
ENDBRANCH  21  22
ENDBRANCH  20  21
ENDBRANCH   5  20
TORSDOF 5
