REMARK  6 active torsions:
REMARK  status: ('A' for Active; 'I' for Inactive)
REMARK    1  A    between atoms: C2_2  and  C3_3 
REMARK    2  A    between atoms: C3_3  and  C4_4 
REMARK    3  A    between atoms: C4_4  and  C5_5 
REMARK    4  A    between atoms: C7_7  and  C8_8 
REMARK    5  A    between atoms: C13_15  and  C14_16 
REMARK    6  A    between atoms: C17_19  and  O2_20 
ROOT
HETATM    1  C8  UNL     1      -1.826  -1.800  -0.892  1.00  0.00     0.048 C 
HETATM    2  C9  UNL     1      -1.039  -1.451   0.098  1.00  0.00     0.047 A 
HETATM    3  C10 UNL     1      -1.241  -1.372   1.537  1.00  0.00     0.257 A 
HETATM    4  O1  UNL     1      -2.289  -1.644   2.140  1.00  0.00    -0.267 OA
HETATM    5  N1  UNL     1      -0.082  -0.937   2.227  1.00  0.00    -0.322 N 
HETATM    6  C11 UNL     1       0.865  -0.740   1.185  1.00  0.00     0.047 A 
HETATM    7  C12 UNL     1       2.192  -0.311   1.270  1.00  0.00     0.042 A 
HETATM    8  C13 UNL     1       2.996  -0.165   0.161  1.00  0.00    -0.024 A 
HETATM    9  C21 UNL     1       2.501  -0.446  -1.093  1.00  0.00     0.013 A 
HETATM   10  C22 UNL     1       1.191  -0.869  -1.162  1.00  0.00     0.015 A 
HETATM   11  C23 UNL     1       0.364  -1.023  -0.063  1.00  0.00     0.006 A 
HETATM   12  H11 UNL     1       0.085  -0.784   3.237  1.00  0.00     0.169 HD
ENDROOT
BRANCH   1  13
HETATM   13  C7  UNL     1      -3.205  -2.238  -0.883  1.00  0.00     0.046 C 
HETATM   14  C6  UNL     1      -4.055  -2.591  -1.807  1.00  0.00     0.028 C 
HETATM   15  C5  UNL     1      -5.007  -2.035  -1.075  1.00  0.00     0.023 C 
HETATM   16  N2  UNL     1      -4.258  -2.486   0.035  1.00  0.00    -0.358 N 
HETATM   17  H22 UNL     1      -4.414  -2.817   0.994  1.00  0.00     0.166 HD
BRANCH  15  18
HETATM   18  C4  UNL     1      -6.273  -1.287  -1.267  1.00  0.00     0.058 C 
BRANCH  18  19
HETATM   19  C3  UNL     1      -6.176   0.081  -0.606  1.00  0.00     0.006 C 
BRANCH  19  20
HETATM   20  C2  UNL     1      -7.474   0.842  -0.808  1.00  0.00    -0.004 C 
HETATM   21  C1  UNL     1      -7.361   2.217  -0.138  1.00  0.00     0.005 C 
ENDBRANCH  19  20
ENDBRANCH  18  19
ENDBRANCH  15  18
ENDBRANCH   1  13
BRANCH   8  22
HETATM   22  C14 UNL     1       4.383   0.284   0.225  1.00  0.00    -0.026 A 
HETATM   23  C15 UNL     1       4.821   1.183   1.202  1.00  0.00     0.015 A 
HETATM   24  C16 UNL     1       6.145   1.577   1.217  1.00  0.00     0.037 A 
HETATM   25  C17 UNL     1       7.076   1.114   0.293  1.00  0.00     0.068 A 
HETATM   26  C19 UNL     1       6.646   0.214  -0.688  1.00  0.00     0.037 A 
HETATM   27  C20 UNL     1       5.338  -0.167  -0.693  1.00  0.00     0.015 A 
BRANCH  25  28
HETATM   28  O2  UNL     1       8.406   1.465   0.252  1.00  0.00    -0.356 OA
HETATM   29  C18 UNL     1       9.037   2.352   1.142  1.00  0.00     0.210 C 
ENDBRANCH  25  28
ENDBRANCH   8  22
TORSDOF 6
