REMARK  1 active torsions:
REMARK  status: ('A' for Active; 'I' for Inactive)
REMARK    1  A    between atoms: O1_2  and  C2_3 
ROOT
HETATM    1  C2  UNL     1       0.226   3.039   0.177  1.00  0.00     0.094 A 
HETATM    2  C3  UNL     1       1.440   3.251  -0.439  1.00  0.00     0.040 A 
HETATM    3  C4  UNL     1       2.337   2.237  -0.692  1.00  0.00     0.015 A 
HETATM    4  C5  UNL     1       1.879   1.023  -0.264  1.00  0.00    -0.026 A 
HETATM    5  C6  UNL     1       0.675   0.794   0.348  1.00  0.00     0.044 A 
HETATM    6  C7  UNL     1      -0.228   1.806   0.604  1.00  0.00     0.063 A 
HETATM    7  N1  UNL     1      -1.395   1.291   1.235  1.00  0.00    -0.379 N 
HETATM    8  C8  UNL     1      -2.115   0.326   0.492  1.00  0.00     0.111 C 
HETATM    9  C9  UNL     1      -1.911   0.513  -1.022  1.00  0.00     0.029 C 
HETATM   10  C10 UNL     1      -3.029  -0.358  -1.630  1.00  0.00     0.003 C 
HETATM   11  C11 UNL     1      -2.703  -1.811  -1.428  1.00  0.00     0.004 C 
HETATM   12  C12 UNL     1      -2.673  -2.167   0.035  1.00  0.00     0.036 C 
HETATM   13  C13 UNL     1      -2.020  -1.075   0.796  1.00  0.00    -0.057 C 
HETATM   14  C14 UNL     1      -1.375  -1.678   1.825  1.00  0.00     0.006 C 
HETATM   15  C15 UNL     1      -0.566  -1.215   2.980  1.00  0.00     0.014 C 
HETATM   16  C16 UNL     1       0.703  -1.415   3.181  1.00  0.00    -0.013 C 
HETATM   17  P1  UNL     1       1.243  -2.806   2.505  1.00  0.00    -0.029 P 
HETATM   18  C17 UNL     1       1.004  -3.036   0.732  1.00  0.00     0.166 C 
HETATM   19  N2  UNL     1       2.126  -2.269   0.140  1.00  0.00    -0.381 N 
HETATM   20  C18 UNL     1       2.681  -2.585  -1.142  1.00  0.00     0.086 C 
HETATM   21  C19 UNL     1       3.337  -1.746  -1.967  1.00  0.00     0.017 C 
HETATM   22  C20 UNL     1       3.403  -0.304  -1.615  1.00  0.00     0.011 C 
HETATM   23  C21 UNL     1       2.762  -0.124  -0.483  1.00  0.00    -0.030 C 
HETATM   24  C22 UNL     1       2.859  -1.097   0.672  1.00  0.00     0.162 C 
HETATM   25  H7  UNL     1      -1.201   1.912   2.050  1.00  0.00     0.160 HD
ENDROOT
BRANCH   1  26
HETATM   26  O1  UNL     1      -0.753   3.974   0.485  1.00  0.00    -0.354 OA
HETATM   27  C1  UNL     1      -0.698   5.341   0.226  1.00  0.00     0.210 C 
ENDBRANCH   1  26
TORSDOF 1
