REMARK  3 active torsions:
REMARK  status: ('A' for Active; 'I' for Inactive)
REMARK    1  A    between atoms: C2_3  and  C3_4 
REMARK    2  A    between atoms: C12_16  and  O3_17 
REMARK    3  A    between atoms: O3_17  and  C13_18 
ROOT
HETATM    1  C3  UNL     1      -1.777  -2.649  -1.300  1.00  0.00     0.076 C 
HETATM    2  C4  UNL     1      -1.114  -1.659  -0.672  1.00  0.00     0.009 C 
HETATM    3  C5  UNL     1      -2.240  -0.781  -0.839  1.00  0.00     0.190 A 
HETATM    4  C6  UNL     1      -3.093   0.228  -0.854  1.00  0.00     0.052 A 
HETATM    5 CL1  UNL     1      -4.150  -0.945  -1.664  1.00  0.00    -0.201 Cl
HETATM    6  C7  UNL     1      -3.915   1.462  -0.798  1.00  0.00     0.189 C 
HETATM    7  O1  UNL     1      -3.251   2.570  -0.284  1.00  0.00    -0.388 OA
HETATM    8  C8  UNL     1      -2.719   2.351   0.925  1.00  0.00     0.193 C 
HETATM    9  C9  UNL     1      -1.894   3.504   1.506  1.00  0.00     0.195 C 
HETATM   10  O2  UNL     1      -1.401   2.880   2.763  1.00  0.00    -0.373 OA
HETATM   11  C10 UNL     1      -0.677   1.673   2.476  1.00  0.00     0.111 A 
HETATM   12  C11 UNL     1       0.251   1.800   1.426  1.00  0.00     0.099 A 
HETATM   13  C12 UNL     1       1.044   0.772   0.978  1.00  0.00     0.049 A 
HETATM   14  C18 UNL     1       0.306   0.257   1.983  1.00  0.00     0.088 A 
HETATM   15  C19 UNL     1       0.377  -1.114   1.552  1.00  0.00     0.172 A 
HETATM   16  N1  UNL     1       0.278  -2.458   1.609  1.00  0.00    -0.247 NA
HETATM   17  C20 UNL     1      -0.183  -3.033   2.779  1.00  0.00     0.225 A 
HETATM   18  N2  UNL     1      -0.353  -1.836   3.372  1.00  0.00    -0.266 NA
HETATM   19  C21 UNL     1      -0.053  -0.724   2.755  1.00  0.00     0.127 A 
HETATM   20  C22 UNL     1      -0.794   0.451   3.088  1.00  0.00     0.082 A 
HETATM   21  N3  UNL     1       0.060  -1.121   0.058  1.00  0.00    -0.364 N 
HETATM   22  H23 UNL     1       0.402  -0.735  -0.818  1.00  0.00     0.162 HD
ENDROOT
BRANCH  13  23
HETATM   23  O3  UNL     1       1.973   0.826  -0.039  1.00  0.00    -0.353 OA
BRANCH  23  24
HETATM   24  C13 UNL     1       2.923  -0.081  -0.444  1.00  0.00     0.132 C 
HETATM   25  C14 UNL     1       2.984  -0.234  -1.924  1.00  0.00     0.058 C 
HETATM   26  C15 UNL     1       3.784   0.800  -2.639  1.00  0.00     0.170 C 
HETATM   27  O4  UNL     1       4.973   1.158  -2.083  1.00  0.00    -0.391 OA
HETATM   28  C16 UNL     1       4.683   1.670  -0.806  1.00  0.00     0.170 C 
HETATM   29  C17 UNL     1       4.272   0.501   0.029  1.00  0.00     0.058 C 
ENDBRANCH  23  24
ENDBRANCH  13  23
BRANCH   1  30
HETATM   30  C2  UNL     1      -1.314  -3.977  -1.568  1.00  0.00     0.082 C 
HETATM   31  C1  UNL     1      -2.389  -4.475  -2.231  1.00  0.00     0.357 C 
HETATM   32  F1  UNL     1      -3.607  -4.024  -2.618  1.00  0.00    -0.462 F 
ENDBRANCH   1  30
TORSDOF 3
