REMARK  2 active torsions:
REMARK  status: ('A' for Active; 'I' for Inactive)
REMARK    1  A    between atoms: C11_13  and  C12_14 
REMARK    2  A    between atoms: C13_15  and  C14_16 
ROOT
HETATM    1  C1  UNL     1      -2.863  -3.164   1.026  1.00  0.00     0.043 C 
HETATM    2  C2  UNL     1      -1.805  -2.396   0.808  1.00  0.00     0.030 C 
HETATM    3  N1  UNL     1      -0.698  -1.949   1.559  1.00  0.00    -0.373 N 
HETATM    4  C3  UNL     1      -0.560  -0.614   0.969  1.00  0.00     0.080 C 
HETATM    5  C4  UNL     1       0.459   0.040   1.868  1.00  0.00     0.049 C 
HETATM    6  C5  UNL     1      -1.780   0.221   0.785  1.00  0.00    -0.032 C 
HETATM    7  C6  UNL     1      -2.082   1.160  -0.224  1.00  0.00     0.092 C 
HETATM    8  N2  UNL     1      -3.108   0.377  -0.942  1.00  0.00    -0.382 N 
HETATM    9  C7  UNL     1      -3.132  -0.587  -2.088  1.00  0.00     0.151 C 
HETATM   10  C8  UNL     1      -2.465  -1.881  -1.447  1.00  0.00     0.007 C 
HETATM   11  C9  UNL     1      -1.387  -1.746  -0.534  1.00  0.00    -0.004 C 
HETATM   12  C10 UNL     1      -0.060  -1.067  -0.352  1.00  0.00    -0.014 C 
HETATM   13  C11 UNL     1       1.082  -0.907  -0.980  1.00  0.00     0.011 C 
HETATM   14  C20 UNL     1      -4.430   0.447  -0.286  1.00  0.00     0.080 C 
HETATM   15  C21 UNL     1      -5.226   1.663  -0.651  1.00  0.00     0.032 C 
HETATM   16  C22 UNL     1      -4.276   0.284   1.196  1.00  0.00     0.029 C 
HETATM   17  C23 UNL     1      -2.916   0.156   1.761  1.00  0.00     0.040 C 
HETATM   18  H3  UNL     1      -0.229  -2.497   2.291  1.00  0.00     0.161 HD
ENDROOT
BRANCH  13  19
HETATM   19  C12 UNL     1       2.257  -0.204  -0.553  1.00  0.00     0.001 C 
HETATM   20  C13 UNL     1       3.346  -0.148  -1.338  1.00  0.00     0.007 C 
BRANCH  20  21
HETATM   21  C14 UNL     1       4.601   0.504  -1.076  1.00  0.00    -0.058 A 
HETATM   22  C15 UNL     1       5.519   0.396  -2.053  1.00  0.00     0.007 A 
HETATM   23  C16 UNL     1       6.795   1.048  -1.815  1.00  0.00    -0.003 A 
HETATM   24  C17 UNL     1       6.830   1.652  -0.648  1.00  0.00    -0.026 A 
HETATM   25  C18 UNL     1       5.918   1.843   0.481  1.00  0.00     0.032 A 
HETATM   26  C19 UNL     1       4.617   1.146   0.247  1.00  0.00     0.042 A 
ENDBRANCH  20  21
ENDBRANCH  13  19
TORSDOF 2
