REMARK  4 active torsions:
REMARK  status: ('A' for Active; 'I' for Inactive)
REMARK    1  A    between atoms: C2_2  and  N1_4 
REMARK    2  A    between atoms: C8_9  and  C9_10 
REMARK    3  A    between atoms: C9_10  and  C10_11 
REMARK    4  A    between atoms: C10_11  and  C11_12 
ROOT
HETATM    1  N1  UNL     1      -3.982   0.453   0.150  1.00  0.00    -0.335 N 
HETATM    2  C4  UNL     1      -3.499   1.016   1.364  1.00  0.00     0.096 A 
HETATM    3  C5  UNL     1      -2.325   0.830   1.936  1.00  0.00     0.019 A 
HETATM    4  C6  UNL     1      -1.171   0.017   1.535  1.00  0.00     0.017 A 
HETATM    5  C7  UNL     1      -1.112  -0.725   0.442  1.00  0.00     0.016 A 
HETATM    6  C8  UNL     1      -0.005  -1.549  -0.010  1.00  0.00     0.090 A 
HETATM    7  C18 UNL     1      -0.210  -2.249  -1.232  1.00  0.00     0.265 A 
HETATM    8  O1  UNL     1       0.563  -3.015  -1.840  1.00  0.00    -0.267 OA
HETATM    9  N2  UNL     1      -1.549  -1.858  -1.610  1.00  0.00    -0.320 N 
HETATM   10  C19 UNL     1      -2.108  -0.953  -0.634  1.00  0.00     0.063 A 
HETATM   11  C20 UNL     1      -3.330  -0.441  -0.744  1.00  0.00     0.126 A 
HETATM   12  H21 UNL     1      -2.072  -2.175  -2.479  1.00  0.00     0.169 HD
ENDROOT
BRANCH   6  13
HETATM   13  C9  UNL     1       1.126  -1.638   0.677  1.00  0.00    -0.110 C 
BRANCH  13  14
HETATM   14  C10 UNL     1       2.347  -1.400   1.140  1.00  0.00     0.064 C 
BRANCH  14  15
HETATM   15  C11 UNL     1       3.161  -0.304   0.588  1.00  0.00    -0.049 C 
HETATM   16  C12 UNL     1       4.183  -0.617  -0.227  1.00  0.00    -0.077 C 
HETATM   17  C13 UNL     1       4.299  -2.093  -0.422  1.00  0.00     0.044 C 
HETATM   18  C14 UNL     1       5.013   0.489  -0.792  1.00  0.00     0.034 C 
HETATM   19  C15 UNL     1       5.140   1.524   0.307  1.00  0.00     0.005 C 
HETATM   20  C16 UNL     1       3.766   2.102   0.560  1.00  0.00     0.005 C 
HETATM   21  C17 UNL     1       2.776   1.053   0.982  1.00  0.00     0.039 C 
ENDBRANCH  14  15
ENDBRANCH  13  14
ENDBRANCH   6  13
BRANCH   1  22
HETATM   22  C2  UNL     1      -5.303   0.888  -0.149  1.00  0.00     0.002 C 
HETATM   23  C1  UNL     1      -5.827   2.073  -0.397  1.00  0.00     0.038 C 
HETATM   24  C3  UNL     1      -6.359  -0.163  -0.210  1.00  0.00     0.068 C 
ENDBRANCH   1  22
TORSDOF 4
