REMARK  6 active torsions:
REMARK  status: ('A' for Active; 'I' for Inactive)
REMARK    1  A    between atoms: C3_3  and  N1_4 
REMARK    2  A    between atoms: N1_4  and  C4_5 
REMARK    3  A    between atoms: C5_6  and  C6_7 
REMARK    4  A    between atoms: C6_7  and  C7_8 
REMARK    5  A    between atoms: C7_8  and  C8_9 
REMARK    6  A    between atoms: C8_9  and  O2_11 
ROOT
HETATM    1  C4  UNL     1      -0.717  -0.438  -0.796  1.00  0.00     0.043 C 
HETATM    2  C5  UNL     1      -0.658   0.899  -0.637  1.00  0.00     0.037 C 
HETATM    3  C9  UNL     1       0.510   1.786  -0.659  1.00  0.00     0.254 C 
HETATM    4  O3  UNL     1       0.207   2.885  -1.193  1.00  0.00    -0.268 OA
HETATM    5  N2  UNL     1       1.872   1.641  -0.205  1.00  0.00    -0.322 N 
HETATM    6  C10 UNL     1       2.683   0.499   0.083  1.00  0.00     0.045 A 
HETATM    7  C11 UNL     1       3.780   1.061   0.680  1.00  0.00     0.030 A 
HETATM    8  C12 UNL     1       4.789   0.214   1.094  1.00  0.00     0.002 A 
HETATM    9  C13 UNL     1       4.645  -1.162   0.887  1.00  0.00     0.001 A 
HETATM   10  C14 UNL     1       3.524  -1.706   0.280  1.00  0.00     0.013 A 
HETATM   11  C15 UNL     1       2.528  -0.856  -0.128  1.00  0.00    -0.009 A 
HETATM   12  C16 UNL     1       1.474  -1.699  -0.731  1.00  0.00     0.016 C 
HETATM   13  C17 UNL     1       0.171  -1.578  -1.018  1.00  0.00     0.031 C 
HETATM   14  H12 UNL     1       2.299   2.604  -0.082  1.00  0.00     0.169 HD
ENDROOT
BRANCH   2  15
HETATM   15  C6  UNL     1      -1.931   1.584  -0.432  1.00  0.00     0.057 C 
BRANCH  15  16
HETATM   16  C7  UNL     1      -2.145   2.260   0.865  1.00  0.00     0.115 C 
BRANCH  16  17
HETATM   17  C8  UNL     1      -1.167   3.319   1.195  1.00  0.00     0.139 C 
HETATM   18  O1  UNL     1      -0.156   2.904   1.843  1.00  0.00    -0.650 OA
BRANCH  17  19
HETATM   19  O2  UNL     1      -1.233   4.669   0.885  1.00  0.00    -0.776 OA
HETATM   20  H11 UNL     1      -0.362   5.102   0.589  1.00  0.00     0.167 HD
ENDBRANCH  17  19
ENDBRANCH  16  17
ENDBRANCH  15  16
ENDBRANCH   2  15
BRANCH   1  21
HETATM   21  N1  UNL     1      -2.080  -0.909  -0.725  1.00  0.00    -0.366 N 
HETATM   22  H6  UNL     1      -2.801  -0.962  -1.504  1.00  0.00     0.165 HD
BRANCH  21  23
HETATM   23  C3  UNL     1      -2.716  -1.404   0.448  1.00  0.00     0.084 C 
HETATM   24  C2  UNL     1      -3.213  -2.623   0.481  1.00  0.00    -0.014 C 
HETATM   25  C1  UNL     1      -3.132  -3.516  -0.688  1.00  0.00     0.037 C 
ENDBRANCH  21  23
ENDBRANCH   1  21
TORSDOF 6
