REMARK  5 active torsions:
REMARK  status: ('A' for Active; 'I' for Inactive)
REMARK    1  A    between atoms: C2_2  and  C19_22 
REMARK    2  A    between atoms: C9_10  and  C10_11 
REMARK    3  A    between atoms: C10_11  and  C11_12 
REMARK    4  A    between atoms: C11_12  and  O2_14 
REMARK    5  A    between atoms: C12_15  and  C14_17 
ROOT
HETATM    1  C1  UNL     1      -2.838  -0.365   1.708  1.00  0.00     0.044 C 
HETATM    2  C2  UNL     1      -1.833  -0.710   0.708  1.00  0.00     0.053 C 
HETATM    3  C3  UNL     1      -2.174  -1.761  -0.271  1.00  0.00     0.036 C 
HETATM    4  C4  UNL     1      -1.264  -1.607  -1.458  1.00  0.00     0.005 C 
HETATM    5  C5  UNL     1       0.146  -1.887  -1.034  1.00  0.00     0.026 C 
HETATM    6  C6  UNL     1       0.510  -1.536   0.336  1.00  0.00     0.096 C 
HETATM    7  N1  UNL     1      -0.472  -0.806   1.101  1.00  0.00    -0.381 N 
HETATM    8  C7  UNL     1       0.678  -0.433   1.758  1.00  0.00     0.058 A 
HETATM    9  C8  UNL     1       1.777  -0.911   1.987  1.00  0.00    -0.007 A 
HETATM   10  C9  UNL     1       1.632  -0.493   0.480  1.00  0.00     0.028 A 
HETATM   11  C12 UNL     1       1.167   0.939   0.416  1.00  0.00     0.038 C 
HETATM   12  C13 UNL     1       0.789   1.057   1.978  1.00  0.00     0.046 C 
ENDROOT
BRANCH  10  13
HETATM   13  C10 UNL     1       2.868  -0.790  -0.241  1.00  0.00     0.127 C 
BRANCH  13  14
HETATM   14  C11 UNL     1       3.887   0.283  -0.028  1.00  0.00     0.140 C 
HETATM   15  O1  UNL     1       4.981   0.108  -0.612  1.00  0.00    -0.650 OA
BRANCH  14  16
HETATM   16  O2  UNL     1       4.134   1.503   0.612  1.00  0.00    -0.776 OA
HETATM   17  H14 UNL     1       4.262   2.372   0.077  1.00  0.00     0.167 HD
ENDBRANCH  14  16
ENDBRANCH  13  14
ENDBRANCH  10  13
BRANCH  11  18
HETATM   18  C14 UNL     1      -0.184   1.181  -0.248  1.00  0.00    -0.044 A 
HETATM   19  C15 UNL     1      -0.067   2.309  -1.105  1.00  0.00     0.008 A 
HETATM   20  C16 UNL     1      -1.153   2.758  -1.801  1.00  0.00     0.001 A 
HETATM   21  C17 UNL     1      -2.388   2.160  -1.715  1.00  0.00     0.001 A 
HETATM   22  C18 UNL     1      -2.596   1.070  -0.917  1.00  0.00     0.010 A 
HETATM   23  C19 UNL     1      -1.529   0.594  -0.206  1.00  0.00    -0.024 A 
ENDBRANCH  11  18
TORSDOF 5
