REMARK  7 active torsions:
REMARK  status: ('A' for Active; 'I' for Inactive)
REMARK    1  A    between atoms: C1_2  and  C2_3 
REMARK    2  A    between atoms: C2_3  and  C3_4 
REMARK    3  A    between atoms: C3_4  and  C4_5 
REMARK    4  A    between atoms: C9_10  and  N1_11 
REMARK    5  A    between atoms: N1_11  and  C10_12 
REMARK    6  A    between atoms: C10_12  and  C11_13 
REMARK    7  A    between atoms: C11_13  and  C12_14 
ROOT
HETATM    1  C10 UNL     1       0.721  -0.659   1.274  1.00  0.00     0.149 C 
ENDROOT
BRANCH   1   2
HETATM    2  N1  UNL     1      -0.418   0.021   0.677  1.00  0.00    -0.389 N 
HETATM    3  H12 UNL     1      -0.827   0.232   1.642  1.00  0.00     0.159 HD
BRANCH   2   4
HETATM    4  C9  UNL     1      -1.508   0.672   0.094  1.00  0.00     0.016 C 
HETATM    5  C8  UNL     1      -1.433   2.158   0.030  1.00  0.00     0.058 C 
HETATM    6  C7  UNL     1      -2.673   2.740   0.501  1.00  0.00     0.011 C 
HETATM    7  C6  UNL     1      -3.965   2.042   0.231  1.00  0.00     0.040 C 
HETATM    8  C5  UNL     1      -3.955   0.695  -0.330  1.00  0.00    -0.038 A 
HETATM    9  C4  UNL     1      -3.846  -0.518  -0.814  1.00  0.00    -0.038 A 
HETATM   10  C20 UNL     1      -2.587   0.034  -0.320  1.00  0.00    -0.000 A 
BRANCH   9  11
HETATM   11  C3  UNL     1      -4.261  -1.782  -1.429  1.00  0.00     0.047 C 
BRANCH  11  12
HETATM   12  C2  UNL     1      -5.760  -1.732  -1.716  1.00  0.00     0.074 C 
BRANCH  12  13
HETATM   13  C1  UNL     1      -6.457  -1.542  -0.421  1.00  0.00     0.231 C 
HETATM   14  O1  UNL     1      -6.363  -1.466   0.777  1.00  0.00    -0.307 OA
ENDBRANCH  12  13
ENDBRANCH  11  12
ENDBRANCH   9  11
ENDBRANCH   2   4
ENDBRANCH   1   2
BRANCH   1  15
HETATM   15  C11 UNL     1       1.980   0.082   1.107  1.00  0.00     0.031 C 
BRANCH  15  16
HETATM   16  C12 UNL     1       3.186   0.529   0.888  1.00  0.00     0.091 A 
HETATM   17  O2  UNL     1       3.550   1.891   1.081  1.00  0.00    -0.261 OA
HETATM   18  C13 UNL     1       4.839   2.290   0.836  1.00  0.00     0.370 A 
HETATM   19  O3  UNL     1       4.951   3.530   1.064  1.00  0.00    -0.238 OA
HETATM   20  N2  UNL     1       5.736   1.323   0.402  1.00  0.00    -0.301 N 
HETATM   21  C14 UNL     1       5.451  -0.024   0.191  1.00  0.00     0.050 A 
HETATM   22  H16 UNL     1       6.672   1.716   0.246  1.00  0.00     0.171 HD
HETATM   23  C15 UNL     1       6.457  -0.852  -0.170  1.00  0.00     0.030 A 
HETATM   24  C19 UNL     1       4.171  -0.443   0.429  1.00  0.00     0.025 A 
HETATM   25  C16 UNL     1       6.200  -2.187  -0.326  1.00  0.00     0.002 A 
HETATM   26  C17 UNL     1       4.953  -2.733  -0.124  1.00  0.00     0.001 A 
HETATM   27  C18 UNL     1       3.939  -1.804   0.266  1.00  0.00     0.016 A 
ENDBRANCH  15  16
ENDBRANCH   1  15
TORSDOF 7
