REMARK  5 active torsions:
REMARK  status: ('A' for Active; 'I' for Inactive)
REMARK    1  A    between atoms: O1_2  and  C2_3 
REMARK    2  A    between atoms: C2_3  and  C3_4 
REMARK    3  A    between atoms: C13_16  and  C14_17 
REMARK    4  A    between atoms: C14_17  and  C15_18 
REMARK    5  A    between atoms: C15_18  and  C16_19 
ROOT
HETATM    1  C3  UNL     1       0.557  -0.850  -0.183  1.00  0.00     0.056 C 
HETATM    2  C4  UNL     1       1.400  -0.036   0.379  1.00  0.00     0.046 A 
HETATM    3  C5  UNL     1       1.354   0.601   1.686  1.00  0.00     0.257 A 
HETATM    4  O2  UNL     1       0.482   0.511   2.582  1.00  0.00    -0.267 OA
HETATM    5  N1  UNL     1       2.519   1.440   1.899  1.00  0.00    -0.322 N 
HETATM    6  C6  UNL     1       3.220   1.259   0.680  1.00  0.00     0.046 A 
HETATM    7  C7  UNL     1       4.421   1.817   0.291  1.00  0.00     0.030 A 
HETATM    8  C8  UNL     1       5.043   1.589  -0.933  1.00  0.00     0.002 A 
HETATM    9  C9  UNL     1       4.438   0.747  -1.839  1.00  0.00     0.001 A 
HETATM   10  C10 UNL     1       3.238   0.179  -1.469  1.00  0.00     0.015 A 
HETATM   11  C11 UNL     1       2.635   0.424  -0.238  1.00  0.00     0.006 A 
HETATM   12  H5  UNL     1       2.783   2.020   2.715  1.00  0.00     0.169 HD
ENDROOT
BRANCH   1  13
HETATM   13  C2  UNL     1      -0.718  -1.559  -0.010  1.00  0.00     0.175 A 
HETATM   14  C12 UNL     1      -1.756  -1.188  -1.008  1.00  0.00     0.062 A 
HETATM   15  C13 UNL     1      -2.595  -0.650  -0.131  1.00  0.00     0.009 A 
HETATM   16  N2  UNL     1      -1.673  -0.987   0.923  1.00  0.00    -0.355 N 
HETATM   17  H16 UNL     1      -1.723  -0.857   1.958  1.00  0.00     0.163 HD
BRANCH  13  18
HETATM   18  O1  UNL     1      -0.481  -2.920   0.168  1.00  0.00    -0.358 OA
HETATM   19  C1  UNL     1      -1.680  -3.634   0.336  1.00  0.00     0.205 C 
ENDBRANCH  13  18
BRANCH  15  20
HETATM   20  C14 UNL     1      -3.935   0.014  -0.120  1.00  0.00     0.063 C 
BRANCH  20  21
HETATM   21  C15 UNL     1      -3.794   1.417   0.433  1.00  0.00     0.075 C 
BRANCH  21  22
HETATM   22  C16 UNL     1      -2.883   2.239  -0.405  1.00  0.00     0.231 C 
HETATM   23  O3  UNL     1      -3.236   2.234  -1.596  1.00  0.00    -0.307 OA
ENDBRANCH  21  22
ENDBRANCH  20  21
ENDBRANCH  15  20
ENDBRANCH   1  13
TORSDOF 5
