REMARK  3 active torsions:
REMARK  status: ('A' for Active; 'I' for Inactive)
REMARK    1  A    between atoms: C5_6  and  C6_7 
REMARK    2  A    between atoms: C5_6  and  O3_15 
REMARK    3  A    between atoms: O3_15  and  C12_16 
ROOT
HETATM    1  C1  UNL     1      -0.475   2.829  -3.352  1.00  0.00     0.112 C 
HETATM    2  C2  UNL     1      -1.536   2.093  -3.457  1.00  0.00     0.112 C 
HETATM    3  N1  UNL     1      -2.400   2.009  -2.525  1.00  0.00    -0.281 NA
HETATM    4  C3  UNL     1      -2.308   1.388  -1.214  1.00  0.00     0.188 C 
HETATM    5  C4  UNL     1      -0.883   1.372  -0.765  1.00  0.00    -0.007 C 
HETATM    6  C5  UNL     1      -0.292   0.279  -0.244  1.00  0.00     0.077 C 
HETATM    7  C17 UNL     1      -0.080   2.633  -0.897  1.00  0.00     0.188 C 
HETATM    8  N2  UNL     1       0.196   2.897  -2.287  1.00  0.00    -0.281 NA
ENDROOT
BRANCH   6   9
HETATM    9  C6  UNL     1       1.058   0.041   0.249  1.00  0.00     0.074 C 
HETATM   10  C7  UNL     1       2.253   0.088  -0.315  1.00  0.00     0.073 C 
HETATM   11  C8  UNL     1       2.326   0.446  -1.725  1.00  0.00     0.060 C 
HETATM   12  O2  UNL     1       3.288  -0.217   0.539  1.00  0.00    -0.349 OA
HETATM   13  C9  UNL     1       3.426   0.865  -2.359  1.00  0.00     0.137 C 
HETATM   14  O1  UNL     1       4.704   1.048  -1.829  1.00  0.00    -0.361 OA
HETATM   15  C10 UNL     1       5.161   0.971  -0.489  1.00  0.00     0.201 C 
HETATM   16  C11 UNL     1       4.663  -0.290   0.212  1.00  0.00     0.202 C 
ENDBRANCH   6   9
BRANCH   6  17
HETATM   17  O3  UNL     1      -1.210  -0.791  -0.200  1.00  0.00    -0.345 OA
BRANCH  17  18
HETATM   18  C12 UNL     1      -2.098  -1.010   0.861  1.00  0.00     0.133 C 
HETATM   19  C13 UNL     1      -2.940  -2.218   0.510  1.00  0.00     0.058 C 
HETATM   20  C14 UNL     1      -3.815  -2.669   1.662  1.00  0.00     0.170 C 
HETATM   21  O4  UNL     1      -2.980  -3.007   2.712  1.00  0.00    -0.391 OA
HETATM   22  C15 UNL     1      -2.364  -1.851   3.177  1.00  0.00     0.170 C 
HETATM   23  C16 UNL     1      -1.395  -1.268   2.177  1.00  0.00     0.058 C 
ENDBRANCH  17  18
ENDBRANCH   6  17
TORSDOF 3
