REMARK  4 active torsions:
REMARK  status: ('A' for Active; 'I' for Inactive)
REMARK    1  A    between atoms: N1_1  and  C1_2 
REMARK    2  A    between atoms: C4_5  and  C5_6 
REMARK       I    between atoms: C5_6  and  N2_8 
REMARK    3  A    between atoms: N2_8  and  S1_9 
REMARK    4  A    between atoms: S1_9  and  C6_12 
ROOT
HETATM    1  C5  UNL     1      -1.223  -0.727  -0.971  1.00  0.00     0.263 C 
HETATM    2  O1  UNL     1      -1.107  -1.497  -1.979  1.00  0.00    -0.267 OA
HETATM    3  N2  UNL     1      -0.013  -0.304  -0.354  1.00  0.00    -0.246 N 
HETATM    4  H5  UNL     1      -0.095   0.327   0.473  1.00  0.00     0.182 HD
ENDROOT
BRANCH   3   5
HETATM    5  S1  UNL     1       1.373  -0.967  -1.158  1.00  0.00     0.265 S 
HETATM    6  O2  UNL     1       1.213  -2.477  -1.066  1.00  0.00    -0.200 OA
HETATM    7  O3  UNL     1       1.294  -0.592  -2.591  1.00  0.00    -0.200 OA
BRANCH   5   8
HETATM    8  C6  UNL     1       2.854  -0.451  -0.405  1.00  0.00     0.080 A 
HETATM    9  C7  UNL     1       3.368   0.728  -0.934  1.00  0.00     0.027 A 
HETATM   10  C8  UNL     1       4.545   1.291  -0.457  1.00  0.00     0.020 A 
HETATM   11  C9  UNL     1       5.204   0.635   0.577  1.00  0.00     0.011 A 
HETATM   12 BR1  UNL     1       6.824   1.379   1.257  1.00  0.00    -0.051 Br
HETATM   13  C10 UNL     1       4.676  -0.536   1.088  1.00  0.00     0.020 A 
HETATM   14  C11 UNL     1       3.507  -1.101   0.619  1.00  0.00     0.027 A 
ENDBRANCH   5   8
ENDBRANCH   3   5
BRANCH   1  15
HETATM   15  C4  UNL     1      -2.549  -0.330  -0.515  1.00  0.00     0.035 A 
HETATM   16  C3  UNL     1      -3.644  -0.755  -1.129  1.00  0.00     0.017 A 
HETATM   17  C2  UNL     1      -4.764  -0.161  -0.402  1.00  0.00     0.027 A 
HETATM   18  C1  UNL     1      -4.330   0.596   0.616  1.00  0.00     0.026 A 
HETATM   19  C12 UNL     1      -2.845   0.550   0.629  1.00  0.00     0.170 A 
HETATM   20 CL1  UNL     1      -2.237  -0.270   2.089  1.00  0.00    -0.113 Cl
BRANCH  18  21
HETATM   21  N1  UNL     1      -5.207   1.295   1.493  1.00  0.00    -0.401 N 
HETATM   22  H1  UNL     1      -5.269   1.078   2.520  1.00  0.00     0.156 HD
HETATM   23  H2  UNL     1      -5.766   2.028   1.007  1.00  0.00     0.156 HD
ENDBRANCH  18  21
ENDBRANCH   1  15
TORSDOF 4
