REMARK  3 active torsions:
REMARK  status: ('A' for Active; 'I' for Inactive)
REMARK       I    between atoms: C1_2  and  N1_3 
REMARK    1  A    between atoms: C1_2  and  C8_14 
REMARK    2  A    between atoms: N1_3  and  S1_4 
REMARK    3  A    between atoms: S1_4  and  C2_7 
ROOT
HETATM    1  O1  UNL     1       1.375   1.277  -1.656  1.00  0.00    -0.267 OA
HETATM    2  C1  UNL     1       1.443   0.860  -0.474  1.00  0.00     0.266 C 
HETATM    3  N1  UNL     1       0.319   1.067   0.363  1.00  0.00    -0.246 N 
HETATM    4  H1  UNL     1       0.475   0.686   1.338  1.00  0.00     0.182 HD
ENDROOT
BRANCH   3   5
HETATM    5  S1  UNL     1      -1.251   1.759   0.270  1.00  0.00     0.266 S 
HETATM    6  O2  UNL     1      -1.239   2.719  -0.919  1.00  0.00    -0.200 OA
HETATM    7  O3  UNL     1      -1.536   2.542   1.528  1.00  0.00    -0.200 OA
BRANCH   5   8
HETATM    8  C2  UNL     1      -2.493   0.553   0.042  1.00  0.00     0.097 A 
HETATM    9  C3  UNL     1      -3.434   0.383   1.071  1.00  0.00     0.027 A 
HETATM   10  C4  UNL     1      -4.480  -0.511   1.115  1.00  0.00     0.002 A 
HETATM   11  C5  UNL     1      -4.621  -1.337   0.022  1.00  0.00     0.001 A 
HETATM   12  C6  UNL     1      -3.740  -1.236  -1.033  1.00  0.00     0.020 A 
HETATM   13  C7  UNL     1      -2.725  -0.314  -0.991  1.00  0.00     0.034 A 
HETATM   14 BR1  UNL     1      -1.531  -0.165  -2.460  1.00  0.00    -0.049 Br
ENDBRANCH   5   8
ENDBRANCH   3   5
BRANCH   2  15
HETATM   15  C8  UNL     1       2.652   0.195  -0.024  1.00  0.00     0.050 A 
HETATM   16  C9  UNL     1       3.635   0.088  -0.983  1.00  0.00     0.022 A 
HETATM   17  C10 UNL     1       4.827  -0.547  -0.604  1.00  0.00     0.045 A 
HETATM   18  C11 UNL     1       5.086  -1.068   0.648  1.00  0.00     0.125 A 
HETATM   19 CL1  UNL     1       6.598  -1.835   1.011  1.00  0.00    -0.062 Cl
HETATM   20  N2  UNL     1       4.078  -0.924   1.525  1.00  0.00    -0.248 NA
HETATM   21  C12 UNL     1       2.922  -0.322   1.200  1.00  0.00     0.135 A 
ENDBRANCH   2  15
TORSDOF 3
