REMARK  7 active torsions:
REMARK  status: ('A' for Active; 'I' for Inactive)
REMARK    1  A    between atoms: N1_1  and  C1_2 
REMARK    2  A    between atoms: C1_2  and  C2_3 
REMARK    3  A    between atoms: C2_3  and  C3_4 
REMARK    4  A    between atoms: C3_4  and  C4_5 
REMARK    5  A    between atoms: C4_5  and  C5_6 
REMARK    6  A    between atoms: C5_6  and  C6_7 
REMARK    7  A    between atoms: C6_7  and  O2_9 
ROOT
HETATM    1  C3  UNL     1       1.675  -0.279  -0.611  1.00  0.00    -0.017 A 
HETATM    2  C7  UNL     1       0.235  -0.648  -0.274  1.00  0.00     0.002 A 
HETATM    3  C8  UNL     1       0.318   0.101  -1.319  1.00  0.00     0.010 A 
HETATM    4  C9  UNL     1      -1.152   0.291  -1.768  1.00  0.00     0.006 C 
HETATM    5  C10 UNL     1      -1.464   1.743  -1.928  1.00  0.00     0.001 C 
HETATM    6  C11 UNL     1      -1.145   2.566  -0.722  1.00  0.00     0.005 C 
HETATM    7  C12 UNL     1      -2.181   2.457   0.345  1.00  0.00     0.047 C 
HETATM    8  C13 UNL     1      -2.509   1.080   0.646  1.00  0.00     0.090 C 
HETATM    9  N2  UNL     1      -2.130   0.150   1.476  1.00  0.00    -0.264 NA
HETATM   10  C14 UNL     1      -2.791  -1.117   1.371  1.00  0.00     0.066 A 
HETATM   11  C15 UNL     1      -4.164  -1.379   1.178  1.00  0.00     0.032 A 
HETATM   12  C16 UNL     1      -4.646  -2.652   1.035  1.00  0.00     0.002 A 
HETATM   13  C17 UNL     1      -3.785  -3.714   1.065  1.00  0.00     0.001 A 
HETATM   14  C18 UNL     1      -2.432  -3.467   1.255  1.00  0.00     0.014 A 
HETATM   15  C19 UNL     1      -1.894  -2.157   1.417  1.00  0.00    -0.008 A 
HETATM   16  C20 UNL     1      -0.396  -2.071   1.571  1.00  0.00     0.010 C 
HETATM   17  C21 UNL     1       0.495  -1.433   0.861  1.00  0.00    -0.014 C 
ENDROOT
BRANCH   1  18
HETATM   18  C2  UNL     1       2.619   0.305  -1.445  1.00  0.00     0.030 C 
BRANCH  18  19
HETATM   19  C1  UNL     1       2.854   0.791  -2.821  1.00  0.00     0.272 C 
BRANCH  19  20
HETATM   20  N1  UNL     1       4.007   0.046  -3.423  1.00  0.00     0.078 N 
HETATM   21  H1  UNL     1       4.908   0.474  -3.189  1.00  0.00     0.312 HD
HETATM   22  H2  UNL     1       3.922  -0.946  -3.037  1.00  0.00     0.312 HD
ENDBRANCH  19  20
ENDBRANCH  18  19
ENDBRANCH   1  18
BRANCH   1  23
HETATM   23  C4  UNL     1       2.742  -0.215   0.469  1.00  0.00     0.022 C 
BRANCH  23  24
HETATM   24  C5  UNL     1       2.304   0.716   1.607  1.00  0.00     0.111 C 
BRANCH  24  25
HETATM   25  C6  UNL     1       3.469   0.822   2.538  1.00  0.00     0.139 C 
HETATM   26  O1  UNL     1       3.090   1.779   3.333  1.00  0.00    -0.650 OA
BRANCH  25  27
HETATM   27  O2  UNL     1       4.519   0.958   3.422  1.00  0.00    -0.776 OA
HETATM   28  H10 UNL     1       5.445   1.271   3.103  1.00  0.00     0.167 HD
ENDBRANCH  25  27
ENDBRANCH  24  25
ENDBRANCH  23  24
ENDBRANCH   1  23
TORSDOF 7
