REMARK  3 active torsions:
REMARK  status: ('A' for Active; 'I' for Inactive)
REMARK    1  A    between atoms: C5_5  and  S1_6 
REMARK    2  A    between atoms: S1_6  and  N1_9 
REMARK       I    between atoms: N1_9  and  C6_10 
REMARK    3  A    between atoms: C6_10  and  C7_12 
ROOT
HETATM    1  N1  UNL     1       0.937  -1.163   0.749  1.00  0.00    -0.246 N 
HETATM    2  C6  UNL     1       1.304  -0.100  -0.119  1.00  0.00     0.266 C 
HETATM    3  O3  UNL     1       0.359   0.500  -0.694  1.00  0.00    -0.267 OA
HETATM    4  H6  UNL     1       1.626  -1.738   1.284  1.00  0.00     0.182 HD
ENDROOT
BRANCH   1   5
HETATM    5  S1  UNL     1      -0.597  -1.787   1.161  1.00  0.00     0.263 S 
HETATM    6  O1  UNL     1      -0.833  -1.735   2.661  1.00  0.00    -0.200 OA
HETATM    7  O2  UNL     1      -0.683  -3.236   0.785  1.00  0.00    -0.200 OA
BRANCH   5   8
HETATM    8  C5  UNL     1      -1.901  -0.967   0.373  1.00  0.00     0.076 A 
HETATM    9  C4  UNL     1      -2.437  -1.281  -0.806  1.00  0.00     0.023 A 
HETATM   10  C3  UNL     1      -3.513  -0.348  -1.118  1.00  0.00     0.005 A 
HETATM   11  C2  UNL     1      -3.598   0.511  -0.111  1.00  0.00    -0.064 A 
HETATM   12  C1  UNL     1      -4.617   1.578  -0.169  1.00  0.00     0.045 C 
HETATM   13  C12 UNL     1      -2.596   0.229   0.949  1.00  0.00     0.132 A 
HETATM   14 BR1  UNL     1      -3.585  -0.314   2.516  1.00  0.00    -0.081 Br
ENDBRANCH   5   8
ENDBRANCH   1   5
BRANCH   2  15
HETATM   15  C7  UNL     1       2.711   0.232  -0.295  1.00  0.00     0.050 A 
HETATM   16  C8  UNL     1       3.794  -0.380   0.301  1.00  0.00     0.022 A 
HETATM   17  C9  UNL     1       5.082   0.043   0.041  1.00  0.00     0.045 A 
HETATM   18  C10 UNL     1       5.321   1.098  -0.830  1.00  0.00     0.125 A 
HETATM   19 CL1  UNL     1       6.971   1.616  -1.144  1.00  0.00    -0.062 Cl
HETATM   20  N2  UNL     1       4.259   1.699  -1.415  1.00  0.00    -0.248 NA
HETATM   21  C11 UNL     1       2.988   1.291  -1.165  1.00  0.00     0.135 A 
ENDBRANCH   2  15
TORSDOF 3
