REMARK  3 active torsions:
REMARK  status: ('A' for Active; 'I' for Inactive)
REMARK    1  A    between atoms: N1_1  and  C1_2 
REMARK    2  A    between atoms: N2_3  and  C2_4 
REMARK    3  A    between atoms: C8_10  and  N3_11 
ROOT
HETATM    1  C2  UNL     1      -1.058   1.568  -0.600  1.00  0.00     0.053 A 
HETATM    2  C3  UNL     1      -1.919   1.232   0.456  1.00  0.00     0.035 A 
HETATM    3  C4  UNL     1      -1.780  -0.041   0.951  1.00  0.00    -0.054 A 
HETATM    4  C5  UNL     1      -0.906  -1.038   0.565  1.00  0.00     0.016 A 
HETATM    5  C6  UNL     1      -0.445  -0.154  -0.363  1.00  0.00    -0.031 A 
HETATM    6  C7  UNL     1      -0.070   0.794  -1.232  1.00  0.00     0.077 A 
HETATM    7  C8  UNL     1       0.907  -0.272  -1.681  1.00  0.00     0.143 C 
HETATM    8  C14 UNL     1      -0.203  -1.161  -1.450  1.00  0.00    -0.028 C 
HETATM    9  C15 UNL     1      -1.046  -2.214  -1.811  1.00  0.00     0.009 C 
HETATM   10  C16 UNL     1      -2.096  -1.898  -0.865  1.00  0.00     0.195 C 
HETATM   11  O1  UNL     1      -2.499  -2.676   0.135  1.00  0.00    -0.387 OA
HETATM   12  C17 UNL     1      -3.330  -1.965   1.055  1.00  0.00     0.172 C 
HETATM   13  C18 UNL     1      -2.532  -0.900   1.845  1.00  0.00     0.065 C 
ENDROOT
BRANCH   7  14
HETATM   14  N3  UNL     1       2.020  -0.415  -0.812  1.00  0.00    -0.355 N 
HETATM   15  C9  UNL     1       2.927   0.685  -1.068  1.00  0.00     0.090 A 
HETATM   16  C10 UNL     1       4.086   0.817  -0.404  1.00  0.00     0.033 A 
HETATM   17  C11 UNL     1       4.571  -0.111   0.642  1.00  0.00     0.240 A 
HETATM   18  F1  UNL     1       4.789   0.526   1.846  1.00  0.00    -0.239 F 
HETATM   19  C12 UNL     1       3.585  -1.192   0.829  1.00  0.00     0.065 A 
HETATM   20 CL1  UNL     1       3.884  -2.458   2.013  1.00  0.00    -0.084 Cl
HETATM   21  C13 UNL     1       2.446  -1.333   0.184  1.00  0.00     0.114 A 
ENDBRANCH   7  14
BRANCH   1  22
HETATM   22  N2  UNL     1      -1.122   2.886  -1.194  1.00  0.00    -0.248 NA
HETATM   23  C1  UNL     1      -0.915   3.922  -0.461  1.00  0.00     0.200 C 
BRANCH  23  24
HETATM   24  N1  UNL     1      -0.608   4.144   0.916  1.00  0.00    -0.394 N 
HETATM   25  H1  UNL     1      -1.508   4.354   1.417  1.00  0.00     0.156 HD
HETATM   26  H2  UNL     1       0.423   4.043   1.089  1.00  0.00     0.156 HD
ENDBRANCH  23  24
ENDBRANCH   1  22
TORSDOF 3
