REMARK  8 active torsions:
REMARK  status: ('A' for Active; 'I' for Inactive)
REMARK    1  A    between atoms: C4_4  and  C5_5 
REMARK       I    between atoms: C5_5  and  N1_7 
REMARK    2  A    between atoms: N1_7  and  C6_8 
REMARK    3  A    between atoms: C6_8  and  C7_9 
REMARK    4  A    between atoms: C7_9  and  O2_10 
REMARK    5  A    between atoms: C7_9  and  C8_11 
REMARK    6  A    between atoms: C8_11  and  O3_12 
REMARK    7  A    between atoms: C10_14  and  C11_15 
REMARK    8  A    between atoms: C12_16  and  C13_17 
ROOT
HETATM    1  C1  UNL     1       1.381  -1.347  -1.456  1.00  0.00     0.049 C 
HETATM    2  C2  UNL     1       0.612  -0.312  -0.764  1.00  0.00    -0.043 C 
HETATM    3  C3  UNL     1      -0.540   0.254  -1.107  1.00  0.00    -0.002 C 
HETATM    4  C4  UNL     1      -1.293   0.437  -0.023  1.00  0.00     0.044 C 
HETATM    5  C9  UNL     1      -0.231   0.755   0.918  1.00  0.00     0.025 C 
HETATM    6  C10 UNL     1       0.985   0.322   0.526  1.00  0.00    -0.049 C 
ENDROOT
BRANCH   4   7
HETATM    7  C5  UNL     1      -2.706   0.373   0.277  1.00  0.00     0.252 C 
HETATM    8  O1  UNL     1      -3.021   0.619   1.460  1.00  0.00    -0.268 OA
HETATM    9  N1  UNL     1      -3.697   0.059  -0.668  1.00  0.00    -0.354 N 
HETATM   10  H4  UNL     1      -3.243  -0.130  -1.616  1.00  0.00     0.162 HD
BRANCH   9  11
HETATM   11  C6  UNL     1      -5.109  -0.050  -0.611  1.00  0.00     0.156 C 
BRANCH  11  12
HETATM   12  C7  UNL     1      -5.923   1.139  -0.310  1.00  0.00     0.159 C 
BRANCH  12  13
HETATM   13  O2  UNL     1      -5.811   2.201  -1.208  1.00  0.00    -0.392 OA
HETATM   14  H8  UNL     1      -6.392   2.148  -1.984  1.00  0.00     0.210 HD
ENDBRANCH  12  13
BRANCH  12  15
HETATM   15  C8  UNL     1      -5.788   1.700   1.059  1.00  0.00     0.197 C 
BRANCH  15  16
HETATM   16  O3  UNL     1      -6.896   2.579   1.224  1.00  0.00    -0.398 OA
HETATM   17  H11 UNL     1      -7.353   2.303   2.077  1.00  0.00     0.209 HD
ENDBRANCH  15  16
ENDBRANCH  12  15
ENDBRANCH  11  12
ENDBRANCH   9  11
ENDBRANCH   4   7
BRANCH   6  18
HETATM   18  C11 UNL     1       2.284   0.451   1.239  1.00  0.00     0.015 C 
HETATM   19  C12 UNL     1       3.240  -0.104   0.493  1.00  0.00     0.065 C 
BRANCH  19  20
HETATM   20  C13 UNL     1       4.656  -0.386   0.448  1.00  0.00    -0.052 A 
HETATM   21  C14 UNL     1       5.819  -0.272   1.202  1.00  0.00     0.009 A 
HETATM   22  C15 UNL     1       7.082  -0.642   0.817  1.00  0.00     0.024 A 
HETATM   23  C16 UNL     1       7.122  -1.166  -0.445  1.00  0.00     0.034 A 
HETATM   24 CL1  UNL     1       8.787  -1.609  -0.851  1.00  0.00    -0.084 Cl
HETATM   25  C17 UNL     1       6.067  -1.343  -1.309  1.00  0.00     0.024 A 
HETATM   26  C18 UNL     1       4.820  -0.933  -0.817  1.00  0.00     0.009 A 
ENDBRANCH  19  20
ENDBRANCH   6  18
TORSDOF 8
