REMARK  7 active torsions:
REMARK  status: ('A' for Active; 'I' for Inactive)
REMARK    1  A    between atoms: C2_2  and  C3_4 
REMARK    2  A    between atoms: C6_7  and  O2_8 
REMARK    3  A    between atoms: O2_8  and  P1_9 
REMARK    4  A    between atoms: P1_9  and  C7_10 
REMARK    5  A    between atoms: C7_10  and  C8_11 
REMARK    6  A    between atoms: C8_11  and  C9_12 
REMARK    7  A    between atoms: C9_12  and  O3_13 
ROOT
HETATM    1  C3  UNL     1      -2.255  -1.989  -0.349  1.00  0.00    -0.008 C 
HETATM    2  C4  UNL     1      -1.010  -2.386  -0.539  1.00  0.00     0.013 C 
HETATM    3  C5  UNL     1       0.278  -1.706  -0.442  1.00  0.00     0.033 C 
HETATM    4  C6  UNL     1       0.949  -0.581  -0.233  1.00  0.00     0.054 C 
HETATM    5  C10 UNL     1       0.501   0.800   0.009  1.00  0.00     0.092 C 
HETATM    6  C11 UNL     1       0.219   1.038   1.406  1.00  0.00    -0.019 C 
HETATM    7  C12 UNL     1      -1.064   1.431   1.507  1.00  0.00     0.008 C 
HETATM    8  C13 UNL     1      -1.970   1.568   0.321  1.00  0.00    -0.030 A 
HETATM    9  C14 UNL     1      -2.135   2.854  -0.203  1.00  0.00     0.013 A 
HETATM   10  C15 UNL     1      -2.921   3.171  -1.318  1.00  0.00     0.024 A 
HETATM   11  C16 UNL     1      -3.564   2.109  -1.914  1.00  0.00     0.034 A 
HETATM   12 CL1  UNL     1      -4.575   2.374  -3.316  1.00  0.00    -0.084 Cl
HETATM   13  C17 UNL     1      -3.418   0.834  -1.417  1.00  0.00     0.032 A 
HETATM   14  C18 UNL     1      -2.658   0.509  -0.333  1.00  0.00    -0.042 A 
HETATM   15  C19 UNL     1      -2.372  -0.727   0.361  1.00  0.00     0.082 C 
ENDROOT
BRANCH   4  16
HETATM   16  O2  UNL     1       2.364  -0.682  -0.271  1.00  0.00    -0.331 OA
BRANCH  16  17
HETATM   17  P1  UNL     1       3.257  -0.976   1.224  1.00  0.00     0.019 P 
HETATM   18  H6  UNL     1       3.051   0.066   2.191  1.00  0.00     0.088 HD
BRANCH  17  19
HETATM   19  C7  UNL     1       5.031  -1.246   0.815  1.00  0.00     0.063 C 
BRANCH  19  20
HETATM   20  C8  UNL     1       5.577  -0.204  -0.121  1.00  0.00     0.032 C 
BRANCH  20  21
HETATM   21  C9  UNL     1       5.482   1.190   0.454  1.00  0.00     0.164 C 
BRANCH  21  22
HETATM   22  O3  UNL     1       4.175   1.547   0.728  1.00  0.00    -0.401 OA
HETATM   23  H13 UNL     1       3.793   1.885  -0.108  1.00  0.00     0.209 HD
ENDBRANCH  21  22
ENDBRANCH  20  21
ENDBRANCH  19  20
ENDBRANCH  17  19
ENDBRANCH  16  17
ENDBRANCH   4  16
BRANCH   1  24
HETATM   24  C2  UNL     1      -3.469  -2.764  -0.506  1.00  0.00     0.152 C 
HETATM   25  C1  UNL     1      -4.836  -2.276  -0.279  1.00  0.00     0.096 C 
HETATM   26  O1  UNL     1      -3.446  -3.976  -0.867  1.00  0.00    -0.293 OA
ENDBRANCH   1  24
TORSDOF 7
