REMARK  9 active torsions:
REMARK  status: ('A' for Active; 'I' for Inactive)
REMARK    1  A    between atoms: O1_2  and  C2_3 
REMARK    2  A    between atoms: C5_6  and  C6_7 
REMARK       I    between atoms: C6_7  and  N1_9 
REMARK    3  A    between atoms: N1_9  and  C7_10 
REMARK    4  A    between atoms: C7_10  and  C8_11 
REMARK    5  A    between atoms: C8_11  and  O3_12 
REMARK    6  A    between atoms: C8_11  and  C9_13 
REMARK    7  A    between atoms: C9_13  and  O4_14 
REMARK    8  A    between atoms: P1_16  and  C11_17 
REMARK    9  A    between atoms: C12_18  and  C13_19 
ROOT
HETATM    1  C2  UNL     1      -0.493  -2.313   1.494  1.00  0.00     0.071 A 
HETATM    2  C3  UNL     1       0.651  -2.772   1.024  1.00  0.00     0.038 A 
HETATM    3  C4  UNL     1       1.669  -1.932   0.414  1.00  0.00     0.020 A 
HETATM    4  C5  UNL     1       1.572  -0.626   0.258  1.00  0.00     0.033 A 
HETATM    5  C10 UNL     1       0.403   0.122   0.693  1.00  0.00     0.026 A 
HETATM    6  P1  UNL     1      -0.870  -0.573   1.405  1.00  0.00    -0.053 P 
HETATM    7  H15 UNL     1      -0.997  -0.104   2.737  1.00  0.00     0.067 HD
ENDROOT
BRANCH   4   8
HETATM    8  C6  UNL     1       2.657   0.117  -0.370  1.00  0.00     0.251 C 
HETATM    9  O2  UNL     1       2.566   1.384  -0.522  1.00  0.00    -0.268 OA
HETATM   10  N1  UNL     1       3.867  -0.402  -0.861  1.00  0.00    -0.354 N 
HETATM   11  H6  UNL     1       3.986  -1.453  -0.757  1.00  0.00     0.162 HD
BRANCH  10  12
HETATM   12  C7  UNL     1       4.954   0.286  -1.478  1.00  0.00     0.156 C 
BRANCH  12  13
HETATM   13  C8  UNL     1       5.527   1.306  -0.521  1.00  0.00     0.159 C 
BRANCH  13  14
HETATM   14  O3  UNL     1       5.961   0.585   0.608  1.00  0.00    -0.392 OA
HETATM   15  H10 UNL     1       6.477  -0.197   0.290  1.00  0.00     0.210 HD
ENDBRANCH  13  14
BRANCH  13  16
HETATM   16  C9  UNL     1       6.701   2.002  -1.186  1.00  0.00     0.197 C 
BRANCH  16  17
HETATM   17  O4  UNL     1       6.198   2.691  -2.288  1.00  0.00    -0.398 OA
HETATM   18  H13 UNL     1       5.347   3.101  -1.988  1.00  0.00     0.209 HD
ENDBRANCH  16  17
ENDBRANCH  13  16
ENDBRANCH  12  13
ENDBRANCH  10  12
ENDBRANCH   4   8
BRANCH   6  19
HETATM   19  C11 UNL     1      -2.383  -0.248   0.536  1.00  0.00     0.011 C 
HETATM   20  C12 UNL     1      -3.252   0.721   0.839  1.00  0.00     0.012 C 
BRANCH  20  21
HETATM   21  C13 UNL     1      -4.512   1.035   0.161  1.00  0.00    -0.036 A 
HETATM   22  C14 UNL     1      -5.311   2.081   0.597  1.00  0.00     0.013 A 
HETATM   23  C15 UNL     1      -6.481   2.297  -0.110  1.00  0.00     0.024 A 
HETATM   24  C16 UNL     1      -6.882   1.544  -1.198  1.00  0.00     0.034 A 
HETATM   25 CL1  UNL     1      -8.363   1.838  -2.071  1.00  0.00    -0.084 Cl
HETATM   26  C17 UNL     1      -6.064   0.507  -1.610  1.00  0.00     0.024 A 
HETATM   27  C18 UNL     1      -4.879   0.261  -0.922  1.00  0.00     0.013 A 
ENDBRANCH  20  21
ENDBRANCH   6  19
BRANCH   1  28
HETATM   28  O1  UNL     1      -1.562  -2.917   2.092  1.00  0.00    -0.355 OA
HETATM   29  C1  UNL     1      -2.569  -3.663   1.461  1.00  0.00     0.210 C 
ENDBRANCH   1  28
TORSDOF 9
