REMARK  11 active torsions:
REMARK  status: ('A' for Active; 'I' for Inactive)
REMARK    1  A    between atoms: O1_2  and  C2_3 
REMARK    2  A    between atoms: C2_3  and  C3_4 
REMARK    3  A    between atoms: C2_3  and  C10_15 
REMARK    4  A    between atoms: C3_4  and  P1_5 
REMARK    5  A    between atoms: P1_5  and  C4_6 
REMARK    6  A    between atoms: C4_6  and  C5_7 
REMARK       I    between atoms: C5_7  and  N1_9 
REMARK    7  A    between atoms: N1_9  and  C6_10 
REMARK    8  A    between atoms: C6_10  and  C7_11 
REMARK    9  A    between atoms: C7_11  and  C9_13 
REMARK   10  A    between atoms: C9_13  and  O3_14 
REMARK   11  A    between atoms: C10_15  and  C11_16 
ROOT
HETATM    1  P1  UNL     1      -0.392  -0.419   2.706  1.00  0.00    -0.095 P 
HETATM    2  H5  UNL     1      -0.878  -1.247   3.796  1.00  0.00     0.062 HD
ENDROOT
BRANCH   1   3
HETATM    3  C3  UNL     1      -1.537  -0.405   1.285  1.00  0.00     0.036 C 
BRANCH   3   4
HETATM    4  C2  UNL     1      -2.355  -0.535   0.257  1.00  0.00     0.050 C 
BRANCH   4   5
HETATM    5  O1  UNL     1      -2.616  -1.811  -0.194  1.00  0.00    -0.360 OA
HETATM    6  C1  UNL     1      -2.088  -2.309  -1.413  1.00  0.00     0.209 C 
ENDBRANCH   4   5
BRANCH   4   7
HETATM    7  C10 UNL     1      -2.970   0.645  -0.390  1.00  0.00     0.103 C 
BRANCH   7   8
HETATM    8  C11 UNL     1      -4.470   0.576  -0.320  1.00  0.00    -0.052 A 
HETATM    9  C12 UNL     1      -5.227   1.092   0.705  1.00  0.00     0.009 A 
HETATM   10  C13 UNL     1      -6.600   0.994   0.706  1.00  0.00     0.024 A 
HETATM   11  C14 UNL     1      -7.220   0.352  -0.368  1.00  0.00     0.034 A 
HETATM   12 CL1  UNL     1      -8.955   0.154  -0.500  1.00  0.00    -0.084 Cl
HETATM   13  C15 UNL     1      -6.477  -0.173  -1.408  1.00  0.00     0.024 A 
HETATM   14  C16 UNL     1      -5.102  -0.066  -1.392  1.00  0.00     0.009 A 
ENDBRANCH   7   8
ENDBRANCH   4   7
ENDBRANCH   3   4
ENDBRANCH   1   3
BRANCH   1  15
HETATM   15  C4  UNL     1       1.269  -1.009   2.109  1.00  0.00     0.138 C 
BRANCH  15  16
HETATM   16  C5  UNL     1       1.889   0.089   1.336  1.00  0.00     0.221 C 
HETATM   17  O2  UNL     1       1.555   1.271   1.013  1.00  0.00    -0.273 OA
HETATM   18  N1  UNL     1       3.193  -0.194   0.790  1.00  0.00    -0.360 N 
HETATM   19  H8  UNL     1       3.652  -1.138   0.951  1.00  0.00     0.162 HD
BRANCH  18  20
HETATM   20  C6  UNL     1       3.842   0.865   0.019  1.00  0.00     0.128 C 
BRANCH  20  21
HETATM   21  C7  UNL     1       5.175   0.330  -0.436  1.00  0.00     0.023 C 
HETATM   22  C8  UNL     1       6.004  -0.035   0.750  1.00  0.00     0.014 C 
BRANCH  21  23
HETATM   23  C9  UNL     1       5.885   1.288  -1.363  1.00  0.00     0.170 C 
BRANCH  23  24
HETATM   24  O3  UNL     1       7.113   0.822  -1.798  1.00  0.00    -0.400 OA
HETATM   25  H17 UNL     1       7.822   1.065  -1.178  1.00  0.00     0.209 HD
ENDBRANCH  23  24
ENDBRANCH  21  23
ENDBRANCH  20  21
ENDBRANCH  18  20
ENDBRANCH  15  16
ENDBRANCH   1  15
TORSDOF 11
