REMARK  9 active torsions:
REMARK  status: ('A' for Active; 'I' for Inactive)
REMARK    1  A    between atoms: O1_2  and  C2_3 
REMARK    2  A    between atoms: C5_6  and  C6_7 
REMARK       I    between atoms: C6_7  and  N1_9 
REMARK    3  A    between atoms: N1_9  and  C7_10 
REMARK    4  A    between atoms: C7_10  and  C8_11 
REMARK    5  A    between atoms: C8_11  and  O3_12 
REMARK    6  A    between atoms: C8_11  and  C9_13 
REMARK    7  A    between atoms: C9_13  and  O4_14 
REMARK    8  A    between atoms: O4_14  and  C10_15 
REMARK    9  A    between atoms: C11_16  and  C12_17 
ROOT
HETATM    1  C8  UNL     1       0.033  -0.431  -0.956  1.00  0.00     0.160 C 
ENDROOT
BRANCH   1   2
HETATM    2  C7  UNL     1      -0.487   0.663  -0.093  1.00  0.00     0.156 C 
BRANCH   2   3
HETATM    3  N1  UNL     1      -1.907   0.547   0.072  1.00  0.00    -0.354 N 
HETATM    4  C6  UNL     1      -3.027   0.584  -0.788  1.00  0.00     0.251 C 
HETATM    5  O2  UNL     1      -2.734   0.769  -2.008  1.00  0.00    -0.268 OA
HETATM    6  H6  UNL     1      -2.240   0.395   1.074  1.00  0.00     0.162 HD
BRANCH   4   7
HETATM    7  C5  UNL     1      -4.417   0.431  -0.382  1.00  0.00     0.033 A 
HETATM    8  C4  UNL     1      -4.865   0.225   0.905  1.00  0.00     0.020 A 
HETATM    9  C3  UNL     1      -6.147   0.074   1.356  1.00  0.00     0.039 A 
HETATM   10  C2  UNL     1      -7.338   0.088   0.631  1.00  0.00     0.080 A 
HETATM   11  P1  UNL     1      -7.059   0.340  -1.085  1.00  0.00     0.005 P 
HETATM   12  C18 UNL     1      -5.364   0.504  -1.415  1.00  0.00     0.035 A 
BRANCH  10  13
HETATM   13  O1  UNL     1      -8.588  -0.078   1.209  1.00  0.00    -0.355 OA
HETATM   14  C1  UNL     1      -8.679  -0.275   2.625  1.00  0.00     0.210 C 
ENDBRANCH  10  13
ENDBRANCH   4   7
ENDBRANCH   2   3
ENDBRANCH   1   2
BRANCH   1  15
HETATM   15  O3  UNL     1      -0.503  -0.416  -2.208  1.00  0.00    -0.392 OA
HETATM   16  H10 UNL     1      -0.163  -1.198  -2.707  1.00  0.00     0.210 HD
ENDBRANCH   1  15
BRANCH   1  17
HETATM   17  C9  UNL     1       1.548  -0.416  -1.072  1.00  0.00     0.207 C 
BRANCH  17  18
HETATM   18  O4  UNL     1       2.181  -0.431   0.173  1.00  0.00    -0.360 OA
BRANCH  18  19
HETATM   19  C10 UNL     1       3.568  -0.419   0.228  1.00  0.00     0.135 C 
HETATM   20  C11 UNL     1       4.487  -0.250  -0.709  1.00  0.00     0.035 C 
BRANCH  20  21
HETATM   21  C12 UNL     1       5.920  -0.273  -0.443  1.00  0.00    -0.034 A 
HETATM   22  C13 UNL     1       6.747  -0.080  -1.530  1.00  0.00     0.013 A 
HETATM   23  C14 UNL     1       8.104  -0.102  -1.278  1.00  0.00     0.024 A 
HETATM   24  C15 UNL     1       8.581  -0.309   0.008  1.00  0.00     0.034 A 
HETATM   25 CL1  UNL     1      10.289  -0.347   0.387  1.00  0.00    -0.084 Cl
HETATM   26  C16 UNL     1       7.691  -0.497   1.054  1.00  0.00     0.024 A 
HETATM   27  C17 UNL     1       6.314  -0.485   0.861  1.00  0.00     0.013 A 
ENDBRANCH  20  21
ENDBRANCH  18  19
ENDBRANCH  17  18
ENDBRANCH   1  17
TORSDOF 9
