REMARK  8 active torsions:
REMARK  status: ('A' for Active; 'I' for Inactive)
REMARK    1  A    between atoms: O1_2  and  C2_3 
REMARK    2  A    between atoms: C5_6  and  C6_7 
REMARK       I    between atoms: C6_7  and  N1_9 
REMARK    3  A    between atoms: N1_9  and  C7_10 
REMARK    4  A    between atoms: C7_10  and  C8_11 
REMARK    5  A    between atoms: C8_11  and  C9_12 
REMARK    6  A    between atoms: C9_12  and  O3_13 
REMARK    7  A    between atoms: S1_15  and  C11_16 
REMARK    8  A    between atoms: C12_17  and  C13_18 
ROOT
HETATM    1  C2  UNL     1      -1.089  -2.188   0.015  1.00  0.00     0.103 A 
HETATM    2  C3  UNL     1       0.167  -2.620   0.217  1.00  0.00     0.045 A 
HETATM    3  C4  UNL     1       1.417  -1.909  -0.020  1.00  0.00     0.021 A 
HETATM    4  C5  UNL     1       1.634  -0.698  -0.478  1.00  0.00     0.038 A 
HETATM    5  C10 UNL     1       0.439   0.103  -0.821  1.00  0.00     0.062 A 
HETATM    6  S1  UNL     1      -1.072  -0.486  -0.639  1.00  0.00    -0.115 SA
ENDROOT
BRANCH   4   7
HETATM    7  C6  UNL     1       2.921  -0.051  -0.689  1.00  0.00     0.252 C 
HETATM    8  O2  UNL     1       2.952   1.136  -1.144  1.00  0.00    -0.268 OA
HETATM    9  N1  UNL     1       4.190  -0.588  -0.446  1.00  0.00    -0.357 N 
HETATM   10  H6  UNL     1       4.042  -1.587  -0.082  1.00  0.00     0.162 HD
BRANCH   9  11
HETATM   11  C7  UNL     1       5.551  -0.181  -0.545  1.00  0.00     0.125 C 
BRANCH  11  12
HETATM   12  C8  UNL     1       6.061   0.910   0.300  1.00  0.00     0.046 C 
BRANCH  12  13
HETATM   13  C9  UNL     1       5.453   2.256   0.233  1.00  0.00     0.165 C 
BRANCH  13  14
HETATM   14  O3  UNL     1       6.220   3.075   1.128  1.00  0.00    -0.401 OA
HETATM   15  H13 UNL     1       5.835   2.954   2.036  1.00  0.00     0.209 HD
ENDBRANCH  13  14
ENDBRANCH  12  13
ENDBRANCH  11  12
ENDBRANCH   9  11
ENDBRANCH   4   7
BRANCH   6  16
HETATM   16  C11 UNL     1      -2.536   0.537  -0.577  1.00  0.00     0.046 C 
HETATM   17  C12 UNL     1      -3.634   0.099   0.016  1.00  0.00     0.014 C 
BRANCH  17  18
HETATM   18  C13 UNL     1      -4.843   0.928   0.074  1.00  0.00    -0.053 A 
HETATM   19  C14 UNL     1      -5.993   0.609   0.632  1.00  0.00     0.009 A 
HETATM   20  C15 UNL     1      -6.953   1.702   0.480  1.00  0.00     0.020 A 
HETATM   21  C16 UNL     1      -6.346   2.678  -0.182  1.00  0.00     0.016 A 
HETATM   22 CL1  UNL     1      -7.144   4.195  -0.584  1.00  0.00    -0.089 Cl
HETATM   23  C17 UNL     1      -4.960   2.292  -0.504  1.00  0.00     0.089 A 
ENDBRANCH  17  18
ENDBRANCH   6  16
BRANCH   1  24
HETATM   24  O1  UNL     1      -2.293  -2.836   0.228  1.00  0.00    -0.349 OA
HETATM   25  C1  UNL     1      -2.250  -4.238   0.423  1.00  0.00     0.211 C 
ENDBRANCH   1  24
TORSDOF 8
