REMARK  2 active torsions:
REMARK  status: ('A' for Active; 'I' for Inactive)
REMARK    1  A    between atoms: C2_2  and  C3_3 
REMARK    2  A    between atoms: C15_19  and  C16_20 
ROOT
HETATM    1  C3  UNL     1       1.147   0.984   0.751  1.00  0.00     0.215 C 
HETATM    2  O1  UNL     1      -0.191   1.131   0.915  1.00  0.00    -0.227 OA
HETATM    3  O2  UNL     1      -0.874   1.789   0.142  1.00  0.00    -0.238 OA
HETATM    4  C4  UNL     1      -0.510   2.396  -1.000  1.00  0.00     0.229 C 
HETATM    5  C5  UNL     1      -1.603   2.349  -2.064  1.00  0.00     0.151 C 
HETATM    6  N1  UNL     1      -1.938   1.006  -2.479  1.00  0.00    -0.359 N 
HETATM    7  C6  UNL     1      -2.384  -0.301  -2.218  1.00  0.00     0.221 C 
HETATM    8  O3  UNL     1      -2.430   0.218  -1.083  1.00  0.00    -0.273 OA
HETATM    9  C7  UNL     1      -2.876  -1.455  -1.466  1.00  0.00     0.129 C 
HETATM   10  C8  UNL     1      -3.048  -1.144   0.008  1.00  0.00    -0.022 C 
HETATM   11  C9  UNL     1      -2.580  -1.543   1.167  1.00  0.00    -0.030 C 
HETATM   12  C10 UNL     1      -2.091  -1.950   2.511  1.00  0.00     0.030 C 
HETATM   13  C11 UNL     1      -0.612  -1.675   2.684  1.00  0.00     0.031 C 
HETATM   14  C12 UNL     1       0.200  -2.294   1.636  1.00  0.00    -0.026 C 
HETATM   15  C13 UNL     1       0.967  -1.687   0.768  1.00  0.00     0.006 C 
HETATM   16  C14 UNL     1       1.460  -0.439   0.290  1.00  0.00    -0.023 C 
HETATM   17  C15 UNL     1       2.317  -0.549  -0.731  1.00  0.00     0.011 C 
HETATM   18  H9  UNL     1      -1.870   0.660  -3.488  1.00  0.00     0.162 HD
ENDROOT
BRANCH   1  19
HETATM   19  C2  UNL     1       1.753   1.131   2.136  1.00  0.00     0.002 C 
HETATM   20  C1  UNL     1       2.953   1.731   2.110  1.00  0.00     0.010 C 
ENDBRANCH   1  19
BRANCH  17  21
HETATM   21  C16 UNL     1       3.080   0.247  -1.592  1.00  0.00     0.012 C 
HETATM   22  C17 UNL     1       3.927   0.310  -2.587  1.00  0.00     0.084 C 
HETATM   23 CL1  UNL     1       4.584   1.752  -3.292  1.00  0.00    -0.097 Cl
ENDBRANCH  17  21
TORSDOF 2
