REMARK  6 active torsions:
REMARK  status: ('A' for Active; 'I' for Inactive)
REMARK       I    between atoms: C1_2  and  N1_3 
REMARK    1  A    between atoms: C1_2  and  C5_9 
REMARK    2  A    between atoms: N1_3  and  C2_4 
REMARK    3  A    between atoms: C2_4  and  C3_5 
REMARK    4  A    between atoms: C3_5  and  O2_6 
REMARK    5  A    between atoms: C3_5  and  C4_7 
REMARK    6  A    between atoms: C4_7  and  O3_8 
ROOT
HETATM    1  C5  UNL     1      -0.527  -0.224   0.854  1.00  0.00     0.013 C 
HETATM    2  C6  UNL     1      -0.085  -1.257   1.551  1.00  0.00     0.013 C 
HETATM    3  C7  UNL     1       1.246  -1.882   1.648  1.00  0.00    -0.003 C 
HETATM    4  C8  UNL     1       2.479  -1.473   1.472  1.00  0.00    -0.017 C 
HETATM    5  C9  UNL     1       3.169  -0.186   1.513  1.00  0.00     0.046 C 
HETATM    6  C10 UNL     1       2.237   0.991   1.621  1.00  0.00     0.048 C 
HETATM    7  C11 UNL     1       1.439   1.047   0.367  1.00  0.00    -0.074 C 
HETATM    8  C12 UNL     1       2.031   1.190  -0.802  1.00  0.00     0.015 C 
HETATM    9  C13 UNL     1       3.379   0.593  -0.889  1.00  0.00    -0.029 A 
HETATM   10  C14 UNL     1       4.016   0.737  -2.101  1.00  0.00     0.013 A 
HETATM   11  C15 UNL     1       5.284   0.197  -2.230  1.00  0.00     0.024 A 
HETATM   12  C16 UNL     1       5.822  -0.451  -1.128  1.00  0.00     0.034 A 
HETATM   13 CL1  UNL     1       7.434  -1.157  -1.237  1.00  0.00    -0.084 Cl
HETATM   14  C17 UNL     1       5.152  -0.583   0.092  1.00  0.00     0.032 A 
HETATM   15  C18 UNL     1       3.895  -0.047   0.218  1.00  0.00    -0.038 A 
HETATM   16  C19 UNL     1      -0.023   0.966   0.124  1.00  0.00     0.078 C 
ENDROOT
BRANCH   1  17
HETATM   17  C1  UNL     1      -1.983  -0.249   0.765  1.00  0.00     0.247 C 
HETATM   18  O1  UNL     1      -2.574  -1.212   1.345  1.00  0.00    -0.268 OA
HETATM   19  N1  UNL     1      -2.793   0.682   0.103  1.00  0.00    -0.355 N 
HETATM   20  H1  UNL     1      -2.175   1.432  -0.336  1.00  0.00     0.162 HD
BRANCH  19  21
HETATM   21  C2  UNL     1      -4.214   0.785  -0.072  1.00  0.00     0.156 C 
BRANCH  21  22
HETATM   22  C3  UNL     1      -4.849  -0.358  -0.798  1.00  0.00     0.159 C 
BRANCH  22  23
HETATM   23  O2  UNL     1      -4.651  -1.535  -0.127  1.00  0.00    -0.392 OA
HETATM   24  H5  UNL     1      -5.429  -1.766   0.433  1.00  0.00     0.210 HD
ENDBRANCH  22  23
BRANCH  22  25
HETATM   25  C4  UNL     1      -6.345  -0.166  -0.961  1.00  0.00     0.197 C 
BRANCH  25  26
HETATM   26  O3  UNL     1      -6.631   1.012  -1.635  1.00  0.00    -0.398 OA
HETATM   27  H8  UNL     1      -5.912   1.107  -2.319  1.00  0.00     0.209 HD
ENDBRANCH  25  26
ENDBRANCH  22  25
ENDBRANCH  21  22
ENDBRANCH  19  21
ENDBRANCH   1  17
TORSDOF 6
