REMARK  8 active torsions:
REMARK  status: ('A' for Active; 'I' for Inactive)
REMARK       I    between atoms: C1_2  and  N1_3 
REMARK    1  A    between atoms: C1_2  and  C5_9 
REMARK    2  A    between atoms: N1_3  and  C2_4 
REMARK    3  A    between atoms: C2_4  and  C3_5 
REMARK    4  A    between atoms: C3_5  and  O2_6 
REMARK    5  A    between atoms: C3_5  and  C4_7 
REMARK    6  A    between atoms: C4_7  and  O3_8 
REMARK    7  A    between atoms: C8_13  and  C9_14 
REMARK    8  A    between atoms: C10_15  and  C11_16 
ROOT
HETATM    1  C5  UNL     1      -1.179   0.485  -1.051  1.00  0.00     0.047 C 
HETATM    2  C6  UNL     1      -1.111   1.746  -1.410  1.00  0.00     0.015 C 
HETATM    3  C7  UNL     1      -0.213   2.510  -0.812  1.00  0.00     0.155 C 
HETATM    4  O4  UNL     1       1.052   1.963  -0.530  1.00  0.00    -0.322 OA
HETATM    5  C8  UNL     1       1.156   0.562  -0.519  1.00  0.00     0.075 C 
HETATM    6  C17 UNL     1       0.088  -0.178  -0.768  1.00  0.00     0.055 C 
ENDROOT
BRANCH   1   7
HETATM    7  C1  UNL     1      -2.451  -0.221  -0.938  1.00  0.00     0.252 C 
HETATM    8  O1  UNL     1      -2.402  -1.428  -0.586  1.00  0.00    -0.268 OA
HETATM    9  N1  UNL     1      -3.644   0.511  -1.234  1.00  0.00    -0.354 N 
HETATM   10  H1  UNL     1      -3.579   1.514  -1.519  1.00  0.00     0.162 HD
BRANCH   9  11
HETATM   11  C2  UNL     1      -4.924  -0.156  -1.134  1.00  0.00     0.156 C 
BRANCH  11  12
HETATM   12  C3  UNL     1      -5.170  -0.667   0.271  1.00  0.00     0.159 C 
BRANCH  12  13
HETATM   13  O2  UNL     1      -5.151   0.434   1.154  1.00  0.00    -0.392 OA
HETATM   14  H5  UNL     1      -4.785   0.205   2.024  1.00  0.00     0.210 HD
ENDBRANCH  12  13
BRANCH  12  15
HETATM   15  C4  UNL     1      -6.537  -1.283   0.394  1.00  0.00     0.197 C 
BRANCH  15  16
HETATM   16  O3  UNL     1      -6.710  -1.680   1.717  1.00  0.00    -0.398 OA
HETATM   17  H8  UNL     1      -7.547  -1.380   2.129  1.00  0.00     0.209 HD
ENDBRANCH  15  16
ENDBRANCH  12  15
ENDBRANCH  11  12
ENDBRANCH   9  11
ENDBRANCH   1   7
BRANCH   5  18
HETATM   18  C9  UNL     1       2.446  -0.040  -0.231  1.00  0.00     0.038 C 
HETATM   19  C10 UNL     1       3.523   0.683   0.020  1.00  0.00     0.014 C 
BRANCH  19  20
HETATM   20  C11 UNL     1       4.851   0.170   0.318  1.00  0.00    -0.036 A 
HETATM   21  C12 UNL     1       5.927   0.995   0.570  1.00  0.00     0.013 A 
HETATM   22  C13 UNL     1       7.176   0.480   0.849  1.00  0.00     0.024 A 
HETATM   23  C14 UNL     1       7.416  -0.878   0.891  1.00  0.00     0.034 A 
HETATM   24 CL1  UNL     1       9.010  -1.505   1.248  1.00  0.00    -0.084 Cl
HETATM   25  C15 UNL     1       6.357  -1.723   0.643  1.00  0.00     0.024 A 
HETATM   26  C16 UNL     1       5.110  -1.181   0.364  1.00  0.00     0.013 A 
ENDBRANCH  19  20
ENDBRANCH   5  18
TORSDOF 8
