REMARK  6 active torsions:
REMARK  status: ('A' for Active; 'I' for Inactive)
REMARK    1  A    between atoms: O1_2  and  C2_3 
REMARK    2  A    between atoms: C6_9  and  C7_10 
REMARK    3  A    between atoms: C7_10  and  O2_11 
REMARK    4  A    between atoms: C7_10  and  O3_12 
REMARK    5  A    between atoms: C8_13  and  N2_14 
REMARK    6  A    between atoms: N2_14  and  C9_15 
ROOT
HETATM    1  C2  UNL     1      -2.354  -1.163   0.836  1.00  0.00     0.060 A 
HETATM    2  C3  UNL     1      -1.139  -0.635   0.845  1.00  0.00    -0.031 A 
HETATM    3  B1  UNL     1      -0.862   0.670   0.080  1.00  0.00     0.294 B 
HETATM    4  C4  UNL     1      -2.122   1.270  -0.674  1.00  0.00    -0.000 A 
HETATM    5  N1  UNL     1      -2.126   2.339  -1.367  1.00  0.00    -0.277 NA
HETATM    6  C5  UNL     1      -0.892   3.039  -1.464  1.00  0.00     0.124 A 
HETATM    7  C6  UNL     1       0.250   2.641  -0.884  1.00  0.00     0.006 A 
HETATM    8  C8  UNL     1       0.494   1.427  -0.064  1.00  0.00     0.088 A 
HETATM    9  C15 UNL     1      -3.380   0.512  -0.547  1.00  0.00     0.024 A 
HETATM   10  C16 UNL     1      -3.509  -0.607   0.141  1.00  0.00    -0.029 A 
HETATM   11  C17 UNL     1      -4.814  -1.311   0.219  1.00  0.00     0.051 C 
ENDROOT
BRANCH   8  12
HETATM   12  N2  UNL     1       1.585   0.623  -0.550  1.00  0.00    -0.389 N 
HETATM   13  H10 UNL     1       1.726   0.784  -1.586  1.00  0.00     0.159 HD
BRANCH  12  14
HETATM   14  C9  UNL     1       2.450  -0.311   0.067  1.00  0.00     0.029 A 
HETATM   15  C10 UNL     1       2.464  -0.657   1.398  1.00  0.00     0.029 A 
HETATM   16  C11 UNL     1       3.295  -1.567   2.010  1.00  0.00     0.004 A 
HETATM   17  C12 UNL     1       4.196  -2.185   1.200  1.00  0.00     0.024 A 
HETATM   18  C13 UNL     1       4.240  -1.889  -0.140  1.00  0.00     0.036 A 
HETATM   19 CL1  UNL     1       5.410  -2.691  -1.196  1.00  0.00    -0.084 Cl
HETATM   20  C14 UNL     1       3.385  -0.971  -0.699  1.00  0.00     0.052 A 
ENDBRANCH  12  14
ENDBRANCH   8  12
BRANCH   7  21
HETATM   21  C7  UNL     1       1.421   3.529  -1.114  1.00  0.00     0.287 C 
BRANCH  21  22
HETATM   22  O2  UNL     1       1.075   4.653  -1.882  1.00  0.00    -0.367 OA
HETATM   23  H7  UNL     1       0.584   5.318  -1.339  1.00  0.00     0.213 HD
ENDBRANCH  21  22
BRANCH  21  24
HETATM   24  O3  UNL     1       2.525   2.914  -1.637  1.00  0.00    -0.367 OA
HETATM   25  H8  UNL     1       3.134   2.614  -0.930  1.00  0.00     0.213 HD
ENDBRANCH  21  24
ENDBRANCH   7  21
BRANCH   1  26
HETATM   26  O1  UNL     1      -2.509  -2.355   1.563  1.00  0.00    -0.357 OA
HETATM   27  C1  UNL     1      -2.376  -3.625   0.917  1.00  0.00     0.210 C 
ENDBRANCH   1  26
TORSDOF 6
