REMARK  4 active torsions:
REMARK  status: ('A' for Active; 'I' for Inactive)
REMARK    1  A    between atoms: C7_8  and  N2_9 
REMARK    2  A    between atoms: C8_10  and  N3_11 
REMARK    3  A    between atoms: C9_12  and  N4_13 
REMARK    4  A    between atoms: N4_13  and  C10_14 
ROOT
HETATM    1  N3  UNL     1      -1.102  -0.606   0.128  1.00  0.00    -0.237 NA
HETATM    2  C9  UNL     1      -1.380  -1.816  -0.178  1.00  0.00     0.208 C 
ENDROOT
BRANCH   1   3
HETATM    3  C8  UNL     1       0.237  -0.170   0.168  1.00  0.00     0.234 C 
HETATM    4  N2  UNL     1       1.152  -0.225  -0.743  1.00  0.00    -0.242 NA
BRANCH   4   5
HETATM    5  C7  UNL     1       2.432   0.299  -0.414  1.00  0.00     0.062 C 
HETATM    6  C2  UNL     1       3.430  -0.510   0.321  1.00  0.00    -0.049 C 
HETATM    7  C1  UNL     1       2.761  -1.612   0.582  1.00  0.00     0.041 C 
HETATM    8  C3  UNL     1       4.777   0.018   0.581  1.00  0.00     0.058 C 
HETATM    9  C4  UNL     1       5.340   0.678  -0.663  1.00  0.00     0.152 C 
HETATM   10  N1  UNL     1       4.886   2.084  -0.641  1.00  0.00    -0.301 NA
HETATM   11  C5  UNL     1       3.644   2.435  -0.742  1.00  0.00     0.112 C 
HETATM   12  C6  UNL     1       2.474   1.559  -0.889  1.00  0.00     0.050 C 
ENDBRANCH   4   5
ENDBRANCH   1   3
BRANCH   2  13
HETATM   13  N4  UNL     1      -2.808  -1.973  -0.138  1.00  0.00    -0.351 N 
HETATM   14  H11 UNL     1      -3.403  -2.856  -0.086  1.00  0.00     0.166 HD
BRANCH  13  15
HETATM   15  C10 UNL     1      -3.788  -0.910  -0.145  1.00  0.00     0.034 A 
HETATM   16  C11 UNL     1      -3.586   0.186   0.643  1.00  0.00     0.032 A 
HETATM   17  C12 UNL     1      -4.443   1.283   0.692  1.00  0.00     0.046 A 
HETATM   18  C13 UNL     1      -5.564   1.242  -0.116  1.00  0.00     0.138 A 
HETATM   19  F1  UNL     1      -6.486   2.217  -0.189  1.00  0.00    -0.204 F 
HETATM   20  C14 UNL     1      -5.803   0.160  -0.917  1.00  0.00     0.074 A 
HETATM   21 CL1  UNL     1      -7.197   0.007  -1.980  1.00  0.00    -0.081 Cl
HETATM   22  C15 UNL     1      -4.938  -0.918  -0.948  1.00  0.00     0.056 A 
ENDBRANCH  13  15
ENDBRANCH   2  13
TORSDOF 4
