REMARK  6 active torsions:
REMARK  status: ('A' for Active; 'I' for Inactive)
REMARK    1  A    between atoms: O1_2  and  C2_3 
REMARK    2  A    between atoms: C6_8  and  C7_9 
REMARK    3  A    between atoms: C7_9  and  O2_10 
REMARK    4  A    between atoms: C8_11  and  N2_12 
REMARK    5  A    between atoms: N2_12  and  C9_13 
REMARK    6  A    between atoms: C17_22  and  O3_23 
ROOT
HETATM    1  C2  UNL     1      -3.201   0.133  -0.584  1.00  0.00     0.103 A 
HETATM    2  C3  UNL     1      -2.647  -0.902  -1.310  1.00  0.00     0.072 A 
HETATM    3  C4  UNL     1      -1.370  -1.399  -1.081  1.00  0.00     0.071 A 
HETATM    4  N1  UNL     1      -0.885  -2.421  -1.834  1.00  0.00    -0.260 NA
HETATM    5  C5  UNL     1       0.358  -2.904  -1.610  1.00  0.00     0.129 A 
HETATM    6  C6  UNL     1       1.107  -2.329  -0.603  1.00  0.00     0.010 A 
HETATM    7  C8  UNL     1       0.644  -1.290   0.180  1.00  0.00     0.055 A 
HETATM    8  C15 UNL     1      -0.631  -0.815  -0.069  1.00  0.00     0.023 A 
HETATM    9  C16 UNL     1      -1.172   0.223   0.667  1.00  0.00     0.055 A 
HETATM   10  C17 UNL     1      -2.445   0.701   0.421  1.00  0.00     0.102 A 
ENDROOT
BRANCH   7  11
HETATM   11  N2  UNL     1       1.347  -0.655   1.222  1.00  0.00    -0.355 N 
HETATM   12  H9  UNL     1       1.391  -0.873   2.257  1.00  0.00     0.166 HD
BRANCH  11  13
HETATM   13  C9  UNL     1       2.130   0.475   0.797  1.00  0.00     0.034 A 
HETATM   14  C10 UNL     1       2.159   0.864  -0.519  1.00  0.00     0.029 A 
HETATM   15  C11 UNL     1       2.911   1.959  -0.960  1.00  0.00     0.004 A 
HETATM   16  C12 UNL     1       3.654   2.680  -0.053  1.00  0.00     0.024 A 
HETATM   17  C13 UNL     1       3.638   2.307   1.272  1.00  0.00     0.036 A 
HETATM   18 CL1  UNL     1       4.599   3.251   2.405  1.00  0.00    -0.084 Cl
HETATM   19  C14 UNL     1       2.889   1.230   1.660  1.00  0.00     0.053 A 
ENDBRANCH  11  13
ENDBRANCH   7  11
BRANCH   6  20
HETATM   20  C7  UNL     1       2.479  -2.827  -0.320  1.00  0.00     0.206 C 
BRANCH  20  21
HETATM   21  O2  UNL     1       3.053  -2.127   0.714  1.00  0.00    -0.396 OA
HETATM   22  H8  UNL     1       3.359  -2.697   1.466  1.00  0.00     0.209 HD
ENDBRANCH  20  21
ENDBRANCH   6  20
BRANCH  10  23
HETATM   23  O3  UNL     1      -3.028   1.741   1.136  1.00  0.00    -0.353 OA
HETATM   24  C18 UNL     1      -2.360   2.395   2.177  1.00  0.00     0.210 C 
ENDBRANCH  10  23
BRANCH   1  25
HETATM   25  O1  UNL     1      -4.503   0.587  -0.870  1.00  0.00    -0.353 OA
HETATM   26  C1  UNL     1      -5.162  -0.102  -1.941  1.00  0.00     0.210 C 
ENDBRANCH   1  25
TORSDOF 6
