REMARK  5 active torsions:
REMARK  status: ('A' for Active; 'I' for Inactive)
REMARK    1  A    between atoms: N1_1  and  C1_2 
REMARK    2  A    between atoms: C6_9  and  N3_10 
REMARK    3  A    between atoms: C6_9  and  C13_19 
REMARK    4  A    between atoms: N3_10  and  C7_11 
REMARK    5  A    between atoms: C7_11  and  C8_12 
ROOT
HETATM    1  C1  UNL     1      -3.295   1.040   0.231  1.00  0.00     0.002 A 
HETATM    2  C2  UNL     1      -4.423   0.567   0.892  1.00  0.00     0.020 A 
HETATM    3  C3  UNL     1      -4.260  -0.733   1.465  1.00  0.00    -0.010 A 
HETATM    4  C4  UNL     1      -3.664  -1.901   1.807  1.00  0.00     0.015 A 
HETATM    5  C5  UNL     1      -2.897  -2.150   1.700  1.00  0.00    -0.086 A 
HETATM    6  B1  UNL     1      -1.676  -2.519   1.515  1.00  0.00     0.369 B 
HETATM    7  N2  UNL     1      -0.350  -2.881   1.291  1.00  0.00    -0.268 NA
HETATM    8  C6  UNL     1      -0.766  -1.133   0.411  1.00  0.00     0.092 A 
HETATM    9  C13 UNL     1      -2.302  -1.143   0.917  1.00  0.00     0.033 A 
HETATM   10  C14 UNL     1      -2.174   0.212   0.207  1.00  0.00     0.006 A 
ENDROOT
BRANCH   8  11
HETATM   11  N3  UNL     1       0.479  -1.299   0.084  1.00  0.00    -0.402 N 
HETATM   12  H5  UNL     1       1.358  -1.332  -0.188  1.00  0.00     0.154 HD
BRANCH  11  13
HETATM   13  C7  UNL     1       0.689  -0.029  -0.591  1.00  0.00     0.150 C 
BRANCH  13  14
HETATM   14  C8  UNL     1       2.089   0.357  -0.843  1.00  0.00    -0.057 C 
HETATM   15  C9  UNL     1       2.512   1.508  -0.405  1.00  0.00     0.031 C 
HETATM   16  P1  UNL     1       4.248   1.900  -0.774  1.00  0.00     0.030 P 
HETATM   17 CL1  UNL     1       4.949   3.242   0.732  1.00  0.00    -0.087 Cl
HETATM   18  C10 UNL     1       5.165   0.305  -0.513  1.00  0.00     0.023 C 
HETATM   19  C11 UNL     1       4.358  -0.649  -0.981  1.00  0.00    -0.020 C 
HETATM   20  C12 UNL     1       2.983  -0.591  -1.592  1.00  0.00     0.063 C 
ENDBRANCH  13  14
ENDBRANCH  11  13
ENDBRANCH   8  11
BRANCH   1  21
HETATM   21  N1  UNL     1      -3.531   2.306  -0.274  1.00  0.00    -0.303 NA
HETATM   22  H1  UNL     1      -3.229   2.043  -1.281  1.00  0.00     0.124 HD
HETATM   23  H2  UNL     1      -3.246   2.078  -1.246  1.00  0.00     0.124 HD
ENDBRANCH   1  21
TORSDOF 5
