REMARK  3 active torsions:
REMARK  status: ('A' for Active; 'I' for Inactive)
REMARK    1  A    between atoms: N1_1  and  C1_2 
REMARK    2  A    between atoms: C6_9  and  N4_10 
REMARK    3  A    between atoms: N4_10  and  C7_11 
ROOT
HETATM    1  C1  UNL     1      -3.222   1.178  -0.779  1.00  0.00     0.026 A 
HETATM    2  C2  UNL     1      -3.759   0.124  -1.527  1.00  0.00     0.031 A 
HETATM    3  C3  UNL     1      -3.180  -1.132  -1.558  1.00  0.00     0.035 A 
HETATM    4  C4  UNL     1      -2.033  -1.388  -0.837  1.00  0.00     0.072 A 
HETATM    5  N2  UNL     1      -1.477  -2.604  -0.870  1.00  0.00    -0.241 NA
HETATM    6  C5  UNL     1      -0.349  -2.845  -0.158  1.00  0.00     0.236 A 
HETATM    7  N3  UNL     1       0.206  -1.848   0.582  1.00  0.00    -0.224 NA
HETATM    8  C6  UNL     1      -0.358  -0.644   0.605  1.00  0.00     0.141 A 
HETATM    9  C13 UNL     1      -1.505  -0.329  -0.094  1.00  0.00     0.041 A 
HETATM   10  C14 UNL     1      -2.069   0.921  -0.055  1.00  0.00     0.046 A 
ENDROOT
BRANCH   8  11
HETATM   11  N4  UNL     1       0.294   0.327   1.405  1.00  0.00    -0.348 N 
HETATM   12  H6  UNL     1       0.086   1.326   1.608  1.00  0.00     0.167 HD
BRANCH  11  13
HETATM   13  C7  UNL     1       1.472  -0.006   2.121  1.00  0.00     0.121 C 
HETATM   14  C8  UNL     1       2.672   0.074   1.597  1.00  0.00     0.074 C 
HETATM   15  C9  UNL     1       2.845   0.521   0.220  1.00  0.00     0.057 C 
HETATM   16  N5  UNL     1       3.796  -0.282   2.394  1.00  0.00    -0.245 NA
HETATM   17  C10 UNL     1       4.134   0.544  -0.156  1.00  0.00     0.038 C 
HETATM   18 CL1  UNL     1       4.438   1.073  -1.809  1.00  0.00    -0.084 Cl
HETATM   19  C11 UNL     1       5.230   0.162   0.726  1.00  0.00     0.058 C 
HETATM   20  C12 UNL     1       4.951  -0.435   1.869  1.00  0.00     0.088 C 
ENDBRANCH  11  13
ENDBRANCH   8  11
BRANCH   1  21
HETATM   21  N1  UNL     1      -3.825   2.453  -0.758  1.00  0.00    -0.399 N 
HETATM   22  H1  UNL     1      -3.925   3.095  -1.589  1.00  0.00     0.156 HD
HETATM   23  H2  UNL     1      -4.129   2.599   0.215  1.00  0.00     0.156 HD
ENDBRANCH   1  21
TORSDOF 3
