REMARK  4 active torsions:
REMARK  status: ('A' for Active; 'I' for Inactive)
REMARK    1  A    between atoms: O1_2  and  C2_3 
REMARK    2  A    between atoms: N1_7  and  C6_8 
REMARK    3  A    between atoms: C7_9  and  C8_10 
REMARK    4  A    between atoms: C15_18  and  O2_19 
ROOT
HETATM    1  C2  UNL     1      -3.482   0.574   0.132  1.00  0.00     0.098 A 
HETATM    2  C3  UNL     1      -2.382   1.331   0.127  1.00  0.00     0.019 A 
HETATM    3  C4  UNL     1      -0.993   0.873  -0.130  1.00  0.00     0.089 A 
HETATM    4  C5  UNL     1      -0.971  -0.582  -0.390  1.00  0.00     0.040 A 
HETATM    5  N1  UNL     1       0.144  -1.174  -0.635  1.00  0.00    -0.265 NA
HETATM    6  C14 UNL     1      -2.169  -1.412  -0.385  1.00  0.00     0.067 A 
HETATM    7  C15 UNL     1      -3.348  -0.863  -0.140  1.00  0.00     0.103 A 
ENDROOT
BRANCH   5   8
HETATM    8  C6  UNL     1       1.392  -0.451  -0.665  1.00  0.00     0.118 C 
HETATM    9  C7  UNL     1       2.516  -0.957  -0.247  1.00  0.00     0.030 C 
BRANCH   9  10
HETATM   10  C8  UNL     1       3.764  -0.244  -0.272  1.00  0.00    -0.034 A 
HETATM   11  C9  UNL     1       3.895   1.036  -0.737  1.00  0.00     0.011 A 
HETATM   12  C10 UNL     1       5.097   1.716  -0.759  1.00  0.00     0.002 A 
HETATM   13  C11 UNL     1       6.247   1.108  -0.297  1.00  0.00     0.019 A 
HETATM   14  C12 UNL     1       6.162  -0.197   0.187  1.00  0.00     0.011 A 
HETATM   15 BR1  UNL     1       7.687  -1.149   0.856  1.00  0.00    -0.051 Br
HETATM   16  C13 UNL     1       4.930  -0.819   0.181  1.00  0.00     0.030 A 
ENDBRANCH   9  10
ENDBRANCH   5   8
BRANCH   7  17
HETATM   17  O2  UNL     1      -4.568  -1.528  -0.103  1.00  0.00    -0.353 OA
HETATM   18  C16 UNL     1      -4.607  -2.857  -0.570  1.00  0.00     0.210 C 
ENDBRANCH   7  17
BRANCH   1  19
HETATM   19  O1  UNL     1      -4.657   1.246   0.399  1.00  0.00    -0.353 OA
HETATM   20  C1  UNL     1      -4.827   2.119   1.498  1.00  0.00     0.210 C 
ENDBRANCH   1  19
TORSDOF 4
