REMARK  5 active torsions:
REMARK  status: ('A' for Active; 'I' for Inactive)
REMARK    1  A    between atoms: C2_2  and  N2_9 
REMARK    2  A    between atoms: C3_3  and  C4_4 
REMARK    3  A    between atoms: C4_4  and  C5_6 
REMARK    4  A    between atoms: C5_6  and  N1_7 
REMARK    5  A    between atoms: C15_20  and  O3_22 
ROOT
HETATM    1  N2  UNL     1      -0.304  -0.277   1.185  1.00  0.00    -0.400 N 
HETATM    2  C7  UNL     1      -1.054   0.734   0.619  1.00  0.00     0.122 C 
HETATM    3  C8  UNL     1      -0.709   2.048   0.134  1.00  0.00     0.054 C 
HETATM    4  C9  UNL     1      -2.125   2.523  -0.335  1.00  0.00    -0.068 A 
HETATM    5  O1  UNL     1      -2.912   3.485  -0.885  1.00  0.00     0.000 OA
HETATM    6  C10 UNL     1      -2.561   4.792  -1.266  1.00  0.00     0.000 C 
HETATM    7  C11 UNL     1      -3.350   2.060  -0.401  1.00  0.00     0.132 A 
HETATM    8  C12 UNL     1      -3.890   0.698   0.004  1.00  0.00     0.246 C 
HETATM    9  N3  UNL     1      -4.487  -0.561   0.386  1.00  0.00     0.317 NA
HETATM   10  C13 UNL     1      -3.387  -1.523   0.521  1.00  0.00     0.381 A 
HETATM   11  C14 UNL     1      -2.201  -1.850   0.946  1.00  0.00     0.066 A 
HETATM   12  C15 UNL     1      -2.808  -3.055   0.185  1.00  0.00     0.238 A 
HETATM   13  O2  UNL     1      -1.600  -3.541   0.287  1.00  0.00    -0.195 OA
HETATM   14  C16 UNL     1      -0.774  -1.675   1.448  1.00  0.00     0.131 C 
ENDROOT
BRANCH   1  15
HETATM   15  C2  UNL     1       1.005  -0.393   1.652  1.00  0.00     0.062 A 
HETATM   16  C1  UNL     1       1.177  -0.814   0.259  1.00  0.00     0.046 A 
HETATM   17  C3  UNL     1       2.251  -0.901   1.156  1.00  0.00     0.061 A 
BRANCH  17  18
HETATM   18  C4  UNL     1       3.470  -1.337   1.030  1.00  0.00     0.024 C 
HETATM   19 CL1  UNL     1       4.978  -1.774   1.699  1.00  0.00    -0.091 Cl
BRANCH  18  20
HETATM   20  C5  UNL     1       3.919  -1.243  -0.424  1.00  0.00     0.316 C 
BRANCH  20  21
HETATM   21  N1  UNL     1       5.144  -0.483  -0.461  1.00  0.00     0.083 N 
HETATM   22  C6  UNL     1       5.658  -0.100  -1.753  1.00  0.00     0.307 C 
HETATM   23  H6  UNL     1       5.902  -1.072   0.025  1.00  0.00     0.315 HD
ENDBRANCH  20  21
ENDBRANCH  18  20
ENDBRANCH  17  18
ENDBRANCH   1  15
BRANCH  12  24
HETATM   24  O3  UNL     1      -3.391  -4.032  -0.457  1.00  0.00    -0.361 OA
HETATM   25  H20 UNL     1      -2.999  -4.731  -1.096  1.00  0.00     0.213 HD
ENDBRANCH  12  24
TORSDOF 5
