REMARK  2 active torsions:
REMARK  status: ('A' for Active; 'I' for Inactive)
REMARK    1  A    between atoms: O1_2  and  C2_3 
REMARK    2  A    between atoms: C13_18  and  C14_19 
ROOT
HETATM    1  C2  UNL     1       0.182   0.256   1.471  1.00  0.00     0.109 C 
HETATM    2  C3  UNL     1      -1.085   0.276   0.975  1.00  0.00     0.123 C 
HETATM    3  N1  UNL     1      -1.848   0.698   2.013  1.00  0.00    -0.251 N 
HETATM    4  C4  UNL     1      -3.073   0.922   2.142  1.00  0.00     0.111 A 
HETATM    5 CL1  UNL     1      -2.473   1.283   3.733  1.00  0.00    -0.045 Cl
HETATM    6  C5  UNL     1      -4.358   0.879   1.361  1.00  0.00     0.068 C 
HETATM    7  C6  UNL     1      -5.482   1.569   2.052  1.00  0.00     0.021 C 
HETATM    8  C7  UNL     1      -4.616  -0.517   0.981  1.00  0.00    -0.019 C 
HETATM    9  C8  UNL     1      -4.561  -1.279  -0.151  1.00  0.00    -0.028 C 
HETATM   10  C9  UNL     1      -4.125  -0.159  -0.962  1.00  0.00     0.066 C 
HETATM   11  C10 UNL     1      -2.606  -0.196  -1.120  1.00  0.00     0.184 A 
HETATM   12  N2  UNL     1      -1.319   0.355  -1.015  1.00  0.00     0.030 N 
HETATM   13  C11 UNL     1      -1.264   1.732  -0.496  1.00  0.00     0.896 C 
HETATM   14  N3  UNL     1      -0.270   2.227   0.226  1.00  0.00     0.064 NA
HETATM   15  C12 UNL     1       0.821   1.256   0.495  1.00  0.00     0.292 C 
HETATM   16  C13 UNL     1       1.097   0.515  -0.789  1.00  0.00     0.169 C 
HETATM   17  O2  UNL     1       0.244  -0.629  -0.839  1.00  0.00    -0.341 OA
HETATM   18  C20 UNL     1      -1.116  -0.260  -0.476  1.00  0.00     0.285 A 
HETATM   19  C21 UNL     1      -1.369  -0.681  -1.733  1.00  0.00     0.382 A 
ENDROOT
BRANCH  16  20
HETATM   20  C14 UNL     1       2.543   0.215  -0.904  1.00  0.00     0.045 C 
HETATM   21  C15 UNL     1       3.090  -0.546   0.294  1.00  0.00     0.011 C 
HETATM   22  C16 UNL     1       4.619  -0.489   0.143  1.00  0.00     0.031 C 
HETATM   23  C17 UNL     1       4.976  -1.266  -1.088  1.00  0.00     0.272 C 
HETATM   24  N4  UNL     1       4.251  -0.839  -2.256  1.00  0.00     0.084 N 
HETATM   25  C18 UNL     1       4.848   0.312  -2.905  1.00  0.00     0.309 C 
HETATM   26  C19 UNL     1       2.843  -0.713  -2.074  1.00  0.00     0.279 C 
ENDBRANCH  16  20
BRANCH   1  27
HETATM   27  O1  UNL     1       0.428  -0.581   2.580  1.00  0.00    -0.356 OA
HETATM   28  C1  UNL     1       0.388  -1.988   2.433  1.00  0.00     0.209 C 
ENDBRANCH   1  27
TORSDOF 2
