REMARK  5 active torsions:
REMARK  status: ('A' for Active; 'I' for Inactive)
REMARK    1  A    between atoms: O1_2  and  C2_3 
REMARK    2  A    between atoms: C5_6  and  N1_7 
REMARK    3  A    between atoms: C11_14  and  C12_15 
REMARK    4  A    between atoms: C12_15  and  O3_17 
REMARK    5  A    between atoms: C15_21  and  O4_22 
ROOT
HETATM    1  C2  UNL     1       1.716   1.299   0.491  1.00  0.00     0.104 C 
HETATM    2  C3  UNL     1       0.528   1.110  -0.194  1.00  0.00     0.049 C 
HETATM    3  C4  UNL     1       0.295  -0.317  -0.478  1.00  0.00    -0.023 C 
HETATM    4  C5  UNL     1      -0.772  -0.957  -0.026  1.00  0.00     0.041 C 
HETATM    5  C11 UNL     1      -0.704  -2.325   0.636  1.00  0.00     0.078 C 
HETATM    6  C13 UNL     1       0.434  -2.883   1.168  1.00  0.00     0.108 C 
HETATM    7  N2  UNL     1       1.753  -2.199   1.236  1.00  0.00    -0.365 N 
HETATM    8  C14 UNL     1       2.038  -1.081   0.395  1.00  0.00     0.050 C 
HETATM    9  C15 UNL     1       2.567   0.082   0.841  1.00  0.00     0.124 C 
HETATM   10  C17 UNL     1       1.527  -1.037  -1.118  1.00  0.00     0.101 C 
HETATM   11  H16 UNL     1       2.570  -2.326   1.818  1.00  0.00     0.165 HD
ENDROOT
BRANCH   4  12
HETATM   12  N1  UNL     1      -1.865  -0.118  -0.201  1.00  0.00    -0.425 N 
HETATM   13  C6  UNL     1      -2.348   0.556   0.953  1.00  0.00     0.109 C 
HETATM   14  C7  UNL     1      -2.940   1.886   0.656  1.00  0.00     0.044 C 
HETATM   15  C8  UNL     1      -3.552   2.049  -0.669  1.00  0.00    -0.039 C 
HETATM   16  C9  UNL     1      -3.439   1.298  -1.760  1.00  0.00    -0.057 C 
HETATM   17  B1  UNL     1      -2.504   0.060  -1.570  1.00  0.00     0.314 B 
HETATM   18  C10 UNL     1      -2.085  -0.814  -2.817  1.00  0.00    -0.021 C 
ENDBRANCH   4  12
BRANCH   5  19
HETATM   19  C12 UNL     1      -1.924  -2.961   0.716  1.00  0.00     0.179 C 
HETATM   20  O2  UNL     1      -1.878  -4.048   1.308  1.00  0.00    -0.646 OA
BRANCH  19  21
HETATM   21  O3  UNL     1      -3.072  -2.439   0.193  1.00  0.00    -0.773 OA
HETATM   22  H14 UNL     1      -3.823  -3.067  -0.135  1.00  0.00     0.167 HD
ENDBRANCH  19  21
ENDBRANCH   5  19
BRANCH   1  23
HETATM   23  O1  UNL     1       2.130   2.510   0.852  1.00  0.00    -0.353 OA
HETATM   24  C1  UNL     1       2.838   3.421   0.040  1.00  0.00     0.210 C 
ENDBRANCH   1  23
BRANCH   9  25
HETATM   25  O4  UNL     1       3.687  -0.345   1.458  1.00  0.00    -0.351 OA
HETATM   26  C16 UNL     1       4.974  -0.225   0.882  1.00  0.00     0.210 C 
ENDBRANCH   9  25
TORSDOF 5
