REMARK  5 active torsions:
REMARK  status: ('A' for Active; 'I' for Inactive)
REMARK    1  A    between atoms: O1_2  and  C2_3 
REMARK    2  A    between atoms: C6_7  and  C7_8 
REMARK    3  A    between atoms: C7_8  and  O3_10 
REMARK    4  A    between atoms: N1_12  and  C9_13 
REMARK    5  A    between atoms: C17_22  and  O4_23 
ROOT
HETATM    1  C2  UNL     1      -2.556  -0.369  -0.488  1.00  0.00     0.101 A 
HETATM    2  C3  UNL     1      -2.139   0.740  -1.078  1.00  0.00     0.050 A 
HETATM    3  C4  UNL     1      -0.716   0.741  -1.394  1.00  0.00    -0.017 A 
HETATM    4  C5  UNL     1      -0.221   1.808  -1.977  1.00  0.00    -0.001 C 
HETATM    5  C6  UNL     1       1.000   2.141  -1.799  1.00  0.00     0.045 C 
HETATM    6  C8  UNL     1       2.075   1.183  -1.417  1.00  0.00     0.170 C 
HETATM    7  N1  UNL     1       1.458   0.224  -0.485  1.00  0.00    -0.364 N 
HETATM    8  C15 UNL     1       0.315  -0.314  -1.158  1.00  0.00     0.145 A 
HETATM    9  C16 UNL     1      -0.355  -1.437  -0.502  1.00  0.00     0.042 A 
HETATM   10  C17 UNL     1      -1.664  -1.469  -0.194  1.00  0.00     0.100 A 
ENDROOT
BRANCH   7  11
HETATM   11  C9  UNL     1       2.005  -0.040   0.795  1.00  0.00     0.032 A 
HETATM   12  C10 UNL     1       1.359  -0.593   1.872  1.00  0.00     0.029 A 
HETATM   13  C11 UNL     1       1.912  -0.858   3.103  1.00  0.00     0.004 A 
HETATM   14  C12 UNL     1       3.240  -0.544   3.286  1.00  0.00     0.024 A 
HETATM   15  C13 UNL     1       3.935   0.015   2.234  1.00  0.00     0.036 A 
HETATM   16 CL1  UNL     1       5.617   0.368   2.594  1.00  0.00    -0.084 Cl
HETATM   17  C14 UNL     1       3.330   0.261   1.018  1.00  0.00     0.053 A 
ENDBRANCH   7  11
BRANCH   5  18
HETATM   18  C7  UNL     1       1.298   3.576  -2.000  1.00  0.00     0.174 C 
HETATM   19  O2  UNL     1       1.672   4.321  -2.939  1.00  0.00    -0.646 OA
BRANCH  18  20
HETATM   20  O3  UNL     1       1.093   4.241  -0.785  1.00  0.00    -0.773 OA
HETATM   21  H5  UNL     1       1.216   5.256  -0.703  1.00  0.00     0.167 HD
ENDBRANCH  18  20
ENDBRANCH   5  18
BRANCH  10  22
HETATM   22  O4  UNL     1      -2.241  -2.574   0.431  1.00  0.00    -0.353 OA
HETATM   23  C18 UNL     1      -2.670  -2.504   1.770  1.00  0.00     0.210 C 
ENDBRANCH  10  22
BRANCH   1  24
HETATM   24  O1  UNL     1      -3.899  -0.416  -0.169  1.00  0.00    -0.353 OA
HETATM   25  C1  UNL     1      -4.713  -1.138  -1.107  1.00  0.00     0.210 C 
ENDBRANCH   1  24
TORSDOF 5
