REMARK  1 active torsions:
REMARK  status: ('A' for Active; 'I' for Inactive)
REMARK    1  A    between atoms: C8_12  and  O3_14 
ROOT
HETATM    1  C1  UNL     1       6.248  -0.525  -0.714  1.00  0.00     0.048 C 
HETATM    2  C2  UNL     1       5.071  -0.605  -0.076  1.00  0.00     0.063 C 
HETATM    3  C3  UNL     1       4.487  -1.915   0.366  1.00  0.00     0.236 C 
HETATM    4  O1  UNL     1       3.267  -2.101  -0.241  1.00  0.00    -0.356 OA
HETATM    5  P1  UNL     1       2.604  -3.599   0.372  1.00  0.00     0.036 P 
HETATM    6  C4  UNL     1       0.992  -3.140   1.174  1.00  0.00     0.034 C 
HETATM    7  C5  UNL     1      -0.148  -2.638   0.718  1.00  0.00     0.034 C 
HETATM    8  C6  UNL     1      -1.484  -2.102   0.489  1.00  0.00     0.054 C 
HETATM    9  N1  UNL     1      -2.361  -3.053   0.262  1.00  0.00    -0.264 NA
HETATM   10  C7  UNL     1      -3.760  -2.847  -0.152  1.00  0.00     0.321 C 
HETATM   11  O2  UNL     1      -4.303  -1.700   0.368  1.00  0.00    -0.331 OA
HETATM   12  C8  UNL     1      -4.086  -0.549  -0.348  1.00  0.00     0.185 C 
HETATM   13  C9  UNL     1      -4.416  -0.658  -1.821  1.00  0.00     0.084 C 
HETATM   14  C10 UNL     1      -2.690  -0.023  -0.130  1.00  0.00    -0.013 C 
HETATM   15  C11 UNL     1      -1.722  -0.642   0.529  1.00  0.00     0.040 C 
HETATM   16  C12 UNL     1      -2.467   1.292  -0.729  1.00  0.00     0.067 C 
HETATM   17  C13 UNL     1      -1.803   2.278   0.140  1.00  0.00    -0.020 C 
HETATM   18  C14 UNL     1      -0.683   2.990   0.100  1.00  0.00    -0.083 C 
HETATM   19  C15 UNL     1      -0.301   3.933   1.196  1.00  0.00     0.043 C 
HETATM   20  C16 UNL     1       0.333   2.975  -0.988  1.00  0.00     0.079 C 
HETATM   21  C17 UNL     1       1.642   2.547  -0.433  1.00  0.00     0.254 C 
HETATM   22  N2  UNL     1       2.741   2.217   0.090  1.00  0.00    -0.403 NA
HETATM   23  C18 UNL     1       3.738   1.376  -0.516  1.00  0.00     0.286 C 
HETATM   24  O4  UNL     1       4.132   0.328   0.335  1.00  0.00    -0.336 OA
HETATM   25  H5  UNL     1       2.224  -4.388  -0.813  1.00  0.00     0.092 HD
ENDROOT
BRANCH  12  26
HETATM   26  O3  UNL     1      -4.925   0.447   0.178  1.00  0.00    -0.362 OA
HETATM   27  H13 UNL     1      -5.305   0.203   1.057  1.00  0.00     0.213 HD
ENDBRANCH  12  26
TORSDOF 1
