REMARK  5 active torsions:
REMARK  status: ('A' for Active; 'I' for Inactive)
REMARK    1  A    between atoms: O1_2  and  C2_3 
REMARK    2  A    between atoms: C6_8  and  C7_9 
REMARK    3  A    between atoms: C7_9  and  O3_11 
REMARK    4  A    between atoms: C8_12  and  N2_13 
REMARK    5  A    between atoms: N2_13  and  C9_14 
ROOT
HETATM    1  C2  UNL     1       3.166   0.412  -1.645  1.00  0.00     0.051 C 
HETATM    2  C3  UNL     1       3.174   0.151  -0.331  1.00  0.00     0.065 C 
HETATM    3  C4  UNL     1       2.045  -0.091   0.546  1.00  0.00     0.071 A 
HETATM    4  N1  UNL     1       2.258   0.124   1.857  1.00  0.00    -0.259 NA
HETATM    5  C5  UNL     1       1.270  -0.074   2.751  1.00  0.00     0.138 A 
HETATM    6  C6  UNL     1       0.007  -0.499   2.386  1.00  0.00     0.082 A 
HETATM    7  C8  UNL     1      -0.259  -0.733   1.051  1.00  0.00     0.063 A 
HETATM    8  C15 UNL     1       0.775  -0.523   0.146  1.00  0.00     0.020 A 
HETATM    9  C16 UNL     1       0.298  -0.825  -1.219  1.00  0.00     0.012 C 
HETATM   10  C17 UNL     1       0.900  -0.335  -2.305  1.00  0.00    -0.019 C 
HETATM   11  C18 UNL     1       2.058   0.539  -2.612  1.00  0.00     0.091 C 
ENDROOT
BRANCH   7  12
HETATM   12  N2  UNL     1      -1.501  -1.165   0.581  1.00  0.00    -0.355 N 
HETATM   13  H7  UNL     1      -1.379  -2.200   0.627  1.00  0.00     0.166 HD
BRANCH  12  14
HETATM   14  C9  UNL     1      -2.682  -0.557   0.135  1.00  0.00     0.034 A 
HETATM   15  C10 UNL     1      -3.731  -1.363  -0.261  1.00  0.00     0.032 A 
HETATM   16  C11 UNL     1      -4.869  -0.699  -0.690  1.00  0.00     0.046 A 
HETATM   17  C12 UNL     1      -4.996   0.664  -0.738  1.00  0.00     0.138 A 
HETATM   18  F1  UNL     1      -6.186   1.188  -1.187  1.00  0.00    -0.204 F 
HETATM   19  C13 UNL     1      -3.918   1.455  -0.331  1.00  0.00     0.074 A 
HETATM   20 CL1  UNL     1      -4.085   3.196  -0.394  1.00  0.00    -0.081 Cl
HETATM   21  C14 UNL     1      -2.771   0.820   0.102  1.00  0.00     0.056 A 
ENDBRANCH  12  14
ENDBRANCH   7  12
BRANCH   6  22
HETATM   22  C7  UNL     1      -1.050  -0.707   3.368  1.00  0.00     0.179 C 
HETATM   23  O2  UNL     1      -2.166  -1.096   2.936  1.00  0.00    -0.646 OA
BRANCH  22  24
HETATM   24  O3  UNL     1      -0.789  -0.472   4.721  1.00  0.00    -0.773 OA
HETATM   25  H6  UNL     1      -1.546  -0.596   5.401  1.00  0.00     0.167 HD
ENDBRANCH  22  24
ENDBRANCH   6  22
BRANCH   1  26
HETATM   26  O1  UNL     1       4.419   0.600  -2.210  1.00  0.00    -0.360 OA
HETATM   27  C1  UNL     1       5.577   0.539  -1.427  1.00  0.00     0.209 C 
ENDBRANCH   1  26
TORSDOF 5
