REMARK  3 active torsions:
REMARK  status: ('A' for Active; 'I' for Inactive)
REMARK    1  A    between atoms: O1_2  and  C2_3 
REMARK    2  A    between atoms: C15_20  and  C16_21 
REMARK    3  A    between atoms: C16_21  and  O3_22 
ROOT
HETATM    1  C2  UNL     1       1.367  -0.435   1.524  1.00  0.00     0.079 C 
HETATM    2  C3  UNL     1       2.014   0.693   1.680  1.00  0.00     0.066 C 
HETATM    3  C4  UNL     1       2.153   1.706   0.586  1.00  0.00     0.061 A 
HETATM    4  C5  UNL     1       0.858   1.807   0.192  1.00  0.00     0.061 A 
HETATM    5  C6  UNL     1      -0.216   2.262  -0.551  1.00  0.00     0.036 A 
HETATM    6  C7  UNL     1       0.476   3.154  -1.387  1.00  0.00     0.049 A 
HETATM    7  C8  UNL     1       1.854   3.249  -1.188  1.00  0.00     0.119 A 
HETATM    8  N1  UNL     1       2.559   2.578  -0.290  1.00  0.00    -0.261 NA
HETATM    9  N2  UNL     1      -1.603   2.050  -0.686  1.00  0.00    -0.354 N 
HETATM   10  C9  UNL     1      -2.099   0.731  -0.780  1.00  0.00     0.067 A 
HETATM   11  C10 UNL     1      -3.205   0.711  -1.597  1.00  0.00     0.051 A 
HETATM   12  C11 UNL     1      -4.003  -0.386  -1.963  1.00  0.00     0.013 A 
HETATM   13 BR1  UNL     1      -5.506  -0.295  -3.102  1.00  0.00    -0.051 Br
HETATM   14  C12 UNL     1      -3.583  -1.601  -1.399  1.00  0.00     0.022 A 
HETATM   15  C13 UNL     1      -2.456  -1.591  -0.564  1.00  0.00     0.040 A 
HETATM   16  C14 UNL     1      -1.701  -0.469  -0.236  1.00  0.00     0.096 A 
HETATM   17  O2  UNL     1      -0.709  -0.990   0.608  1.00  0.00    -0.335 OA
HETATM   18  C15 UNL     1       0.668  -0.965   0.339  1.00  0.00     0.209 C 
HETATM   19  H8  UNL     1      -2.069   2.966  -0.700  1.00  0.00     0.166 HD
ENDROOT
BRANCH  18  20
HETATM   20  C16 UNL     1       1.119  -2.448   0.317  1.00  0.00     0.203 C 
BRANCH  20  21
HETATM   21  O3  UNL     1       0.475  -3.191  -0.629  1.00  0.00    -0.398 OA
HETATM   22  H15 UNL     1       0.954  -3.418  -1.436  1.00  0.00     0.209 HD
ENDBRANCH  20  21
ENDBRANCH  18  20
BRANCH   1  23
HETATM   23  O1  UNL     1       1.534  -0.971   2.779  1.00  0.00    -0.357 OA
HETATM   24  C1  UNL     1       2.795  -1.515   3.114  1.00  0.00     0.209 C 
ENDBRANCH   1  23
TORSDOF 3
