REMARK  4 active torsions:
REMARK  status: ('A' for Active; 'I' for Inactive)
REMARK    1  A    between atoms: O1_2  and  C2_3 
REMARK    2  A    between atoms: C7_8  and  O2_9 
REMARK    3  A    between atoms: C9_11  and  N1_12 
REMARK    4  A    between atoms: N1_12  and  C10_13 
ROOT
HETATM    1  C2  UNL     1      -2.921  -0.719  -0.029  1.00  0.00     0.103 A 
HETATM    2  C3  UNL     1      -2.918   0.658  -0.084  1.00  0.00     0.071 A 
HETATM    3  C4  UNL     1      -1.784   1.425  -0.368  1.00  0.00     0.069 A 
HETATM    4  C5  UNL     1      -0.625   0.699  -0.596  1.00  0.00     0.025 A 
HETATM    5  C6  UNL     1      -0.615  -0.660  -0.543  1.00  0.00     0.055 A 
HETATM    6  C7  UNL     1      -1.737  -1.408  -0.264  1.00  0.00     0.102 A 
HETATM    7  C9  UNL     1       0.643   0.987  -0.906  1.00  0.00     0.082 C 
HETATM    8  C16 UNL     1       1.260   2.318  -1.136  1.00  0.00     0.159 C 
HETATM    9  O3  UNL     1       2.513   2.331  -1.098  1.00  0.00    -0.302 OA
HETATM   10  B1  UNL     1       0.639   3.749  -1.427  1.00  0.00     0.397 B 
HETATM   11  O4  UNL     1      -0.780   4.134  -1.656  1.00  0.00    -0.431 OA
HETATM   12  C17 UNL     1      -1.525   3.979  -0.514  1.00  0.00     0.296 C 
HETATM   13  N2  UNL     1      -2.098   2.669  -0.340  1.00  0.00    -0.265 NA
HETATM   14  H14 UNL     1       1.376   4.393  -2.077  1.00  0.00     0.017 HD
ENDROOT
BRANCH   7  15
HETATM   15  N1  UNL     1       1.581  -0.102  -1.062  1.00  0.00    -0.353 N 
HETATM   16  H9  UNL     1       1.649  -0.755  -1.907  1.00  0.00     0.166 HD
BRANCH  15  17
HETATM   17  C10 UNL     1       2.615  -0.552  -0.202  1.00  0.00     0.033 A 
HETATM   18  C11 UNL     1       3.898  -0.248  -0.603  1.00  0.00     0.029 A 
HETATM   19  C12 UNL     1       5.032  -0.582   0.101  1.00  0.00     0.004 A 
HETATM   20  C13 UNL     1       4.862  -1.272   1.296  1.00  0.00     0.019 A 
HETATM   21  C14 UNL     1       3.596  -1.624   1.785  1.00  0.00     0.013 A 
HETATM   22 BR1  UNL     1       3.255  -2.563   3.397  1.00  0.00    -0.051 Br
HETATM   23  C15 UNL     1       2.543  -1.233   0.989  1.00  0.00     0.048 A 
ENDBRANCH  15  17
ENDBRANCH   7  15
BRANCH   6  24
HETATM   24  O2  UNL     1      -1.904  -2.766  -0.170  1.00  0.00    -0.353 OA
HETATM   25  C8  UNL     1      -0.949  -3.766  -0.319  1.00  0.00     0.210 C 
ENDBRANCH   6  24
BRANCH   1  26
HETATM   26  O1  UNL     1      -4.153  -1.349   0.268  1.00  0.00    -0.353 OA
HETATM   27  C1  UNL     1      -5.285  -0.511   0.481  1.00  0.00     0.210 C 
ENDBRANCH   1  26
TORSDOF 4
