REMARK  5 active torsions:
REMARK  status: ('A' for Active; 'I' for Inactive)
REMARK    1  A    between atoms: O1_2  and  C2_3 
REMARK    2  A    between atoms: C6_9  and  C7_10 
REMARK    3  A    between atoms: C7_10  and  O3_12 
REMARK    4  A    between atoms: C8_13  and  N2_14 
REMARK    5  A    between atoms: N2_14  and  C9_15 
ROOT
HETATM    1  C2  UNL     1       2.872  -1.271  -0.047  1.00  0.00    -0.002 C 
HETATM    2  B1  UNL     1       4.573   0.158   0.118  1.00  0.00     0.246 B 
HETATM    3  C3  UNL     1       3.735   1.212   1.304  1.00  0.00    -0.046 C 
HETATM    4  C4  UNL     1       2.471   1.561   0.880  1.00  0.00     0.055 A 
HETATM    5  N1  UNL     1       2.055   2.808   1.193  1.00  0.00    -0.260 NA
HETATM    6  C5  UNL     1       0.862   3.327   0.874  1.00  0.00     0.138 A 
HETATM    7  C6  UNL     1      -0.068   2.588   0.171  1.00  0.00     0.082 A 
HETATM    8  C8  UNL     1       0.324   1.311  -0.164  1.00  0.00     0.063 A 
HETATM    9  C16 UNL     1       1.570   0.803   0.183  1.00  0.00     0.021 A 
HETATM   10  C17 UNL     1       1.767  -0.475  -0.229  1.00  0.00     0.035 C 
ENDROOT
BRANCH   8  11
HETATM   11  N2  UNL     1      -0.647   0.565  -0.888  1.00  0.00    -0.354 N 
HETATM   12  H7  UNL     1      -0.547   0.691  -1.906  1.00  0.00     0.166 HD
BRANCH  11  13
HETATM   13  C9  UNL     1      -1.611  -0.236  -0.245  1.00  0.00     0.039 A 
HETATM   14  C10 UNL     1      -1.612  -0.298   1.112  1.00  0.00     0.049 A 
HETATM   15  C11 UNL     1      -2.544  -1.073   1.777  1.00  0.00     0.013 A 
HETATM   16 BR1  UNL     1      -2.532  -1.148   3.658  1.00  0.00    -0.051 Br
HETATM   17  C12 UNL     1      -3.463  -1.776   1.020  1.00  0.00     0.020 A 
HETATM   18  C13 UNL     1      -3.473  -1.722  -0.353  1.00  0.00     0.010 A 
HETATM   19  C14 UNL     1      -2.526  -0.935  -0.993  1.00  0.00    -0.035 A 
HETATM   20  C15 UNL     1      -2.564  -0.899  -2.480  1.00  0.00     0.050 C 
ENDBRANCH  11  13
ENDBRANCH   8  11
BRANCH   7  21
HETATM   21  C7  UNL     1      -1.362   3.168  -0.169  1.00  0.00     0.179 C 
HETATM   22  O2  UNL     1      -1.708   4.339   0.145  1.00  0.00    -0.646 OA
BRANCH  21  23
HETATM   23  O3  UNL     1      -2.305   2.455  -0.867  1.00  0.00    -0.773 OA
HETATM   24  H6  UNL     1      -2.920   2.879  -1.576  1.00  0.00     0.167 HD
ENDBRANCH  21  23
ENDBRANCH   7  21
BRANCH   1  25
HETATM   25  O1  UNL     1       2.963  -2.641   0.026  1.00  0.00    -0.373 OA
HETATM   26  C1  UNL     1       4.251  -3.192   0.224  1.00  0.00     0.208 C 
ENDBRANCH   1  25
TORSDOF 5
