REMARK  10 active torsions:
REMARK  status: ('A' for Active; 'I' for Inactive)
REMARK    1  A    between atoms: C2_2  and  C3_3 
REMARK    2  A    between atoms: C2_2  and  O3_23 
REMARK    3  A    between atoms: C3_3  and  C4_4 
REMARK    4  A    between atoms: C5_5  and  C6_6 
REMARK    5  A    between atoms: C8_8  and  C9_9 
REMARK    6  A    between atoms: C9_9  and  C10_10 
REMARK    7  A    between atoms: C11_11  and  C12_13 
REMARK    8  A    between atoms: C12_13  and  N1_14 
REMARK    9  A    between atoms: C15_17  and  C16_18 
REMARK   10  A    between atoms: C16_18  and  O2_20 
ROOT
HETATM    1  C6  UNL     1       1.151   1.689  -0.227  1.00  0.00     0.057 A 
HETATM    2  C7  UNL     1       0.190   0.727  -0.103  1.00  0.00     0.045 A 
HETATM    3  C8  UNL     1      -1.193   0.930  -0.212  1.00  0.00    -0.006 A 
HETATM    4  C15 UNL     1      -1.450   2.246  -0.470  1.00  0.00     0.066 A 
HETATM    5  C17 UNL     1      -0.514   3.245  -0.599  1.00  0.00     0.136 A 
HETATM    6  N2  UNL     1       0.780   2.951  -0.475  1.00  0.00    -0.260 NA
ENDROOT
BRANCH   3   7
HETATM    7  C9  UNL     1      -2.104  -0.177  -0.106  1.00  0.00    -0.028 C 
HETATM    8  C13 UNL     1      -1.538  -1.315  -0.574  1.00  0.00    -0.019 C 
HETATM    9  C14 UNL     1      -1.955  -2.727  -0.724  1.00  0.00     0.037 C 
BRANCH   7  10
HETATM   10  C10 UNL     1      -3.407  -0.351   0.450  1.00  0.00     0.033 C 
HETATM   11  C11 UNL     1      -4.421   0.168   1.170  1.00  0.00     0.040 C 
HETATM   12 CL1  UNL     1      -4.696   1.720   1.990  1.00  0.00    -0.087 Cl
BRANCH  11  13
HETATM   13  C12 UNL     1      -5.719  -0.458   1.518  1.00  0.00     0.317 C 
BRANCH  13  14
HETATM   14  N1  UNL     1      -5.949  -0.592   2.931  1.00  0.00     0.083 N 
HETATM   15  H11 UNL     1      -5.073  -0.791   3.458  1.00  0.00     0.313 HD
HETATM   16  H12 UNL     1      -6.604  -1.391   3.074  1.00  0.00     0.313 HD
ENDBRANCH  13  14
ENDBRANCH  11  13
ENDBRANCH   7  10
ENDBRANCH   3   7
BRANCH   4  17
HETATM   17  C16 UNL     1      -2.814   2.638  -0.838  1.00  0.00     0.178 C 
HETATM   18  O1  UNL     1      -3.948   2.214  -1.087  1.00  0.00    -0.646 OA
BRANCH  17  19
HETATM   19  O2  UNL     1      -3.338   3.893  -1.061  1.00  0.00    -0.773 OA
HETATM   20  H17 UNL     1      -3.948   4.437  -0.453  1.00  0.00     0.167 HD
ENDBRANCH  17  19
ENDBRANCH   4  17
BRANCH   1  21
HETATM   21  C5  UNL     1       2.573   1.434  -0.107  1.00  0.00     0.027 C 
HETATM   22  C4  UNL     1       3.187   0.299   0.131  1.00  0.00    -0.021 C 
BRANCH  22  23
HETATM   23  C3  UNL     1       4.638  -0.014   0.263  1.00  0.00     0.068 C 
BRANCH  23  24
HETATM   24  C2  UNL     1       4.996  -1.002  -0.774  1.00  0.00     0.095 C 
HETATM   25  C1  UNL     1       3.986  -1.366  -1.548  1.00  0.00     0.044 C 
BRANCH  24  26
HETATM   26  O3  UNL     1       6.233  -1.547  -0.988  1.00  0.00    -0.382 OA
HETATM   27  C18 UNL     1       7.295  -1.347  -0.090  1.00  0.00     0.202 C 
ENDBRANCH  24  26
ENDBRANCH  23  24
ENDBRANCH  22  23
ENDBRANCH   1  21
TORSDOF 10
