REMARK  7 active torsions:
REMARK  status: ('A' for Active; 'I' for Inactive)
REMARK    1  A    between atoms: C2_2  and  O1_3 
REMARK    2  A    between atoms: C2_2  and  C4_5 
REMARK    3  A    between atoms: C4_5  and  O4_24 
REMARK    4  A    between atoms: C5_6  and  C6_7 
REMARK    5  A    between atoms: C7_9  and  N1_10 
REMARK    6  A    between atoms: N1_10  and  C8_11 
REMARK    7  A    between atoms: C14_18  and  C15_19 
ROOT
HETATM    1  C6  UNL     1      -1.051   1.091  -0.688  1.00  0.00    -0.008 C 
HETATM    2  B1  UNL     1       0.278  -1.119  -0.397  1.00  0.00     0.274 B 
HETATM    3  C7  UNL     1       1.497  -0.086   0.286  1.00  0.00    -0.021 C 
HETATM    4  C14 UNL     1       1.849   0.906  -0.604  1.00  0.00     0.032 C 
HETATM    5  C16 UNL     1       1.099   1.763  -1.352  1.00  0.00     0.131 C 
HETATM    6  N2  UNL     1      -0.257   1.868  -1.410  1.00  0.00    -0.277 NA
ENDROOT
BRANCH   3   7
HETATM    7  N1  UNL     1       2.188  -0.047   1.531  1.00  0.00    -0.369 N 
HETATM    8  H7  UNL     1       1.962   0.501   2.387  1.00  0.00     0.165 HD
BRANCH   7   9
HETATM    9  C8  UNL     1       3.347  -0.867   1.624  1.00  0.00     0.031 A 
HETATM   10  C9  UNL     1       3.787  -1.686   0.587  1.00  0.00     0.032 A 
HETATM   11  C10 UNL     1       4.878  -2.496   0.603  1.00  0.00     0.044 A 
HETATM   12  C11 UNL     1       5.647  -2.533   1.746  1.00  0.00     0.116 A 
HETATM   13  F1  UNL     1       6.721  -3.345   1.735  1.00  0.00    -0.206 F 
HETATM   14  C12 UNL     1       5.269  -1.746   2.815  1.00  0.00     0.044 A 
HETATM   15  C13 UNL     1       4.152  -0.938   2.753  1.00  0.00     0.032 A 
ENDBRANCH   7   9
ENDBRANCH   3   7
BRANCH   4  16
HETATM   16  C15 UNL     1       3.241   1.239  -0.878  1.00  0.00     0.157 A 
HETATM   17  O2  UNL     1       3.844   2.078  -1.621  1.00  0.00    -0.188 OA
HETATM   18  O3  UNL     1       4.596   1.138  -0.766  1.00  0.00     0.000 OA
HETATM   19  H12 UNL     1       5.131   0.820   0.041  1.00  0.00     0.000 HD
ENDBRANCH   4  16
BRANCH   1  20
HETATM   20  C5  UNL     1      -2.242   0.769   0.054  1.00  0.00     0.053 C 
HETATM   21  C4  UNL     1      -3.349   1.123  -0.548  1.00  0.00     0.098 C 
BRANCH  21  22
HETATM   22  C2  UNL     1      -4.592   0.833   0.135  1.00  0.00     0.079 C 
HETATM   23  C1  UNL     1      -5.776   1.132  -0.367  1.00  0.00     0.074 C 
BRANCH  22  24
HETATM   24  O1  UNL     1      -5.252   0.313   1.234  1.00  0.00    -0.357 OA
HETATM   25  C3  UNL     1      -5.503  -1.062   1.431  1.00  0.00     0.209 C 
ENDBRANCH  22  24
ENDBRANCH  21  22
BRANCH  21  26
HETATM   26  O4  UNL     1      -3.439   1.747  -1.772  1.00  0.00    -0.353 OA
HETATM   27  C17 UNL     1      -3.844   1.109  -2.959  1.00  0.00     0.210 C 
ENDBRANCH  21  26
ENDBRANCH   1  20
TORSDOF 7
