REMARK  6 active torsions:
REMARK  status: ('A' for Active; 'I' for Inactive)
REMARK    1  A    between atoms: O1_2  and  C2_3 
REMARK    2  A    between atoms: C5_6  and  N1_7 
REMARK    3  A    between atoms: N1_7  and  C6_8 
REMARK    4  A    between atoms: C12_16  and  C13_17 
REMARK    5  A    between atoms: C13_17  and  O3_19 
REMARK    6  A    between atoms: C17_24  and  P1_25 
ROOT
HETATM    1  C2  UNL     1      -2.275   0.085  -0.604  1.00  0.00     0.080 A 
HETATM    2  C3  UNL     1      -1.029   0.527  -0.243  1.00  0.00     0.053 A 
HETATM    3  C4  UNL     1      -0.412  -0.122   0.801  1.00  0.00     0.023 A 
HETATM    4  C5  UNL     1       0.844   0.332   1.156  1.00  0.00     0.064 A 
HETATM    5  C12 UNL     1       1.500  -0.298   2.207  1.00  0.00     0.082 A 
HETATM    6  C14 UNL     1       0.934  -1.365   2.908  1.00  0.00     0.138 A 
HETATM    7  N2  UNL     1      -0.302  -1.779   2.525  1.00  0.00    -0.259 NA
HETATM    8  C15 UNL     1      -0.941  -1.176   1.512  1.00  0.00     0.070 A 
HETATM    9  C16 UNL     1      -2.199  -1.601   1.127  1.00  0.00     0.047 A 
HETATM   10  C17 UNL     1      -2.867  -0.978   0.076  1.00  0.00     0.001 A 
ENDROOT
BRANCH   4  11
HETATM   11  N1  UNL     1       1.512   1.426   0.495  1.00  0.00    -0.355 N 
HETATM   12  H5  UNL     1       1.501   2.451   0.691  1.00  0.00     0.166 HD
BRANCH  11  13
HETATM   13  C6  UNL     1       2.306   0.998  -0.597  1.00  0.00     0.034 A 
HETATM   14  C7  UNL     1       2.420  -0.324  -0.976  1.00  0.00     0.032 A 
HETATM   15  C8  UNL     1       3.207  -0.730  -2.055  1.00  0.00     0.046 A 
HETATM   16  C9  UNL     1       3.909   0.201  -2.788  1.00  0.00     0.138 A 
HETATM   17  F1  UNL     1       4.667  -0.198  -3.828  1.00  0.00    -0.204 F 
HETATM   18  C10 UNL     1       3.830   1.547  -2.449  1.00  0.00     0.074 A 
HETATM   19 CL1  UNL     1       4.710   2.748  -3.362  1.00  0.00    -0.081 Cl
HETATM   20  C11 UNL     1       3.043   1.872  -1.384  1.00  0.00     0.056 A 
ENDBRANCH  11  13
ENDBRANCH   4  11
BRANCH   5  21
HETATM   21  C13 UNL     1       2.838   0.097   2.675  1.00  0.00     0.179 C 
HETATM   22  O2  UNL     1       3.460  -0.461   3.632  1.00  0.00    -0.646 OA
BRANCH  21  23
HETATM   23  O3  UNL     1       3.553   1.139   2.094  1.00  0.00    -0.773 OA
HETATM   24  H9  UNL     1       4.098   1.793   2.678  1.00  0.00     0.167 HD
ENDBRANCH  21  23
ENDBRANCH   5  21
BRANCH   1  25
HETATM   25  O1  UNL     1      -3.046   0.625  -1.639  1.00  0.00    -0.355 OA
HETATM   26  C1  UNL     1      -2.566   1.720  -2.422  1.00  0.00     0.210 C 
ENDBRANCH   1  25
BRANCH  10  27
HETATM   27  P1  UNL     1      -4.526  -1.683  -0.288  1.00  0.00    -0.096 P 
HETATM   28  C18 UNL     1      -5.312  -2.271   1.293  1.00  0.00     0.046 C 
HETATM   29  H12 UNL     1      -5.342  -0.593  -0.811  1.00  0.00     0.062 HD
ENDBRANCH  10  27
TORSDOF 6
