REMARK  6 active torsions:
REMARK  status: ('A' for Active; 'I' for Inactive)
REMARK    1  A    between atoms: O1_2  and  C2_3 
REMARK    2  A    between atoms: C6_8  and  C7_9 
REMARK    3  A    between atoms: C7_9  and  O3_11 
REMARK    4  A    between atoms: C8_12  and  N2_13 
REMARK    5  A    between atoms: N2_13  and  C9_14 
REMARK    6  A    between atoms: C17_24  and  O4_25 
ROOT
HETATM    1  C2  UNL     1       3.143   0.820   0.235  1.00  0.00     0.103 A 
HETATM    2  C3  UNL     1       2.789   1.053  -1.080  1.00  0.00     0.072 A 
HETATM    3  C4  UNL     1       1.601   0.560  -1.577  1.00  0.00     0.071 A 
HETATM    4  N1  UNL     1       1.244   0.780  -2.857  1.00  0.00    -0.259 NA
HETATM    5  C5  UNL     1       0.070   0.275  -3.297  1.00  0.00     0.138 A 
HETATM    6  C6  UNL     1      -0.724  -0.440  -2.447  1.00  0.00     0.082 A 
HETATM    7  C8  UNL     1      -0.374  -0.676  -1.132  1.00  0.00     0.064 A 
HETATM    8  C15 UNL     1       0.827  -0.154  -0.699  1.00  0.00     0.023 A 
HETATM    9  C16 UNL     1       1.148  -0.407   0.620  1.00  0.00     0.055 A 
HETATM   10  C17 UNL     1       2.344   0.097   1.101  1.00  0.00     0.102 A 
ENDROOT
BRANCH   7  11
HETATM   11  N2  UNL     1      -1.280  -1.433  -0.346  1.00  0.00    -0.355 N 
HETATM   12  H7  UNL     1      -1.217  -2.475  -0.287  1.00  0.00     0.166 HD
BRANCH  11  13
HETATM   13  C9  UNL     1      -2.311  -0.784   0.390  1.00  0.00     0.034 A 
HETATM   14  C10 UNL     1      -3.231  -1.467   1.179  1.00  0.00     0.032 A 
HETATM   15  C11 UNL     1      -4.225  -0.815   1.885  1.00  0.00     0.046 A 
HETATM   16  C12 UNL     1      -4.296   0.572   1.796  1.00  0.00     0.138 A 
HETATM   17  F1  UNL     1      -5.254   1.209   2.476  1.00  0.00    -0.204 F 
HETATM   18  C13 UNL     1      -3.417   1.281   1.036  1.00  0.00     0.074 A 
HETATM   19 CL1  UNL     1      -3.478   3.038   0.901  1.00  0.00    -0.081 Cl
HETATM   20  C14 UNL     1      -2.454   0.585   0.358  1.00  0.00     0.056 A 
ENDBRANCH  11  13
ENDBRANCH   7  11
BRANCH   6  21
HETATM   21  C7  UNL     1      -1.957  -0.924  -3.053  1.00  0.00     0.179 C 
HETATM   22  O2  UNL     1      -2.371  -0.762  -4.250  1.00  0.00    -0.646 OA
BRANCH  21  23
HETATM   23  O3  UNL     1      -2.988  -1.673  -2.503  1.00  0.00    -0.773 OA
HETATM   24  H6  UNL     1      -3.232  -2.605  -2.826  1.00  0.00     0.167 HD
ENDBRANCH  21  23
ENDBRANCH   6  21
BRANCH  10  25
HETATM   25  O4  UNL     1       2.765  -0.098   2.409  1.00  0.00    -0.353 OA
HETATM   26  C18 UNL     1       1.939  -0.837   3.277  1.00  0.00     0.210 C 
ENDBRANCH  10  25
BRANCH   1  27
HETATM   27  O1  UNL     1       4.344   1.329   0.709  1.00  0.00    -0.353 OA
HETATM   28  C1  UNL     1       5.188   2.077  -0.157  1.00  0.00     0.210 C 
ENDBRANCH   1  27
TORSDOF 6
