REMARK  2 active torsions:
REMARK  status: ('A' for Active; 'I' for Inactive)
REMARK    1  A    between atoms: C2_2  and  C3_3 
REMARK    2  A    between atoms: C7_8  and  C8_9 
ROOT
HETATM    1  C3  UNL     1      -1.550   0.566   1.401  1.00  0.00    -0.044 C 
HETATM    2  C4  UNL     1      -0.758   1.618   1.373  1.00  0.00     0.027 C 
HETATM    3  C5  UNL     1       0.381   2.274   0.876  1.00  0.00     0.275 C 
HETATM    4  N1  UNL     1       1.408   2.579   0.282  1.00  0.00    -0.411 NA
HETATM    5  C6  UNL     1       2.385   2.171  -0.641  1.00  0.00     0.131 C 
HETATM    6  C7  UNL     1       2.558   1.071  -1.523  1.00  0.00     0.001 C 
HETATM    7  C9  UNL     1       1.613  -0.012  -1.804  1.00  0.00     0.159 C 
HETATM    8  N2  UNL     1       1.735  -1.351  -1.475  1.00  0.00    -0.386 N 
HETATM    9  C10 UNL     1       0.365  -1.720  -1.081  1.00  0.00     0.030 A 
HETATM   10  C11 UNL     1      -0.633  -2.615  -1.371  1.00  0.00     0.056 A 
HETATM   11  C12 UNL     1      -1.880  -2.544  -0.800  1.00  0.00     0.075 A 
HETATM   12 CL1  UNL     1      -2.977  -3.768  -1.318  1.00  0.00    -0.081 Cl
HETATM   13  C13 UNL     1      -2.134  -1.531   0.101  1.00  0.00     0.148 A 
HETATM   14  F1  UNL     1      -3.399  -1.479   0.647  1.00  0.00    -0.203 F 
HETATM   15  C14 UNL     1      -1.291  -0.538   0.537  1.00  0.00     0.013 A 
HETATM   16  C15 UNL     1      -0.133  -0.785  -0.131  1.00  0.00     0.044 A 
HETATM   17  H12 UNL     1       2.025  -2.321  -1.279  1.00  0.00     0.160 HD
ENDROOT
BRANCH   6  18
HETATM   18  C8  UNL     1       3.797   1.231  -2.205  1.00  0.00     0.150 A 
HETATM   19  O1  UNL     1       4.154   0.333  -3.002  1.00  0.00    -0.189 OA
HETATM   20  O2  UNL     1       5.011   1.530  -2.787  1.00  0.00     0.000 OA
HETATM   21  H9  UNL     1       5.477   2.398  -2.705  1.00  0.00     0.000 HD
ENDBRANCH   6  18
BRANCH   1  22
HETATM   22  C2  UNL     1      -2.759   0.434   2.235  1.00  0.00     0.035 C 
HETATM   23  C1  UNL     1      -2.707  -0.677   3.226  1.00  0.00     0.010 C 
ENDBRANCH   1  22
TORSDOF 2
