REMARK  2 active torsions:
REMARK  status: ('A' for Active; 'I' for Inactive)
REMARK    1  A    between atoms: C6_8  and  N2_9 
REMARK    2  A    between atoms: N2_9  and  C7_10 
ROOT
HETATM    1  C1  UNL     1      -3.211   1.387  -2.699  1.00  0.00     0.053 C 
HETATM    2  C2  UNL     1      -3.090   1.389  -1.160  1.00  0.00     0.197 A 
HETATM    3  C3  UNL     1      -3.462   2.852  -0.806  1.00  0.00     0.053 C 
HETATM    4  N1  UNL     1      -1.819   1.179  -0.673  1.00  0.00     0.248 N 
HETATM    5  O1  UNL     1      -1.095   0.055  -0.904  1.00  0.00    -0.145 OA
HETATM    6  C4  UNL     1      -0.035  -0.323  -0.083  1.00  0.00     0.193 C 
HETATM    7  C5  UNL     1       0.729  -0.757   0.875  1.00  0.00     0.063 A 
HETATM    8  C6  UNL     1       2.044  -0.636   0.573  1.00  0.00     0.144 A 
HETATM    9  N3  UNL     1       2.936  -0.976   1.501  1.00  0.00    -0.223 NA
HETATM   10  C13 UNL     1       2.556  -1.418   2.685  1.00  0.00     0.236 A 
HETATM   11  N4  UNL     1       1.250  -1.519   2.930  1.00  0.00    -0.241 NA
HETATM   12  C14 UNL     1       0.272  -1.204   2.058  1.00  0.00     0.073 A 
HETATM   13  C15 UNL     1      -0.865  -1.520   2.597  1.00  0.00     0.031 C 
HETATM   14  C16 UNL     1      -2.273  -1.609   2.327  1.00  0.00     0.002 C 
HETATM   15  C17 UNL     1      -3.384  -1.541   1.657  1.00  0.00     0.127 C 
HETATM   16  N5  UNL     1      -4.418  -1.396   0.755  1.00  0.00    -0.395 N 
HETATM   17  C18 UNL     1      -5.130  -0.375   0.086  1.00  0.00     0.188 C 
HETATM   18 CL1  UNL     1      -6.239   0.481   1.186  1.00  0.00    -0.102 Cl
HETATM   19  C19 UNL     1      -4.195   0.556  -0.582  1.00  0.00     0.060 A 
HETATM   20  O2  UNL     1      -3.017   0.406  -0.367  1.00  0.00     0.000 OA
HETATM   21  H7  UNL     1      -1.348   1.904  -0.113  1.00  0.00     0.360 HD
HETATM   22  H18 UNL     1      -4.660  -2.413   0.652  1.00  0.00     0.155 HD
ENDROOT
BRANCH   8  23
HETATM   23  N2  UNL     1       2.613  -0.167  -0.643  1.00  0.00    -0.340 N 
HETATM   24  H9  UNL     1       2.158   0.206  -1.523  1.00  0.00     0.167 HD
BRANCH  23  25
HETATM   25  C7  UNL     1       4.011  -0.123  -0.897  1.00  0.00     0.033 A 
HETATM   26  C8  UNL     1       4.645   0.809  -1.684  1.00  0.00     0.032 A 
HETATM   27  C9  UNL     1       5.971   0.885  -1.966  1.00  0.00     0.044 A 
HETATM   28  C10 UNL     1       6.814  -0.061  -1.422  1.00  0.00     0.116 A 
HETATM   29  F1  UNL     1       8.134   0.001  -1.692  1.00  0.00    -0.206 F 
HETATM   30  C11 UNL     1       6.257  -1.052  -0.604  1.00  0.00     0.044 A 
HETATM   31  C12 UNL     1       4.902  -1.047  -0.376  1.00  0.00     0.032 A 
ENDBRANCH  23  25
ENDBRANCH   8  23
TORSDOF 2
