REMARK  4 active torsions:
REMARK  status: ('A' for Active; 'I' for Inactive)
REMARK    1  A    between atoms: N1_5  and  C5_6 
REMARK    2  A    between atoms: C10_13  and  N4_14 
REMARK       I    between atoms: N4_14  and  C11_15 
REMARK    3  A    between atoms: C11_15  and  C12_17 
REMARK    4  A    between atoms: N5_22  and  O2_23 
ROOT
HETATM    1  C5  UNL     1       4.124   0.035  -1.626  1.00  0.00     0.142 A 
HETATM    2  N2  UNL     1       5.121   0.152  -2.534  1.00  0.00    -0.224 NA
HETATM    3  C6  UNL     1       4.973   0.661  -3.762  1.00  0.00     0.236 A 
HETATM    4  N3  UNL     1       3.769   1.095  -4.152  1.00  0.00    -0.241 NA
HETATM    5  C7  UNL     1       2.728   1.022  -3.333  1.00  0.00     0.072 A 
HETATM    6  C8  UNL     1       1.483   1.456  -3.729  1.00  0.00     0.035 A 
HETATM    7  C9  UNL     1       0.463   1.328  -2.812  1.00  0.00     0.032 A 
HETATM    8  C10 UNL     1       0.580   0.807  -1.543  1.00  0.00     0.035 A 
HETATM    9  C21 UNL     1       1.850   0.396  -1.219  1.00  0.00     0.047 A 
HETATM   10  C22 UNL     1       2.910   0.494  -2.079  1.00  0.00     0.041 A 
ENDROOT
BRANCH   8  11
HETATM   11  N4  UNL     1      -0.446   0.671  -0.603  1.00  0.00    -0.327 N 
HETATM   12  C11 UNL     1      -1.817   1.004  -0.660  1.00  0.00     0.226 C 
HETATM   13  O1  UNL     1      -2.225   1.515  -1.730  1.00  0.00    -0.273 OA
HETATM   14  H10 UNL     1      -0.238   0.254   0.344  1.00  0.00     0.169 HD
BRANCH  12  15
HETATM   15  C12 UNL     1      -2.817   0.813   0.407  1.00  0.00     0.082 C 
HETATM   16  C13 UNL     1      -4.140   1.313  -0.105  1.00  0.00     0.041 C 
HETATM   17  C14 UNL     1      -5.279   0.362   0.052  1.00  0.00     0.033 C 
HETATM   18  C15 UNL     1      -6.568   1.175  -0.009  1.00  0.00     0.034 C 
HETATM   19  C16 UNL     1      -5.396  -0.656  -1.058  1.00  0.00     0.034 C 
HETATM   20  N5  UNL     1      -5.242  -0.221   1.352  1.00  0.00    -0.182 NA
HETATM   21  C17 UNL     1      -4.073  -0.959   1.666  1.00  0.00     0.033 C 
HETATM   22  C18 UNL     1      -3.847  -0.838   3.179  1.00  0.00     0.034 C 
HETATM   23  C19 UNL     1      -4.390  -2.442   1.432  1.00  0.00     0.034 C 
HETATM   24  C20 UNL     1      -2.854  -0.615   0.898  1.00  0.00     0.041 C 
BRANCH  20  25
HETATM   25  O2  UNL     1      -5.535   0.716   2.284  1.00  0.00    -0.312 OA
HETATM   26  H20 UNL     1      -5.068   1.564   2.177  1.00  0.00     0.237 HD
ENDBRANCH  20  25
ENDBRANCH  12  15
ENDBRANCH   8  11
BRANCH   1  27
HETATM   27  N1  UNL     1       4.486  -0.469  -0.346  1.00  0.00    -0.331 N 
HETATM   28  C4  UNL     1       5.648  -1.390  -0.357  1.00  0.00     0.155 C 
HETATM   29  C3  UNL     1       6.808  -0.525  -0.009  1.00  0.00    -0.005 C 
HETATM   30  C2  UNL     1       6.560   0.005   1.182  1.00  0.00    -0.082 C 
HETATM   31  C1  UNL     1       7.672   0.901   1.631  1.00  0.00     0.043 C 
HETATM   32  C24 UNL     1       5.321  -0.276   1.955  1.00  0.00     0.092 C 
HETATM   33  C23 UNL     1       4.080  -0.323   1.035  1.00  0.00     0.277 C 
HETATM   34  F1  UNL     1       3.352  -1.398   1.505  1.00  0.00    -0.226 F 
ENDBRANCH   1  27
TORSDOF 4
