REMARK  4 active torsions:
REMARK  status: ('A' for Active; 'I' for Inactive)
REMARK    1  A    between atoms: C2_2  and  N1_3 
REMARK    2  A    between atoms: N1_3  and  C3_4 
REMARK    3  A    between atoms: C8_10  and  O2_11 
REMARK    4  A    between atoms: C17_22  and  N3_24 
ROOT
HETATM    1  C3  UNL     1      -0.449   0.743   0.549  1.00  0.00     0.022 C 
HETATM    2  C4  UNL     1       0.511  -0.180   0.529  1.00  0.00     0.000 A 
HETATM    3  C5  UNL     1       1.594   0.312  -0.153  1.00  0.00     0.054 A 
HETATM    4  C6  UNL     1       2.888   0.101  -0.591  1.00  0.00     0.102 A 
HETATM    5  O1  UNL     1       4.036   0.069  -1.055  1.00  0.00    -0.353 OA
HETATM    6  C7  UNL     1       5.221   0.042  -1.536  1.00  0.00     0.210 C 
HETATM    7  C8  UNL     1       3.102  -1.243  -0.041  1.00  0.00     0.102 A 
HETATM    8  C10 UNL     1       2.160  -2.032   0.723  1.00  0.00     0.053 A 
HETATM    9  C11 UNL     1       0.924  -1.386   0.926  1.00  0.00    -0.010 A 
HETATM   10  C12 UNL     1      -0.064  -2.074   1.533  1.00  0.00    -0.008 C 
HETATM   11  C13 UNL     1      -0.407  -2.982   0.577  1.00  0.00     0.087 C 
HETATM   12  C14 UNL     1      -1.075  -2.168  -0.409  1.00  0.00     0.242 C 
HETATM   13  O3  UNL     1      -2.237  -2.013   0.040  1.00  0.00    -0.269 OA
HETATM   14  N2  UNL     1      -1.608  -1.380  -1.432  1.00  0.00    -0.357 N 
HETATM   15  C15 UNL     1      -2.868  -0.694  -1.660  1.00  0.00     0.125 C 
HETATM   16  C16 UNL     1      -3.089   0.553  -0.929  1.00  0.00     0.047 C 
HETATM   17  C17 UNL     1      -2.961   0.853   0.474  1.00  0.00     0.043 C 
HETATM   18  C18 UNL     1      -3.285   2.364   0.641  1.00  0.00     0.035 C 
HETATM   19  C19 UNL     1      -1.718   0.526   1.236  1.00  0.00     0.085 C 
HETATM   20  H14 UNL     1      -0.658  -1.569  -1.873  1.00  0.00     0.162 HD
ENDROOT
BRANCH   7  21
HETATM   21  O2  UNL     1       4.240  -2.091  -0.098  1.00  0.00    -0.353 OA
HETATM   22  C9  UNL     1       4.347  -3.334   0.494  1.00  0.00     0.210 C 
ENDBRANCH   7  21
BRANCH   1  23
HETATM   23  N1  UNL     1      -0.360   1.999  -0.039  1.00  0.00    -0.369 N 
HETATM   24  H4  UNL     1       0.287   2.276   0.777  1.00  0.00     0.165 HD
BRANCH  23  25
HETATM   25  C2  UNL     1      -0.244   3.246  -0.580  1.00  0.00     0.078 C 
HETATM   26  C1  UNL     1      -0.312   4.498  -0.196  1.00  0.00     0.029 C 
ENDBRANCH  23  25
ENDBRANCH   1  23
BRANCH  17  27
HETATM   27  N3  UNL     1      -4.153   0.260   1.169  1.00  0.00    -0.153 NA
HETATM   28  F1  UNL     1      -5.281   0.929   0.790  1.00  0.00    -0.135 F 
HETATM   29  H22 UNL     1      -4.342  -0.707   0.792  1.00  0.00     0.160 HD
ENDBRANCH  17  27
TORSDOF 4
