REMARK  7 active torsions:
REMARK  status: ('A' for Active; 'I' for Inactive)
REMARK    1  A    between atoms: C2_2  and  N1_3 
REMARK    2  A    between atoms: N1_3  and  C3_4 
REMARK    3  A    between atoms: C4_5  and  C5_6 
REMARK       I    between atoms: C5_6  and  N2_8 
REMARK    4  A    between atoms: N2_8  and  C6_9 
REMARK    5  A    between atoms: N3_14  and  P1_15 
REMARK    6  A    between atoms: C18_24  and  O2_25 
REMARK    7  A    between atoms: C20_27  and  O3_28 
ROOT
HETATM    1  C3  UNL     1       1.854  -1.454   1.113  1.00  0.00     0.058 A 
HETATM    2  C4  UNL     1       1.023  -0.495   0.571  1.00  0.00     0.076 A 
HETATM    3  C15 UNL     1       1.173   0.853   0.726  1.00  0.00     0.136 A 
HETATM    4  N4  UNL     1       2.216   1.238   1.466  1.00  0.00    -0.259 NA
HETATM    5  C16 UNL     1       3.082   0.409   2.037  1.00  0.00     0.071 A 
HETATM    6  C17 UNL     1       4.101   0.971   2.763  1.00  0.00     0.072 A 
HETATM    7  C18 UNL     1       5.031   0.166   3.378  1.00  0.00     0.103 A 
HETATM    8  C20 UNL     1       4.901  -1.223   3.239  1.00  0.00     0.102 A 
HETATM    9  C22 UNL     1       3.843  -1.746   2.487  1.00  0.00     0.055 A 
HETATM   10  C23 UNL     1       2.913  -0.947   1.871  1.00  0.00     0.023 A 
ENDROOT
BRANCH   2  11
HETATM   11  C5  UNL     1      -0.030  -1.005  -0.237  1.00  0.00     0.255 C 
HETATM   12  O1  UNL     1      -0.597  -2.000  -0.824  1.00  0.00    -0.268 OA
HETATM   13  N2  UNL     1      -1.052  -0.089  -0.722  1.00  0.00    -0.352 N 
HETATM   14  H5  UNL     1      -1.105   0.952  -0.521  1.00  0.00     0.163 HD
BRANCH  13  15
HETATM   15  C6  UNL     1      -2.239  -0.143  -1.529  1.00  0.00     0.088 C 
HETATM   16  C7  UNL     1      -3.466   0.125  -0.689  1.00  0.00     0.050 C 
HETATM   17  C8  UNL     1      -4.584   0.644  -1.567  1.00  0.00     0.012 C 
HETATM   18  C9  UNL     1      -5.771   0.845  -0.650  1.00  0.00     0.032 C 
HETATM   19  C10 UNL     1      -4.977  -0.316  -2.641  1.00  0.00     0.032 C 
HETATM   20  N3  UNL     1      -4.163   1.925  -2.073  1.00  0.00    -0.278 NA
HETATM   21  C11 UNL     1      -2.958   1.897  -2.855  1.00  0.00     0.012 C 
HETATM   22  C12 UNL     1      -3.397   2.078  -4.313  1.00  0.00     0.032 C 
HETATM   23  C13 UNL     1      -2.085   3.111  -2.552  1.00  0.00     0.032 C 
HETATM   24  C14 UNL     1      -2.142   0.662  -2.776  1.00  0.00     0.050 C 
BRANCH  20  25
HETATM   25  P1  UNL     1      -4.038   3.147  -0.754  1.00  0.00    -0.065 P 
HETATM   26  H15 UNL     1      -2.743   3.072  -0.090  1.00  0.00     0.071 HD
HETATM   27  H16 UNL     1      -5.097   2.930   0.223  1.00  0.00     0.071 HD
ENDBRANCH  20  25
ENDBRANCH  13  15
ENDBRANCH   2  11
BRANCH   1  28
HETATM   28  N1  UNL     1       1.731  -2.856   0.969  1.00  0.00    -0.388 N 
HETATM   29  H4  UNL     1       1.110  -3.396   1.605  1.00  0.00     0.159 HD
BRANCH  28  30
HETATM   30  C2  UNL     1       2.528  -3.398  -0.106  1.00  0.00     0.062 C 
HETATM   31  C1  UNL     1       2.126  -4.193  -1.059  1.00  0.00     0.079 C 
ENDBRANCH  28  30
ENDBRANCH   1  28
BRANCH   8  32
HETATM   32  O3  UNL     1       5.783  -2.118   3.820  1.00  0.00    -0.353 OA
HETATM   33  C21 UNL     1       5.577  -3.493   3.628  1.00  0.00     0.210 C 
ENDBRANCH   8  32
BRANCH   7  34
HETATM   34  O2  UNL     1       6.142   0.519   4.149  1.00  0.00    -0.353 OA
HETATM   35  C19 UNL     1       6.471   1.882   4.425  1.00  0.00     0.210 C 
ENDBRANCH   7  34
TORSDOF 7
