REMARK  5 active torsions:
REMARK  status: ('A' for Active; 'I' for Inactive)
REMARK    1  A    between atoms: O1_2  and  C2_3 
REMARK    2  A    between atoms: C2_3  and  C3_4 
REMARK    3  A    between atoms: C7_11  and  N2_12 
REMARK    4  A    between atoms: N2_12  and  C8_13 
REMARK    5  A    between atoms: C16_21  and  O2_22 
ROOT
HETATM    1  C3  UNL     1       2.740   0.220  -0.829  1.00  0.00     0.048 A 
HETATM    2  C4  UNL     1       2.565  -0.895  -1.730  1.00  0.00     0.197 A 
HETATM    3  N1  UNL     1       1.470  -1.309  -1.780  1.00  0.00    -0.429 NA
HETATM    4  C5  UNL     1       0.356  -1.953  -2.019  1.00  0.00     0.188 A 
HETATM    5  C6  UNL     1      -0.864  -2.409  -2.086  1.00  0.00     0.000 A 
HETATM    6 CL1  UNL     1      -1.350  -3.798  -3.065  1.00  0.00    -0.100 Cl
HETATM    7  B1  UNL     1      -2.096  -1.772  -1.321  1.00  0.00     0.265 B 
HETATM    8  C7  UNL     1      -1.758  -0.571  -0.356  1.00  0.00    -0.044 A 
HETATM    9  C14 UNL     1      -0.476  -0.111  -0.291  1.00  0.00     0.057 A 
HETATM   10  C15 UNL     1       0.425   0.899   0.354  1.00  0.00     0.021 A 
HETATM   11  C16 UNL     1       1.717   0.853  -0.018  1.00  0.00     0.079 A 
HETATM   12  H7  UNL     1      -2.980  -1.504  -2.115  1.00  0.00    -0.013 HD
ENDROOT
BRANCH   8  13
HETATM   13  N2  UNL     1      -3.082  -0.313   0.237  1.00  0.00    -0.373 N 
HETATM   14  H8  UNL     1      -3.858   0.045  -0.354  1.00  0.00     0.164 HD
BRANCH  13  15
HETATM   15  C8  UNL     1      -3.580  -0.451   1.564  1.00  0.00     0.031 A 
HETATM   16  C9  UNL     1      -4.196  -1.524   2.131  1.00  0.00     0.029 A 
HETATM   17  C10 UNL     1      -4.623  -1.486   3.457  1.00  0.00     0.002 A 
HETATM   18  C11 UNL     1      -4.400  -0.327   4.175  1.00  0.00     0.000 A 
HETATM   19  C12 UNL     1      -3.777   0.769   3.614  1.00  0.00     0.002 A 
HETATM   20  C13 UNL     1      -3.348   0.731   2.282  1.00  0.00     0.029 A 
ENDBRANCH  13  15
ENDBRANCH   8  13
BRANCH  11  21
HETATM   21  O2  UNL     1       2.463   1.848   0.652  1.00  0.00    -0.355 OA
HETATM   22  C17 UNL     1       2.688   3.135   0.181  1.00  0.00     0.210 C 
ENDBRANCH  11  21
BRANCH   1  23
HETATM   23  C2  UNL     1       4.012   0.511  -0.911  1.00  0.00     0.150 C 
BRANCH  23  24
HETATM   24  O1  UNL     1       4.874  -0.159  -1.704  1.00  0.00    -0.367 OA
HETATM   25  C1  UNL     1       5.354   0.258  -2.973  1.00  0.00     0.208 C 
ENDBRANCH  23  24
ENDBRANCH   1  23
TORSDOF 5
