REMARK  6 active torsions:
REMARK  status: ('A' for Active; 'I' for Inactive)
REMARK    1  A    between atoms: C2_2  and  C3_3 
REMARK    2  A    between atoms: C3_3  and  C4_4 
REMARK    3  A    between atoms: C6_6  and  C7_7 
REMARK    4  A    between atoms: C7_7  and  N1_8 
REMARK    5  A    between atoms: N1_8  and  C8_9 
REMARK    6  A    between atoms: N4_23  and  O2_24 
ROOT
HETATM    1  C8  UNL     1       0.581  -0.633   0.313  1.00  0.00     0.094 A 
HETATM    2  C9  UNL     1       0.433   0.310   1.347  1.00  0.00     0.032 A 
HETATM    3  C10 UNL     1       1.205  -0.728   1.870  1.00  0.00     0.153 A 
HETATM    4  N2  UNL     1       1.640  -1.861   1.331  1.00  0.00    -0.292 NA
HETATM    5  C11 UNL     1       1.393  -2.237   0.080  1.00  0.00     0.126 A 
HETATM    6  C12 UNL     1       0.648  -1.463  -0.775  1.00  0.00     0.057 A 
HETATM    7  C13 UNL     1      -0.104  -1.151  -2.044  1.00  0.00     0.252 C 
HETATM    8  O1  UNL     1       0.699  -1.595  -2.609  1.00  0.00    -0.268 OA
HETATM    9  N3  UNL     1      -1.284  -0.539  -1.799  1.00  0.00    -0.352 N 
HETATM   10  C14 UNL     1      -2.576   0.132  -1.530  1.00  0.00     0.089 C 
HETATM   11  C15 UNL     1      -3.385  -0.826  -0.701  1.00  0.00     0.057 C 
HETATM   12  C16 UNL     1      -3.613  -0.318   0.686  1.00  0.00     0.049 C 
HETATM   13  C17 UNL     1      -4.811   0.590   0.768  1.00  0.00     0.040 C 
HETATM   14  C18 UNL     1      -4.012  -1.557   1.526  1.00  0.00     0.040 C 
HETATM   15  N4  UNL     1      -2.413   0.152   1.235  1.00  0.00    -0.278 N 
HETATM   16  C19 UNL     1      -1.777   1.288   0.639  1.00  0.00     0.054 C 
HETATM   17  C20 UNL     1      -2.501   2.496   1.292  1.00  0.00     0.041 C 
HETATM   18  C21 UNL     1      -0.353   1.495   1.082  1.00  0.00     0.048 C 
HETATM   19  C22 UNL     1      -2.125   1.377  -0.797  1.00  0.00     0.058 C 
HETATM   20  H13 UNL     1      -1.318  -0.599  -2.872  1.00  0.00     0.163 HD
ENDROOT
BRANCH   1  21
HETATM   21  N1  UNL     1       0.852   0.445  -0.644  1.00  0.00    -0.403 N 
HETATM   22  H10 UNL     1       0.596   1.109  -1.388  1.00  0.00     0.154 HD
BRANCH  21  23
HETATM   23  C7  UNL     1       2.232   0.827  -0.616  1.00  0.00     0.143 C 
BRANCH  23  24
HETATM   24  C6  UNL     1       3.174  -0.028  -1.347  1.00  0.00    -0.001 C 
HETATM   25  C4  UNL     1       4.237  -0.768  -1.113  1.00  0.00    -0.057 C 
HETATM   26  C5  UNL     1       4.820  -1.456  -2.279  1.00  0.00     0.048 C 
BRANCH  25  27
HETATM   27  C3  UNL     1       4.766  -0.870   0.232  1.00  0.00     0.057 C 
BRANCH  27  28
HETATM   28  C2  UNL     1       5.994  -0.449   0.413  1.00  0.00    -0.154 C 
HETATM   29  C1  UNL     1       7.111   0.248   0.491  1.00  0.00     0.096 C 
ENDBRANCH  27  28
ENDBRANCH  25  27
ENDBRANCH  23  24
ENDBRANCH  21  23
ENDBRANCH   1  21
BRANCH  15  30
HETATM   30  O2  UNL     1      -2.267   0.051   2.552  1.00  0.00    -0.291 OA
HETATM   31  H23 UNL     1      -2.132  -0.831   2.925  1.00  0.00     0.244 HD
ENDBRANCH  15  30
TORSDOF 6
