REMARK  7 active torsions:
REMARK  status: ('A' for Active; 'I' for Inactive)
REMARK    1  A    between atoms: O1_2  and  C2_3 
REMARK    2  A    between atoms: C2_3  and  C3_4 
REMARK    3  A    between atoms: C3_4  and  O3_23 
REMARK    4  A    between atoms: C4_5  and  C5_6 
REMARK    5  A    between atoms: C6_7  and  N1_8 
REMARK    6  A    between atoms: N1_8  and  C7_9 
REMARK    7  A    between atoms: C15_20  and  O2_21 
ROOT
HETATM    1  C5  UNL     1      -0.006  -1.413   0.461  1.00  0.00     0.046 A 
HETATM    2  C6  UNL     1       1.083  -1.010  -0.267  1.00  0.00     0.048 A 
HETATM    3  C13 UNL     1       1.848  -1.961  -0.897  1.00  0.00     0.050 A 
HETATM    4  C14 UNL     1       1.533  -3.283  -0.801  1.00  0.00     0.122 A 
HETATM    5  N2  UNL     1       0.465  -3.672  -0.085  1.00  0.00    -0.236 NA
HETATM    6  C15 UNL     1      -0.323  -2.777   0.556  1.00  0.00     0.176 A 
ENDROOT
BRANCH   2   7
HETATM    7  N1  UNL     1       1.388   0.369  -0.310  1.00  0.00    -0.355 N 
HETATM    8  H7  UNL     1       0.777   1.053   0.182  1.00  0.00     0.166 HD
BRANCH   7   9
HETATM    9  C7  UNL     1       2.428   1.108  -0.897  1.00  0.00     0.034 A 
HETATM   10  C8  UNL     1       3.753   0.734  -0.948  1.00  0.00     0.032 A 
HETATM   11  C9  UNL     1       4.774   1.436  -1.545  1.00  0.00     0.046 A 
HETATM   12  C10 UNL     1       4.468   2.624  -2.156  1.00  0.00     0.138 A 
HETATM   13  F1  UNL     1       5.400   3.372  -2.762  1.00  0.00    -0.204 F 
HETATM   14  C11 UNL     1       3.187   3.085  -2.161  1.00  0.00     0.074 A 
HETATM   15 CL1  UNL     1       2.784   4.601  -2.937  1.00  0.00    -0.081 Cl
HETATM   16  C12 UNL     1       2.214   2.331  -1.544  1.00  0.00     0.056 A 
ENDBRANCH   7   9
ENDBRANCH   2   7
BRANCH   1  17
HETATM   17  C4  UNL     1      -0.961  -0.526   1.154  1.00  0.00     0.052 C 
HETATM   18  C3  UNL     1      -1.659   0.586   0.892  1.00  0.00     0.070 C 
BRANCH  18  19
HETATM   19  C2  UNL     1      -2.557   1.225   1.869  1.00  0.00     0.231 C 
BRANCH  19  20
HETATM   20  O1  UNL     1      -3.858   1.294   1.435  1.00  0.00    -0.390 OA
HETATM   21  C1  UNL     1      -4.639   1.919   2.428  1.00  0.00     0.201 C 
ENDBRANCH  19  20
ENDBRANCH  18  19
BRANCH  18  22
HETATM   22  O3  UNL     1      -1.836   1.459  -0.163  1.00  0.00    -0.358 OA
HETATM   23  C17 UNL     1      -1.863   1.128  -1.519  1.00  0.00     0.209 C 
ENDBRANCH  18  22
ENDBRANCH   1  17
BRANCH   6  24
HETATM   24  O2  UNL     1      -1.425  -3.189   1.295  1.00  0.00    -0.339 OA
HETATM   25  C16 UNL     1      -1.688  -4.577   1.348  1.00  0.00     0.211 C 
ENDBRANCH   6  24
TORSDOF 7
