REMARK  4 active torsions:
REMARK  status: ('A' for Active; 'I' for Inactive)
REMARK    1  A    between atoms: C4_5  and  C5_6 
REMARK       I    between atoms: C5_6  and  N1_8 
REMARK    2  A    between atoms: N1_8  and  C6_9 
REMARK    3  A    between atoms: N2_14  and  O2_15 
REMARK    4  A    between atoms: C18_24  and  O3_25 
ROOT
HETATM    1  B1  UNL     1       4.210   2.861   2.936  1.00  0.00     0.190 B 
HETATM    2  C1  UNL     1       4.104   0.493   1.343  1.00  0.00    -0.250 C 
HETATM    3  C2  UNL     1       4.055  -0.665   0.593  1.00  0.00     0.097 C 
HETATM    4  C3  UNL     1       2.702  -0.245   0.392  1.00  0.00     0.067 C 
HETATM    5  C4  UNL     1       2.390   0.495  -0.915  1.00  0.00     0.029 C 
HETATM    6  C15 UNL     1       2.921   1.096  -1.991  1.00  0.00     0.129 C 
HETATM    7  N3  UNL     1       4.255   1.359  -2.480  1.00  0.00    -0.272 NA
HETATM    8  C16 UNL     1       5.471   1.068  -2.071  1.00  0.00     0.118 C 
HETATM    9  C17 UNL     1       5.996   0.321  -0.892  1.00  0.00     0.052 C 
HETATM   10  C18 UNL     1       5.377  -0.338   0.119  1.00  0.00     0.061 C 
ENDROOT
BRANCH  10  11
HETATM   11  O3  UNL     1       6.381  -0.836   0.929  1.00  0.00    -0.359 OA
HETATM   12  C19 UNL     1       6.576  -0.535   2.278  1.00  0.00     0.209 C 
ENDBRANCH  10  11
BRANCH   5  13
HETATM   13  C5  UNL     1       0.959   0.594  -1.082  1.00  0.00     0.249 C 
HETATM   14  O1  UNL     1       0.405   1.161  -2.077  1.00  0.00    -0.268 OA
HETATM   15  N1  UNL     1      -0.025   0.090  -0.190  1.00  0.00    -0.352 N 
HETATM   16  H4  UNL     1       0.289  -0.406   0.672  1.00  0.00     0.163 HD
BRANCH  15  17
HETATM   17  C6  UNL     1      -1.441   0.187  -0.351  1.00  0.00     0.088 C 
HETATM   18  C7  UNL     1      -1.983  -1.213  -0.664  1.00  0.00     0.052 C 
HETATM   19  C8  UNL     1      -3.462  -0.926  -0.960  1.00  0.00     0.034 C 
HETATM   20  C9  UNL     1      -4.028  -2.211  -1.518  1.00  0.00     0.034 C 
HETATM   21  C10 UNL     1      -3.628   0.144  -1.997  1.00  0.00     0.034 C 
HETATM   22  N2  UNL     1      -4.062  -0.650   0.290  1.00  0.00    -0.182 NA
HETATM   23  C11 UNL     1      -3.551   0.442   1.043  1.00  0.00     0.034 C 
HETATM   24  C12 UNL     1      -3.694   0.058   2.506  1.00  0.00     0.034 C 
HETATM   25  C13 UNL     1      -4.496   1.607   0.818  1.00  0.00     0.034 C 
HETATM   26  C14 UNL     1      -2.165   0.885   0.728  1.00  0.00     0.052 C 
BRANCH  22  27
HETATM   27  O2  UNL     1      -4.186  -1.794   0.995  1.00  0.00    -0.312 OA
HETATM   28  H14 UNL     1      -5.034  -1.834   1.511  1.00  0.00     0.237 HD
ENDBRANCH  22  27
ENDBRANCH  15  17
ENDBRANCH   5  13
TORSDOF 4
