REMARK  1 active torsions:
REMARK  status: ('A' for Active; 'I' for Inactive)
REMARK    1  A    between atoms: C12_16  and  N3_17 
ROOT
HETATM    1  C1  UNL     1      -3.934  -1.034   0.227  1.00  0.00     0.037 C 
HETATM    2  C2  UNL     1      -2.664  -1.027  -0.498  1.00  0.00    -0.017 C 
HETATM    3  C3  UNL     1      -1.776  -0.093  -0.204  1.00  0.00    -0.012 C 
HETATM    4  C4  UNL     1      -2.205   0.857   0.858  1.00  0.00     0.036 C 
HETATM    5  C5  UNL     1      -1.879   2.140   1.111  1.00  0.00     0.050 C 
HETATM    6 CL1  UNL     1      -3.215   2.943   1.910  1.00  0.00    -0.086 Cl
HETATM    7  C6  UNL     1      -0.698   3.043   0.892  1.00  0.00     0.246 C 
HETATM    8  F1  UNL     1      -0.244   3.545   2.092  1.00  0.00    -0.238 F 
HETATM    9  C7  UNL     1       0.344   2.423   0.088  1.00  0.00    -0.018 C 
HETATM   10  C8  UNL     1       0.459   2.162  -1.238  1.00  0.00     0.010 C 
HETATM   11  C9  UNL     1       0.012   0.794  -1.670  1.00  0.00     0.030 C 
HETATM   12  C10 UNL     1      -0.562  -0.274  -1.045  1.00  0.00     0.039 C 
HETATM   13  N1  UNL     1      -0.264  -1.655  -0.977  1.00  0.00    -0.371 N 
HETATM   14  C11 UNL     1       0.797  -2.549  -1.336  1.00  0.00     0.272 C 
HETATM   15  N2  UNL     1       1.984  -2.508  -0.586  1.00  0.00    -0.256 NA
HETATM   16  C12 UNL     1       2.597  -1.654   0.082  1.00  0.00     0.118 C 
HETATM   17  C13 UNL     1       2.745  -0.245   0.648  1.00  0.00     0.245 C 
HETATM   18  O1  UNL     1       1.702   0.519   0.275  1.00  0.00    -0.379 OA
HETATM   19  C14 UNL     1       1.633   1.835   0.659  1.00  0.00     0.205 C 
HETATM   20  H9  UNL     1      -0.999  -2.205  -0.524  1.00  0.00     0.161 HD
ENDROOT
BRANCH  16  21
HETATM   21  N3  UNL     1       3.743  -2.400   0.541  1.00  0.00    -0.386 N 
HETATM   22  H12 UNL     1       3.967  -3.003   1.384  1.00  0.00     0.157 HD
HETATM   23  H13 UNL     1       4.683  -2.507   0.084  1.00  0.00     0.157 HD
ENDBRANCH  16  21
TORSDOF 1
