REMARK  6 active torsions:
REMARK  status: ('A' for Active; 'I' for Inactive)
REMARK    1  A    between atoms: O1_2  and  C2_3 
REMARK    2  A    between atoms: N1_6  and  C5_7 
REMARK    3  A    between atoms: C5_7  and  C6_8 
REMARK    4  A    between atoms: C5_7  and  C7_10 
REMARK    5  A    between atoms: C7_10  and  N2_11 
REMARK    6  A    between atoms: N2_11  and  C8_12 
ROOT
HETATM    1  C5  UNL     1       0.247   0.563   0.037  1.00  0.00     0.135 C 
ENDROOT
BRANCH   1   2
HETATM    2  N1  UNL     1      -1.034  -0.121   0.010  1.00  0.00    -0.376 N 
HETATM    3  C4  UNL     1      -1.975   0.684  -0.738  1.00  0.00     0.152 C 
HETATM    4  C3  UNL     1      -3.327   0.721  -0.142  1.00  0.00     0.027 C 
HETATM    5  C2  UNL     1      -4.211  -0.256  -0.012  1.00  0.00     0.067 C 
HETATM    6  C16 UNL     1      -4.415  -1.674  -0.290  1.00  0.00     0.238 C 
HETATM    7  O3  UNL     1      -3.253  -2.474  -0.181  1.00  0.00    -0.355 OA
HETATM    8  C15 UNL     1      -2.111  -2.348   0.590  1.00  0.00     0.152 C 
HETATM    9  C14 UNL     1      -1.234  -1.374   0.637  1.00  0.00     0.110 C 
BRANCH   5  10
HETATM   10  O1  UNL     1      -5.336   0.307   0.621  1.00  0.00    -0.358 OA
HETATM   11  C1  UNL     1      -5.180   0.473   2.033  1.00  0.00     0.209 C 
ENDBRANCH   5  10
ENDBRANCH   1   2
BRANCH   1  12
HETATM   12  C6  UNL     1       0.726   0.716  -1.347  1.00  0.00     0.417 C 
HETATM   13  O2  UNL     1       0.615   0.555  -2.558  1.00  0.00    -0.428 OA
ENDBRANCH   1  12
BRANCH   1  14
HETATM   14  C7  UNL     1       1.216  -0.128   0.927  1.00  0.00     0.147 C 
BRANCH  14  15
HETATM   15  N2  UNL     1       2.528   0.476   1.009  1.00  0.00    -0.388 N 
HETATM   16  H11 UNL     1       2.685   1.074   1.879  1.00  0.00     0.159 HD
BRANCH  15  17
HETATM   17  C8  UNL     1       3.638   0.419   0.142  1.00  0.00     0.029 A 
HETATM   18  C9  UNL     1       3.719  -0.344  -1.002  1.00  0.00     0.032 A 
HETATM   19  C10 UNL     1       4.797  -0.379  -1.861  1.00  0.00     0.046 A 
HETATM   20  C11 UNL     1       5.897   0.401  -1.576  1.00  0.00     0.138 A 
HETATM   21  F1  UNL     1       6.970   0.388  -2.399  1.00  0.00    -0.204 F 
HETATM   22  C12 UNL     1       5.859   1.176  -0.446  1.00  0.00     0.074 A 
HETATM   23 CL1  UNL     1       7.236   2.169  -0.065  1.00  0.00    -0.081 Cl
HETATM   24  C13 UNL     1       4.760   1.179   0.382  1.00  0.00     0.056 A 
ENDBRANCH  15  17
ENDBRANCH  14  15
ENDBRANCH   1  14
TORSDOF 6
