REMARK  7 active torsions:
REMARK  status: ('A' for Active; 'I' for Inactive)
REMARK    1  A    between atoms: C2_2  and  C3_3 
REMARK    2  A    between atoms: C13_16  and  O1_17 
REMARK    3  A    between atoms: O1_17  and  C14_18 
REMARK    4  A    between atoms: C14_18  and  C15_19 
REMARK    5  A    between atoms: C15_19  and  C16_20 
REMARK    6  A    between atoms: C16_20  and  N3_21 
REMARK    7  A    between atoms: C21_27  and  N4_28 
ROOT
HETATM    1  C3  UNL     1      -2.889   2.343   0.058  1.00  0.00    -0.034 C 
HETATM    2  C4  UNL     1      -4.031   1.921   0.479  1.00  0.00     0.028 C 
HETATM    3  C5  UNL     1      -5.007   0.970   0.936  1.00  0.00     0.016 A 
HETATM    4 CL1  UNL     1      -6.473   0.323   1.428  1.00  0.00    -0.174 Cl
HETATM    5  C6  UNL     1      -4.507  -0.244   1.020  1.00  0.00     0.174 A 
HETATM    6  C7  UNL     1      -4.132  -1.672   1.177  1.00  0.00     0.115 C 
HETATM    7  N1  UNL     1      -3.512  -2.327  -0.006  1.00  0.00    -0.352 N 
HETATM    8  C8  UNL     1      -2.348  -1.714  -0.687  1.00  0.00     0.016 A 
HETATM    9  C9  UNL     1      -2.257  -2.681  -1.573  1.00  0.00     0.059 A 
HETATM   10  C10 UNL     1      -3.400  -3.358  -0.978  1.00  0.00     0.182 A 
HETATM   11  C11 UNL     1      -4.481  -3.893  -1.703  1.00  0.00     0.147 A 
HETATM   12  N2  UNL     1      -3.589  -4.685  -0.803  1.00  0.00    -0.260 NA
HETATM   13  C12 UNL     1      -1.888  -0.486  -0.185  1.00  0.00     0.123 C 
HETATM   14  C13 UNL     1      -1.025   0.573  -0.510  1.00  0.00     0.073 C 
HETATM   15  C21 UNL     1      -1.575   1.844  -0.368  1.00  0.00     0.042 C 
ENDROOT
BRANCH  14  16
HETATM   16  O1  UNL     1       0.285   0.529  -0.948  1.00  0.00    -0.353 OA
BRANCH  16  17
HETATM   17  C14 UNL     1       1.187  -0.485  -0.586  1.00  0.00     0.177 C 
BRANCH  17  18
HETATM   18  C15 UNL     1       2.628   0.054  -0.602  1.00  0.00     0.057 C 
BRANCH  18  19
HETATM   19  C16 UNL     1       3.630  -0.998  -0.214  1.00  0.00     0.274 C 
BRANCH  19  20
HETATM   20  N3  UNL     1       5.000  -0.481  -0.191  1.00  0.00     0.092 N 
HETATM   21  C17 UNL     1       5.878  -1.611   0.084  1.00  0.00     0.298 C 
HETATM   22  C18 UNL     1       6.322  -1.654   1.507  1.00  0.00     0.198 C 
HETATM   23  O2  UNL     1       5.198  -1.508   2.337  1.00  0.00    -0.388 OA
HETATM   24  C19 UNL     1       4.767  -0.165   2.250  1.00  0.00     0.198 C 
HETATM   25  C20 UNL     1       5.158   0.448   0.927  1.00  0.00     0.298 C 
ENDBRANCH  19  20
ENDBRANCH  18  19
ENDBRANCH  17  18
ENDBRANCH  16  17
ENDBRANCH  14  16
BRANCH  15  26
HETATM   26  N4  UNL     1      -0.656   2.863  -0.697  1.00  0.00    -0.300 NA
HETATM   27  H28 UNL     1      -0.034   2.739  -1.576  1.00  0.00     0.124 HD
HETATM   28  H29 UNL     1      -0.088   2.714  -1.532  1.00  0.00     0.124 HD
ENDBRANCH  15  26
BRANCH   1  29
HETATM   29  C2  UNL     1      -2.943   3.826  -0.158  1.00  0.00     0.036 C 
HETATM   30  C1  UNL     1      -2.652   4.210  -1.565  1.00  0.00     0.010 C 
ENDBRANCH   1  29
TORSDOF 7
