REMARK  6 active torsions:
REMARK  status: ('A' for Active; 'I' for Inactive)
REMARK    1  A    between atoms: C6_8  and  O1_9 
REMARK    2  A    between atoms: C8_11  and  C9_12 
REMARK    3  A    between atoms: C9_12  and  C10_13 
REMARK    4  A    between atoms: S1_19  and  N4_20 
REMARK    5  A    between atoms: C14_21  and  C15_22 
REMARK    6  A    between atoms: C16_23  and  C17_24 
ROOT
HETATM    1  C1  UNL     1       0.618  -1.484  -2.799  1.00  0.00     0.154 A 
HETATM    2  C2  UNL     1       1.487  -1.765  -1.845  1.00  0.00     0.197 A 
HETATM    3  N1  UNL     1       2.175  -2.798  -2.512  1.00  0.00    -0.240 NA
HETATM    4  C3  UNL     1       1.966  -4.043  -2.291  1.00  0.00     0.209 A 
HETATM    5  N2  UNL     1       1.100  -3.304  -1.441  1.00  0.00    -0.316 N 
HETATM    6  C4  UNL     1       0.269  -3.931  -0.652  1.00  0.00     0.081 A 
HETATM    7  C5  UNL     1      -0.165  -2.603  -0.204  1.00  0.00     0.097 A 
HETATM    8  C6  UNL     1      -1.014  -2.007   0.639  1.00  0.00     0.069 A 
HETATM    9  C8  UNL     1      -0.512  -0.716   0.169  1.00  0.00     0.016 A 
HETATM   10  S1  UNL     1       0.639  -0.458  -0.968  1.00  0.00    -0.073 SA
ENDROOT
BRANCH   9  11
HETATM   11  C9  UNL     1      -1.096   0.543   0.719  1.00  0.00     0.086 C 
BRANCH  11  12
HETATM   12  C10 UNL     1      -2.545   0.699   0.331  1.00  0.00     0.248 C 
HETATM   13  C11 UNL     1      -2.639   0.735  -1.179  1.00  0.00     0.203 C 
HETATM   14  O2  UNL     1      -3.821   1.315  -1.588  1.00  0.00    -0.387 OA
HETATM   15  C12 UNL     1      -3.890   2.670  -1.288  1.00  0.00     0.197 C 
HETATM   16  C13 UNL     1      -3.217   3.005   0.019  1.00  0.00     0.296 C 
HETATM   17  N3  UNL     1      -3.132   1.891   0.913  1.00  0.00     0.092 N 
HETATM   18  H18 UNL     1      -2.613   2.179   1.756  1.00  0.00     0.316 HD
ENDBRANCH  11  12
ENDBRANCH   9  11
BRANCH   8  19
HETATM   19  O1  UNL     1      -2.021  -1.893   1.628  1.00  0.00    -0.358 OA
HETATM   20  C7  UNL     1      -1.687  -2.476   2.876  1.00  0.00     0.209 C 
ENDBRANCH   8  19
BRANCH  10  21
HETATM   21  N4  UNL     1       1.711   0.940  -0.583  1.00  0.00    -0.241 NA
HETATM   22  C14 UNL     1       2.599   0.690   0.296  1.00  0.00     0.124 C 
BRANCH  22  23
HETATM   23  C15 UNL     1       3.373   1.910   0.490  1.00  0.00     0.018 C 
HETATM   24  C16 UNL     1       4.392   2.093   1.312  1.00  0.00     0.005 C 
BRANCH  24  25
HETATM   25  C17 UNL     1       5.363   3.120   1.756  1.00  0.00     0.249 C 
HETATM   26  F1  UNL     1       6.664   2.692   1.492  1.00  0.00    -0.251 F 
ENDBRANCH  24  25
ENDBRANCH  22  23
ENDBRANCH  10  21
TORSDOF 6
