REMARK  7 active torsions:
REMARK  status: ('A' for Active; 'I' for Inactive)
REMARK    1  A    between atoms: C6_8  and  N3_9 
REMARK    2  A    between atoms: N3_9  and  C7_10 
REMARK    3  A    between atoms: C7_10  and  C8_11 
REMARK    4  A    between atoms: C8_11  and  C9_12 
REMARK    5  A    between atoms: C10_13  and  C11_14 
REMARK    6  A    between atoms: C14_18  and  C15_19 
REMARK    7  A    between atoms: C15_19  and  N4_20 
ROOT
HETATM    1  C1  UNL     1      -3.123  -1.964   1.484  1.00  0.00     0.049 C 
HETATM    2  C2  UNL     1      -1.841  -1.647   0.827  1.00  0.00    -0.052 A 
HETATM    3  C3  UNL     1      -1.088  -2.720   0.433  1.00  0.00     0.040 A 
HETATM    4  C4  UNL     1       0.150  -2.499  -0.169  1.00  0.00     0.072 A 
HETATM    5  N1  UNL     1       0.898  -3.546  -0.558  1.00  0.00    -0.241 NA
HETATM    6  C5  UNL     1       2.088  -3.303  -1.133  1.00  0.00     0.235 A 
HETATM    7  N2  UNL     1       2.441  -2.037  -1.275  1.00  0.00    -0.224 NA
HETATM    8  C6  UNL     1       1.775  -0.949  -0.925  1.00  0.00     0.137 A 
HETATM    9  C12 UNL     1       0.542  -1.191  -0.329  1.00  0.00     0.039 A 
HETATM   10  C13 UNL     1      -0.227  -0.128   0.073  1.00  0.00     0.027 A 
HETATM   11  C14 UNL     1      -1.468  -0.336   0.675  1.00  0.00    -0.034 A 
ENDROOT
BRANCH   8  12
HETATM   12  N3  UNL     1       2.311   0.352  -1.159  1.00  0.00    -0.374 N 
HETATM   13  H6  UNL     1       1.842   1.248  -0.914  1.00  0.00     0.161 HD
BRANCH  12  14
HETATM   14  C7  UNL     1       3.613   0.444  -1.789  1.00  0.00     0.125 C 
BRANCH  14  15
HETATM   15  C8  UNL     1       4.713  -0.198  -0.988  1.00  0.00     0.046 C 
BRANCH  15  16
HETATM   16  C9  UNL     1       4.802   0.472   0.334  1.00  0.00    -0.027 C 
HETATM   17  C10 UNL     1       5.815   1.115   0.873  1.00  0.00     0.000 C 
BRANCH  17  18
HETATM   18  C11 UNL     1       7.176   1.380   0.352  1.00  0.00     0.249 C 
HETATM   19  F1  UNL     1       7.382   2.759   0.273  1.00  0.00    -0.251 F 
ENDBRANCH  17  18
ENDBRANCH  15  16
ENDBRANCH  14  15
ENDBRANCH  12  14
ENDBRANCH   8  12
BRANCH  11  20
HETATM   20  C15 UNL     1      -2.239   0.873   1.052  1.00  0.00     0.156 C 
BRANCH  20  21
HETATM   21  N4  UNL     1      -3.228   1.316   0.171  1.00  0.00    -0.404 N 
HETATM   22  C16 UNL     1      -3.968   2.485   0.557  1.00  0.00     0.143 C 
HETATM   23  C17 UNL     1      -5.077   2.093   1.482  1.00  0.00     0.187 C 
HETATM   24  O1  UNL     1      -5.455   0.778   1.369  1.00  0.00    -0.388 OA
HETATM   25  C18 UNL     1      -5.358   0.229   0.114  1.00  0.00     0.187 C 
HETATM   26  C19 UNL     1      -4.040   0.433  -0.560  1.00  0.00     0.143 C 
ENDBRANCH  20  21
ENDBRANCH  11  20
TORSDOF 7
