REMARK  4 active torsions:
REMARK  status: ('A' for Active; 'I' for Inactive)
REMARK    1  A    between atoms: C3_3  and  C4_5 
REMARK    2  A    between atoms: C4_5  and  O1_6 
REMARK    3  A    between atoms: O1_6  and  C5_7 
REMARK    4  A    between atoms: C5_7  and  C6_8 
ROOT
HETATM    1  C6  UNL     1       1.765  -1.133  -1.264  1.00  0.00    -0.031 C 
HETATM    2  C7  UNL     1       1.052  -0.260  -0.449  1.00  0.00     0.104 C 
HETATM    3  C8  UNL     1       0.052   0.253   0.039  1.00  0.00     0.066 C 
HETATM    4  N1  UNL     1      -0.837   1.034   0.767  1.00  0.00    -0.415 N 
HETATM    5  C9  UNL     1      -1.663   1.854   1.475  1.00  0.00     0.174 C 
HETATM    6  C10 UNL     1      -2.966   1.328   1.949  1.00  0.00     0.060 C 
HETATM    7  C11 UNL     1      -3.803   0.464   1.414  1.00  0.00     0.097 C 
HETATM    8  C12 UNL     1      -5.082   0.091   2.095  1.00  0.00     0.066 C 
HETATM    9  C13 UNL     1      -5.589   0.973   3.001  1.00  0.00     0.018 C 
HETATM   10  C14 UNL     1      -4.655   1.332   3.871  1.00  0.00     0.071 C 
HETATM   11  N2  UNL     1      -3.439   1.768   3.239  1.00  0.00    -0.369 N 
HETATM   12  O2  UNL     1      -4.189  -0.431   0.387  1.00  0.00    -0.309 OA
HETATM   13  C15 UNL     1      -3.558  -0.277  -0.820  1.00  0.00     0.078 A 
HETATM   14  C16 UNL     1      -3.589   0.774  -1.697  1.00  0.00     0.037 A 
HETATM   15  C17 UNL     1      -2.811   0.575  -2.841  1.00  0.00     0.005 A 
HETATM   16  C18 UNL     1      -2.138  -0.600  -2.945  1.00  0.00     0.029 A 
HETATM   17  C19 UNL     1      -2.025  -1.753  -2.117  1.00  0.00     0.031 A 
HETATM   18  C20 UNL     1      -2.833  -1.400  -1.055  1.00  0.00     0.066 A 
HETATM   19  N3  UNL     1      -1.135  -2.548  -2.863  1.00  0.00    -0.380 N 
HETATM   20  C21 UNL     1       0.190  -2.268  -2.474  1.00  0.00     0.132 C 
HETATM   21  C22 UNL     1       1.500  -2.199  -2.287  1.00  0.00     0.010 C 
HETATM   22  H10 UNL     1      -1.273   0.059   0.808  1.00  0.00     0.153 HD
HETATM   23  H15 UNL     1      -2.836   2.452   3.738  1.00  0.00     0.165 HD
HETATM   24  H20 UNL     1      -1.654  -3.105  -3.566  1.00  0.00     0.160 HD
ENDROOT
BRANCH   1  25
HETATM   25  C5  UNL     1       2.982  -0.824  -0.910  1.00  0.00     0.142 C 
BRANCH  25  26
HETATM   26  O1  UNL     1       3.866  -0.109  -0.178  1.00  0.00    -0.357 OA
BRANCH  26  27
HETATM   27  C4  UNL     1       3.892  -0.331   1.243  1.00  0.00     0.225 C 
BRANCH  27  28
HETATM   28  C3  UNL     1       5.315  -0.405   1.715  1.00  0.00     0.032 C 
HETATM   29  C2  UNL     1       6.271  -0.258   0.818  1.00  0.00    -0.009 C 
HETATM   30  C1  UNL     1       6.782  -0.011  -0.539  1.00  0.00     0.037 C 
HETATM   31 CL1  UNL     1       5.045  -0.732   3.452  1.00  0.00    -0.087 Cl
ENDBRANCH  27  28
ENDBRANCH  26  27
ENDBRANCH  25  26
ENDBRANCH   1  25
TORSDOF 4
