REMARK  4 active torsions:
REMARK  status: ('A' for Active; 'I' for Inactive)
REMARK    1  A    between atoms: N1_5  and  C5_6 
REMARK    2  A    between atoms: C13_17  and  O2_18 
REMARK    3  A    between atoms: O2_18  and  C14_19 
REMARK    4  A    between atoms: C14_19  and  C15_20 
ROOT
HETATM    1  C1  UNL     1      -2.433   3.316   0.213  1.00  0.00     0.043 C 
HETATM    2  C2  UNL     1      -1.684   2.063   0.496  1.00  0.00    -0.082 C 
HETATM    3  C3  UNL     1      -1.186   1.814   1.678  1.00  0.00    -0.005 C 
HETATM    4  C4  UNL     1      -0.420   0.580   2.052  1.00  0.00     0.154 C 
HETATM    5  N1  UNL     1       0.149   0.075   0.789  1.00  0.00    -0.335 N 
HETATM    6  C13 UNL     1      -0.962  -0.256  -0.125  1.00  0.00     0.228 C 
HETATM    7  C21 UNL     1      -1.514   1.098  -0.597  1.00  0.00     0.087 C 
ENDROOT
BRANCH   5   8
HETATM    8  C5  UNL     1       1.519   0.060   0.794  1.00  0.00     0.132 A 
HETATM    9  N2  UNL     1       2.270   1.045   1.159  1.00  0.00    -0.222 NA
HETATM   10  C6  UNL     1       1.903   2.303   1.615  1.00  0.00     0.264 A 
HETATM   11  N3  UNL     1       3.159   2.615   1.780  1.00  0.00    -0.127 NA
HETATM   12  O1  UNL     1       4.181   1.834   1.525  1.00  0.00    -0.252 OA
HETATM   13  C7  UNL     1       5.494   1.691   1.492  1.00  0.00     0.231 A 
HETATM   14  C8  UNL     1       6.074   0.422   1.023  1.00  0.00    -0.002 A 
HETATM   15  C9  UNL     1       5.203  -0.548   0.642  1.00  0.00    -0.019 A 
HETATM   16  C10 UNL     1       3.872  -1.162   0.385  1.00  0.00     0.052 A 
HETATM   17  C11 UNL     1       2.560  -0.956   0.437  1.00  0.00    -0.029 A 
HETATM   18  C12 UNL     1       2.028  -2.207  -0.012  1.00  0.00     0.048 C 
ENDBRANCH   5   8
BRANCH   6  19
HETATM   19  O2  UNL     1      -0.584  -0.958  -1.227  1.00  0.00    -0.362 OA
BRANCH  19  20
HETATM   20  C14 UNL     1      -1.225  -2.128  -1.437  1.00  0.00     0.209 C 
BRANCH  20  21
HETATM   21  C15 UNL     1      -2.669  -1.949  -1.609  1.00  0.00    -0.032 A 
HETATM   22  C16 UNL     1      -3.010  -1.620  -2.921  1.00  0.00     0.009 A 
HETATM   23  C17 UNL     1      -4.316  -1.421  -3.328  1.00  0.00     0.004 A 
HETATM   24  C18 UNL     1      -5.349  -1.546  -2.426  1.00  0.00     0.042 A 
HETATM   25  C19 UNL     1      -5.023  -1.869  -1.137  1.00  0.00     0.117 A 
HETATM   26  F1  UNL     1      -5.921  -2.028  -0.135  1.00  0.00    -0.206 F 
HETATM   27  C20 UNL     1      -3.721  -2.073  -0.709  1.00  0.00     0.051 A 
ENDBRANCH  20  21
ENDBRANCH  19  20
ENDBRANCH   6  19
TORSDOF 4
