REMARK  4 active torsions:
REMARK  status: ('A' for Active; 'I' for Inactive)
REMARK    1  A    between atoms: C4_6  and  N3_7 
REMARK    2  A    between atoms: C10_15  and  C11_16 
REMARK    3  A    between atoms: C11_16  and  O1_17 
REMARK    4  A    between atoms: C11_16  and  C13_19 
ROOT
HETATM    1  C1  UNL     1       0.582  -1.260  -3.334  1.00  0.00     0.061 C 
HETATM    2  C2  UNL     1       0.762  -1.472  -2.016  1.00  0.00     0.028 C 
HETATM    3  N1  UNL     1       0.453  -2.879  -1.884  1.00  0.00    -0.250 NA
HETATM    4  C3  UNL     1       1.019  -3.492  -0.864  1.00  0.00     0.234 C 
HETATM    5  N2  UNL     1       1.842  -2.757   0.022  1.00  0.00    -0.227 NA
HETATM    6  C4  UNL     1       2.078  -1.495  -0.044  1.00  0.00     0.123 C 
HETATM    7  C10 UNL     1       1.242  -0.605  -0.956  1.00  0.00     0.133 C 
ENDROOT
BRANCH   7   8
HETATM    8  C11 UNL     1       0.160   0.019  -0.091  1.00  0.00     0.142 C 
BRANCH   8   9
HETATM    9  O1  UNL     1       0.739   0.781   0.939  1.00  0.00    -0.389 OA
HETATM   10  C12 UNL     1       0.458   0.384   2.206  1.00  0.00     0.202 C 
ENDBRANCH   8   9
BRANCH   8  11
HETATM   11  C13 UNL     1      -0.844   0.839  -0.841  1.00  0.00     0.019 C 
HETATM   12  C14 UNL     1      -1.804   1.490   0.165  1.00  0.00     0.037 C 
HETATM   13  C15 UNL     1      -2.714   0.442   0.718  1.00  0.00     0.272 C 
HETATM   14  N4  UNL     1      -3.682   0.088  -0.298  1.00  0.00     0.084 N 
HETATM   15  C16 UNL     1      -4.949   0.757  -0.103  1.00  0.00     0.309 C 
HETATM   16  C17 UNL     1      -3.175   0.345  -1.600  1.00  0.00     0.272 C 
HETATM   17  C18 UNL     1      -1.683  -0.012  -1.754  1.00  0.00     0.037 C 
ENDBRANCH   8  11
ENDBRANCH   7   8
BRANCH   6  18
HETATM   18  N3  UNL     1       2.951  -0.863   0.884  1.00  0.00    -0.318 N 
HETATM   19  C5  UNL     1       3.400  -1.509   2.094  1.00  0.00     0.113 C 
HETATM   20  C6  UNL     1       4.049  -0.905   3.047  1.00  0.00     0.035 C 
HETATM   21  C7  UNL     1       4.705   0.203   2.847  1.00  0.00     0.152 C 
HETATM   22  F1  UNL     1       5.665   0.641   3.663  1.00  0.00    -0.203 F 
HETATM   23  C8  UNL     1       4.311   0.942   1.652  1.00  0.00     0.089 C 
HETATM   24 CL1  UNL     1       4.951   2.559   1.421  1.00  0.00    -0.080 Cl
HETATM   25  C9  UNL     1       3.494   0.440   0.742  1.00  0.00     0.124 C 
ENDBRANCH   6  18
TORSDOF 4
