REMARK  3 active torsions:
REMARK  status: ('A' for Active; 'I' for Inactive)
REMARK    1  A    between atoms: C2_3  and  C3_4 
REMARK    2  A    between atoms: C12_16  and  C15_19 
REMARK    3  A    between atoms: C15_19  and  C16_21 
ROOT
HETATM    1  C3  UNL     1       1.678  -2.001  -0.146  1.00  0.00     0.045 C 
HETATM    2  N1  UNL     1       1.760  -0.790   0.153  1.00  0.00    -0.247 NA
HETATM    3  C4  UNL     1       2.141   0.369  -0.477  1.00  0.00     0.442 C 
HETATM    4  N2  UNL     1       2.259   1.472  -1.038  1.00  0.00    -0.316 NA
HETATM    5  N3  UNL     1       1.267   2.439  -1.359  1.00  0.00    -0.309 N 
HETATM    6  C5  UNL     1       0.256   2.696  -0.436  1.00  0.00     0.047 A 
HETATM    7  C6  UNL     1       0.241   3.740   0.469  1.00  0.00     0.031 A 
HETATM    8  C7  UNL     1      -0.809   3.742   1.366  1.00  0.00     0.003 A 
HETATM    9  C8  UNL     1      -1.814   2.799   1.424  1.00  0.00     0.008 A 
HETATM   10  C9  UNL     1      -1.840   1.731   0.536  1.00  0.00    -0.045 A 
HETATM   11  C10 UNL     1      -0.741   1.783  -0.369  1.00  0.00     0.038 A 
HETATM   12  C11 UNL     1      -2.844   0.688   0.733  1.00  0.00     0.011 A 
HETATM   13  C12 UNL     1      -3.012  -0.697   1.026  1.00  0.00     0.035 A 
HETATM   14  C13 UNL     1      -2.575  -2.046   1.169  1.00  0.00     0.058 A 
HETATM   15  C14 UNL     1      -1.388  -2.842   1.030  1.00  0.00     0.121 A 
HETATM   16  C15 UNL     1      -1.576  -1.502   0.830  1.00  0.00     0.067 A 
HETATM   17 CL1  UNL     1      -1.056  -1.894  -0.888  1.00  0.00    -0.117 Cl
HETATM   18  C16 UNL     1      -1.766  -0.176   0.634  1.00  0.00     0.033 A 
HETATM   19  O1  UNL     1      -0.189  -3.349   0.845  1.00  0.00    -0.369 OA
HETATM   20  C17 UNL     1       1.133  -2.947   0.848  1.00  0.00     0.224 C 
HETATM   21  H4  UNL     1       1.988   2.291  -2.079  1.00  0.00     0.186 HD
ENDROOT
BRANCH   1  22
HETATM   22  C2  UNL     1       1.957  -2.870  -1.366  1.00  0.00     0.084 C 
HETATM   23  C1  UNL     1       2.321  -1.649  -1.839  1.00  0.00     0.425 C 
HETATM   24  F1  UNL     1       2.810  -0.883  -2.887  1.00  0.00    -0.454 F 
ENDBRANCH   1  22
TORSDOF 3
