REMARK  1 active torsions:
REMARK  status: ('A' for Active; 'I' for Inactive)
REMARK    1  A    between atoms: C5_6  and  C6_7 
ROOT
HETATM    1  C6  UNL     1       0.835  -0.020  -0.403  1.00  0.00     0.070 C 
HETATM    2  C7  UNL     1       0.568   1.286  -0.554  1.00  0.00     0.036 A 
HETATM    3  C8  UNL     1       1.723   2.186  -0.534  1.00  0.00     0.195 A 
HETATM    4  N1  UNL     1       1.371   3.564  -0.647  1.00  0.00    -0.278 NA
HETATM    5  C9  UNL     1       0.208   4.072  -0.772  1.00  0.00     0.229 A 
HETATM    6  N2  UNL     1      -0.922   3.165  -0.807  1.00  0.00    -0.225 NA
HETATM    7  C10 UNL     1      -0.741   1.899  -0.709  1.00  0.00     0.135 A 
HETATM    8  N3  UNL     1      -2.191   1.750  -0.825  1.00  0.00    -0.370 N 
HETATM    9  C11 UNL     1      -3.235   1.709   0.234  1.00  0.00     0.160 C 
HETATM   10  C12 UNL     1      -3.371   0.267   0.532  1.00  0.00    -0.038 A 
HETATM   11  C13 UNL     1      -4.435  -0.579   0.722  1.00  0.00     0.009 A 
HETATM   12  C14 UNL     1      -4.246  -1.928   0.909  1.00  0.00     0.003 A 
HETATM   13  C15 UNL     1      -3.015  -2.542   0.923  1.00  0.00     0.031 A 
HETATM   14  C16 UNL     1      -1.873  -1.796   0.743  1.00  0.00     0.048 A 
HETATM   15  C17 UNL     1      -2.243  -0.491   0.577  1.00  0.00     0.039 A 
HETATM   16  N4  UNL     1      -0.483  -2.080   0.645  1.00  0.00    -0.300 N 
HETATM   17  N5  UNL     1       0.174  -1.268  -0.316  1.00  0.00    -0.299 N 
HETATM   18  H7  UNL     1      -2.642   1.636  -1.789  1.00  0.00     0.161 HD
HETATM   19  H14 UNL     1      -0.320  -2.829   1.322  1.00  0.00     0.187 HD
HETATM   20  H15 UNL     1       0.007  -1.974  -1.063  1.00  0.00     0.187 HD
ENDROOT
BRANCH   1  21
HETATM   21  C5  UNL     1       2.160  -0.591  -0.221  1.00  0.00    -0.006 A 
HETATM   22  C4  UNL     1       2.946  -0.323   0.890  1.00  0.00     0.014 A 
HETATM   23  C3  UNL     1       4.226  -0.781   1.108  1.00  0.00     0.003 A 
HETATM   24  C2  UNL     1       4.798  -1.587   0.137  1.00  0.00     0.024 A 
HETATM   25  C1  UNL     1       4.124  -1.922  -0.999  1.00  0.00     0.035 A 
HETATM   26 CL1  UNL     1       4.776  -2.938  -2.273  1.00  0.00    -0.084 Cl
HETATM   27  C18 UNL     1       2.854  -1.415  -1.122  1.00  0.00     0.037 A 
ENDBRANCH   1  21
TORSDOF 1
