REMARK  5 active torsions:
REMARK  status: ('A' for Active; 'I' for Inactive)
REMARK    1  A    between atoms: B1_2  and  C2_3 
REMARK    2  A    between atoms: C3_4  and  C4_5 
REMARK    3  A    between atoms: C5_6  and  N1_7 
REMARK       I    between atoms: N1_7  and  C6_8 
REMARK    4  A    between atoms: C13_20  and  O3_21 
REMARK    5  A    between atoms: O3_21  and  C14_22 
ROOT
HETATM    1  C4  UNL     1      -0.917   0.579  -0.310  1.00  0.00    -0.028 C 
HETATM    2  C5  UNL     1      -1.860   1.390   0.142  1.00  0.00     0.043 C 
HETATM    3  C8  UNL     1      -1.856   2.309   1.311  1.00  0.00     0.054 C 
HETATM    4  C9  UNL     1      -1.794   3.102   2.356  1.00  0.00     0.146 C 
HETATM    5  O2  UNL     1      -0.586   3.149   3.203  1.00  0.00    -0.303 OA
HETATM    6  C10 UNL     1      -0.299   1.820   3.691  1.00  0.00     0.179 A 
HETATM    7  C11 UNL     1       0.175   0.903   2.903  1.00  0.00     0.152 A 
HETATM    8  N2  UNL     1       0.677  -0.190   2.195  1.00  0.00    -0.318 N 
HETATM    9  C12 UNL     1       0.582  -0.921   3.409  1.00  0.00     0.233 A 
HETATM   10  N3  UNL     1       0.171  -0.461   4.525  1.00  0.00    -0.168 NA
HETATM   11  N4  UNL     1      -0.258   0.837   4.709  1.00  0.00    -0.255 N 
HETATM   12  C13 UNL     1       1.065  -0.481   0.845  1.00  0.00     0.238 C 
HETATM   13  C20 UNL     1       0.517   0.559  -0.086  1.00  0.00     0.095 C 
HETATM   14  H13 UNL     1      -0.627   1.392   5.547  1.00  0.00     0.191 HD
ENDROOT
BRANCH  12  15
HETATM   15  O3  UNL     1       2.476  -0.443   0.836  1.00  0.00    -0.329 OA
BRANCH  15  16
HETATM   16  C14 UNL     1       3.299  -0.664  -0.239  1.00  0.00     0.052 A 
HETATM   17  C15 UNL     1       3.893   0.430  -0.676  1.00  0.00     0.032 A 
HETATM   18  C16 UNL     1       4.760   0.169  -1.815  1.00  0.00     0.001 A 
HETATM   19  C17 UNL     1       4.793  -1.092  -2.197  1.00  0.00     0.010 A 
HETATM   20  C18 UNL     1       4.162  -2.355  -1.761  1.00  0.00     0.199 A 
HETATM   21  F1  UNL     1       3.465  -2.952  -2.811  1.00  0.00    -0.245 F 
HETATM   22  C19 UNL     1       3.264  -2.101  -0.580  1.00  0.00     0.106 A 
ENDBRANCH  15  16
ENDBRANCH  12  15
BRANCH   1  23
HETATM   23  C3  UNL     1      -1.565  -0.291  -1.242  1.00  0.00    -0.006 C 
HETATM   24  C2  UNL     1      -0.791  -1.188  -1.822  1.00  0.00    -0.081 C 
BRANCH  24  25
HETATM   25  B1  UNL     1      -1.051  -2.484  -3.022  1.00  0.00     0.185 B 
HETATM   26  C1  UNL     1      -1.958  -3.507  -4.206  1.00  0.00    -0.087 C 
ENDBRANCH  24  25
ENDBRANCH   1  23
BRANCH   2  27
HETATM   27  N1  UNL     1      -3.220   1.677   0.011  1.00  0.00    -0.327 N 
HETATM   28  C6  UNL     1      -4.401   1.305  -0.641  1.00  0.00     0.218 C 
HETATM   29  C7  UNL     1      -5.795   1.781  -0.625  1.00  0.00     0.117 C 
HETATM   30  O1  UNL     1      -4.515   0.380  -1.468  1.00  0.00    -0.274 OA
HETATM   31  H5  UNL     1      -3.768   2.451   0.492  1.00  0.00     0.169 HD
ENDBRANCH   2  27
TORSDOF 5
