REMARK  7 active torsions:
REMARK  status: ('A' for Active; 'I' for Inactive)
REMARK    1  A    between atoms: C3_3  and  N1_5 
REMARK    2  A    between atoms: N1_5  and  C4_6 
REMARK    3  A    between atoms: C8_10  and  O2_11 
REMARK    4  A    between atoms: O2_11  and  C9_12 
REMARK    5  A    between atoms: C11_14  and  N2_15 
REMARK    6  A    between atoms: N2_15  and  C12_16 
REMARK    7  A    between atoms: C12_16  and  C13_17 
ROOT
HETATM    1  O2  UNL     1      -0.243  -0.589   0.719  1.00  0.00    -0.292 OA
ENDROOT
BRANCH   1   2
HETATM    2  C8  UNL     1       1.033  -1.083   0.531  1.00  0.00     0.080 A 
HETATM    3  C7  UNL     1       1.434  -2.298   0.042  1.00  0.00     0.037 A 
HETATM    4  C6  UNL     1       2.740  -2.699  -0.108  1.00  0.00     0.005 A 
HETATM    5  C5  UNL     1       3.695  -1.754   0.286  1.00  0.00     0.029 A 
HETATM    6  C4  UNL     1       3.336  -0.519   0.782  1.00  0.00     0.035 A 
HETATM    7  C16 UNL     1       2.008  -0.163   0.913  1.00  0.00     0.066 A 
BRANCH   6   8
HETATM    8  N1  UNL     1       4.481   0.240   1.106  1.00  0.00    -0.358 N 
HETATM    9  H4  UNL     1       5.180   0.496   1.826  1.00  0.00     0.166 HD
BRANCH   8  10
HETATM   10  C3  UNL     1       4.882   1.008  -0.041  1.00  0.00     0.037 A 
HETATM   11  C2  UNL     1       5.988   1.946  -0.259  1.00  0.00     0.047 A 
HETATM   12  C1  UNL     1       5.894   2.379  -1.515  1.00  0.00     0.012 A 
HETATM   13  O1  UNL     1       4.777   1.396  -1.214  1.00  0.00     0.000 OA
ENDBRANCH   8  10
ENDBRANCH   6   8
ENDBRANCH   1   2
BRANCH   1  14
HETATM   14  C9  UNL     1      -1.408  -1.246   0.463  1.00  0.00     0.174 A 
HETATM   15  C10 UNL     1      -2.491  -0.435   0.771  1.00  0.00     0.108 A 
HETATM   16  C11 UNL     1      -3.813  -0.852   0.607  1.00  0.00     0.129 A 
HETATM   17  N3  UNL     1      -3.980  -2.096   0.129  1.00  0.00    -0.225 NA
HETATM   18  C15 UNL     1      -2.918  -2.875  -0.168  1.00  0.00     0.238 A 
HETATM   19  N4  UNL     1      -1.647  -2.478  -0.012  1.00  0.00    -0.217 NA
BRANCH  16  20
HETATM   20  N2  UNL     1      -4.956  -0.071   0.897  1.00  0.00    -0.374 N 
HETATM   21  H9  UNL     1      -5.162  -0.212   1.931  1.00  0.00     0.161 HD
BRANCH  20  22
HETATM   22  C12 UNL     1      -5.559   0.694  -0.184  1.00  0.00     0.128 C 
BRANCH  22  23
HETATM   23  C13 UNL     1      -4.558   1.627  -0.734  1.00  0.00     0.030 C 
HETATM   24  C14 UNL     1      -4.629   2.934  -0.785  1.00  0.00     0.239 C 
HETATM   25 CL1  UNL     1      -6.092   3.589  -0.115  1.00  0.00    -0.255 Cl
ENDBRANCH  22  23
ENDBRANCH  20  22
ENDBRANCH  16  20
ENDBRANCH   1  14
TORSDOF 7
