REMARK  4 active torsions:
REMARK  status: ('A' for Active; 'I' for Inactive)
REMARK    1  A    between atoms: C5_6  and  C6_7 
REMARK    2  A    between atoms: C6_7  and  O1_8 
REMARK    3  A    between atoms: O1_8  and  C7_9 
REMARK    4  A    between atoms: C10_12  and  C11_13 
ROOT
HETATM    1  C7  UNL     1       0.508   0.132   0.104  1.00  0.00     0.090 A 
HETATM    2  C8  UNL     1      -0.216  -0.998   0.426  1.00  0.00     0.039 A 
HETATM    3  C9  UNL     1      -1.589  -0.954   0.380  1.00  0.00     0.016 A 
HETATM    4  C10 UNL     1      -2.293   0.183   0.022  1.00  0.00    -0.008 A 
HETATM    5  C15 UNL     1      -1.507   1.274  -0.287  1.00  0.00     0.040 A 
HETATM    6  C16 UNL     1      -0.130   1.316  -0.267  1.00  0.00     0.068 A 
HETATM    7 CL1  UNL     1       0.726   2.788  -0.688  1.00  0.00    -0.081 Cl
ENDROOT
BRANCH   1   8
HETATM    8  O1  UNL     1       1.906   0.183   0.122  1.00  0.00    -0.345 OA
BRANCH   8   9
HETATM    9  C6  UNL     1       2.688  -0.959   0.484  1.00  0.00     0.214 C 
BRANCH   9  10
HETATM   10  C5  UNL     1       4.128  -0.556   0.397  1.00  0.00    -0.031 A 
HETATM   11  C4  UNL     1       4.854  -0.697  -0.765  1.00  0.00     0.009 A 
HETATM   12  C3  UNL     1       6.186  -0.329  -0.861  1.00  0.00     0.004 A 
HETATM   13  C2  UNL     1       6.771   0.197   0.287  1.00  0.00     0.042 A 
HETATM   14  C1  UNL     1       6.095   0.364   1.486  1.00  0.00     0.117 A 
HETATM   15  F1  UNL     1       6.734   0.886   2.568  1.00  0.00    -0.206 F 
HETATM   16  C17 UNL     1       4.765  -0.032   1.487  1.00  0.00     0.051 A 
ENDBRANCH   9  10
ENDBRANCH   8   9
ENDBRANCH   1   8
BRANCH   4  17
HETATM   17  C11 UNL     1      -3.751   0.257  -0.035  1.00  0.00     0.065 C 
HETATM   18  N1  UNL     1      -4.212   1.387  -0.386  1.00  0.00    -0.270 NA
HETATM   19  C12 UNL     1      -5.558   1.817  -0.547  1.00  0.00     0.299 C 
HETATM   20  N2  UNL     1      -6.507   0.824  -0.921  1.00  0.00    -0.257 NA
HETATM   21  C13 UNL     1      -6.678  -0.418  -0.671  1.00  0.00     0.247 C 
HETATM   22  O2  UNL     1      -5.769  -1.058   0.161  1.00  0.00    -0.339 OA
HETATM   23  C14 UNL     1      -4.388  -1.008   0.329  1.00  0.00     0.236 C 
ENDBRANCH   4  17
TORSDOF 4
