REMARK  3 active torsions:
REMARK  status: ('A' for Active; 'I' for Inactive)
REMARK    1  A    between atoms: O1_2  and  C2_3 
REMARK    2  A    between atoms: C8_11  and  C9_12 
REMARK    3  A    between atoms: C10_13  and  N3_14 
ROOT
HETATM    1  C2  UNL     1      -1.575   0.651  -1.203  1.00  0.00     0.352 C 
HETATM    2  N1  UNL     1      -2.684   0.076  -0.666  1.00  0.00    -0.232 NA
HETATM    3  C3  UNL     1      -3.383  -0.891  -0.383  1.00  0.00     0.231 C 
HETATM    4  N2  UNL     1      -3.923  -2.224  -0.219  1.00  0.00    -0.254 NA
HETATM    5  C4  UNL     1      -3.110  -3.176   0.163  1.00  0.00     0.129 C 
HETATM    6  C5  UNL     1      -1.791  -2.521   0.319  1.00  0.00    -0.016 A 
HETATM    7  C6  UNL     1      -1.238  -2.561   1.571  1.00  0.00     0.014 A 
HETATM    8  C7  UNL     1      -0.123  -1.733   1.735  1.00  0.00     0.015 A 
HETATM    9  C8  UNL     1       0.323  -0.957   0.665  1.00  0.00    -0.001 A 
HETATM   10  C15 UNL     1      -0.442  -1.148  -0.424  1.00  0.00     0.043 A 
HETATM   11  C16 UNL     1      -1.520  -1.864  -0.840  1.00  0.00     0.043 A 
HETATM   12  N4  UNL     1      -0.404  -0.200  -1.492  1.00  0.00    -0.345 N 
HETATM   13  H17 UNL     1       0.437  -0.614  -1.903  1.00  0.00     0.164 HD
ENDROOT
BRANCH   9  14
HETATM   14  C9  UNL     1       1.436  -0.038   0.675  1.00  0.00    -0.017 A 
HETATM   15  C10 UNL     1       2.533   0.149   0.014  1.00  0.00     0.013 A 
HETATM   16  C11 UNL     1       3.589   1.164   0.152  1.00  0.00     0.086 A 
HETATM   17  C12 UNL     1       3.324   2.025   1.321  1.00  0.00     0.017 A 
HETATM   18  C13 UNL     1       2.233   1.893   2.022  1.00  0.00     0.094 A 
HETATM   19  F1  UNL     1       1.997   2.695   3.103  1.00  0.00    -0.211 F 
HETATM   20  C14 UNL     1       1.165   0.913   1.755  1.00  0.00     0.111 A 
BRANCH  15  21
HETATM   21  N3  UNL     1       2.939  -0.680  -1.062  1.00  0.00    -0.402 N 
HETATM   22  H9  UNL     1       2.944  -0.333  -2.039  1.00  0.00     0.156 HD
HETATM   23  H10 UNL     1       3.288  -1.610  -1.410  1.00  0.00     0.156 HD
ENDBRANCH  15  21
ENDBRANCH   9  14
BRANCH   1  24
HETATM   24  O1  UNL     1      -1.856   1.472  -2.314  1.00  0.00    -0.353 OA
HETATM   25  C1  UNL     1      -1.552   2.800  -2.062  1.00  0.00     0.206 C 
ENDBRANCH   1  24
TORSDOF 3
