REMARK  3 active torsions:
REMARK  status: ('A' for Active; 'I' for Inactive)
REMARK    1  A    between atoms: C2_2  and  C3_3 
REMARK    2  A    between atoms: C2_2  and  O1_26 
REMARK    3  A    between atoms: C13_18  and  C14_19 
ROOT
HETATM    1  C3  UNL     1      -0.287   1.098  -1.880  1.00  0.00     0.063 C 
HETATM    2  C4  UNL     1      -0.516   0.549  -0.693  1.00  0.00     0.043 C 
HETATM    3  N1  UNL     1      -0.003   1.049   0.537  1.00  0.00    -0.248 NA
HETATM    4  C5  UNL     1       1.278   0.990   0.807  1.00  0.00     0.204 C 
HETATM    5  N2  UNL     1       2.581   0.603   0.385  1.00  0.00    -0.362 N 
HETATM    6  C6  UNL     1       2.739  -0.681  -0.243  1.00  0.00     0.200 C 
HETATM    7  C7  UNL     1       4.178  -0.964  -0.616  1.00  0.00     0.069 C 
HETATM    8  C8  UNL     1       5.073  -1.145   0.571  1.00  0.00     0.020 C 
HETATM    9  C9  UNL     1       4.619   0.067  -1.557  1.00  0.00     0.017 C 
HETATM   10 CL1  UNL     1       5.964   1.196  -1.566  1.00  0.00    -0.089 Cl
HETATM   11  C10 UNL     1       3.813   0.140  -2.612  1.00  0.00     0.013 C 
HETATM   12  C11 UNL     1       2.653  -0.794  -2.659  1.00  0.00     0.161 C 
HETATM   13  N3  UNL     1       1.957  -0.875  -1.420  1.00  0.00    -0.330 N 
HETATM   14  S1  UNL     1       0.797  -2.164  -1.321  1.00  0.00    -0.055 SA
HETATM   15  C12 UNL     1      -0.508  -1.822  -0.096  1.00  0.00     0.108 C 
HETATM   16  C13 UNL     1      -1.353  -0.668  -0.529  1.00  0.00     0.053 C 
HETATM   17  H5  UNL     1       3.243   1.389   0.628  1.00  0.00     0.162 HD
ENDROOT
BRANCH  16  18
HETATM   18  C14 UNL     1      -2.547  -0.412   0.350  1.00  0.00    -0.001 C 
HETATM   19  C15 UNL     1      -2.257   0.023   1.723  1.00  0.00     0.035 C 
HETATM   20  C16 UNL     1      -3.175  -0.367   2.811  1.00  0.00     0.272 C 
HETATM   21  N4  UNL     1      -4.067  -1.459   2.506  1.00  0.00     0.084 N 
HETATM   22  C17 UNL     1      -5.014  -1.680   3.557  1.00  0.00     0.309 C 
HETATM   23  C18 UNL     1      -4.659  -1.275   1.218  1.00  0.00     0.272 C 
HETATM   24  C19 UNL     1      -3.518  -1.569   0.236  1.00  0.00     0.035 C 
ENDBRANCH  16  18
BRANCH   1  25
HETATM   25  C2  UNL     1       0.517   2.279  -2.071  1.00  0.00     0.060 C 
HETATM   26  C1  UNL     1       0.693   2.759  -3.314  1.00  0.00     0.051 C 
BRANCH  25  27
HETATM   27  O1  UNL     1       1.142   2.988  -1.078  1.00  0.00    -0.357 OA
HETATM   28  C20 UNL     1       0.599   4.095  -0.409  1.00  0.00     0.210 C 
ENDBRANCH  25  27
ENDBRANCH   1  25
TORSDOF 3
