REMARK  3 active torsions:
REMARK  status: ('A' for Active; 'I' for Inactive)
REMARK    1  A    between atoms: C18_24  and  N4_25 
REMARK    2  A    between atoms: N4_25  and  C19_26 
REMARK    3  A    between atoms: C19_26  and  C20_27 
ROOT
HETATM    1  C1  UNL     1      -0.244   3.460   0.330  1.00  0.00     0.049 C 
HETATM    2  C2  UNL     1      -0.550   2.000   0.086  1.00  0.00    -0.048 C 
HETATM    3  C3  UNL     1      -1.803   1.987  -0.056  1.00  0.00     0.007 C 
HETATM    4  C4  UNL     1      -2.993   1.298  -0.286  1.00  0.00     0.002 C 
HETATM    5  C5  UNL     1      -4.197   0.900  -0.477  1.00  0.00     0.038 C 
HETATM    6  C6  UNL     1      -5.264  -0.095  -0.735  1.00  0.00     0.337 C 
HETATM    7  F1  UNL     1      -6.457   0.492  -0.813  1.00  0.00    -0.215 F 
HETATM    8  O1  UNL     1      -5.163  -1.137   0.282  1.00  0.00    -0.311 OA
HETATM    9  C7  UNL     1      -3.892  -1.802   0.225  1.00  0.00     0.094 A 
HETATM   10  C8  UNL     1      -3.545  -2.445  -0.903  1.00  0.00     0.041 A 
HETATM   11  C9  UNL     1      -2.243  -2.863  -0.596  1.00  0.00     0.034 A 
HETATM   12  C10 UNL     1      -2.064  -2.384   0.663  1.00  0.00     0.052 A 
HETATM   13  C11 UNL     1      -2.658  -1.706   1.659  1.00  0.00     0.057 A 
HETATM   14  C12 UNL     1      -3.916  -1.249   1.474  1.00  0.00     0.069 A 
HETATM   15 CL1  UNL     1      -4.452  -0.417   2.860  1.00  0.00    -0.081 Cl
HETATM   16  N1  UNL     1      -0.661  -2.660   0.576  1.00  0.00    -0.286 N 
HETATM   17  C13 UNL     1       0.675  -3.145   0.468  1.00  0.00     0.205 C 
HETATM   18  C14 UNL     1       1.353  -2.541  -0.759  1.00  0.00     0.271 C 
HETATM   19  N2  UNL     1       0.848  -1.242  -1.075  1.00  0.00    -0.236 NA
HETATM   20  C15 UNL     1       0.437  -0.425  -0.175  1.00  0.00     0.150 C 
HETATM   21  N3  UNL     1      -0.373  -1.244   0.697  1.00  0.00    -0.281 N 
HETATM   22  C16 UNL     1       0.568   1.037   0.082  1.00  0.00     0.015 C 
HETATM   23  C17 UNL     1       1.728   1.663   0.319  1.00  0.00     0.028 C 
HETATM   24  C18 UNL     1       3.149   1.185   0.428  1.00  0.00     0.269 C 
HETATM   25  C21 UNL     1       3.094  -0.274   0.363  1.00  0.00     0.036 C 
HETATM   26  C22 UNL     1       3.109  -1.559   0.540  1.00  0.00     0.136 C 
HETATM   27  O3  UNL     1       2.792  -2.496  -0.478  1.00  0.00    -0.334 OA
HETATM   28  H14 UNL     1      -0.681  -0.578   1.463  1.00  0.00     0.189 HD
ENDROOT
BRANCH  24  29
HETATM   29  N4  UNL     1       3.960   1.852  -0.536  1.00  0.00     0.101 N 
HETATM   30  H17 UNL     1       3.868   2.898  -0.384  1.00  0.00     0.317 HD
BRANCH  29  31
HETATM   31  C19 UNL     1       5.344   1.461  -0.497  1.00  0.00     0.339 C 
BRANCH  31  32
HETATM   32  C20 UNL     1       6.142   2.229  -1.517  1.00  0.00     0.261 C 
HETATM   33  O2  UNL     1       5.033   2.646  -1.791  1.00  0.00    -0.305 OA
ENDBRANCH  31  32
ENDBRANCH  29  31
ENDBRANCH  24  29
TORSDOF 3
