REMARK  0 active torsions:
REMARK  status: ('A' for Active; 'I' for Inactive)
ROOT
HETATM    1  F1  UNL     1       3.732  -3.377   0.872  1.00  0.00    -0.206 F 
HETATM    2  C1  UNL     1       3.127  -2.158   0.673  1.00  0.00     0.119 A 
HETATM    3  C2  UNL     1       3.371  -1.203   1.655  1.00  0.00     0.043 A 
HETATM    4  C3  UNL     1       2.756   0.019   1.445  1.00  0.00     0.014 A 
HETATM    5  C4  UNL     1       1.949   0.362   0.384  1.00  0.00    -0.005 A 
HETATM    6  C5  UNL     1       1.722  -0.613  -0.583  1.00  0.00     0.088 A 
HETATM    7  C6  UNL     1       2.310  -1.842  -0.422  1.00  0.00     0.080 A 
HETATM    8  O1  UNL     1       0.984  -0.609  -1.748  1.00  0.00    -0.291 OA
HETATM    9  C7  UNL     1      -0.347  -0.911  -1.851  1.00  0.00     0.174 A 
HETATM   10  C8  UNL     1      -1.585  -0.460  -1.537  1.00  0.00     0.108 A 
HETATM   11  C9  UNL     1      -2.881  -0.218  -1.336  1.00  0.00     0.129 A 
HETATM   12  N1  UNL     1      -3.178  -1.358  -1.959  1.00  0.00    -0.225 NA
HETATM   13  C10 UNL     1      -2.248  -2.206  -2.480  1.00  0.00     0.238 A 
HETATM   14  N2  UNL     1      -0.926  -1.998  -2.429  1.00  0.00    -0.217 NA
HETATM   15  N3  UNL     1      -3.481   0.878  -0.673  1.00  0.00    -0.368 N 
HETATM   16  C11 UNL     1      -3.418   1.314   0.711  1.00  0.00     0.134 C 
HETATM   17  C12 UNL     1      -2.320   1.664   1.462  1.00  0.00     0.004 C 
HETATM   18  C13 UNL     1      -0.929   1.973   1.984  1.00  0.00    -0.001 C 
HETATM   19  C14 UNL     1       0.289   1.914   1.379  1.00  0.00     0.019 C 
HETATM   20  C15 UNL     1       1.398   1.717   0.364  1.00  0.00     0.122 C 
HETATM   21 CL1  UNL     1       2.699   2.885   0.628  1.00  0.00    -0.119 Cl
HETATM   22  H6  UNL     1      -3.963   1.239  -1.511  1.00  0.00     0.161 HD
ENDROOT
TORSDOF 0
