REMARK  4 active torsions:
REMARK  status: ('A' for Active; 'I' for Inactive)
REMARK    1  A    between atoms: N1_3  and  C3_4 
REMARK    2  A    between atoms: C6_8  and  O1_9 
REMARK    3  A    between atoms: O1_9  and  C7_10 
REMARK    4  A    between atoms: C7_10  and  C8_11 
ROOT
HETATM    1  C3  UNL     1       3.086  -1.428   0.823  1.00  0.00     0.226 C 
HETATM    2  C4  UNL     1       1.892  -1.269   1.698  1.00  0.00     0.047 C 
HETATM    3  C5  UNL     1       0.592  -1.238   1.530  1.00  0.00     0.068 C 
HETATM    4 CL1  UNL     1      -0.440  -1.020   2.917  1.00  0.00    -0.082 Cl
HETATM    5  C6  UNL     1      -0.230  -1.356   0.338  1.00  0.00     0.101 C 
HETATM    6  C14 UNL     1      -0.186  -1.820  -0.899  1.00  0.00     0.010 C 
HETATM    7  C15 UNL     1       0.774  -1.356  -1.682  1.00  0.00     0.007 C 
HETATM    8  C16 UNL     1       2.207  -0.998  -1.389  1.00  0.00     0.144 C 
HETATM    9  N2  UNL     1       2.701  -1.948  -0.436  1.00  0.00    -0.394 N 
HETATM   10  H16 UNL     1       3.243  -2.737  -0.813  1.00  0.00     0.155 HD
ENDROOT
BRANCH   5  11
HETATM   11  O1  UNL     1      -1.531  -0.836   0.410  1.00  0.00    -0.344 OA
BRANCH  11  12
HETATM   12  C7  UNL     1      -1.708   0.392  -0.301  1.00  0.00     0.214 C 
BRANCH  12  13
HETATM   13  C8  UNL     1      -3.127   0.785  -0.113  1.00  0.00    -0.031 A 
HETATM   14  C9  UNL     1      -3.987   0.279  -1.093  1.00  0.00     0.009 A 
HETATM   15  C10 UNL     1      -5.329   0.545  -1.070  1.00  0.00     0.004 A 
HETATM   16  C11 UNL     1      -5.856   1.332  -0.059  1.00  0.00     0.042 A 
HETATM   17  C12 UNL     1      -4.995   1.817   0.892  1.00  0.00     0.117 A 
HETATM   18  F1  UNL     1      -5.500   2.581   1.875  1.00  0.00    -0.206 F 
HETATM   19  C13 UNL     1      -3.623   1.561   0.893  1.00  0.00     0.051 A 
ENDBRANCH  12  13
ENDBRANCH  11  12
ENDBRANCH   5  11
BRANCH   1  20
HETATM   20  N1  UNL     1       3.725  -0.152   0.773  1.00  0.00    -0.277 NA
HETATM   21  C2  UNL     1       4.470   0.278  -0.166  1.00  0.00     0.082 C 
HETATM   22  C1  UNL     1       4.927   1.669   0.195  1.00  0.00     0.057 C 
ENDBRANCH   1  20
TORSDOF 4
