REMARK  4 active torsions:
REMARK  status: ('A' for Active; 'I' for Inactive)
REMARK    1  A    between atoms: C5_5  and  C6_6 
REMARK    2  A    between atoms: C6_6  and  O1_7 
REMARK    3  A    between atoms: O1_7  and  C7_8 
REMARK    4  A    between atoms: C8_9  and  C9_10 
ROOT
HETATM    1  C9  UNL     1      -0.503  -1.166   2.318  1.00  0.00    -0.017 C 
HETATM    2  C10 UNL     1      -0.337  -0.322   1.324  1.00  0.00     0.098 C 
HETATM    3  N1  UNL     1      -0.837   0.557   0.342  1.00  0.00    -0.360 N 
HETATM    4  C11 UNL     1      -1.343   1.846   0.630  1.00  0.00     0.208 C 
HETATM    5  N2  UNL     1      -1.907   2.974   0.924  1.00  0.00    -0.237 NA
HETATM    6  C12 UNL     1      -3.268   3.002   1.389  1.00  0.00     0.230 C 
HETATM    7  N3  UNL     1      -4.089   3.241   0.415  1.00  0.00    -0.257 NA
HETATM    8  C13 UNL     1      -3.715   3.453  -0.947  1.00  0.00     0.325 C 
HETATM    9  O2  UNL     1      -4.265   2.538  -1.864  1.00  0.00    -0.330 OA
HETATM   10  C14 UNL     1      -4.033   1.173  -1.787  1.00  0.00     0.073 A 
HETATM   11  C15 UNL     1      -3.113   0.447  -2.555  1.00  0.00     0.037 A 
HETATM   12  C16 UNL     1      -2.953  -0.937  -2.400  1.00  0.00     0.005 A 
HETATM   13  C17 UNL     1      -3.746  -1.578  -1.449  1.00  0.00     0.029 A 
HETATM   14  C18 UNL     1      -4.637  -0.859  -0.708  1.00  0.00     0.030 A 
HETATM   15  C19 UNL     1      -4.790   0.497  -0.864  1.00  0.00     0.066 A 
HETATM   16  N4  UNL     1      -5.381  -1.643   0.233  1.00  0.00    -0.388 N 
HETATM   17  C20 UNL     1      -4.836  -1.324   1.520  1.00  0.00     0.146 C 
HETATM   18  C21 UNL     1      -3.364  -1.756   1.615  1.00  0.00     0.187 C 
HETATM   19  O3  UNL     1      -2.857  -1.442   2.841  1.00  0.00    -0.385 OA
HETATM   20  C22 UNL     1      -1.568  -1.768   3.110  1.00  0.00     0.207 C 
HETATM   21  H12 UNL     1      -0.911   0.383  -0.683  1.00  0.00     0.166 HD
HETATM   22  H21 UNL     1      -6.036  -2.149  -0.397  1.00  0.00     0.159 HD
ENDROOT
BRANCH   1  23
HETATM   23  C8  UNL     1       0.784  -1.694   2.827  1.00  0.00     0.035 C 
HETATM   24  C7  UNL     1       1.993  -1.370   2.341  1.00  0.00     0.135 C 
BRANCH  24  25
HETATM   25  O1  UNL     1       2.923  -0.746   1.526  1.00  0.00    -0.359 OA
BRANCH  25  26
HETATM   26  C6  UNL     1       3.120  -1.317   0.223  1.00  0.00     0.208 C 
BRANCH  26  27
HETATM   27  C5  UNL     1       4.265  -0.606  -0.359  1.00  0.00    -0.056 C 
HETATM   28  C4  UNL     1       4.105   0.866  -0.516  1.00  0.00     0.063 C 
HETATM   29  C3  UNL     1       5.196   1.275  -1.479  1.00  0.00    -0.020 C 
HETATM   30  C2  UNL     1       6.250   0.535  -1.801  1.00  0.00    -0.084 C 
HETATM   31  C1  UNL     1       7.302   0.996  -2.766  1.00  0.00     0.043 C 
HETATM   32  C24 UNL     1       6.564  -0.834  -1.282  1.00  0.00     0.061 C 
HETATM   33  C23 UNL     1       5.297  -1.345  -0.676  1.00  0.00    -0.017 C 
ENDBRANCH  26  27
ENDBRANCH  25  26
ENDBRANCH  24  25
ENDBRANCH   1  23
TORSDOF 4
