REMARK  4 active torsions:
REMARK  status: ('A' for Active; 'I' for Inactive)
REMARK    1  A    between atoms: C2_2  and  C3_4 
REMARK    2  A    between atoms: C3_4  and  C4_5 
REMARK    3  A    between atoms: C4_5  and  O1_6 
REMARK    4  A    between atoms: O1_6  and  C5_7 
ROOT
HETATM    1  C5  UNL     1      -0.612  -0.326  -0.536  1.00  0.00     0.091 A 
HETATM    2  C6  UNL     1      -1.062  -0.994   0.600  1.00  0.00     0.041 A 
HETATM    3  C7  UNL     1      -0.254  -1.597   1.525  1.00  0.00     0.033 A 
HETATM    4  C8  UNL     1       1.070  -1.544   1.322  1.00  0.00     0.042 A 
HETATM    5  C9  UNL     1       1.492  -0.867   0.167  1.00  0.00     0.053 A 
HETATM    6  C10 UNL     1       0.758  -0.215  -0.846  1.00  0.00     0.080 A 
HETATM    7 CL1  UNL     1       1.346   0.616  -2.277  1.00  0.00    -0.081 Cl
HETATM    8  C11 UNL     1       2.812  -0.557  -0.471  1.00  0.00     0.291 A 
HETATM    9  C12 UNL     1       3.903  -1.192   0.440  1.00  0.00     0.437 A 
HETATM   10  C13 UNL     1       3.854  -1.685   1.378  1.00  0.00     0.220 A 
HETATM   11  N1  UNL     1       3.973  -1.032   0.124  1.00  0.00     0.030 N 
HETATM   12  C14 UNL     1       4.971  -0.672  -0.749  1.00  0.00     0.354 A 
HETATM   13  N2  UNL     1       3.710  -0.239  -1.296  1.00  0.00    -0.248 NA
HETATM   14  N3  UNL     1       2.403  -1.835   1.750  1.00  0.00    -0.359 N 
HETATM   15  H11 UNL     1       2.271  -2.310   2.638  1.00  0.00     0.161 HD
ENDROOT
BRANCH   1  16
HETATM   16  O1  UNL     1      -1.538   0.225  -1.352  1.00  0.00    -0.349 OA
BRANCH  16  17
HETATM   17  C4  UNL     1      -2.885   0.336  -1.356  1.00  0.00     0.182 C 
BRANCH  17  18
HETATM   18  C3  UNL     1      -3.434   1.073  -0.180  1.00  0.00     0.092 C 
BRANCH  18  19
HETATM   19  C2  UNL     1      -2.927   2.451  -0.083  1.00  0.00     0.074 C 
HETATM   20  C1  UNL     1      -3.420   3.719   0.081  1.00  0.00     0.072 C 
HETATM   21  F1  UNL     1      -1.676   2.911  -0.161  1.00  0.00    -0.215 F 
ENDBRANCH  18  19
ENDBRANCH  17  18
ENDBRANCH  16  17
ENDBRANCH   1  16
TORSDOF 4
