REMARK  4 active torsions:
REMARK  status: ('A' for Active; 'I' for Inactive)
REMARK    1  A    between atoms: O1_2  and  C2_3 
REMARK    2  A    between atoms: C4_5  and  O2_6 
REMARK    3  A    between atoms: O2_6  and  C5_7 
REMARK    4  A    between atoms: C11_14  and  N2_15 
ROOT
HETATM    1  C2  UNL     1       2.758  -2.411  -0.057  1.00  0.00     0.073 A 
HETATM    2  C3  UNL     1       1.428  -2.075  -0.249  1.00  0.00     0.074 A 
HETATM    3  C4  UNL     1       0.902  -0.826  -0.008  1.00  0.00     0.088 A 
HETATM    4  C10 UNL     1       1.846   0.066   0.450  1.00  0.00     0.072 A 
HETATM    5  C11 UNL     1       1.391   1.335   0.722  1.00  0.00     0.145 A 
HETATM    6  N3  UNL     1       2.244   2.278   1.185  1.00  0.00    -0.223 NA
HETATM    7  C17 UNL     1       3.566   2.009   1.395  1.00  0.00     0.236 A 
HETATM    8  N4  UNL     1       4.017   0.763   1.128  1.00  0.00    -0.241 NA
HETATM    9  C18 UNL     1       3.182  -0.190   0.666  1.00  0.00     0.077 A 
HETATM   10  C19 UNL     1       3.644  -1.463   0.404  1.00  0.00     0.069 A 
ENDROOT
BRANCH   3  11
HETATM   11  O2  UNL     1      -0.396  -0.467  -0.185  1.00  0.00    -0.345 OA
BRANCH  11  12
HETATM   12  C5  UNL     1      -1.430  -1.316  -0.610  1.00  0.00     0.132 C 
HETATM   13  C6  UNL     1      -2.011  -0.873  -1.934  1.00  0.00     0.051 C 
HETATM   14  C7  UNL     1      -3.456  -0.518  -1.808  1.00  0.00     0.116 C 
HETATM   15  N1  UNL     1      -4.255  -1.541  -1.183  1.00  0.00    -0.421 N 
HETATM   16  C8  UNL     1      -3.614  -2.269  -0.140  1.00  0.00     0.116 C 
HETATM   17  H10 UNL     1      -4.889  -2.057  -1.797  1.00  0.00     0.153 HD
HETATM   18  C9  UNL     1      -2.529  -1.369   0.445  1.00  0.00     0.051 C 
ENDBRANCH  11  12
ENDBRANCH   3  11
BRANCH   1  19
HETATM   19  O1  UNL     1       3.256  -3.680  -0.310  1.00  0.00    -0.356 OA
HETATM   20  C1  UNL     1       4.606  -4.022  -0.115  1.00  0.00     0.210 C 
ENDBRANCH   1  19
BRANCH   5  21
HETATM   21  N2  UNL     1       0.099   1.900   0.580  1.00  0.00    -0.330 N 
HETATM   22  C12 UNL     1      -0.796   2.249  -0.528  1.00  0.00     0.156 C 
HETATM   23  C13 UNL     1      -0.822   3.747  -0.530  1.00  0.00     0.012 C 
HETATM   24  C14 UNL     1      -0.760   4.432   0.583  1.00  0.00     0.014 C 
HETATM   25 CL1  UNL     1      -0.786   6.187   0.664  1.00  0.00    -0.089 Cl
HETATM   26  C15 UNL     1      -0.661   3.779   1.894  1.00  0.00     0.110 C 
HETATM   27  C16 UNL     1      -0.608   2.269   1.810  1.00  0.00     0.278 C 
HETATM   28  F1  UNL     1      -1.913   1.816   1.799  1.00  0.00    -0.226 F 
ENDBRANCH   5  21
TORSDOF 4
