REMARK  6 active torsions:
REMARK  status: ('A' for Active; 'I' for Inactive)
REMARK    1  A    between atoms: C2_2  and  C3_3 
REMARK    2  A    between atoms: C9_10  and  C10_11 
REMARK    3  A    between atoms: C11_13  and  O2_14 
REMARK    4  A    between atoms: C15_19  and  N2_20 
REMARK    5  A    between atoms: N2_20  and  C16_21 
REMARK    6  A    between atoms: C16_21  and  C17_22 
ROOT
HETATM    1  C3  UNL     1      -1.998   2.827  -0.266  1.00  0.00     0.191 C 
HETATM    2  O1  UNL     1      -0.772   3.246   0.104  1.00  0.00    -0.375 OA
HETATM    3  C4  UNL     1      -0.148   2.770   1.271  1.00  0.00     0.183 C 
HETATM    4  C5  UNL     1      -0.214   1.307   1.126  1.00  0.00     0.081 C 
HETATM    5  C6  UNL     1       0.317   0.304   2.021  1.00  0.00    -0.014 C 
HETATM    6  C7  UNL     1      -0.378  -0.848   1.643  1.00  0.00    -0.003 C 
HETATM    7  C8  UNL     1      -1.422  -1.377   0.700  1.00  0.00     0.009 C 
HETATM    8  C9  UNL     1      -2.369  -1.688  -0.204  1.00  0.00    -0.002 C 
HETATM    9  C11 UNL     1      -3.080  -0.709  -1.153  1.00  0.00     0.273 C 
HETATM   10  N1  UNL     1      -2.856   0.606  -0.642  1.00  0.00    -0.259 NA
HETATM   11  C12 UNL     1      -2.039   1.495  -1.014  1.00  0.00     0.046 C 
HETATM   12  C13 UNL     1      -1.102   1.223  -2.179  1.00  0.00     0.086 C 
HETATM   13  C14 UNL     1       0.250   1.178  -1.506  1.00  0.00     0.004 C 
HETATM   14  C15 UNL     1       0.453   1.004  -0.185  1.00  0.00     0.011 C 
ENDROOT
BRANCH  14  15
HETATM   15  N2  UNL     1       1.719   0.311  -0.086  1.00  0.00    -0.388 N 
HETATM   16  H18 UNL     1       2.416   0.683   0.614  1.00  0.00     0.159 HD
BRANCH  15  17
HETATM   17  C16 UNL     1       2.042  -0.843  -0.900  1.00  0.00     0.160 C 
BRANCH  17  18
HETATM   18  C17 UNL     1       3.391  -1.347  -0.651  1.00  0.00    -0.019 A 
HETATM   19  C18 UNL     1       4.375  -1.052  -1.600  1.00  0.00     0.010 A 
HETATM   20  C19 UNL     1       5.703  -1.469  -1.488  1.00  0.00     0.001 A 
HETATM   21  C20 UNL     1       6.080  -2.214  -0.386  1.00  0.00     0.002 A 
HETATM   22  C21 UNL     1       5.143  -2.518   0.557  1.00  0.00     0.024 A 
HETATM   23  C22 UNL     1       3.844  -2.088   0.411  1.00  0.00     0.042 A 
HETATM   24 CL1  UNL     1       2.677  -2.504   1.638  1.00  0.00    -0.084 Cl
ENDBRANCH  17  18
ENDBRANCH  15  17
ENDBRANCH  14  15
BRANCH   1  25
HETATM   25  C2  UNL     1      -3.044   2.870   0.773  1.00  0.00     0.000 C 
HETATM   26  C1  UNL     1      -4.312   3.013   0.405  1.00  0.00     0.010 C 
ENDBRANCH   1  25
BRANCH   8  27
HETATM   27  C10 UNL     1      -2.579  -3.145  -0.024  1.00  0.00     0.261 C 
HETATM   28  F1  UNL     1      -1.708  -3.519   0.982  1.00  0.00    -0.251 F 
ENDBRANCH   8  27
BRANCH   9  29
HETATM   29  O2  UNL     1      -4.435  -0.968  -0.970  1.00  0.00    -0.371 OA
HETATM   30  H14 UNL     1      -4.998  -0.152  -1.038  1.00  0.00     0.212 HD
ENDBRANCH   9  29
TORSDOF 6
