REMARK  2 active torsions:
REMARK  status: ('A' for Active; 'I' for Inactive)
REMARK    1  A    between atoms: C11_12  and  O2_13 
REMARK    2  A    between atoms: O2_13  and  C12_14 
ROOT
HETATM    1  O1  UNL     1      -2.275   1.555   2.760  1.00  0.00    -0.273 OA
HETATM    2  C1  UNL     1      -1.756   0.714   2.004  1.00  0.00     0.222 C 
HETATM    3  C2  UNL     1      -0.879  -0.445   2.409  1.00  0.00     0.072 C 
HETATM    4  C3  UNL     1      -0.135  -1.522   2.108  1.00  0.00     0.077 C 
HETATM    5  C4  UNL     1       0.180  -2.151   0.831  1.00  0.00    -0.042 A 
HETATM    6  C5  UNL     1      -0.122  -3.505   0.863  1.00  0.00     0.008 A 
HETATM    7  C6  UNL     1       0.065  -4.367  -0.184  1.00  0.00     0.001 A 
HETATM    8  C7  UNL     1       0.577  -3.960  -1.379  1.00  0.00     0.001 A 
HETATM    9  C8  UNL     1       0.888  -2.632  -1.454  1.00  0.00     0.012 A 
HETATM   10  C9  UNL     1       0.705  -1.759  -0.412  1.00  0.00    -0.027 A 
HETATM   11  C10 UNL     1       0.966  -0.328  -0.503  1.00  0.00     0.045 C 
HETATM   12  C11 UNL     1       1.265   0.956  -0.605  1.00  0.00     0.057 C 
HETATM   13  C13 UNL     1       0.162   1.844  -0.255  1.00  0.00     0.079 C 
HETATM   14  C14 UNL     1      -0.618   2.904  -0.021  1.00  0.00    -0.013 C 
HETATM   15  C15 UNL     1      -1.962   2.996   0.451  1.00  0.00     0.014 C 
HETATM   16  C16 UNL     1      -3.052   2.397   0.889  1.00  0.00     0.090 C 
HETATM   17  N1  UNL     1      -2.258   1.228   0.724  1.00  0.00    -0.337 N 
HETATM   18  H14 UNL     1      -1.816   0.485   0.181  1.00  0.00     0.168 HD
ENDROOT
BRANCH  12  19
HETATM   19  O2  UNL     1       2.546   1.464  -1.014  1.00  0.00    -0.345 OA
BRANCH  19  20
HETATM   20  C12 UNL     1       2.698   2.225  -2.173  1.00  0.00     0.254 C 
HETATM   21  I1  UNL     1       4.749   2.710  -2.461  1.00  0.00    -0.061 I 
ENDBRANCH  19  20
ENDBRANCH  12  19
TORSDOF 2
