REMARK  8 active torsions:
REMARK  status: ('A' for Active; 'I' for Inactive)
REMARK    1  A    between atoms: C3_4  and  C4_5 
REMARK    2  A    between atoms: C5_6  and  N1_7 
REMARK    3  A    between atoms: N1_7  and  C6_8 
REMARK    4  A    between atoms: C8_10  and  B1_11 
REMARK    5  A    between atoms: B1_11  and  O1_12 
REMARK    6  A    between atoms: O1_12  and  C9_13 
REMARK    7  A    between atoms: C13_17  and  N2_18 
REMARK       I    between atoms: N2_18  and  C14_19 
REMARK    8  A    between atoms: C14_19  and  C15_21 
ROOT
HETATM    1  C15 UNL     1      -8.222   1.977  -0.479  1.00  0.00     0.226 C 
HETATM    2  C16 UNL     1      -8.277   3.398  -0.135  1.00  0.00     0.068 C 
HETATM    3  N3  UNL     1      -8.305   4.530   0.144  1.00  0.00    -0.197 NA
ENDROOT
BRANCH   1   4
HETATM    4  C14 UNL     1      -6.846   1.464  -0.258  1.00  0.00     0.235 C 
HETATM    5  N2  UNL     1      -6.439   0.140  -0.489  1.00  0.00    -0.326 N 
HETATM    6  H13 UNL     1      -7.228  -0.441  -0.836  1.00  0.00     0.169 HD
HETATM    7  O2  UNL     1      -6.011   2.300   0.165  1.00  0.00    -0.272 OA
BRANCH   5   8
HETATM    8  C13 UNL     1      -5.169  -0.458  -0.316  1.00  0.00     0.037 A 
HETATM    9  C12 UNL     1      -5.018  -1.793  -0.615  1.00  0.00     0.029 A 
HETATM   10  C11 UNL     1      -3.814  -2.445  -0.473  1.00  0.00     0.005 A 
HETATM   11  C10 UNL     1      -2.687  -1.790  -0.021  1.00  0.00     0.035 A 
HETATM   12  C9  UNL     1      -2.802  -0.451   0.288  1.00  0.00     0.052 A 
HETATM   13  C17 UNL     1      -4.021   0.150   0.130  1.00  0.00     0.064 A 
BRANCH  12  14
HETATM   14  O1  UNL     1      -1.694   0.231   0.742  1.00  0.00    -0.414 OA
BRANCH  14  15
HETATM   15  B1  UNL     1      -0.525  -0.391   1.350  1.00  0.00     0.372 B 
HETATM   16  H9  UNL     1      -0.590  -0.930   2.398  1.00  0.00     0.015 HD
BRANCH  15  17
HETATM   17  C8  UNL     1       0.916   0.056   0.919  1.00  0.00     0.028 A 
HETATM   18  C7  UNL     1       2.020  -0.751   1.044  1.00  0.00     0.067 A 
HETATM   19  C6  UNL     1       3.247  -0.269   0.636  1.00  0.00     0.129 A 
HETATM   20  N5  UNL     1       3.335   0.977   0.126  1.00  0.00    -0.225 NA
HETATM   21  C18 UNL     1       2.257   1.769   0.002  1.00  0.00     0.234 A 
HETATM   22  N4  UNL     1       1.062   1.294   0.402  1.00  0.00    -0.256 NA
BRANCH  19  23
HETATM   23  N1  UNL     1       4.341  -1.165   0.798  1.00  0.00    -0.351 N 
HETATM   24  H7  UNL     1       4.697  -0.954   1.755  1.00  0.00     0.166 HD
BRANCH  23  25
HETATM   25  C5  UNL     1       4.911  -2.149  -0.049  1.00  0.00     0.090 C 
HETATM   26  C4  UNL     1       6.048  -1.775  -0.606  1.00  0.00     0.018 C 
BRANCH  26  27
HETATM   27  C3  UNL     1       6.549  -0.442  -0.285  1.00  0.00     0.020 C 
HETATM   28  C2  UNL     1       7.671   0.077  -0.762  1.00  0.00     0.008 C 
HETATM   29  C1  UNL     1       8.261   1.401  -0.503  1.00  0.00     0.062 C 
HETATM   30 CL1  UNL     1       8.581  -0.961  -1.856  1.00  0.00    -0.089 Cl
ENDBRANCH  26  27
ENDBRANCH  23  25
ENDBRANCH  19  23
ENDBRANCH  15  17
ENDBRANCH  14  15
ENDBRANCH  12  14
ENDBRANCH   5   8
ENDBRANCH   1   4
TORSDOF 8
