REMARK  6 active torsions:
REMARK  status: ('A' for Active; 'I' for Inactive)
REMARK    1  A    between atoms: C3_4  and  C4_6 
REMARK    2  A    between atoms: C5_7  and  C6_8 
REMARK    3  A    between atoms: C6_8  and  C7_9 
REMARK    4  A    between atoms: C7_9  and  C8_10 
REMARK       I    between atoms: C8_10  and  N1_12 
REMARK    5  A    between atoms: N1_12  and  C9_13 
REMARK    6  A    between atoms: C13_17  and  O2_19 
ROOT
HETATM    1  C8  UNL     1      -1.005  -0.197   0.921  1.00  0.00     0.222 C 
HETATM    2  O1  UNL     1      -0.814   1.040   1.022  1.00  0.00    -0.273 OA
HETATM    3  N1  UNL     1      -2.186  -0.910   0.546  1.00  0.00    -0.325 N 
HETATM    4  H10 UNL     1      -2.108  -1.977   0.535  1.00  0.00     0.168 HD
ENDROOT
BRANCH   1   5
HETATM    5  C7  UNL     1       0.176  -0.994   1.240  1.00  0.00     0.107 C 
BRANCH   5   6
HETATM    6  C6  UNL     1       1.426  -0.260   1.546  1.00  0.00     0.036 C 
BRANCH   6   7
HETATM    7  C5  UNL     1       1.950   0.584   0.451  1.00  0.00    -0.023 C 
HETATM    8  C4  UNL     1       3.122   0.533  -0.196  1.00  0.00     0.041 C 
BRANCH   8   9
HETATM    9  C3  UNL     1       4.226  -0.392   0.010  1.00  0.00     0.149 C 
HETATM   10  C2  UNL     1       5.346  -0.307  -0.731  1.00  0.00     0.128 C 
HETATM   11  C1  UNL     1       5.408   0.774  -1.773  1.00  0.00     0.085 C 
HETATM   12  F1  UNL     1       6.374  -1.164  -0.543  1.00  0.00    -0.208 F 
HETATM   13  F2  UNL     1       4.209  -1.383   0.942  1.00  0.00    -0.203 F 
ENDBRANCH   8   9
ENDBRANCH   6   7
ENDBRANCH   5   6
ENDBRANCH   1   5
BRANCH   3  14
HETATM   14  C9  UNL     1      -3.467  -0.344   0.193  1.00  0.00     0.086 A 
HETATM   15  C10 UNL     1      -3.731  -0.651  -1.098  1.00  0.00     0.031 A 
HETATM   16  C11 UNL     1      -5.015  -0.111  -1.526  1.00  0.00     0.004 A 
HETATM   17  C12 UNL     1      -5.513   0.518  -0.477  1.00  0.00     0.056 A 
HETATM   18  C13 UNL     1      -4.618   0.443   0.707  1.00  0.00     0.301 A 
HETATM   19  F3  UNL     1      -5.237  -0.280   1.732  1.00  0.00    -0.197 F 
BRANCH  18  20
HETATM   20  O2  UNL     1      -4.342   1.724   1.086  1.00  0.00    -0.142 OA
HETATM   21  F4  UNL     1      -3.486   1.891   2.047  1.00  0.00    -0.044 F 
ENDBRANCH  18  20
ENDBRANCH   3  14
TORSDOF 6
