REMARK  5 active torsions:
REMARK  status: ('A' for Active; 'I' for Inactive)
REMARK    1  A    between atoms: O1_2  and  C2_3 
REMARK    2  A    between atoms: C5_8  and  C6_9 
REMARK    3  A    between atoms: C13_18  and  O2_19 
REMARK    4  A    between atoms: O2_19  and  C14_20 
REMARK    5  A    between atoms: C20_27  and  N4_28 
ROOT
HETATM    1  C2  UNL     1      -1.765   2.933   0.435  1.00  0.00     0.115 A 
HETATM    2  C3  UNL     1      -2.629   2.061  -0.052  1.00  0.00     0.105 A 
HETATM    3  N1  UNL     1      -3.873   2.261  -0.514  1.00  0.00    -0.239 NA
HETATM    4  C4  UNL     1      -4.619   1.240  -0.970  1.00  0.00     0.234 A 
HETATM    5  N2  UNL     1      -4.048   0.025  -0.934  1.00  0.00    -0.240 NA
HETATM    6  C5  UNL     1      -2.812  -0.228  -0.485  1.00  0.00     0.083 A 
HETATM    7  C12 UNL     1      -2.044   0.814  -0.016  1.00  0.00     0.057 A 
HETATM    8  C13 UNL     1      -0.828   0.792   0.469  1.00  0.00     0.101 A 
HETATM    9  C20 UNL     1      -0.521   2.197   0.813  1.00  0.00     0.333 A 
ENDROOT
BRANCH   6  10
HETATM   10  C6  UNL     1      -2.457  -1.637  -0.555  1.00  0.00    -0.004 A 
HETATM   11  C7  UNL     1      -3.386  -2.510   0.030  1.00  0.00     0.017 A 
HETATM   12  C8  UNL     1      -3.270  -3.886   0.064  1.00  0.00     0.045 A 
HETATM   13  C9  UNL     1      -2.163  -4.465  -0.517  1.00  0.00     0.138 A 
HETATM   14  F1  UNL     1      -1.953  -5.798  -0.539  1.00  0.00    -0.204 F 
HETATM   15  C10 UNL     1      -1.238  -3.637  -1.098  1.00  0.00     0.073 A 
HETATM   16 CL1  UNL     1       0.221  -4.244  -1.875  1.00  0.00    -0.081 Cl
HETATM   17  C11 UNL     1      -1.376  -2.273  -1.119  1.00  0.00     0.041 A 
ENDBRANCH   6  10
BRANCH   8  18
HETATM   18  O2  UNL     1       0.016  -0.284   0.639  1.00  0.00    -0.346 OA
BRANCH  18  19
HETATM   19  C14 UNL     1       1.416  -0.176   0.658  1.00  0.00     0.132 C 
HETATM   20  C15 UNL     1       1.952  -1.369   1.455  1.00  0.00     0.062 C 
HETATM   21  C16 UNL     1       3.323  -1.735   0.860  1.00  0.00     0.274 C 
HETATM   22  N3  UNL     1       3.927  -0.446   0.505  1.00  0.00     0.084 N 
HETATM   23  C17 UNL     1       5.373  -0.506   0.550  1.00  0.00     0.309 C 
HETATM   24  C18 UNL     1       3.438  -0.095  -0.805  1.00  0.00     0.274 C 
HETATM   25  C19 UNL     1       1.928  -0.261  -0.769  1.00  0.00     0.062 C 
ENDBRANCH  18  19
ENDBRANCH   8  18
BRANCH   1  26
HETATM   26  O1  UNL     1      -1.992   4.289   0.566  1.00  0.00    -0.355 OA
HETATM   27  C1  UNL     1      -1.875   5.114  -0.575  1.00  0.00     0.209 C 
ENDBRANCH   1  26
BRANCH   9  28
HETATM   28  N4  UNL     1       0.530   2.775   0.008  1.00  0.00     0.095 N 
HETATM   29  H21 UNL     1       0.158   2.887  -0.962  1.00  0.00     0.314 HD
HETATM   30  H22 UNL     1       0.708   3.733   0.375  1.00  0.00     0.314 HD
ENDBRANCH   9  28
TORSDOF 5
