REMARK  6 active torsions:
REMARK  status: ('A' for Active; 'I' for Inactive)
REMARK    1  A    between atoms: C2_4  and  O1_5 
REMARK    2  A    between atoms: O1_5  and  C3_6 
REMARK    3  A    between atoms: C4_7  and  N1_8 
REMARK    4  A    between atoms: N1_8  and  C5_9 
REMARK    5  A    between atoms: C7_11  and  O2_12 
REMARK    6  A    between atoms: O2_12  and  C8_13 
ROOT
HETATM    1  C5  UNL     1       1.107  -1.059  -0.159  1.00  0.00     0.133 A 
HETATM    2  C6  UNL     1       0.165  -0.050  -0.072  1.00  0.00     0.108 A 
HETATM    3  C7  UNL     1      -1.202  -0.329  -0.143  1.00  0.00     0.174 A 
HETATM    4  N2  UNL     1      -1.514  -1.644  -0.300  1.00  0.00    -0.217 NA
HETATM    5  C14 UNL     1      -0.621  -2.624  -0.385  1.00  0.00     0.238 A 
HETATM    6  N3  UNL     1       0.698  -2.338  -0.315  1.00  0.00    -0.224 NA
ENDROOT
BRANCH   1   7
HETATM    7  N1  UNL     1       2.452  -0.641  -0.098  1.00  0.00    -0.349 N 
HETATM    8  H4  UNL     1       2.795  -0.890  -1.072  1.00  0.00     0.167 HD
BRANCH   7   9
HETATM    9  C4  UNL     1       3.434  -0.064   0.733  1.00  0.00     0.114 C 
HETATM   10  C3  UNL     1       4.644  -0.590   0.768  1.00  0.00     0.158 C 
BRANCH  10  11
HETATM   11  O1  UNL     1       5.616  -0.055   1.561  1.00  0.00    -0.331 OA
BRANCH  11  12
HETATM   12  C2  UNL     1       6.382   1.003   1.172  1.00  0.00     0.172 C 
HETATM   13  C1  UNL     1       6.383   1.290  -0.109  1.00  0.00     0.097 A 
HETATM   14 CL1  UNL     1       5.509   0.465  -1.368  1.00  0.00    -0.103 Cl
HETATM   15  I1  UNL     1       7.212   2.654  -1.475  1.00  0.00    -0.000 I 
ENDBRANCH  11  12
ENDBRANCH  10  11
ENDBRANCH   7   9
ENDBRANCH   1   7
BRANCH   3  16
HETATM   16  O2  UNL     1      -2.081   0.725  -0.049  1.00  0.00    -0.292 OA
BRANCH  16  17
HETATM   17  C8  UNL     1      -3.444   0.651  -0.147  1.00  0.00     0.077 A 
HETATM   18  C9  UNL     1      -4.199   1.017  -1.267  1.00  0.00     0.037 A 
HETATM   19  C10 UNL     1      -5.582   0.900  -1.267  1.00  0.00     0.003 A 
HETATM   20  C11 UNL     1      -6.193   0.412  -0.132  1.00  0.00     0.000 A 
HETATM   21  C12 UNL     1      -5.471   0.048   0.978  1.00  0.00     0.003 A 
HETATM   22  C13 UNL     1      -4.088   0.172   0.961  1.00  0.00     0.037 A 
ENDBRANCH  16  17
ENDBRANCH   3  16
TORSDOF 6
