REMARK  8 active torsions:
REMARK  status: ('A' for Active; 'I' for Inactive)
REMARK    1  A    between atoms: C2_2  and  N3_9 
REMARK    2  A    between atoms: N1_3  and  C3_4 
REMARK    3  A    between atoms: N2_5  and  C4_6 
REMARK    4  A    between atoms: C4_6  and  O1_7 
REMARK    5  A    between atoms: N3_9  and  C5_10 
REMARK    6  A    between atoms: C8_13  and  O2_14 
REMARK    7  A    between atoms: O2_14  and  C9_15 
REMARK    8  A    between atoms: C9_15  and  C10_16 
ROOT
HETATM    1  C5  UNL     1       1.346  -1.610  -0.769  1.00  0.00     0.035 A 
HETATM    2  C6  UNL     1       0.985  -0.347  -0.363  1.00  0.00     0.032 A 
HETATM    3  C7  UNL     1      -0.295   0.048  -0.135  1.00  0.00     0.041 A 
HETATM    4  C8  UNL     1      -1.337  -0.817  -0.302  1.00  0.00     0.091 A 
HETATM    5  C16 UNL     1      -1.048  -2.093  -0.705  1.00  0.00     0.069 A 
HETATM    6 CL1  UNL     1      -2.354  -3.242  -0.933  1.00  0.00    -0.081 Cl
HETATM    7  C17 UNL     1       0.260  -2.468  -0.929  1.00  0.00     0.056 A 
ENDROOT
BRANCH   1   8
HETATM    8  N3  UNL     1       2.660  -2.081  -1.026  1.00  0.00    -0.345 N 
HETATM    9  H7  UNL     1       2.778  -3.091  -1.297  1.00  0.00     0.167 HD
BRANCH   8  10
HETATM   10  C2  UNL     1       3.813  -1.262  -0.932  1.00  0.00     0.101 C 
HETATM   11  C1  UNL     1       5.049  -1.818  -0.291  1.00  0.00     0.091 C 
HETATM   12  N1  UNL     1       3.699  -0.062  -1.424  1.00  0.00    -0.229 NA
BRANCH  12  13
HETATM   13  C3  UNL     1       4.828   0.800  -1.355  1.00  0.00     0.231 C 
HETATM   14  N2  UNL     1       5.663   1.352  -0.580  1.00  0.00    -0.254 NA
BRANCH  14  15
HETATM   15  C4  UNL     1       5.652   1.176   0.850  1.00  0.00     0.365 C 
BRANCH  15  16
HETATM   16  O1  UNL     1       6.110   2.345   1.469  1.00  0.00    -0.177 OA
HETATM   17  F1  UNL     1       5.334   3.353   1.152  1.00  0.00    -0.046 F 
ENDBRANCH  15  16
ENDBRANCH  14  15
ENDBRANCH  12  13
ENDBRANCH   8  10
ENDBRANCH   1   8
BRANCH   4  18
HETATM   18  O2  UNL     1      -2.658  -0.475  -0.086  1.00  0.00    -0.345 OA
BRANCH  18  19
HETATM   19  C9  UNL     1      -2.940   0.845   0.330  1.00  0.00     0.214 C 
BRANCH  19  20
HETATM   20  C10 UNL     1      -4.426   0.964   0.495  1.00  0.00    -0.034 A 
HETATM   21  C11 UNL     1      -5.125   0.704   1.670  1.00  0.00     0.009 A 
HETATM   22  C12 UNL     1      -6.497   0.856   1.676  1.00  0.00     0.001 A 
HETATM   23  C13 UNL     1      -7.180   1.255   0.556  1.00  0.00     0.000 A 
HETATM   24  C14 UNL     1      -6.500   1.514  -0.605  1.00  0.00     0.001 A 
HETATM   25  C15 UNL     1      -5.123   1.363  -0.621  1.00  0.00     0.009 A 
ENDBRANCH  19  20
ENDBRANCH  18  19
ENDBRANCH   4  18
TORSDOF 8
