REMARK  6 active torsions:
REMARK  status: ('A' for Active; 'I' for Inactive)
REMARK    1  A    between atoms: N1_1  and  C1_2 
REMARK    2  A    between atoms: C3_4  and  N2_5 
REMARK    3  A    between atoms: N2_5  and  C4_6 
REMARK    4  A    between atoms: C7_9  and  O1_10 
REMARK    5  A    between atoms: O1_10  and  C8_11 
REMARK    6  A    between atoms: C8_11  and  C9_12 
ROOT
HETATM    1  C4  UNL     1       1.799  -0.928  -0.456  1.00  0.00     0.035 A 
HETATM    2  C5  UNL     1       1.111   0.143   0.059  1.00  0.00     0.032 A 
HETATM    3  C6  UNL     1      -0.262   0.246   0.051  1.00  0.00     0.041 A 
HETATM    4  C7  UNL     1      -1.041  -0.753  -0.491  1.00  0.00     0.091 A 
HETATM    5  C15 UNL     1      -0.377  -1.839  -1.014  1.00  0.00     0.069 A 
HETATM    6 CL1  UNL     1      -1.282  -3.168  -1.729  1.00  0.00    -0.081 Cl
HETATM    7  C16 UNL     1       0.999  -1.932  -1.001  1.00  0.00     0.056 A 
ENDROOT
BRANCH   1   8
HETATM    8  N2  UNL     1       3.203  -1.110  -0.495  1.00  0.00    -0.341 N 
HETATM    9  H4  UNL     1       3.600  -2.006  -0.884  1.00  0.00     0.167 HD
BRANCH   8  10
HETATM   10  C3  UNL     1       4.168  -0.173  -0.041  1.00  0.00     0.129 A 
HETATM   11  C2  UNL     1       5.379  -0.631   0.589  1.00  0.00     0.105 A 
HETATM   12  C1  UNL     1       6.232   0.286   0.985  1.00  0.00     0.141 A 
HETATM   13  O2  UNL     1       5.953   1.614   0.793  1.00  0.00    -0.315 OA
HETATM   14  C17 UNL     1       4.787   2.128   0.184  1.00  0.00     0.328 A 
HETATM   15  N3  UNL     1       3.881   1.078  -0.234  1.00  0.00    -0.246 NA
BRANCH  12  16
HETATM   16  N1  UNL     1       7.439  -0.130   1.611  1.00  0.00    -0.380 N 
HETATM   17  H1  UNL     1       7.366   0.039   2.657  1.00  0.00     0.158 HD
HETATM   18  H2  UNL     1       8.375  -0.536   1.465  1.00  0.00     0.158 HD
ENDBRANCH  12  16
ENDBRANCH   8  10
ENDBRANCH   1   8
BRANCH   4  19
HETATM   19  O1  UNL     1      -2.426  -0.753  -0.551  1.00  0.00    -0.345 OA
BRANCH  19  20
HETATM   20  C8  UNL     1      -3.080   0.393   0.003  1.00  0.00     0.214 C 
BRANCH  20  21
HETATM   21  C9  UNL     1      -4.532   0.264  -0.127  1.00  0.00    -0.031 A 
HETATM   22  C10 UNL     1      -5.204   0.727  -1.225  1.00  0.00     0.009 A 
HETATM   23  C11 UNL     1      -6.572   0.621  -1.377  1.00  0.00     0.004 A 
HETATM   24  C12 UNL     1      -7.257   0.006  -0.334  1.00  0.00     0.042 A 
HETATM   25  C13 UNL     1      -6.662  -0.489   0.807  1.00  0.00     0.117 A 
HETATM   26  F1  UNL     1      -7.381  -1.072   1.776  1.00  0.00    -0.206 F 
HETATM   27  C14 UNL     1      -5.289  -0.332   0.858  1.00  0.00     0.051 A 
ENDBRANCH  20  21
ENDBRANCH  19  20
ENDBRANCH   4  19
TORSDOF 6
