REMARK  2 active torsions:
REMARK  status: ('A' for Active; 'I' for Inactive)
REMARK    1  A    between atoms: S1_2  and  C2_5 
REMARK    2  A    between atoms: C12_17  and  C13_18 
ROOT
HETATM    1  C2  UNL     1       1.327   0.353  -0.540  1.00  0.00     0.133 C 
HETATM    2  C3  UNL     1       1.028   1.400   0.365  1.00  0.00     0.134 C 
HETATM    3  N1  UNL     1      -0.152   2.170   0.500  1.00  0.00    -0.418 N 
HETATM    4  C4  UNL     1      -1.235   1.457   1.015  1.00  0.00     0.140 C 
HETATM    5  C5  UNL     1      -2.559   2.082   1.378  1.00  0.00     0.187 C 
HETATM    6  O3  UNL     1      -3.317   1.136   1.940  1.00  0.00    -0.386 OA
HETATM    7  C6  UNL     1      -3.851   0.009   1.511  1.00  0.00     0.195 C 
HETATM    8  C7  UNL     1      -2.983  -0.911   0.759  1.00  0.00     0.001 C 
HETATM    9  C8  UNL     1      -2.393  -1.704  -0.104  1.00  0.00     0.029 C 
HETATM   10  C9  UNL     1      -1.152  -2.436  -0.011  1.00  0.00     0.052 C 
HETATM   11  C10 UNL     1      -0.368  -1.543  -0.702  1.00  0.00     0.011 C 
HETATM   12  C11 UNL     1       0.983  -1.025  -0.636  1.00  0.00     0.040 C 
HETATM   13  C12 UNL     1       1.585  -1.961   0.426  1.00  0.00     0.049 C 
HETATM   14  C14 UNL     1       1.012  -3.318  -0.008  1.00  0.00     0.096 C 
HETATM   15  N2  UNL     1      -0.257  -3.425   0.343  1.00  0.00    -0.265 NA
HETATM   16  H7  UNL     1      -0.031   3.118   0.862  1.00  0.00     0.153 HD
ENDROOT
BRANCH   1  17
HETATM   17  S1  UNL     1       1.131   1.088  -2.211  1.00  0.00     0.147 S 
HETATM   18  C1  UNL     1       1.925   2.676  -2.267  1.00  0.00     0.161 C 
HETATM   19  O1  UNL     1       1.876   0.168  -3.132  1.00  0.00    -0.228 OA
HETATM   20  O2  UNL     1      -0.319   1.191  -2.526  1.00  0.00    -0.228 OA
ENDBRANCH   1  17
BRANCH  13  21
HETATM   21  C13 UNL     1       3.067  -2.027   0.219  1.00  0.00     0.125 C 
HETATM   22 CL1  UNL     1       3.845  -3.113   1.421  1.00  0.00    -0.130 Cl
ENDBRANCH  13  21
TORSDOF 2
