REMARK  5 active torsions:
REMARK  status: ('A' for Active; 'I' for Inactive)
REMARK    1  A    between atoms: C5_5  and  N1_6 
REMARK    2  A    between atoms: N1_6  and  C6_7 
REMARK    3  A    between atoms: C9_10  and  O1_11 
REMARK    4  A    between atoms: O1_11  and  C10_12 
REMARK    5  A    between atoms: C10_12  and  C11_13 
ROOT
HETATM    1  C1  UNL     1       8.306   1.049  -1.350  1.00  0.00     0.019 C 
HETATM    2  C2  UNL     1       7.184   1.034  -0.851  1.00  0.00    -0.058 C 
HETATM    3  C3  UNL     1       5.868   1.017  -0.249  1.00  0.00     0.108 C 
HETATM    4  C4  UNL     1       4.970   0.041  -0.598  1.00  0.00     0.052 C 
HETATM    5  C5  UNL     1       3.693  -0.082  -0.101  1.00  0.00    -0.034 C 
HETATM    6  B1  UNL     1       3.415   0.789   1.426  1.00  0.00     0.258 B 
HETATM    7  C19 UNL     1       4.668   2.330   1.343  1.00  0.00     0.034 C 
HETATM    8  N2  UNL     1       5.707   2.018   0.612  1.00  0.00    -0.268 NA
ENDROOT
BRANCH   5   9
HETATM    9  N1  UNL     1       2.749  -0.860  -0.797  1.00  0.00    -0.370 N 
HETATM   10  H3  UNL     1       3.084  -1.342  -1.666  1.00  0.00     0.165 HD
BRANCH   9  11
HETATM   11  C6  UNL     1       1.382  -1.110  -0.522  1.00  0.00     0.033 A 
HETATM   12  C7  UNL     1       0.671  -0.277   0.306  1.00  0.00     0.032 A 
HETATM   13  C8  UNL     1      -0.634  -0.496   0.610  1.00  0.00     0.041 A 
HETATM   14  C9  UNL     1      -1.357  -1.558   0.125  1.00  0.00     0.091 A 
HETATM   15  C17 UNL     1      -0.635  -2.418  -0.726  1.00  0.00     0.069 A 
HETATM   16 CL1  UNL     1      -1.239  -3.881  -1.533  1.00  0.00    -0.081 Cl
HETATM   17  C18 UNL     1       0.712  -2.189  -1.038  1.00  0.00     0.056 A 
BRANCH  14  18
HETATM   18  O1  UNL     1      -2.611  -2.061   0.214  1.00  0.00    -0.345 OA
BRANCH  18  19
HETATM   19  C10 UNL     1      -3.697  -1.592   0.911  1.00  0.00     0.214 C 
BRANCH  19  20
HETATM   20  C11 UNL     1      -4.182  -0.252   0.530  1.00  0.00    -0.031 A 
HETATM   21  C12 UNL     1      -5.047  -0.272  -0.575  1.00  0.00     0.009 A 
HETATM   22  C13 UNL     1      -5.638   0.848  -1.107  1.00  0.00     0.004 A 
HETATM   23  C14 UNL     1      -5.399   2.071  -0.563  1.00  0.00     0.042 A 
HETATM   24  C15 UNL     1      -4.555   2.132   0.524  1.00  0.00     0.117 A 
HETATM   25  F1  UNL     1      -4.253   3.300   1.137  1.00  0.00    -0.206 F 
HETATM   26  C16 UNL     1      -3.978   1.006   1.038  1.00  0.00     0.051 A 
ENDBRANCH  19  20
ENDBRANCH  18  19
ENDBRANCH  14  18
ENDBRANCH   9  11
ENDBRANCH   5   9
TORSDOF 5
