REMARK  8 active torsions:
REMARK  status: ('A' for Active; 'I' for Inactive)
REMARK    1  A    between atoms: O1_2  and  C2_3 
REMARK    2  A    between atoms: C5_6  and  N1_7 
REMARK    3  A    between atoms: N1_7  and  C6_8 
REMARK    4  A    between atoms: C6_8  and  C7_9 
REMARK    5  A    between atoms: C9_12  and  C10_13 
REMARK    6  A    between atoms: C16_20  and  B1_21 
REMARK    7  A    between atoms: B1_21  and  C17_22 
REMARK    8  A    between atoms: C20_25  and  O2_26 
ROOT
HETATM    1  C7  UNL     1       0.225   0.916  -0.944  1.00  0.00    -0.010 A 
HETATM    2  C8  UNL     1       0.072   1.976  -1.824  1.00  0.00     0.128 A 
HETATM    3  N2  UNL     1      -1.008   2.774  -1.759  1.00  0.00    -0.240 NA
HETATM    4  C9  UNL     1      -1.986   2.588  -0.848  1.00  0.00     0.158 A 
HETATM    5  N3  UNL     1      -1.838   1.570  -0.003  1.00  0.00    -0.245 NA
HETATM    6  C16 UNL     1      -0.787   0.722   0.000  1.00  0.00    -0.003 A 
ENDROOT
BRANCH   1   7
HETATM    7  C6  UNL     1       1.430   0.045  -1.035  1.00  0.00     0.161 C 
BRANCH   7   8
HETATM    8  N1  UNL     1       2.379   0.341   0.017  1.00  0.00    -0.386 N 
HETATM    9  H6  UNL     1       2.123   1.110   0.702  1.00  0.00     0.160 HD
BRANCH   8  10
HETATM   10  C5  UNL     1       3.638  -0.310   0.218  1.00  0.00     0.028 A 
HETATM   11  C4  UNL     1       4.487   0.052   1.270  1.00  0.00     0.032 A 
HETATM   12  C3  UNL     1       5.688  -0.612   1.414  1.00  0.00     0.039 A 
HETATM   13  C2  UNL     1       6.076  -1.625   0.549  1.00  0.00     0.068 A 
HETATM   14  C23 UNL     1       5.232  -1.970  -0.480  1.00  0.00     0.039 A 
HETATM   15  C22 UNL     1       4.032  -1.318  -0.638  1.00  0.00     0.032 A 
BRANCH  13  16
HETATM   16  O1  UNL     1       7.317  -2.141   0.892  1.00  0.00    -0.356 OA
HETATM   17  C1  UNL     1       7.982  -3.170   0.215  1.00  0.00     0.210 C 
ENDBRANCH  13  16
ENDBRANCH   8  10
ENDBRANCH   7   8
ENDBRANCH   1   7
BRANCH   6  18
HETATM   18  B1  UNL     1      -0.644  -0.462   1.003  1.00  0.00     0.224 B 
HETATM   19  H15 UNL     1       0.022  -0.288   1.966  1.00  0.00    -0.019 HD
BRANCH  18  20
HETATM   20  C17 UNL     1      -1.558  -1.746   0.995  1.00  0.00    -0.048 C 
HETATM   21  C18 UNL     1      -2.694  -1.703   1.968  1.00  0.00    -0.003 C 
HETATM   22  C19 UNL     1      -3.892  -2.306   1.298  1.00  0.00     0.031 C 
HETATM   23  C20 UNL     1      -3.360  -2.899   0.009  1.00  0.00     0.117 C 
HETATM   24  C21 UNL     1      -2.144  -2.069  -0.341  1.00  0.00     0.026 C 
BRANCH  23  25
HETATM   25  O2  UNL     1      -2.990  -4.217   0.282  1.00  0.00    -0.396 OA
HETATM   26  H22 UNL     1      -3.679  -4.723   0.740  1.00  0.00     0.210 HD
ENDBRANCH  23  25
ENDBRANCH  18  20
ENDBRANCH   6  18
BRANCH   4  27
HETATM   27  C10 UNL     1      -3.149   3.470  -0.800  1.00  0.00     0.012 A 
HETATM   28  C11 UNL     1      -3.235   4.509  -1.710  1.00  0.00     0.015 A 
HETATM   29  C12 UNL     1      -4.313   5.370  -1.707  1.00  0.00     0.001 A 
HETATM   30  C13 UNL     1      -5.336   5.207  -0.782  1.00  0.00     0.000 A 
HETATM   31  C14 UNL     1      -5.259   4.162   0.141  1.00  0.00     0.001 A 
HETATM   32  C15 UNL     1      -4.175   3.298   0.135  1.00  0.00     0.015 A 
ENDBRANCH   4  27
TORSDOF 8
