REMARK  6 active torsions:
REMARK  status: ('A' for Active; 'I' for Inactive)
REMARK    1  A    between atoms: O1_2  and  C2_3 
REMARK    2  A    between atoms: C5_6  and  C6_7 
REMARK    3  A    between atoms: C11_15  and  N4_16 
REMARK    4  A    between atoms: N4_16  and  C12_17 
REMARK    5  A    between atoms: C15_20  and  O2_21 
REMARK    6  A    between atoms: C22_29  and  O3_30 
ROOT
HETATM    1  C6  UNL     1      -1.658   0.189  -0.214  1.00  0.00     0.124 C 
HETATM    2  N1  UNL     1      -0.792   1.297  -0.170  1.00  0.00    -0.408 N 
HETATM    3  C7  UNL     1       0.131   1.675  -1.178  1.00  0.00     0.155 C 
HETATM    4  C8  UNL     1       0.926   0.520  -1.735  1.00  0.00     0.010 A 
HETATM    5  C9  UNL     1      -0.062   0.341  -2.612  1.00  0.00     0.175 A 
HETATM    6  N2  UNL     1       0.141  -0.981  -2.834  1.00  0.00    -0.243 NA
HETATM    7  C10 UNL     1       1.168  -1.602  -2.159  1.00  0.00     0.226 A 
HETATM    8  N3  UNL     1       2.119  -1.165  -1.254  1.00  0.00    -0.196 NA
HETATM    9  C11 UNL     1       1.993   0.185  -0.958  1.00  0.00     0.133 A 
HETATM   10  N5  UNL     1       0.834  -3.022  -2.223  1.00  0.00    -0.325 N 
HETATM   11  C17 UNL     1      -0.035  -2.852  -1.018  1.00  0.00     0.031 C 
HETATM   12  C18 UNL     1      -1.036  -1.951  -1.271  1.00  0.00     0.014 C 
HETATM   13  C19 UNL     1      -0.995  -1.102  -0.058  1.00  0.00     0.060 C 
HETATM   14  C20 UNL     1      -1.606  -2.224   0.785  1.00  0.00    -0.013 C 
HETATM   15  C21 UNL     1      -0.495  -3.029   0.428  1.00  0.00     0.026 C 
HETATM   16  H7  UNL     1      -1.050   2.104   0.402  1.00  0.00     0.154 HD
HETATM   17  H21 UNL     1       0.839  -3.982  -2.561  1.00  0.00     0.169 HD
ENDROOT
BRANCH   1  18
HETATM   18  C5  UNL     1      -2.794   0.423   0.722  1.00  0.00    -0.002 A 
HETATM   19  C4  UNL     1      -2.571   1.018   1.953  1.00  0.00     0.015 A 
HETATM   20  C3  UNL     1      -3.642   1.224   2.796  1.00  0.00     0.037 A 
HETATM   21  C2  UNL     1      -4.944   0.870   2.493  1.00  0.00     0.070 A 
HETATM   22  C23 UNL     1      -5.174   0.267   1.249  1.00  0.00     0.073 A 
HETATM   23  C22 UNL     1      -4.095   0.068   0.417  1.00  0.00     0.076 A 
BRANCH  21  24
HETATM   24  O1  UNL     1      -5.996   1.089   3.363  1.00  0.00    -0.356 OA
HETATM   25  C1  UNL     1      -7.324   0.738   3.083  1.00  0.00     0.210 C 
ENDBRANCH  21  24
BRANCH  23  26
HETATM   26  O3  UNL     1      -4.281  -0.524  -0.821  1.00  0.00    -0.360 OA
HETATM   27  H26 UNL     1      -4.747  -0.069  -1.607  1.00  0.00     0.217 HD
ENDBRANCH  23  26
ENDBRANCH   1  18
BRANCH   9  28
HETATM   28  N4  UNL     1       2.724   0.985  -0.123  1.00  0.00    -0.370 N 
HETATM   29  H11 UNL     1       2.600   1.970   0.059  1.00  0.00     0.161 HD
BRANCH  28  30
HETATM   30  C12 UNL     1       3.774   0.240   0.519  1.00  0.00     0.085 C 
HETATM   31  C13 UNL     1       4.722  -0.352  -0.498  1.00  0.00     0.028 C 
HETATM   32  C14 UNL     1       6.107  -0.014   0.018  1.00  0.00     0.034 C 
HETATM   33  C15 UNL     1       5.880   1.307   0.680  1.00  0.00     0.120 C 
HETATM   34  C16 UNL     1       4.579   1.118   1.405  1.00  0.00     0.056 C 
BRANCH  33  35
HETATM   35  O2  UNL     1       6.922   1.636   1.538  1.00  0.00    -0.396 OA
HETATM   36  H18 UNL     1       7.753   1.301   1.082  1.00  0.00     0.210 HD
ENDBRANCH  33  35
ENDBRANCH  28  30
ENDBRANCH   9  28
TORSDOF 6
