REMARK  4 active torsions:
REMARK  status: ('A' for Active; 'I' for Inactive)
REMARK    1  A    between atoms: C11_15  and  N3_16 
REMARK    2  A    between atoms: N3_16  and  C12_17 
REMARK    3  A    between atoms: N5_25  and  C19_26 
REMARK    4  A    between atoms: C22_29  and  O3_30 
ROOT
HETATM    1  O1  UNL     1      -1.687  -1.825  -1.402  1.00  0.00    -0.271 OA
HETATM    2  C1  UNL     1      -2.472  -0.904  -1.668  1.00  0.00     0.250 C 
HETATM    3  C2  UNL     1      -3.383  -1.846  -2.448  1.00  0.00     0.278 C 
HETATM    4  O2  UNL     1      -2.981  -3.200  -1.867  1.00  0.00    -0.346 OA
HETATM    5  C3  UNL     1      -2.825  -3.004  -0.430  1.00  0.00     0.054 A 
HETATM    6  C4  UNL     1      -3.694  -2.082   0.169  1.00  0.00     0.031 A 
HETATM    7  C5  UNL     1      -3.433  -1.893   1.489  1.00  0.00     0.007 A 
HETATM    8  C6  UNL     1      -2.418  -2.773   1.465  1.00  0.00     0.063 A 
HETATM    9  C7  UNL     1      -1.395  -3.673   1.406  1.00  0.00     0.039 A 
HETATM   10  C8  UNL     1      -1.803  -3.722   0.114  1.00  0.00     0.082 A 
HETATM   11  N1  UNL     1      -1.656  -1.812   2.289  1.00  0.00    -0.372 N 
HETATM   12  C9  UNL     1      -0.778  -1.085   1.349  1.00  0.00     0.094 A 
HETATM   13  C10 UNL     1       0.499  -1.164   1.926  1.00  0.00     0.169 A 
HETATM   14  N2  UNL     1       1.672  -0.685   1.488  1.00  0.00    -0.073 NA
HETATM   15  C11 UNL     1       1.703  -0.025   0.342  1.00  0.00     0.728 A 
HETATM   16  N4  UNL     1       0.530   0.077  -0.241  1.00  0.00    -0.042 NA
HETATM   17  C18 UNL     1      -0.655  -0.371   0.138  1.00  0.00     0.180 A 
HETATM   18  N5  UNL     1      -1.621   0.028  -0.931  1.00  0.00    -0.293 N 
HETATM   19  H7  UNL     1      -1.614  -1.566   3.299  1.00  0.00     0.161 HD
ENDROOT
BRANCH  15  20
HETATM   20  N3  UNL     1       2.906   0.495  -0.187  1.00  0.00    -0.188 N 
HETATM   21  H9  UNL     1       2.735   1.064  -1.068  1.00  0.00     0.184 HD
BRANCH  20  22
HETATM   22  C12 UNL     1       4.201   0.354   0.294  1.00  0.00     0.049 A 
HETATM   23  C13 UNL     1       4.628  -0.311   1.419  1.00  0.00     0.030 A 
HETATM   24  C14 UNL     1       5.935  -0.438   1.843  1.00  0.00     0.002 A 
HETATM   25  C15 UNL     1       6.906   0.158   1.064  1.00  0.00     0.000 A 
HETATM   26  C16 UNL     1       6.547   0.833  -0.066  1.00  0.00     0.002 A 
HETATM   27  C17 UNL     1       5.222   0.934  -0.450  1.00  0.00     0.030 A 
ENDBRANCH  20  22
ENDBRANCH  15  20
BRANCH  18  28
HETATM   28  C19 UNL     1      -1.914   1.402  -1.176  1.00  0.00     0.097 C 
HETATM   29  C20 UNL     1      -2.401   2.171   0.013  1.00  0.00     0.028 C 
HETATM   30  C21 UNL     1      -1.571   3.426   0.130  1.00  0.00     0.034 C 
HETATM   31  C22 UNL     1      -1.189   3.690  -1.313  1.00  0.00     0.120 C 
HETATM   32  C23 UNL     1      -0.840   2.252  -1.750  1.00  0.00     0.057 C 
BRANCH  31  33
HETATM   33  O3  UNL     1      -2.242   4.221  -2.012  1.00  0.00    -0.396 OA
HETATM   34  H21 UNL     1      -1.966   4.995  -2.517  1.00  0.00     0.210 HD
ENDBRANCH  31  33
ENDBRANCH  18  28
TORSDOF 4
