REMARK  9 active torsions:
REMARK  status: ('A' for Active; 'I' for Inactive)
REMARK    1  A    between atoms: C3_3  and  C4_4 
REMARK    2  A    between atoms: C5_6  and  C6_7 
REMARK    3  A    between atoms: C6_7  and  C7_8 
REMARK    4  A    between atoms: C10_13  and  O1_14 
REMARK    5  A    between atoms: O1_14  and  C11_15 
REMARK    6  A    between atoms: C11_15  and  C12_16 
REMARK    7  A    between atoms: C12_16  and  N3_17 
REMARK    8  A    between atoms: N3_17  and  C14_19 
REMARK    9  A    between atoms: N4_21  and  O2_22 
ROOT
HETATM    1  C7  UNL     1       2.030  -0.266  -0.094  1.00  0.00     0.029 C 
HETATM    2  N1  UNL     1       2.352   0.633  -0.948  1.00  0.00    -0.250 NA
HETATM    3  C8  UNL     1       1.470   1.337  -1.806  1.00  0.00     0.233 C 
HETATM    4  N2  UNL     1       0.175   1.091  -1.742  1.00  0.00    -0.241 NA
HETATM    5  C9  UNL     1      -0.244   0.129  -0.784  1.00  0.00     0.100 C 
HETATM    6  C10 UNL     1      -1.407  -0.224  -0.243  1.00  0.00     0.190 C 
HETATM    7  N4  UNL     1      -1.364  -1.288   0.740  1.00  0.00    -0.234 N 
HETATM    8  C17 UNL     1       0.030  -1.076   1.240  1.00  0.00     0.175 C 
HETATM    9  C18 UNL     1       0.672  -0.807  -0.091  1.00  0.00     0.111 C 
ENDROOT
BRANCH   1  10
HETATM   10  C6  UNL     1       2.716  -1.114   0.894  1.00  0.00     0.084 C 
BRANCH  10  11
HETATM   11  C5  UNL     1       4.149  -0.705   1.002  1.00  0.00     0.003 C 
HETATM   12  C4  UNL     1       5.093  -1.627   0.714  1.00  0.00     0.030 C 
HETATM   13 CL1  UNL     1       4.599  -3.244   0.211  1.00  0.00    -0.085 Cl
BRANCH  12  14
HETATM   14  C3  UNL     1       6.547  -1.538   0.727  1.00  0.00     0.019 C 
HETATM   15  C2  UNL     1       7.475  -2.433   0.447  1.00  0.00    -0.029 C 
HETATM   16  C1  UNL     1       8.900  -2.034   0.554  1.00  0.00     0.036 C 
ENDBRANCH  12  14
ENDBRANCH  10  11
ENDBRANCH   1  10
BRANCH   6  17
HETATM   17  O1  UNL     1      -2.669   0.342  -0.533  1.00  0.00    -0.331 OA
BRANCH  17  18
HETATM   18  C11 UNL     1      -2.877   0.905  -1.807  1.00  0.00     0.207 C 
BRANCH  18  19
HETATM   19  C12 UNL     1      -4.326   1.179  -2.046  1.00  0.00     0.298 C 
BRANCH  19  20
HETATM   20  N3  UNL     1      -4.942   2.088  -1.124  1.00  0.00     0.085 N 
HETATM   21  C13 UNL     1      -5.040   1.520   0.178  1.00  0.00     0.310 C 
BRANCH  20  22
HETATM   22  C14 UNL     1      -4.373   3.393  -1.184  1.00  0.00     0.267 C 
HETATM   23  C15 UNL     1      -5.007   4.368  -0.220  1.00  0.00     0.037 C 
ENDBRANCH  20  22
ENDBRANCH  19  20
ENDBRANCH  18  19
ENDBRANCH  17  18
ENDBRANCH   6  17
BRANCH   7  24
HETATM   24  O2  UNL     1      -2.356  -2.157   1.037  1.00  0.00    -0.281 OA
HETATM   25  C16 UNL     1      -3.201  -1.620   2.033  1.00  0.00     0.238 C 
ENDBRANCH   7  24
TORSDOF 9
