REMARK  9 active torsions:
REMARK  status: ('A' for Active; 'I' for Inactive)
REMARK    1  A    between atoms: C2_2  and  C3_3 
REMARK    2  A    between atoms: C3_3  and  C4_4 
REMARK    3  A    between atoms: C4_4  and  C5_5 
REMARK    4  A    between atoms: C5_5  and  C6_6 
REMARK    5  A    between atoms: C6_6  and  N1_7 
REMARK    6  A    between atoms: N1_7  and  C7_8 
REMARK    7  A    between atoms: N4_14  and  C11_15 
REMARK    8  A    between atoms: C14_18  and  O1_19 
REMARK    9  A    between atoms: C19_26  and  O3_27 
ROOT
HETATM    1  C7  UNL     1       1.908   0.699  -0.273  1.00  0.00     0.724 A 
HETATM    2  N2  UNL     1       1.606   1.966  -0.589  1.00  0.00    -0.075 NA
HETATM    3  C8  UNL     1       0.333   2.358  -0.741  1.00  0.00     0.147 A 
HETATM    4  C9  UNL     1      -0.768   1.535  -0.596  1.00  0.00     0.011 A 
HETATM    5  C10 UNL     1      -0.352   0.227  -0.265  1.00  0.00     0.161 A 
HETATM    6  N3  UNL     1       0.905  -0.217  -0.102  1.00  0.00    -0.044 NA
HETATM    7  N4  UNL     1      -1.071  -0.986  -0.005  1.00  0.00    -0.277 N 
HETATM    8  C16 UNL     1      -2.500  -1.277  -0.089  1.00  0.00     0.334 C 
HETATM    9  O2  UNL     1      -3.055  -2.281   0.400  1.00  0.00    -0.246 OA
HETATM   10  N5  UNL     1      -3.508  -0.423  -0.760  1.00  0.00    -0.285 N 
HETATM   11  C17 UNL     1      -4.572  -0.703   0.235  1.00  0.00     0.104 C 
HETATM   12  C18 UNL     1      -5.393   0.327   0.614  1.00  0.00     0.054 C 
HETATM   13  C19 UNL     1      -5.153   1.798   0.414  1.00  0.00     0.070 C 
HETATM   14  C21 UNL     1      -4.126   2.377  -0.276  1.00  0.00     0.045 C 
HETATM   15  C22 UNL     1      -3.199   1.589  -1.179  1.00  0.00    -0.035 C 
HETATM   16  C23 UNL     1      -3.535   0.486  -1.943  1.00  0.00     0.108 C 
HETATM   17  C24 UNL     1      -1.957   2.380  -0.848  1.00  0.00     0.084 C 
ENDROOT
BRANCH   1  18
HETATM   18  N1  UNL     1       3.240   0.259  -0.107  1.00  0.00    -0.219 N 
HETATM   19  H8  UNL     1       3.472  -0.716   0.133  1.00  0.00     0.178 HD
BRANCH  18  20
HETATM   20  C6  UNL     1       4.243   1.285  -0.300  1.00  0.00     0.165 C 
BRANCH  20  21
HETATM   21  C5  UNL     1       5.626   0.825  -0.128  1.00  0.00    -0.006 C 
BRANCH  21  22
HETATM   22  C4  UNL     1       6.523   1.260   0.746  1.00  0.00     0.005 C 
BRANCH  22  23
HETATM   23  C3  UNL     1       7.829   0.687   0.765  1.00  0.00     0.050 C 
BRANCH  23  24
HETATM   24  C2  UNL     1       8.827   1.311   1.332  1.00  0.00    -0.155 C 
HETATM   25  C1  UNL     1       9.655   2.098   2.003  1.00  0.00     0.096 C 
ENDBRANCH  23  24
ENDBRANCH  22  23
ENDBRANCH  21  22
ENDBRANCH  20  21
ENDBRANCH  18  20
ENDBRANCH   1  18
BRANCH   7  26
HETATM   26  C11 UNL     1      -0.468  -2.157   0.413  1.00  0.00     0.099 C 
HETATM   27  C12 UNL     1      -0.500  -3.103  -0.805  1.00  0.00     0.028 C 
HETATM   28  C13 UNL     1      -0.225  -4.478  -0.166  1.00  0.00     0.034 C 
HETATM   29  C14 UNL     1      -0.976  -4.402   1.140  1.00  0.00     0.120 C 
HETATM   30  C15 UNL     1      -0.838  -2.980   1.501  1.00  0.00     0.057 C 
BRANCH  29  31
HETATM   31  O1  UNL     1      -0.451  -5.290   2.085  1.00  0.00    -0.396 OA
HETATM   32  H16 UNL     1      -0.679  -6.203   1.750  1.00  0.00     0.210 HD
ENDBRANCH  29  31
ENDBRANCH   7  26
BRANCH  13  33
HETATM   33  O3  UNL     1      -6.098   2.579   1.010  1.00  0.00    -0.356 OA
HETATM   34  C20 UNL     1      -6.617   3.680   0.270  1.00  0.00     0.210 C 
ENDBRANCH  13  33
TORSDOF 9
