REMARK  6 active torsions:
REMARK  status: ('A' for Active; 'I' for Inactive)
REMARK    1  A    between atoms: O1_2  and  C2_3 
REMARK    2  A    between atoms: C5_6  and  N1_7 
REMARK    3  A    between atoms: C9_13  and  O3_14 
REMARK    4  A    between atoms: O3_14  and  N3_15 
REMARK    5  A    between atoms: C14_21  and  N5_22 
REMARK    6  A    between atoms: N5_22  and  C15_23 
ROOT
HETATM    1  N1  UNL     1       1.079   0.374   0.291  1.00  0.00    -0.291 N 
HETATM    2  C6  UNL     1       0.003   0.544  -0.706  1.00  0.00     0.326 C 
HETATM    3  O2  UNL     1      -0.016   1.656  -1.351  1.00  0.00    -0.247 OA
HETATM    4  N2  UNL     1      -0.685  -0.719  -0.570  1.00  0.00    -0.318 N 
HETATM    5  C7  UNL     1      -1.007  -2.020  -1.197  1.00  0.00     0.131 C 
HETATM    6  C8  UNL     1      -0.001  -3.050  -0.693  1.00  0.00     0.054 C 
HETATM    7  C9  UNL     1       1.237  -2.350  -0.156  1.00  0.00     0.148 C 
HETATM    8  C10 UNL     1       1.149  -1.891   1.257  1.00  0.00     0.064 C 
HETATM    9  C11 UNL     1       0.839  -0.463   1.503  1.00  0.00     0.130 C 
HETATM   10  C12 UNL     1      -0.606  -0.254   1.802  1.00  0.00    -0.009 A 
HETATM   11  C13 UNL     1      -1.509   0.237   2.597  1.00  0.00     0.126 A 
HETATM   12  N4  UNL     1      -2.798  -0.032   2.066  1.00  0.00    -0.245 NA
HETATM   13  C14 UNL     1      -2.704  -0.699   0.933  1.00  0.00     0.131 A 
HETATM   14  C21 UNL     1      -1.322  -0.986   0.690  1.00  0.00     0.191 A 
ENDROOT
BRANCH   1  15
HETATM   15  C5  UNL     1       2.394   0.985   0.249  1.00  0.00     0.040 A 
HETATM   16  C4  UNL     1       2.252   2.200   0.939  1.00  0.00     0.032 A 
HETATM   17  C3  UNL     1       3.343   3.064   1.095  1.00  0.00     0.039 A 
HETATM   18  C2  UNL     1       4.577   2.720   0.563  1.00  0.00     0.068 A 
HETATM   19  C23 UNL     1       4.673   1.519  -0.108  1.00  0.00     0.039 A 
HETATM   20  C22 UNL     1       3.616   0.669  -0.265  1.00  0.00     0.032 A 
BRANCH  18  21
HETATM   21  O1  UNL     1       5.700   3.527   0.679  1.00  0.00    -0.356 OA
HETATM   22  C1  UNL     1       6.940   3.166   0.136  1.00  0.00     0.210 C 
ENDBRANCH  18  21
ENDBRANCH   1  15
BRANCH   7  23
HETATM   23  O3  UNL     1       2.256  -3.330  -0.261  1.00  0.00    -0.303 OA
BRANCH  23  24
HETATM   24  N3  UNL     1       3.203  -3.018  -1.140  1.00  0.00    -0.215 NA
HETATM   25  H11 UNL     1       3.403  -3.889  -1.713  1.00  0.00     0.150 HD
HETATM   26  H12 UNL     1       4.124  -2.785  -0.700  1.00  0.00     0.150 HD
ENDBRANCH  23  24
ENDBRANCH   7  23
BRANCH  13  27
HETATM   27  N5  UNL     1      -3.922  -1.032   0.276  1.00  0.00    -0.342 N 
HETATM   28  H17 UNL     1      -4.069  -2.015  -0.043  1.00  0.00     0.167 HD
BRANCH  27  29
HETATM   29  C15 UNL     1      -4.959  -0.089   0.028  1.00  0.00     0.033 A 
HETATM   30  C16 UNL     1      -6.140  -0.469  -0.621  1.00  0.00     0.029 A 
HETATM   31  C17 UNL     1      -7.158   0.398  -0.880  1.00  0.00     0.002 A 
HETATM   32  C18 UNL     1      -7.064   1.722  -0.501  1.00  0.00     0.000 A 
HETATM   33  C19 UNL     1      -5.916   2.137   0.142  1.00  0.00     0.002 A 
HETATM   34  C20 UNL     1      -4.907   1.225   0.384  1.00  0.00     0.029 A 
ENDBRANCH  27  29
ENDBRANCH  13  27
TORSDOF 6
