REMARK  6 active torsions:
REMARK  status: ('A' for Active; 'I' for Inactive)
REMARK    1  A    between atoms: C1_2  and  N1_3 
REMARK    2  A    between atoms: N1_3  and  C2_4 
REMARK    3  A    between atoms: N4_10  and  C6_11 
REMARK    4  A    between atoms: C9_14  and  O2_15 
REMARK    5  A    between atoms: N5_19  and  C13_20 
REMARK    6  A    between atoms: C16_23  and  O3_24 
ROOT
HETATM    1  C2  UNL     1      -1.908   3.050   1.234  1.00  0.00     0.730 A 
HETATM    2  N2  UNL     1      -0.723   3.684   1.341  1.00  0.00    -0.074 NA
HETATM    3  C3  UNL     1       0.437   3.053   1.017  1.00  0.00     0.149 A 
HETATM    4  C4  UNL     1       0.423   1.750   0.572  1.00  0.00     0.024 A 
HETATM    5  C5  UNL     1      -0.813   1.145   0.480  1.00  0.00     0.154 A 
HETATM    6  N3  UNL     1      -1.963   1.766   0.799  1.00  0.00    -0.044 NA
HETATM    7  N4  UNL     1      -1.043  -0.192   0.044  1.00  0.00    -0.358 N 
HETATM    8  C11 UNL     1      -0.104  -1.270  -0.144  1.00  0.00     0.145 C 
HETATM    9  C12 UNL     1       1.009  -1.056   0.876  1.00  0.00     0.143 C 
HETATM   10  N5  UNL     1       1.985  -0.121   0.358  1.00  0.00    -0.375 N 
HETATM   11  C19 UNL     1       1.822   1.330   0.298  1.00  0.00     0.167 C 
ENDROOT
BRANCH  10  12
HETATM   12  C13 UNL     1       3.224  -0.590  -0.154  1.00  0.00     0.030 A 
HETATM   13  C14 UNL     1       3.565  -1.917  -0.259  1.00  0.00     0.032 A 
HETATM   14  C15 UNL     1       4.769  -2.372  -0.753  1.00  0.00     0.039 A 
HETATM   15  C16 UNL     1       5.718  -1.454  -1.179  1.00  0.00     0.065 A 
HETATM   16  C17 UNL     1       5.394  -0.108  -1.081  1.00  0.00     0.039 A 
HETATM   17  C18 UNL     1       4.187   0.292  -0.584  1.00  0.00     0.032 A 
BRANCH  15  18
HETATM   18  O3  UNL     1       6.937  -1.888  -1.680  1.00  0.00    -0.361 OA
HETATM   19  H19 UNL     1       7.727  -2.044  -1.066  1.00  0.00     0.217 HD
ENDBRANCH  15  18
ENDBRANCH  10  12
BRANCH   7  20
HETATM   20  C6  UNL     1      -2.368  -0.579  -0.265  1.00  0.00     0.088 C 
HETATM   21  C7  UNL     1      -2.920  -1.712   0.546  1.00  0.00     0.028 C 
HETATM   22  C8  UNL     1      -3.525  -2.684  -0.464  1.00  0.00     0.034 C 
HETATM   23  C9  UNL     1      -3.936  -1.707  -1.574  1.00  0.00     0.120 C 
HETATM   24  C10 UNL     1      -2.618  -0.935  -1.713  1.00  0.00     0.057 C 
BRANCH  23  25
HETATM   25  O2  UNL     1      -4.938  -0.885  -1.066  1.00  0.00    -0.396 OA
HETATM   26  H10 UNL     1      -5.312  -1.280  -0.237  1.00  0.00     0.210 HD
ENDBRANCH  23  25
ENDBRANCH   7  20
BRANCH   1  27
HETATM   27  N1  UNL     1      -3.097   3.753   1.584  1.00  0.00    -0.164 N 
HETATM   28  H2  UNL     1      -4.031   3.297   1.515  1.00  0.00     0.186 HD
BRANCH  27  29
HETATM   29  C1  UNL     1      -2.974   5.092   2.032  1.00  0.00     0.368 C 
HETATM   30  O1  UNL     1      -1.859   5.662   2.123  1.00  0.00    -0.283 OA
ENDBRANCH  27  29
ENDBRANCH   1  27
TORSDOF 6
