REMARK  0 active torsions:
REMARK  status: ('A' for Active; 'I' for Inactive)
ROOT
HETATM    1  C1  UNL     1       4.078  -1.515   0.608  1.00  0.00     0.047 C 
HETATM    2  C2  UNL     1       3.345  -0.996  -0.188  1.00  0.00     0.144 C 
HETATM    3  N1  UNL     1       2.495  -0.369  -1.141  1.00  0.00     0.166 N 
HETATM    4  C3  UNL     1       3.249   0.543  -2.028  1.00  0.00     0.353 C 
HETATM    5  C4  UNL     1       3.230   1.829  -1.294  1.00  0.00     0.083 A 
HETATM    6  N2  UNL     1       3.605   3.090  -1.282  1.00  0.00    -0.261 NA
HETATM    7  C5  UNL     1       2.868   2.622  -0.209  1.00  0.00     0.256 A 
HETATM    8  N3  UNL     1       1.438   2.834  -0.119  1.00  0.00    -0.357 N 
HETATM    9  C6  UNL     1       0.378   2.251   0.626  1.00  0.00     0.199 C 
HETATM   10  N4  UNL     1      -0.577   1.745  -0.031  1.00  0.00    -0.273 NA
HETATM   11  C7  UNL     1      -1.747   1.106   0.388  1.00  0.00     0.170 C 
HETATM   12  C8  UNL     1      -2.323  -0.116   0.374  1.00  0.00    -0.016 A 
HETATM   13  C9  UNL     1      -3.572   0.254   1.076  1.00  0.00     0.066 A 
HETATM   14  C10 UNL     1      -4.506  -0.898   1.253  1.00  0.00    -0.022 A 
HETATM   15  C11 UNL     1      -4.350  -2.130   0.878  1.00  0.00    -0.001 A 
HETATM   16  C12 UNL     1      -3.103  -2.426   0.198  1.00  0.00     0.037 A 
HETATM   17  C13 UNL     1      -2.180  -1.546  -0.041  1.00  0.00     0.073 A 
HETATM   18  O1  UNL     1      -0.953  -1.410  -0.606  1.00  0.00    -0.346 OA
HETATM   19  C14 UNL     1       0.278  -1.803   0.022  1.00  0.00     0.258 C 
HETATM   20  C15 UNL     1       1.332  -1.023  -0.649  1.00  0.00     0.393 A 
HETATM   21  O2  UNL     1       1.095  -0.295  -1.591  1.00  0.00    -0.133 OA
HETATM   22  H5  UNL     1       1.085   3.592  -0.740  1.00  0.00     0.162 HD
ENDROOT
TORSDOF 0
