REMARK  7 active torsions:
REMARK  status: ('A' for Active; 'I' for Inactive)
REMARK    1  A    between atoms: C2_2  and  O1_3 
REMARK    2  A    between atoms: O1_3  and  C3_4 
REMARK    3  A    between atoms: C6_7  and  C7_8 
REMARK    4  A    between atoms: C10_12  and  N2_13 
REMARK    5  A    between atoms: N2_13  and  C11_14 
REMARK    6  A    between atoms: N4_22  and  C18_23 
REMARK    7  A    between atoms: C21_26  and  O2_27 
ROOT
HETATM    1  C7  UNL     1      -0.553  -1.097  -0.967  1.00  0.00     0.158 A 
HETATM    2  C8  UNL     1       0.654  -0.174  -0.983  1.00  0.00     0.034 A 
HETATM    3  C9  UNL     1       1.339   0.899  -1.480  1.00  0.00     0.149 A 
HETATM    4  N1  UNL     1       2.500   1.281  -0.938  1.00  0.00    -0.074 NA
HETATM    5  C10 UNL     1       3.088   0.682   0.104  1.00  0.00     0.728 A 
HETATM    6  N3  UNL     1       2.395  -0.363   0.566  1.00  0.00    -0.044 NA
HETATM    7  C17 UNL     1       1.228  -0.817   0.086  1.00  0.00     0.156 A 
HETATM    8  N4  UNL     1       0.142  -1.778   0.084  1.00  0.00    -0.347 N 
ENDROOT
BRANCH   1   9
HETATM    9  C6  UNL     1      -1.777  -0.327  -0.666  1.00  0.00    -0.030 A 
HETATM   10  C5  UNL     1      -2.823  -0.262   0.214  1.00  0.00     0.012 A 
HETATM   11  C4  UNL     1      -3.870   0.614   0.174  1.00  0.00     0.037 A 
HETATM   12  C3  UNL     1      -3.921   1.543  -0.833  1.00  0.00     0.068 A 
HETATM   13  C24 UNL     1      -2.924   1.561  -1.764  1.00  0.00     0.037 A 
HETATM   14  C23 UNL     1      -1.870   0.643  -1.682  1.00  0.00     0.012 A 
BRANCH  12  15
HETATM   15  O1  UNL     1      -5.004   2.400  -0.818  1.00  0.00    -0.352 OA
BRANCH  15  16
HETATM   16  C2  UNL     1      -5.990   2.315   0.178  1.00  0.00     0.171 C 
HETATM   17  C1  UNL     1      -7.040   3.362  -0.053  1.00  0.00     0.034 C 
ENDBRANCH  15  16
ENDBRANCH  12  15
ENDBRANCH   1   9
BRANCH   8  18
HETATM   18  C18 UNL     1       0.085  -2.970   0.908  1.00  0.00     0.089 C 
HETATM   19  C19 UNL     1       0.422  -4.123  -0.072  1.00  0.00     0.028 C 
HETATM   20  C20 UNL     1       0.111  -5.299   0.835  1.00  0.00     0.034 C 
HETATM   21  C21 UNL     1      -1.169  -4.863   1.515  1.00  0.00     0.120 C 
HETATM   22  C22 UNL     1      -1.324  -3.375   1.244  1.00  0.00     0.057 C 
BRANCH  21  23
HETATM   23  O2  UNL     1      -2.205  -5.608   0.982  1.00  0.00    -0.396 OA
HETATM   24  H22 UNL     1      -2.074  -5.739  -0.002  1.00  0.00     0.210 HD
ENDBRANCH  21  23
ENDBRANCH   8  18
BRANCH   5  25
HETATM   25  N2  UNL     1       4.309   1.030   0.730  1.00  0.00    -0.188 N 
HETATM   26  H10 UNL     1       4.615   0.443   1.537  1.00  0.00     0.184 HD
BRANCH  25  27
HETATM   27  C11 UNL     1       5.150   2.102   0.356  1.00  0.00     0.049 A 
HETATM   28  C12 UNL     1       4.972   3.000  -0.651  1.00  0.00     0.030 A 
HETATM   29  C13 UNL     1       5.824   4.022  -0.968  1.00  0.00     0.002 A 
HETATM   30  C14 UNL     1       6.975   4.196  -0.229  1.00  0.00     0.000 A 
HETATM   31  C15 UNL     1       7.209   3.329   0.792  1.00  0.00     0.002 A 
HETATM   32  C16 UNL     1       6.320   2.316   1.070  1.00  0.00     0.030 A 
ENDBRANCH  25  27
ENDBRANCH   5  25
TORSDOF 7
