REMARK  1 active torsions:
REMARK  status: ('A' for Active; 'I' for Inactive)
REMARK    1  A    between atoms: C2_2  and  C3_3 
ROOT
HETATM    1  C3  UNL     1       4.455   1.200  -0.171  1.00  0.00     0.008 C 
HETATM    2  C4  UNL     1       3.243   0.675  -0.123  1.00  0.00    -0.033 C 
HETATM    3  C5  UNL     1       2.905  -0.637  -0.675  1.00  0.00     0.028 C 
HETATM    4  C6  UNL     1       1.887  -1.408  -0.793  1.00  0.00     0.113 C 
HETATM    5  N1  UNL     1       0.524  -1.753  -0.617  1.00  0.00    -0.284 N 
HETATM    6  C7  UNL     1       0.201  -2.323   0.715  1.00  0.00     0.297 C 
HETATM    7  N2  UNL     1      -0.308  -1.125   1.357  1.00  0.00    -0.264 NA
HETATM    8  C8  UNL     1      -0.283   0.054   0.871  1.00  0.00     0.204 C 
HETATM    9  N3  UNL     1      -0.667   1.427   1.175  1.00  0.00    -0.333 N 
HETATM   10  C9  UNL     1       0.413   1.420   2.137  1.00  0.00     0.296 C 
HETATM   11  O1  UNL     1       1.557   0.838   1.581  1.00  0.00    -0.367 OA
HETATM   12  C10 UNL     1       2.120   1.466   0.515  1.00  0.00     0.208 C 
HETATM   13  C11 UNL     1      -1.801   1.749   0.309  1.00  0.00     0.185 C 
HETATM   14  C12 UNL     1      -1.276   1.992  -1.082  1.00  0.00     0.056 C 
HETATM   15  N4  UNL     1      -2.730   0.600   0.305  1.00  0.00    -0.355 N 
HETATM   16  C13 UNL     1      -4.003   0.799   0.983  1.00  0.00     0.153 A 
HETATM   17  C14 UNL     1      -4.687  -0.478   0.759  1.00  0.00     0.002 A 
HETATM   18  C15 UNL     1      -3.932  -1.313   0.080  1.00  0.00    -0.036 A 
HETATM   19  C16 UNL     1      -4.650  -2.622  -0.139  1.00  0.00     0.050 C 
HETATM   20  C17 UNL     1      -2.625  -0.677  -0.254  1.00  0.00     0.054 A 
HETATM   21  C18 UNL     1      -1.891  -1.516  -0.902  1.00  0.00     0.137 C 
HETATM   22  N5  UNL     1      -0.620  -1.604  -1.473  1.00  0.00    -0.306 N 
HETATM   23  H25 UNL     1      -0.171  -1.588  -2.410  1.00  0.00     0.186 HD
ENDROOT
BRANCH   1  24
HETATM   24  C2  UNL     1       5.613   0.563  -0.770  1.00  0.00    -0.010 C 
HETATM   25  C1  UNL     1       6.791   1.163  -0.774  1.00  0.00     0.011 C 
ENDBRANCH   1  24
TORSDOF 1
