REMARK  6 active torsions:
REMARK  status: ('A' for Active; 'I' for Inactive)
REMARK    1  A    between atoms: C9_13  and  C10_14 
REMARK    2  A    between atoms: C11_15  and  N3_16 
REMARK    3  A    between atoms: C12_17  and  N4_18 
REMARK    4  A    between atoms: N4_18  and  C13_19 
REMARK    5  A    between atoms: N5_23  and  C17_24 
REMARK    6  A    between atoms: C20_27  and  O3_28 
ROOT
HETATM    1  C1  UNL     1      -1.188   1.253   2.357  1.00  0.00     0.066 C 
HETATM    2  C2  UNL     1      -1.334   0.440   1.318  1.00  0.00     0.123 C 
HETATM    3  N1  UNL     1      -2.314  -0.513   1.263  1.00  0.00    -0.220 NA
HETATM    4  C3  UNL     1      -3.572  -0.535   1.499  1.00  0.00     0.253 C 
HETATM    5  O1  UNL     1      -3.483  -1.862   1.142  1.00  0.00    -0.345 OA
HETATM    6  C4  UNL     1      -4.373  -2.810   0.706  1.00  0.00     0.176 C 
HETATM    7  C5  UNL     1      -3.830  -4.121   0.264  1.00  0.00     0.029 C 
HETATM    8  C6  UNL     1      -2.923  -4.124  -0.981  1.00  0.00     0.029 C 
HETATM    9  C7  UNL     1      -1.941  -3.112  -0.688  1.00  0.00     0.177 C 
HETATM   10  O2  UNL     1      -0.837  -2.735  -1.400  1.00  0.00    -0.336 OA
HETATM   11  C8  UNL     1      -0.016  -1.694  -0.889  1.00  0.00     0.160 C 
HETATM   12  N2  UNL     1       0.673  -2.749  -0.557  1.00  0.00    -0.280 NA
HETATM   13  C9  UNL     1       0.519  -0.344  -0.522  1.00  0.00     0.192 C 
HETATM   14  N5  UNL     1      -0.504   0.465   0.170  1.00  0.00    -0.316 N 
HETATM   15  H12 UNL     1       1.559  -2.624  -0.055  1.00  0.00     0.189 HD
ENDROOT
BRANCH  13  16
HETATM   16  C10 UNL     1       1.780  -0.431   0.224  1.00  0.00     0.026 C 
HETATM   17  C11 UNL     1       2.920  -0.605  -0.431  1.00  0.00     0.116 C 
BRANCH  17  18
HETATM   18  N3  UNL     1       4.166  -0.695   0.253  1.00  0.00    -0.256 NA
HETATM   19  C12 UNL     1       4.338  -1.565   1.198  1.00  0.00     0.207 C 
BRANCH  19  20
HETATM   20  N4  UNL     1       5.623  -1.538   1.785  1.00  0.00    -0.351 N 
HETATM   21  H17 UNL     1       5.851  -2.165   2.583  1.00  0.00     0.166 HD
BRANCH  20  22
HETATM   22  C13 UNL     1       6.737  -0.723   1.428  1.00  0.00     0.032 A 
HETATM   23  C14 UNL     1       7.991  -0.745   1.011  1.00  0.00     0.029 A 
HETATM   24  C15 UNL     1       8.010   0.714   1.028  1.00  0.00     0.004 A 
HETATM   25  C16 UNL     1       6.745   0.721   1.448  1.00  0.00     0.029 A 
ENDBRANCH  20  22
ENDBRANCH  19  20
ENDBRANCH  17  18
ENDBRANCH  13  16
BRANCH  14  26
HETATM   26  C17 UNL     1      -0.962   1.749  -0.318  1.00  0.00     0.037 A 
HETATM   27  C18 UNL     1      -0.302   2.884   0.105  1.00  0.00     0.032 A 
HETATM   28  C19 UNL     1      -0.633   4.175  -0.281  1.00  0.00     0.039 A 
HETATM   29  C20 UNL     1      -1.712   4.301  -1.159  1.00  0.00     0.068 A 
HETATM   30  C22 UNL     1      -2.386   3.174  -1.593  1.00  0.00     0.039 A 
HETATM   31  C23 UNL     1      -2.019   1.906  -1.179  1.00  0.00     0.032 A 
BRANCH  29  32
HETATM   32  O3  UNL     1      -2.003   5.609  -1.515  1.00  0.00    -0.356 OA
HETATM   33  C21 UNL     1      -3.068   5.895  -2.396  1.00  0.00     0.210 C 
ENDBRANCH  29  32
ENDBRANCH  14  26
TORSDOF 6
