REMARK  6 active torsions:
REMARK  status: ('A' for Active; 'I' for Inactive)
REMARK    1  A    between atoms: C3_5  and  N2_6 
REMARK    2  A    between atoms: N2_6  and  C4_7 
REMARK    3  A    between atoms: C10_15  and  O1_16 
REMARK    4  A    between atoms: N5_17  and  O2_18 
REMARK    5  A    between atoms: O2_18  and  C11_19 
REMARK    6  A    between atoms: C14_22  and  O3_23 
ROOT
HETATM    1  C1  UNL     1      -1.439  -1.303  -2.326  1.00  0.00     0.023 C 
HETATM    2  C2  UNL     1      -0.566  -1.838  -1.494  1.00  0.00    -0.104 C 
HETATM    3  B1  UNL     1      -1.083  -3.239  -0.610  1.00  0.00     0.363 B 
HETATM    4  N1  UNL     1      -2.396  -3.030   0.571  1.00  0.00    -0.179 NA
HETATM    5  C3  UNL     1      -2.857  -1.654   0.618  1.00  0.00     0.722 C 
HETATM    6  N3  UNL     1      -2.319  -0.505   0.611  1.00  0.00     0.016 NA
HETATM    7  N4  UNL     1      -1.019  -0.115   0.555  1.00  0.00    -0.255 N 
HETATM    8  C10 UNL     1       0.381  -0.186   0.868  1.00  0.00     0.342 C 
HETATM    9  N5  UNL     1       0.935  -1.411   0.394  1.00  0.00    -0.139 NA
HETATM   10  C18 UNL     1       0.810  -1.621  -1.019  1.00  0.00     0.145 C 
HETATM   11  H9  UNL     1      -1.357   0.632  -0.074  1.00  0.00     0.187 HD
ENDROOT
BRANCH   9  12
HETATM   12  O2  UNL     1       2.213  -1.641   0.836  1.00  0.00    -0.257 OA
BRANCH  12  13
HETATM   13  C11 UNL     1       3.298  -0.823   0.574  1.00  0.00     0.092 A 
HETATM   14  C12 UNL     1       3.792  -0.008   1.596  1.00  0.00     0.041 A 
HETATM   15  C13 UNL     1       4.870   0.828   1.396  1.00  0.00     0.039 A 
HETATM   16  C14 UNL     1       5.511   0.897   0.174  1.00  0.00     0.068 A 
HETATM   17  C16 UNL     1       5.035   0.092  -0.858  1.00  0.00     0.039 A 
HETATM   18  C17 UNL     1       3.955  -0.736  -0.635  1.00  0.00     0.041 A 
BRANCH  16  19
HETATM   19  O3  UNL     1       6.595   1.681  -0.169  1.00  0.00    -0.356 OA
HETATM   20  C15 UNL     1       7.268   2.576   0.669  1.00  0.00     0.210 C 
ENDBRANCH  16  19
ENDBRANCH  12  13
ENDBRANCH   9  12
BRANCH   8  21
HETATM   21  O1  UNL     1       1.072   0.914   0.277  1.00  0.00    -0.361 OA
HETATM   22  H11 UNL     1       0.906   1.687   0.898  1.00  0.00     0.213 HD
ENDBRANCH   8  21
BRANCH   5  23
HETATM   23  N2  UNL     1      -4.271  -1.497   0.695  1.00  0.00    -0.189 N 
HETATM   24  H3  UNL     1      -4.872  -2.171   1.269  1.00  0.00     0.184 HD
BRANCH  23  25
HETATM   25  C4  UNL     1      -4.980  -0.473   0.032  1.00  0.00     0.049 A 
HETATM   26  C5  UNL     1      -4.515   0.438  -0.883  1.00  0.00     0.030 A 
HETATM   27  C6  UNL     1      -5.262   1.421  -1.486  1.00  0.00     0.002 A 
HETATM   28  C7  UNL     1      -6.591   1.538  -1.174  1.00  0.00     0.000 A 
HETATM   29  C8  UNL     1      -7.147   0.664  -0.263  1.00  0.00     0.002 A 
HETATM   30  C9  UNL     1      -6.340  -0.278   0.286  1.00  0.00     0.030 A 
ENDBRANCH  23  25
ENDBRANCH   5  23
TORSDOF 6
