REMARK  6 active torsions:
REMARK  status: ('A' for Active; 'I' for Inactive)
REMARK    1  A    between atoms: C2_2  and  C3_3 
REMARK    2  A    between atoms: C3_3  and  C4_4 
REMARK    3  A    between atoms: C3_3  and  O2_29 
REMARK    4  A    between atoms: C5_5  and  N1_6 
REMARK    5  A    between atoms: C12_16  and  O1_17 
REMARK    6  A    between atoms: O2_29  and  C23_30 
ROOT
HETATM    1  N1  UNL     1       1.437   0.635   0.005  1.00  0.00    -0.365 N 
HETATM    2  C6  UNL     1       1.419   2.116   0.090  1.00  0.00     0.168 C 
HETATM    3  C7  UNL     1       0.106   2.626   0.547  1.00  0.00     0.024 A 
HETATM    4  C8  UNL     1      -0.293   3.628   1.406  1.00  0.00     0.149 A 
HETATM    5  N2  UNL     1      -1.593   3.860   1.662  1.00  0.00    -0.075 NA
HETATM    6  C9  UNL     1      -2.586   3.153   1.115  1.00  0.00     0.718 A 
HETATM    7  N3  UNL     1      -2.296   2.155   0.262  1.00  0.00    -0.045 NA
HETATM    8  C10 UNL     1      -0.996   1.938   0.020  1.00  0.00     0.156 A 
HETATM    9  N4  UNL     1      -0.695   0.844  -0.823  1.00  0.00    -0.341 N 
HETATM   10  C11 UNL     1      -0.939   0.395  -2.157  1.00  0.00     0.158 C 
HETATM   11  C12 UNL     1      -2.202  -0.424  -2.168  1.00  0.00     0.136 C 
HETATM   12  C13 UNL     1      -1.983  -1.763  -1.606  1.00  0.00     0.038 C 
HETATM   13  C14 UNL     1      -1.281  -1.935  -0.321  1.00  0.00    -0.005 C 
HETATM   14  C15 UNL     1      -2.009  -1.554   0.921  1.00  0.00     0.031 C 
HETATM   15  C16 UNL     1      -3.372  -2.058   1.057  1.00  0.00    -0.030 C 
HETATM   16  C17 UNL     1      -4.625  -1.562   1.213  1.00  0.00    -0.025 C 
HETATM   17  C18 UNL     1      -4.513  -0.079   1.245  1.00  0.00     0.055 C 
HETATM   18  C19 UNL     1      -5.480   0.857   1.383  1.00  0.00     0.021 C 
HETATM   19  C20 UNL     1      -4.750   2.148   1.336  1.00  0.00     0.300 C 
HETATM   20  N5  UNL     1      -3.988   3.217   1.278  1.00  0.00    -0.230 NA
HETATM   21  C21 UNL     1       0.140  -1.385  -0.286  1.00  0.00     0.052 C 
HETATM   22  C22 UNL     1       0.121   0.066   0.127  1.00  0.00     0.188 C 
ENDROOT
BRANCH   1  23
HETATM   23  C5  UNL     1       2.730   0.126  -0.176  1.00  0.00     0.087 C 
HETATM   24  C4  UNL     1       3.636  -0.316   0.703  1.00  0.00     0.026 C 
BRANCH  24  25
HETATM   25  C3  UNL     1       4.963  -0.821   0.313  1.00  0.00     0.177 C 
BRANCH  25  26
HETATM   26  C2  UNL     1       5.261  -2.131   1.001  1.00  0.00    -0.001 C 
HETATM   27  C1  UNL     1       6.325  -2.800   0.540  1.00  0.00     0.010 C 
ENDBRANCH  25  26
BRANCH  25  28
HETATM   28  O2  UNL     1       5.968   0.104   0.743  1.00  0.00    -0.315 OA
BRANCH  28  29
HETATM   29  C23 UNL     1       6.894   0.667  -0.092  1.00  0.00     0.399 C 
HETATM   30  O3  UNL     1       7.153   0.588  -1.320  1.00  0.00    -0.276 OA
ENDBRANCH  28  29
ENDBRANCH  25  28
ENDBRANCH  24  25
ENDBRANCH   1  23
BRANCH  11  31
HETATM   31  O1  UNL     1      -3.186   0.353  -1.591  1.00  0.00    -0.394 OA
HETATM   32  H13 UNL     1      -3.769   0.795  -2.252  1.00  0.00     0.210 HD
ENDBRANCH  11  31
TORSDOF 6
