REMARK  8 active torsions:
REMARK  status: ('A' for Active; 'I' for Inactive)
REMARK    1  A    between atoms: C2_2  and  C3_3 
REMARK    2  A    between atoms: C3_3  and  O1_4 
REMARK    3  A    between atoms: C3_3  and  C4_5 
REMARK    4  A    between atoms: C4_5  and  C5_6 
REMARK    5  A    between atoms: C5_6  and  N1_7 
REMARK    6  A    between atoms: N1_7  and  C7_10 
REMARK    7  A    between atoms: C10_14  and  N3_15 
REMARK    8  A    between atoms: N3_15  and  C11_16 
ROOT
HETATM    1  N1  UNL     1       1.582  -1.273   0.168  1.00  0.00    -0.320 N 
HETATM    2  C6  UNL     1       1.970  -2.224  -0.812  1.00  0.00     0.478 C 
HETATM    3  O2  UNL     1       2.256  -3.080  -1.673  1.00  0.00    -0.392 OA
ENDROOT
BRANCH   1   4
HETATM    4  C5  UNL     1       2.662  -0.402   0.597  1.00  0.00     0.134 C 
BRANCH   4   5
HETATM    5  C4  UNL     1       2.664   0.812  -0.310  1.00  0.00     0.052 C 
BRANCH   5   6
HETATM    6  C3  UNL     1       3.764   1.779   0.067  1.00  0.00     0.119 C 
BRANCH   6   7
HETATM    7  C2  UNL     1       5.129   1.149  -0.030  1.00  0.00     0.027 C 
HETATM    8  C1  UNL     1       5.437   0.666  -1.423  1.00  0.00     0.007 C 
ENDBRANCH   6   7
BRANCH   6   9
HETATM    9  O1  UNL     1       3.701   2.867  -0.793  1.00  0.00    -0.396 OA
HETATM   10  H7  UNL     1       3.595   2.601  -1.731  1.00  0.00     0.210 HD
ENDBRANCH   6   9
ENDBRANCH   5   6
ENDBRANCH   4   5
ENDBRANCH   1   4
BRANCH   1  11
HETATM   11  C7  UNL     1       0.237  -1.242   0.634  1.00  0.00     0.151 A 
HETATM   12  C8  UNL     1      -0.124  -2.002   1.719  1.00  0.00     0.071 A 
HETATM   13  C9  UNL     1      -1.449  -1.884   2.068  1.00  0.00     0.140 A 
HETATM   14  N2  UNL     1      -2.333  -1.109   1.430  1.00  0.00    -0.075 NA
HETATM   15  C10 UNL     1      -1.943  -0.383   0.376  1.00  0.00     0.728 A 
HETATM   16  N4  UNL     1      -0.660  -0.473   0.007  1.00  0.00    -0.045 NA
BRANCH  15  17
HETATM   17  N3  UNL     1      -2.794   0.472  -0.373  1.00  0.00    -0.188 N 
HETATM   18  H15 UNL     1      -2.369   0.988  -1.182  1.00  0.00     0.184 HD
BRANCH  17  19
HETATM   19  C11 UNL     1      -4.171   0.723  -0.166  1.00  0.00     0.049 A 
HETATM   20  C12 UNL     1      -4.979   0.191   0.812  1.00  0.00     0.030 A 
HETATM   21  C13 UNL     1      -6.314   0.448   0.995  1.00  0.00     0.002 A 
HETATM   22  C14 UNL     1      -6.933   1.315   0.137  1.00  0.00     0.000 A 
HETATM   23  C15 UNL     1      -6.187   1.889  -0.871  1.00  0.00     0.002 A 
HETATM   24  C16 UNL     1      -4.852   1.585  -0.996  1.00  0.00     0.030 A 
ENDBRANCH  17  19
ENDBRANCH  15  17
ENDBRANCH   1  11
TORSDOF 8
