REMARK  4 active torsions:
REMARK  status: ('A' for Active; 'I' for Inactive)
REMARK    1  A    between atoms: O1_2  and  C2_3 
REMARK    2  A    between atoms: N1_6  and  C5_7 
REMARK    3  A    between atoms: C8_11  and  N3_12 
REMARK    4  A    between atoms: N3_12  and  C9_13 
ROOT
HETATM    1  C5  UNL     1       0.508  -0.491  -0.664  1.00  0.00     0.316 A 
HETATM    2  C6  UNL     1       0.853   0.646  -1.577  1.00  0.00     0.036 A 
HETATM    3  C7  UNL     1      -0.078   1.599  -1.449  1.00  0.00     0.117 A 
HETATM    4  N2  UNL     1      -1.061   1.181  -0.487  1.00  0.00    -0.245 NA
HETATM    5  C8  UNL     1      -0.730  -0.004  -0.041  1.00  0.00     0.141 A 
ENDROOT
BRANCH   5   6
HETATM    6  N3  UNL     1      -1.465  -0.748   0.929  1.00  0.00    -0.351 N 
HETATM    7  H12 UNL     1      -1.105  -1.667   1.321  1.00  0.00     0.166 HD
BRANCH   6   8
HETATM    8  C9  UNL     1      -2.701  -0.346   1.443  1.00  0.00     0.101 C 
HETATM    9  C10 UNL     1      -3.768  -0.295   0.707  1.00  0.00    -0.021 A 
HETATM   10  C11 UNL     1      -3.711  -0.662  -0.697  1.00  0.00     0.013 A 
HETATM   11  C14 UNL     1      -5.045   0.126   1.256  1.00  0.00     0.013 A 
HETATM   12  C12 UNL     1      -4.670  -0.678  -1.600  1.00  0.00     0.009 A 
HETATM   13  P1  UNL     1      -6.355  -0.178  -1.097  1.00  0.00    -0.083 P 
HETATM   14  C13 UNL     1      -6.223   0.240   0.677  1.00  0.00     0.009 A 
HETATM   15  H16 UNL     1      -6.783   1.028  -1.816  1.00  0.00     0.066 HD
ENDBRANCH   6   8
ENDBRANCH   5   6
BRANCH   1  16
HETATM   16  N1  UNL     1       1.564  -0.728   0.298  1.00  0.00     0.106 N 
HETATM   17  C4  UNL     1       1.825   0.406   1.131  1.00  0.00     0.276 C 
HETATM   18  C3  UNL     1       3.282   0.357   1.471  1.00  0.00     0.064 C 
HETATM   19  C2  UNL     1       3.902  -0.338   0.306  1.00  0.00     0.150 C 
HETATM   20  C15 UNL     1       2.787  -1.013  -0.427  1.00  0.00     0.305 C 
BRANCH  19  21
HETATM   21  O1  UNL     1       4.520   0.578  -0.535  1.00  0.00    -0.389 OA
HETATM   22  C1  UNL     1       5.884   0.266  -0.635  1.00  0.00     0.202 C 
ENDBRANCH  19  21
ENDBRANCH   1  16
TORSDOF 4
