REMARK  4 active torsions:
REMARK  status: ('A' for Active; 'I' for Inactive)
REMARK    1  A    between atoms: C2_2  and  N1_3 
REMARK    2  A    between atoms: C6_8  and  C7_9 
REMARK    3  A    between atoms: C14_17  and  O1_18 
REMARK    4  A    between atoms: O1_18  and  C15_19 
ROOT
HETATM    1  N1  UNL     1       2.887  -1.449  -0.430  1.00  0.00    -0.325 N 
HETATM    2  C3  UNL     1       3.277  -1.924   0.937  1.00  0.00     0.157 C 
HETATM    3  C4  UNL     1       1.983  -2.492   1.526  1.00  0.00     0.012 C 
HETATM    4  C5  UNL     1       0.794  -2.318   0.905  1.00  0.00     0.116 C 
HETATM    5  N2  UNL     1      -0.219  -1.940  -0.005  1.00  0.00    -0.241 NA
HETATM    6  C6  UNL     1      -0.569  -0.692  -0.240  1.00  0.00     0.164 C 
HETATM    7  N3  UNL     1      -0.296   0.692   0.130  1.00  0.00    -0.181 NA
HETATM    8  C14 UNL     1       0.678   1.418  -0.414  1.00  0.00     0.298 C 
HETATM    9  O2  UNL     1       1.425   0.707  -1.386  1.00  0.00    -0.220 OA
HETATM   10  C20 UNL     1       2.168  -0.377  -1.008  1.00  0.00     0.371 C 
HETATM   11  O3  UNL     1       1.796   0.045   0.110  1.00  0.00    -0.238 OA
ENDROOT
BRANCH   6  12
HETATM   12  C7  UNL     1      -1.650  -0.765  -1.249  1.00  0.00     0.018 A 
HETATM   13  C8  UNL     1      -2.257   0.396  -1.748  1.00  0.00     0.016 A 
HETATM   14  C9  UNL     1      -3.257   0.479  -2.670  1.00  0.00     0.001 A 
HETATM   15  C10 UNL     1      -3.751  -0.689  -3.193  1.00  0.00     0.001 A 
HETATM   16  C11 UNL     1      -3.213  -1.872  -2.760  1.00  0.00     0.007 A 
HETATM   17  C12 UNL     1      -2.204  -1.916  -1.826  1.00  0.00    -0.048 A 
HETATM   18  C13 UNL     1      -1.662  -3.207  -1.383  1.00  0.00     0.049 C 
ENDBRANCH   6  12
BRANCH   8  19
HETATM   19  O1  UNL     1       0.780   2.714   0.066  1.00  0.00    -0.309 OA
BRANCH  19  20
HETATM   20  C15 UNL     1       0.169   3.067   1.246  1.00  0.00     0.132 C 
HETATM   21  C16 UNL     1       0.504   4.514   1.537  1.00  0.00     0.032 C 
HETATM   22  C17 UNL     1      -0.385   4.759   2.762  1.00  0.00     0.002 C 
HETATM   23  C18 UNL     1      -1.558   3.812   2.593  1.00  0.00     0.002 C 
HETATM   24  C19 UNL     1      -1.326   3.120   1.245  1.00  0.00     0.032 C 
ENDBRANCH  19  20
ENDBRANCH   8  19
BRANCH   1  25
HETATM   25  C2  UNL     1       3.407  -2.226  -1.543  1.00  0.00     0.124 C 
HETATM   26  C1  UNL     1       2.479  -3.312  -2.013  1.00  0.00     0.026 C 
ENDBRANCH   1  25
TORSDOF 4
