REMARK  7 active torsions:
REMARK  status: ('A' for Active; 'I' for Inactive)
REMARK    1  A    between atoms: C7_7  and  C8_8 
REMARK    2  A    between atoms: C8_8  and  C9_9 
REMARK    3  A    between atoms: C9_9  and  N1_10 
REMARK    4  A    between atoms: C12_13  and  N2_14 
REMARK    5  A    between atoms: N2_14  and  B1_15 
REMARK    6  A    between atoms: B1_15  and  C13_16 
REMARK    7  A    between atoms: C19_24  and  N4_25 
ROOT
HETATM    1  N1  UNL     1      -1.607  -1.155  -0.280  1.00  0.00    -0.360 N 
HETATM    2  C10 UNL     1      -1.171   0.193  -0.462  1.00  0.00     0.171 A 
HETATM    3  C11 UNL     1       0.154  -0.329  -0.056  1.00  0.00     0.053 A 
HETATM    4  C12 UNL     1       1.474   0.061   0.158  1.00  0.00     0.159 A 
HETATM    5  N3  UNL     1       2.324  -0.921   0.563  1.00  0.00    -0.044 NA
HETATM    6  C19 UNL     1       1.927  -2.182   0.747  1.00  0.00     0.724 A 
HETATM    7  N5  UNL     1       0.638  -2.489   0.522  1.00  0.00    -0.045 NA
HETATM    8  C20 UNL     1      -0.288  -1.603   0.120  1.00  0.00     0.157 A 
ENDROOT
BRANCH   1   9
HETATM    9  C9  UNL     1      -2.779  -1.989  -0.379  1.00  0.00     0.129 C 
BRANCH   9  10
HETATM   10  C8  UNL     1      -3.772  -1.642   0.691  1.00  0.00     0.059 C 
BRANCH  10  11
HETATM   11  C7  UNL     1      -4.272  -0.268   0.635  1.00  0.00    -0.051 A 
HETATM   12  C2  UNL     1      -5.173  -0.019  -0.406  1.00  0.00    -0.056 A 
HETATM   13  C1  UNL     1      -5.661  -0.947  -1.457  1.00  0.00     0.049 C 
HETATM   14  C3  UNL     1      -5.720   1.263  -0.522  1.00  0.00     0.007 A 
HETATM   15  C4  UNL     1      -5.415   2.284   0.338  1.00  0.00     0.001 A 
HETATM   16  C5  UNL     1      -4.531   2.050   1.367  1.00  0.00     0.001 A 
HETATM   17  C6  UNL     1      -3.997   0.789   1.473  1.00  0.00     0.007 A 
ENDBRANCH  10  11
ENDBRANCH   9  10
ENDBRANCH   1   9
BRANCH   4  18
HETATM   18  N2  UNL     1       1.933   1.400  -0.029  1.00  0.00    -0.339 NA
BRANCH  18  19
HETATM   19  B1  UNL     1       3.610   1.669  -0.219  1.00  0.00     0.347 B 
BRANCH  19  20
HETATM   20  C13 UNL     1       5.401   1.533  -0.376  1.00  0.00    -0.076 A 
HETATM   21  C14 UNL     1       5.989   2.771  -0.268  1.00  0.00    -0.003 A 
HETATM   22  C15 UNL     1       7.374   2.867  -0.364  1.00  0.00     0.001 A 
HETATM   23  C16 UNL     1       8.129   1.706  -0.568  1.00  0.00     0.019 A 
HETATM   24  C17 UNL     1       7.473   0.493  -0.668  1.00  0.00     0.010 A 
HETATM   25 BR1  UNL     1       8.436  -1.148  -0.947  1.00  0.00    -0.051 Br
HETATM   26  C18 UNL     1       6.102   0.373  -0.575  1.00  0.00     0.015 A 
ENDBRANCH  19  20
ENDBRANCH  18  19
ENDBRANCH   4  18
BRANCH   6  27
HETATM   27  N4  UNL     1       2.794  -3.233   1.171  1.00  0.00    -0.231 N 
HETATM   28  H18 UNL     1       2.535  -3.936   1.895  1.00  0.00     0.174 HD
HETATM   29  H19 UNL     1       3.760  -3.517   0.902  1.00  0.00     0.174 HD
ENDBRANCH   6  27
TORSDOF 7
