REMARK  4 active torsions:
REMARK  status: ('A' for Active; 'I' for Inactive)
REMARK    1  A    between atoms: O1_2  and  C2_3 
REMARK    2  A    between atoms: C5_6  and  N1_7 
REMARK    3  A    between atoms: N3_12  and  C9_13 
REMARK    4  A    between atoms: N5_22  and  C17_23 
ROOT
HETATM    1  N1  UNL     1       1.766  -0.653  -0.888  1.00  0.00    -0.295 N 
HETATM    2  C6  UNL     1       0.882  -1.695  -0.470  1.00  0.00     0.178 C 
HETATM    3  C7  UNL     1      -0.522  -1.209  -0.383  1.00  0.00     0.023 C 
HETATM    4  C8  UNL     1      -1.271  -1.840   0.508  1.00  0.00     0.120 C 
HETATM    5  N2  UNL     1      -2.656  -1.654   0.872  1.00  0.00    -0.307 N 
HETATM    6  N3  UNL     1      -3.585  -0.726   0.332  1.00  0.00    -0.273 N 
HETATM    7  C15 UNL     1      -3.503  -0.274  -1.012  1.00  0.00     0.300 C 
HETATM    8  N4  UNL     1      -2.250   0.245  -1.454  1.00  0.00    -0.250 NA
HETATM    9  C16 UNL     1      -1.045  -0.125  -1.206  1.00  0.00     0.140 C 
HETATM   10  N5  UNL     1      -0.110   0.721  -1.892  1.00  0.00    -0.279 N 
HETATM   11  C20 UNL     1       1.283   0.427  -1.710  1.00  0.00     0.331 C 
HETATM   12  O2  UNL     1       2.168   1.113  -2.270  1.00  0.00    -0.246 OA
HETATM   13  H9  UNL     1      -2.958  -2.313   1.633  1.00  0.00     0.186 HD
ENDROOT
BRANCH   1  14
HETATM   14  C5  UNL     1       3.150  -0.674  -0.491  1.00  0.00     0.039 A 
HETATM   15  C4  UNL     1       3.347  -0.013   0.699  1.00  0.00     0.032 A 
HETATM   16  C3  UNL     1       4.609   0.079   1.252  1.00  0.00     0.039 A 
HETATM   17  C2  UNL     1       5.681  -0.498   0.602  1.00  0.00     0.068 A 
HETATM   18  C22 UNL     1       5.470  -1.166  -0.604  1.00  0.00     0.039 A 
HETATM   19  C21 UNL     1       4.202  -1.251  -1.146  1.00  0.00     0.032 A 
BRANCH  17  20
HETATM   20  O1  UNL     1       7.018  -0.527   0.972  1.00  0.00    -0.356 OA
HETATM   21  C1  UNL     1       7.510   0.070   2.145  1.00  0.00     0.210 C 
ENDBRANCH  17  20
ENDBRANCH   1  14
BRANCH  10  22
HETATM   22  C17 UNL     1      -0.547   1.812  -2.724  1.00  0.00     0.096 A 
HETATM   23  C18 UNL     1       0.251   3.017  -2.933  1.00  0.00     0.028 A 
HETATM   24  C19 UNL     1       0.177   2.000  -4.025  1.00  0.00     0.028 A 
ENDBRANCH  10  22
BRANCH   6  25
HETATM   25  C9  UNL     1      -4.569  -0.314   1.273  1.00  0.00     0.052 A 
HETATM   26  C10 UNL     1      -5.719   0.356   0.947  1.00  0.00     0.031 A 
HETATM   27  C11 UNL     1      -6.676   0.773   1.847  1.00  0.00     0.002 A 
HETATM   28  C12 UNL     1      -6.485   0.508   3.196  1.00  0.00     0.000 A 
HETATM   29  C13 UNL     1      -5.339  -0.163   3.557  1.00  0.00     0.002 A 
HETATM   30  C14 UNL     1      -4.433  -0.549   2.622  1.00  0.00     0.031 A 
ENDBRANCH   6  25
TORSDOF 4
