REMARK  8 active torsions:
REMARK  status: ('A' for Active; 'I' for Inactive)
REMARK    1  A    between atoms: C3_3  and  C4_4 
REMARK    2  A    between atoms: C4_4  and  N1_5 
REMARK    3  A    between atoms: N1_5  and  C5_6 
REMARK    4  A    between atoms: C7_8  and  N2_9 
REMARK    5  A    between atoms: N2_9  and  C8_10 
REMARK    6  A    between atoms: C8_10  and  C9_11 
REMARK    7  A    between atoms: C9_11  and  C10_12 
REMARK    8  A    between atoms: C17_20  and  N4_21 
ROOT
HETATM    1  C5  UNL     1      -1.165  -0.926   0.360  1.00  0.00     0.146 A 
HETATM    2  C6  UNL     1      -0.105  -0.080   0.011  1.00  0.00     0.101 A 
HETATM    3  C7  UNL     1       0.768  -0.292  -1.013  1.00  0.00     0.146 A 
HETATM    4  N3  UNL     1       0.548  -1.427  -1.720  1.00  0.00    -0.046 NA
HETATM    5  C17 UNL     1      -0.448  -2.282  -1.441  1.00  0.00     0.724 A 
HETATM    6  N5  UNL     1      -1.269  -2.010  -0.419  1.00  0.00    -0.046 NA
ENDROOT
BRANCH   3   7
HETATM    7  N2  UNL     1       1.861   0.581  -1.368  1.00  0.00    -0.374 N 
HETATM    8  H8  UNL     1       2.415   0.299  -2.216  1.00  0.00     0.161 HD
BRANCH   7   9
HETATM    9  C8  UNL     1       2.201   1.748  -0.652  1.00  0.00     0.126 C 
BRANCH   9  10
HETATM   10  C9  UNL     1       2.922   1.477   0.628  1.00  0.00     0.058 C 
BRANCH  10  11
HETATM   11  C10 UNL     1       4.229   0.820   0.495  1.00  0.00    -0.051 A 
HETATM   12  C11 UNL     1       5.308   1.720   0.529  1.00  0.00     0.007 A 
HETATM   13  C12 UNL     1       6.652   1.404   0.401  1.00  0.00     0.001 A 
HETATM   14  C13 UNL     1       6.969   0.077   0.222  1.00  0.00     0.001 A 
HETATM   15  C14 UNL     1       5.953  -0.829   0.184  1.00  0.00     0.007 A 
HETATM   16  C15 UNL     1       4.631  -0.477   0.315  1.00  0.00    -0.056 A 
HETATM   17  C16 UNL     1       3.557  -1.481   0.296  1.00  0.00     0.049 C 
ENDBRANCH  10  11
ENDBRANCH   9  10
ENDBRANCH   7   9
ENDBRANCH   3   7
BRANCH   1  18
HETATM   18  N1  UNL     1      -1.906  -0.459   1.474  1.00  0.00    -0.370 N 
HETATM   19  H6  UNL     1      -1.453  -1.082   2.205  1.00  0.00     0.161 HD
BRANCH  18  20
HETATM   20  C4  UNL     1      -2.934   0.485   1.768  1.00  0.00     0.156 C 
BRANCH  20  21
HETATM   21  C3  UNL     1      -4.201   0.236   1.079  1.00  0.00    -0.056 A 
HETATM   22  C2  UNL     1      -4.825  -0.553   0.260  1.00  0.00    -0.079 A 
HETATM   23  C1  UNL     1      -4.514  -1.786  -0.501  1.00  0.00     0.044 C 
HETATM   24  C20 UNL     1      -6.052   0.237   0.312  1.00  0.00     0.042 A 
HETATM   25  C18 UNL     1      -5.348   1.104   1.259  1.00  0.00     0.016 A 
HETATM   26  C19 UNL     1      -5.055   2.521   0.795  1.00  0.00     0.015 C 
ENDBRANCH  20  21
ENDBRANCH  18  20
ENDBRANCH   1  18
BRANCH   5  27
HETATM   27  N4  UNL     1      -0.704  -3.479  -2.164  1.00  0.00    -0.231 N 
HETATM   28  H20 UNL     1      -0.020  -4.165  -1.813  1.00  0.00     0.174 HD
HETATM   29  H21 UNL     1      -1.478  -3.367  -2.830  1.00  0.00     0.174 HD
ENDBRANCH   5  27
TORSDOF 8
