REMARK  8 active torsions:
REMARK  status: ('A' for Active; 'I' for Inactive)
REMARK    1  A    between atoms: O1_2  and  C2_3 
REMARK    2  A    between atoms: N1_7  and  C6_8 
REMARK    3  A    between atoms: N2_11  and  C8_12 
REMARK    4  A    between atoms: C8_12  and  C9_13 
REMARK    5  A    between atoms: C12_16  and  C13_17 
REMARK    6  A    between atoms: C15_20  and  O3_21 
REMARK    7  A    between atoms: O3_21  and  N4_22 
REMARK    8  A    between atoms: N4_22  and  C16_23 
ROOT
HETATM    1  C6  UNL     1       2.171   0.110   0.835  1.00  0.00     0.153 C 
HETATM    2  C7  UNL     1       2.329   1.565   0.501  1.00  0.00     0.232 C 
HETATM    3  O2  UNL     1       1.245   2.260   1.040  1.00  0.00    -0.274 OA
HETATM    4  N2  UNL     1       0.171   1.883   0.311  1.00  0.00    -0.239 N 
HETATM    5  C14 UNL     1      -0.145   0.528   0.012  1.00  0.00     0.163 A 
HETATM    6  N3  UNL     1      -1.347   0.174  -0.491  1.00  0.00    -0.185 NA
HETATM    7  C15 UNL     1      -1.525  -1.157  -0.735  1.00  0.00     0.292 A 
HETATM    8  N5  UNL     1      -0.566  -2.074  -0.493  1.00  0.00    -0.217 NA
HETATM    9  C22 UNL     1       0.640  -1.710   0.013  1.00  0.00     0.134 A 
HETATM   10  C23 UNL     1       0.895  -0.369   0.288  1.00  0.00     0.033 A 
ENDROOT
BRANCH   1  11
HETATM   11  N1  UNL     1       3.307  -0.682   0.437  1.00  0.00    -0.355 N 
HETATM   12  C5  UNL     1       3.596  -0.658  -0.965  1.00  0.00     0.091 C 
HETATM   13  C4  UNL     1       4.331  -1.442  -1.727  1.00  0.00     0.020 C 
HETATM   14  C3  UNL     1       5.101  -2.628  -1.308  1.00  0.00     0.038 C 
HETATM   15  C2  UNL     1       5.351  -3.037  -0.062  1.00  0.00     0.069 C 
HETATM   16  C25 UNL     1       4.927  -2.417   1.182  1.00  0.00     0.054 C 
HETATM   17  C24 UNL     1       4.069  -1.426   1.409  1.00  0.00     0.094 C 
BRANCH  15  18
HETATM   18  O1  UNL     1       6.096  -4.179   0.070  1.00  0.00    -0.356 OA
HETATM   19  C1  UNL     1       7.398  -4.264  -0.423  1.00  0.00     0.210 C 
ENDBRANCH  15  18
ENDBRANCH   1  11
BRANCH   4  20
HETATM   20  C8  UNL     1      -0.700   2.913  -0.190  1.00  0.00     0.167 C 
BRANCH  20  21
HETATM   21  C9  UNL     1      -1.254   3.698   1.138  1.00  0.00     0.036 A 
HETATM   22  C10 UNL     1      -1.881   4.451   1.069  1.00  0.00    -0.085 A 
HETATM   23  C11 UNL     1      -2.240   4.902   1.018  1.00  0.00    -0.008 A 
HETATM   24  C12 UNL     1      -2.850   5.708   0.912  1.00  0.00     0.043 A 
HETATM   25  C13 UNL     1      -0.946   5.515   0.031  1.00  0.00     0.028 A 
ENDBRANCH  20  21
ENDBRANCH   4  20
BRANCH   7  26
HETATM   26  O3  UNL     1      -2.711  -1.672  -1.253  1.00  0.00    -0.196 OA
BRANCH  26  27
HETATM   27  N4  UNL     1      -3.790  -0.869  -1.555  1.00  0.00    -0.258 N 
HETATM   28  H17 UNL     1      -3.689   0.080  -2.014  1.00  0.00     0.195 HD
BRANCH  27  29
HETATM   29  C16 UNL     1      -5.144  -1.252  -1.273  1.00  0.00     0.055 A 
HETATM   30  C17 UNL     1      -6.247  -0.472  -1.562  1.00  0.00     0.031 A 
HETATM   31  C18 UNL     1      -7.521  -0.878  -1.275  1.00  0.00     0.002 A 
HETATM   32  C19 UNL     1      -7.760  -2.099  -0.677  1.00  0.00     0.000 A 
HETATM   33  C20 UNL     1      -6.679  -2.924  -0.365  1.00  0.00     0.002 A 
HETATM   34  C21 UNL     1      -5.392  -2.485  -0.669  1.00  0.00     0.031 A 
ENDBRANCH  27  29
ENDBRANCH  26  27
ENDBRANCH   7  26
TORSDOF 8
