REMARK  3 active torsions:
REMARK  status: ('A' for Active; 'I' for Inactive)
REMARK    1  A    between atoms: O1_2  and  C2_3 
REMARK    2  A    between atoms: C11_14  and  N2_15 
REMARK    3  A    between atoms: N2_15  and  C12_16 
ROOT
HETATM    1  C2  UNL     1       0.886   2.241  -0.172  1.00  0.00     0.211 C 
HETATM    2  C3  UNL     1       1.858   1.415   0.592  1.00  0.00     0.061 C 
HETATM    3  C4  UNL     1       2.192   0.064   0.008  1.00  0.00     0.036 C 
HETATM    4  C5  UNL     1       3.692   0.064  -0.203  1.00  0.00     0.121 C 
HETATM    5  N1  UNL     1       4.189  -1.223  -0.367  1.00  0.00    -0.421 N 
HETATM    6  C6  UNL     1       3.983  -2.156   0.684  1.00  0.00     0.116 C 
HETATM    7  C7  UNL     1       2.712  -1.978   1.447  1.00  0.00     0.052 C 
HETATM    8  C8  UNL     1       1.716  -1.051   0.862  1.00  0.00     0.135 C 
HETATM    9  O2  UNL     1       0.722  -1.724   0.149  1.00  0.00    -0.357 OA
HETATM   10  C9  UNL     1       0.689  -3.045  -0.117  1.00  0.00     0.139 C 
HETATM   11  C10 UNL     1      -0.542  -2.811  -0.622  1.00  0.00     0.074 C 
HETATM   12  C11 UNL     1      -1.400  -1.607  -0.776  1.00  0.00     0.131 C 
HETATM   13  N3  UNL     1      -0.816  -0.613  -0.333  1.00  0.00    -0.225 NA
HETATM   14  C18 UNL     1      -1.055   0.717  -0.191  1.00  0.00     0.399 C 
HETATM   15  N4  UNL     1      -0.469   1.797  -0.126  1.00  0.00    -0.380 NA
HETATM   16  H10 UNL     1       4.912  -1.426  -1.038  1.00  0.00     0.153 HD
ENDROOT
BRANCH  12  17
HETATM   17  N2  UNL     1      -2.720  -1.635  -1.363  1.00  0.00    -0.341 N 
HETATM   18  H18 UNL     1      -2.827  -2.388  -2.106  1.00  0.00     0.167 HD
BRANCH  17  19
HETATM   19  C12 UNL     1      -3.636  -0.658  -0.846  1.00  0.00     0.035 A 
HETATM   20  C13 UNL     1      -3.938   0.593  -1.335  1.00  0.00     0.032 A 
HETATM   21  C14 UNL     1      -4.852   1.388  -0.680  1.00  0.00     0.046 A 
HETATM   22  C15 UNL     1      -5.446   0.892   0.467  1.00  0.00     0.138 A 
HETATM   23  F1  UNL     1      -6.360   1.673   1.133  1.00  0.00    -0.204 F 
HETATM   24  C16 UNL     1      -5.179  -0.352   0.996  1.00  0.00     0.074 A 
HETATM   25 CL1  UNL     1      -5.965  -0.924   2.453  1.00  0.00    -0.081 Cl
HETATM   26  C17 UNL     1      -4.256  -1.130   0.317  1.00  0.00     0.056 A 
ENDBRANCH  17  19
ENDBRANCH  12  17
BRANCH   1  27
HETATM   27  O1  UNL     1       0.821   3.524   0.484  1.00  0.00    -0.372 OA
HETATM   28  C1  UNL     1       1.142   4.505  -0.466  1.00  0.00     0.204 C 
ENDBRANCH   1  27
TORSDOF 3
