REMARK  5 active torsions:
REMARK  status: ('A' for Active; 'I' for Inactive)
REMARK    1  A    between atoms: C3_3  and  C4_4 
REMARK    2  A    between atoms: C4_4  and  C11_11 
REMARK    3  A    between atoms: C14_16  and  N3_17 
REMARK    4  A    between atoms: C15_19  and  N5_20 
REMARK    5  A    between atoms: N5_20  and  C16_21 
ROOT
HETATM    1  C1  UNL     1      -0.329   0.188   2.234  1.00  0.00     0.051 C 
HETATM    2  C2  UNL     1      -0.624   0.243   0.794  1.00  0.00    -0.025 A 
HETATM    3  C3  UNL     1      -1.549   0.686  -0.056  1.00  0.00    -0.047 A 
HETATM    4  C13 UNL     1      -1.219   0.389  -1.477  1.00  0.00     0.185 A 
HETATM    5  N1  UNL     1       0.055  -0.296  -1.395  1.00  0.00    -0.270 N 
HETATM    6  N2  UNL     1       0.794  -0.784  -2.473  1.00  0.00    -0.128 N 
HETATM    7  C14 UNL     1       2.028  -1.440  -2.214  1.00  0.00     0.714 A 
HETATM    8  N4  UNL     1       2.399  -1.549  -0.973  1.00  0.00    -0.043 NA
HETATM    9  C15 UNL     1       1.587  -1.023   0.082  1.00  0.00     0.176 A 
HETATM   10  C22 UNL     1       0.412  -0.387  -0.022  1.00  0.00     0.104 A 
HETATM   11  H13 UNL     1       0.483  -0.689  -3.461  1.00  0.00     0.206 HD
ENDROOT
BRANCH   3  12
HETATM   12  C4  UNL     1      -2.760   1.371   0.262  1.00  0.00     0.028 A 
HETATM   13  C5  UNL     1      -3.092   1.740   1.670  1.00  0.00     0.005 A 
HETATM   14  C6  UNL     1      -3.737   1.028   0.706  1.00  0.00     0.009 A 
HETATM   15  C7  UNL     1      -4.439   0.087  -0.449  1.00  0.00    -0.017 A 
HETATM   16  C10 UNL     1      -5.037   1.916  -0.051  1.00  0.00     0.002 A 
HETATM   17  C8  UNL     1      -5.504   0.767  -0.860  1.00  0.00     0.033 A 
HETATM   18  C12 UNL     1      -3.498  -0.687  -0.159  1.00  0.00     0.011 A 
HETATM   19  C11 UNL     1      -4.144   0.579  -0.039  1.00  0.00    -0.019 A 
HETATM   20  C9  UNL     1      -6.304   1.805  -0.947  1.00  0.00    -0.017 A 
ENDBRANCH   3  12
BRANCH   9  21
HETATM   21  N5  UNL     1       2.094  -1.206   1.398  1.00  0.00    -0.339 N 
HETATM   22  H16 UNL     1       1.986  -1.491   2.375  1.00  0.00     0.167 HD
BRANCH  21  23
HETATM   23  C16 UNL     1       3.471  -0.815   1.528  1.00  0.00     0.035 A 
HETATM   24  C17 UNL     1       4.006   0.353   1.955  1.00  0.00     0.029 A 
HETATM   25  C18 UNL     1       5.368   0.548   1.999  1.00  0.00     0.004 A 
HETATM   26  C19 UNL     1       6.264  -0.434   1.610  1.00  0.00     0.019 A 
HETATM   27  C20 UNL     1       5.756  -1.651   1.165  1.00  0.00     0.013 A 
HETATM   28 BR1  UNL     1       6.920  -3.067   0.604  1.00  0.00    -0.051 Br
HETATM   29  C21 UNL     1       4.388  -1.799   1.139  1.00  0.00     0.048 A 
ENDBRANCH  21  23
ENDBRANCH   9  21
BRANCH   7  30
HETATM   30  N3  UNL     1       2.772  -1.935  -3.317  1.00  0.00    -0.231 N 
HETATM   31  H14 UNL     1       3.300  -1.138  -3.770  1.00  0.00     0.174 HD
HETATM   32  H15 UNL     1       2.831  -2.900  -3.672  1.00  0.00     0.174 HD
ENDBRANCH   7  30
TORSDOF 5
