REMARK  4 active torsions:
REMARK  status: ('A' for Active; 'I' for Inactive)
REMARK    1  A    between atoms: C3_3  and  O1_4 
REMARK    2  A    between atoms: O1_4  and  C4_5 
REMARK    3  A    between atoms: C13_17  and  N4_18 
REMARK    4  A    between atoms: N4_18  and  C14_19 
ROOT
HETATM    1  C1  UNL     1      -2.419   2.111  -2.491  1.00  0.00     0.050 C 
HETATM    2  C2  UNL     1      -1.057   1.520  -2.286  1.00  0.00    -0.030 A 
HETATM    3  C3  UNL     1      -0.602   0.804  -1.233  1.00  0.00     0.070 A 
HETATM    4  C9  UNL     1       0.751   0.502  -1.585  1.00  0.00     0.164 A 
HETATM    5  C10 UNL     1       1.034   1.156  -2.858  1.00  0.00     0.054 A 
HETATM    6  C11 UNL     1      -0.025   1.761  -3.326  1.00  0.00     0.037 A 
HETATM    7  N2  UNL     1       2.390   1.239  -3.365  1.00  0.00    -0.245 NA
HETATM    8  C12 UNL     1       3.335   0.925  -2.490  1.00  0.00     0.235 C 
HETATM    9  N3  UNL     1       3.046   0.496  -1.185  1.00  0.00    -0.227 NA
HETATM   10  C13 UNL     1       1.848   0.299  -0.685  1.00  0.00     0.122 C 
ENDROOT
BRANCH  10  11
HETATM   11  N4  UNL     1       1.916  -0.087   0.671  1.00  0.00    -0.343 N 
HETATM   12  H17 UNL     1       0.984  -0.226   1.117  1.00  0.00     0.167 HD
BRANCH  11  13
HETATM   13  C14 UNL     1       3.121  -0.283   1.413  1.00  0.00     0.035 A 
HETATM   14  C15 UNL     1       3.819  -1.392   0.911  1.00  0.00     0.032 A 
HETATM   15  C16 UNL     1       5.012  -1.758   1.490  1.00  0.00     0.046 A 
HETATM   16  C17 UNL     1       5.574  -1.088   2.556  1.00  0.00     0.138 A 
HETATM   17  F1  UNL     1       6.744  -1.435   3.142  1.00  0.00    -0.204 F 
HETATM   18  C18 UNL     1       4.859  -0.001   3.023  1.00  0.00     0.074 A 
HETATM   19 CL1  UNL     1       5.440   0.965   4.385  1.00  0.00    -0.081 Cl
HETATM   20  C19 UNL     1       3.663   0.405   2.479  1.00  0.00     0.056 A 
ENDBRANCH  11  13
ENDBRANCH  10  11
BRANCH   3  21
HETATM   21  O1  UNL     1      -1.729   0.767  -0.399  1.00  0.00    -0.348 OA
BRANCH  21  22
HETATM   22  C4  UNL     1      -2.628  -0.322  -0.343  1.00  0.00     0.132 C 
HETATM   23  C5  UNL     1      -4.020   0.141   0.079  1.00  0.00     0.062 C 
HETATM   24  C6  UNL     1      -4.748  -1.085   0.590  1.00  0.00     0.272 C 
HETATM   25  N1  UNL     1      -4.300  -1.336   1.946  1.00  0.00     0.083 N 
HETATM   26  C7  UNL     1      -2.921  -0.870   2.044  1.00  0.00     0.272 C 
HETATM   27  H9  UNL     1      -4.939  -0.799   2.575  1.00  0.00     0.315 HD
HETATM   28  C8  UNL     1      -2.195  -1.294   0.762  1.00  0.00     0.062 C 
ENDBRANCH  21  22
ENDBRANCH   3  21
TORSDOF 4
