REMARK  8 active torsions:
REMARK  status: ('A' for Active; 'I' for Inactive)
REMARK    1  A    between atoms: O1_2  and  C2_3 
REMARK    2  A    between atoms: C5_6  and  O2_7 
REMARK    3  A    between atoms: O2_7  and  C6_8 
REMARK    4  A    between atoms: C6_8  and  N1_9 
REMARK    5  A    between atoms: C7_10  and  C8_11 
REMARK    6  A    between atoms: C10_13  and  N2_14 
REMARK    7  A    between atoms: N2_14  and  C11_15 
REMARK    8  A    between atoms: C18_24  and  N4_25 
ROOT
HETATM    1  C8  UNL     1      -0.789   0.395   0.112  1.00  0.00     0.048 C 
HETATM    2  C9  UNL     1       0.061  -0.490   0.616  1.00  0.00     0.057 C 
HETATM    3  C10 UNL     1       1.399   0.144   0.760  1.00  0.00     0.290 C 
HETATM    4  C17 UNL     1       1.303   1.018   1.967  1.00  0.00     0.157 C 
HETATM    5  N3  UNL     1       0.333   1.799   1.662  1.00  0.00    -0.228 NA
HETATM    6  C18 UNL     1      -0.030   1.641   0.274  1.00  0.00     0.473 C 
HETATM    7  N5  UNL     1       1.272   1.180  -0.256  1.00  0.00     0.189 N 
HETATM    8  H19 UNL     1       1.084   0.795  -1.212  1.00  0.00     0.326 HD
ENDROOT
BRANCH   1   9
HETATM    9  C7  UNL     1      -2.093   0.039  -0.422  1.00  0.00     0.013 A 
HETATM   10  C5  UNL     1      -2.615  -1.207  -0.501  1.00  0.00     0.082 A 
HETATM   11  C4  UNL     1      -3.874  -1.449  -1.023  1.00  0.00     0.040 A 
HETATM   12  C3  UNL     1      -4.682  -0.438  -1.498  1.00  0.00     0.039 A 
HETATM   13  C2  UNL     1      -4.153   0.834  -1.420  1.00  0.00     0.069 A 
HETATM   14  C19 UNL     1      -2.892   1.056  -0.895  1.00  0.00     0.051 A 
BRANCH  10  15
HETATM   15  O2  UNL     1      -1.879  -2.287  -0.050  1.00  0.00    -0.321 OA
BRANCH  15  16
HETATM   16  C6  UNL     1      -2.393  -3.587  -0.118  1.00  0.00     0.441 C 
BRANCH  16  17
HETATM   17  N1  UNL     1      -1.453  -4.558   0.409  1.00  0.00     0.101 N 
HETATM   18  H8  UNL     1      -0.972  -4.135   1.222  1.00  0.00     0.315 HD
HETATM   19  H9  UNL     1      -1.934  -5.439   0.681  1.00  0.00     0.315 HD
ENDBRANCH  16  17
ENDBRANCH  15  16
ENDBRANCH  10  15
BRANCH  13  20
HETATM   20  O1  UNL     1      -4.993   1.830  -1.907  1.00  0.00    -0.356 OA
HETATM   21  C1  UNL     1      -4.519   3.173  -1.861  1.00  0.00     0.210 C 
ENDBRANCH  13  20
ENDBRANCH   1   9
BRANCH   6  22
HETATM   22  N4  UNL     1      -0.505   2.802  -0.346  1.00  0.00     0.146 N 
HETATM   23  H17 UNL     1      -1.059   3.379   0.333  1.00  0.00     0.319 HD
HETATM   24  H18 UNL     1       0.273   3.373  -0.711  1.00  0.00     0.319 HD
ENDBRANCH   6  22
BRANCH   3  25
HETATM   25  N2  UNL     1       2.510  -0.681   0.651  1.00  0.00    -0.348 N 
HETATM   26  H11 UNL     1       2.267  -1.699   0.472  1.00  0.00     0.163 HD
BRANCH  25  27
HETATM   27  C11 UNL     1       3.880  -0.402   0.735  1.00  0.00     0.031 A 
HETATM   28  C12 UNL     1       4.890  -1.333   0.605  1.00  0.00     0.029 A 
HETATM   29  C13 UNL     1       6.208  -0.987   0.700  1.00  0.00     0.004 A 
HETATM   30  C14 UNL     1       6.552   0.341   0.934  1.00  0.00     0.019 A 
HETATM   31  C15 UNL     1       5.573   1.307   1.070  1.00  0.00     0.013 A 
HETATM   32 BR1  UNL     1       6.140   3.090   1.387  1.00  0.00    -0.051 Br
HETATM   33  C16 UNL     1       4.243   0.921   0.969  1.00  0.00     0.048 A 
ENDBRANCH  25  27
ENDBRANCH   3  25
TORSDOF 8
