REMARK  5 active torsions:
REMARK  status: ('A' for Active; 'I' for Inactive)
REMARK    1  A    between atoms: C3_3  and  C4_4 
REMARK    2  A    between atoms: C4_4  and  C5_6 
REMARK    3  A    between atoms: C5_6  and  C6_7 
REMARK    4  A    between atoms: C9_10  and  O1_11 
REMARK    5  A    between atoms: C11_13  and  O2_14 
ROOT
HETATM    1  C6  UNL     1       1.189   0.057  -0.665  1.00  0.00    -0.044 C 
HETATM    2  C7  UNL     1      -0.100  -0.186  -1.243  1.00  0.00     0.067 C 
HETATM    3  C8  UNL     1      -1.118  -0.472  -0.171  1.00  0.00     0.017 C 
HETATM    4  C9  UNL     1      -2.163   0.196   0.287  1.00  0.00     0.100 C 
HETATM    5  C11 UNL     1      -3.033   1.361   0.274  1.00  0.00     0.132 C 
HETATM    6  C13 UNL     1      -2.318   1.962  -0.668  1.00  0.00     0.126 C 
HETATM    7  N1  UNL     1      -1.345   2.651  -0.155  1.00  0.00    -0.237 NA
HETATM    8  C14 UNL     1      -0.692   2.015   0.967  1.00  0.00     0.227 C 
HETATM    9  N2  UNL     1       0.429   1.382   1.252  1.00  0.00    -0.279 NA
HETATM   10  C15 UNL     1       1.421   1.192   0.178  1.00  0.00     0.185 C 
ENDROOT
BRANCH   1  11
HETATM   11  C5  UNL     1       2.184  -0.790  -0.911  1.00  0.00    -0.003 C 
BRANCH  11  12
HETATM   12  C4  UNL     1       2.973  -1.825  -0.750  1.00  0.00     0.022 C 
HETATM   13 BR1  UNL     1       2.771  -3.038   0.645  1.00  0.00    -0.050 Br
BRANCH  12  14
HETATM   14  C3  UNL     1       3.834  -1.615  -1.874  1.00  0.00     0.015 C 
HETATM   15  C2  UNL     1       5.084  -1.260  -1.624  1.00  0.00    -0.030 C 
HETATM   16  C1  UNL     1       5.351  -1.145  -0.159  1.00  0.00     0.036 C 
ENDBRANCH  12  14
ENDBRANCH  11  12
ENDBRANCH   1  11
BRANCH   4  17
HETATM   17  O1  UNL     1      -3.015  -0.260   1.322  1.00  0.00    -0.353 OA
HETATM   18  C10 UNL     1      -3.590  -1.538   1.111  1.00  0.00     0.210 C 
ENDBRANCH   4  17
BRANCH   5  19
HETATM   19  O2  UNL     1      -4.096   2.167   0.640  1.00  0.00    -0.351 OA
HETATM   20  C12 UNL     1      -4.686   1.876   1.916  1.00  0.00     0.210 C 
ENDBRANCH   5  19
TORSDOF 5
