REMARK  4 active torsions:
REMARK  status: ('A' for Active; 'I' for Inactive)
REMARK    1  A    between atoms: N1_1  and  C1_2 
REMARK    2  A    between atoms: C3_5  and  C4_6 
REMARK    3  A    between atoms: C14_17  and  N4_18 
REMARK    4  A    between atoms: N4_18  and  C15_19 
ROOT
HETATM    1  C1  UNL     1       2.664  -3.363   0.794  1.00  0.00     0.201 A 
HETATM    2  N2  UNL     1       1.531  -3.245   1.529  1.00  0.00    -0.230 NA
HETATM    3  C2  UNL     1       0.685  -2.255   1.199  1.00  0.00     0.135 A 
HETATM    4  C3  UNL     1       0.942  -1.397   0.169  1.00  0.00     0.029 A 
HETATM    5  C14 UNL     1       2.091  -1.520  -0.573  1.00  0.00     0.143 A 
HETATM    6  N5  UNL     1       2.932  -2.514  -0.235  1.00  0.00    -0.200 NA
ENDROOT
BRANCH   4   7
HETATM    7  C4  UNL     1      -0.023  -0.354  -0.139  1.00  0.00     0.041 C 
HETATM    8  C5  UNL     1      -1.366  -0.301  -0.175  1.00  0.00     0.010 C 
HETATM    9  C6  UNL     1      -2.100   0.946  -0.535  1.00  0.00     0.095 C 
HETATM   10  N3  UNL     1      -2.149  -1.450   0.124  1.00  0.00    -0.389 N 
HETATM   11  C7  UNL     1      -3.225   1.074   0.429  1.00  0.00    -0.045 A 
HETATM   12  C8  UNL     1      -3.608   2.339   0.825  1.00  0.00     0.008 A 
HETATM   13  C12 UNL     1      -3.899  -0.011   0.940  1.00  0.00    -0.034 A 
HETATM   14  C9  UNL     1      -4.654   2.566   1.725  1.00  0.00     0.001 A 
HETATM   15  C10 UNL     1      -5.343   1.495   2.249  1.00  0.00     0.001 A 
HETATM   16  C11 UNL     1      -4.925   0.251   1.824  1.00  0.00     0.009 A 
HETATM   17  C13 UNL     1      -3.548  -1.383   0.568  1.00  0.00     0.158 C 
HETATM   18  H13 UNL     1      -1.750  -2.406   0.038  1.00  0.00     0.159 HD
ENDBRANCH   4   7
BRANCH   5  19
HETATM   19  N4  UNL     1       2.340  -0.608  -1.651  1.00  0.00    -0.340 N 
HETATM   20  H14 UNL     1       2.013  -0.860  -2.605  1.00  0.00     0.167 HD
BRANCH  19  21
HETATM   21  C15 UNL     1       3.011   0.610  -1.449  1.00  0.00     0.033 A 
HETATM   22  C16 UNL     1       3.274   1.470  -2.511  1.00  0.00     0.031 A 
HETATM   23  C17 UNL     1       3.932   2.648  -2.261  1.00  0.00     0.026 A 
HETATM   24  C18 UNL     1       4.345   3.021  -1.006  1.00  0.00     0.034 A 
HETATM   25 CL1  UNL     1       5.183   4.527  -0.698  1.00  0.00    -0.084 Cl
HETATM   26  C19 UNL     1       4.113   2.208   0.096  1.00  0.00     0.026 A 
HETATM   27  C20 UNL     1       3.446   1.033  -0.213  1.00  0.00     0.031 A 
ENDBRANCH  19  21
ENDBRANCH   5  19
BRANCH   1  28
HETATM   28  N1  UNL     1       3.747  -4.307   0.897  1.00  0.00    -0.271 NA
HETATM   29  H1  UNL     1       3.337  -5.143   1.407  1.00  0.00     0.127 HD
HETATM   30  H2  UNL     1       3.508  -5.221   1.390  1.00  0.00     0.127 HD
ENDBRANCH   1  28
TORSDOF 4
