REMARK  0 active torsions:
REMARK  status: ('A' for Active; 'I' for Inactive)
ROOT
HETATM    1  C1  UNL     1       3.514  -0.436  -1.691  1.00  0.00     0.068 C 
HETATM    2  C2  UNL     1       2.547   0.621  -1.245  1.00  0.00     0.010 C 
HETATM    3  C3  UNL     1       2.657   1.959  -0.958  1.00  0.00     0.026 C 
HETATM    4  C4  UNL     1       1.709   3.051  -0.530  1.00  0.00     0.026 C 
HETATM    5  C5  UNL     1       0.459   2.736  -0.376  1.00  0.00     0.034 C 
HETATM    6 CL1  UNL     1      -0.011   4.416   0.061  1.00  0.00    -0.084 Cl
HETATM    7  C6  UNL     1      -0.819   2.145  -0.142  1.00  0.00     0.034 C 
HETATM    8  C7  UNL     1      -0.652   0.993   0.441  1.00  0.00    -0.016 C 
HETATM    9  C8  UNL     1      -1.918   0.570   0.532  1.00  0.00    -0.038 A 
HETATM   10  C9  UNL     1      -1.753  -0.564  -0.323  1.00  0.00    -0.026 A 
HETATM   11  C10 UNL     1      -0.670  -1.123  -1.033  1.00  0.00     0.060 C 
HETATM   12  C11 UNL     1       0.730  -1.430  -0.850  1.00  0.00     0.105 C 
HETATM   13  N1  UNL     1       1.586  -0.442  -1.017  1.00  0.00    -0.329 N 
HETATM   14  C12 UNL     1       1.755   0.020   0.259  1.00  0.00     0.135 A 
HETATM   15  C13 UNL     1       1.290   0.829   1.235  1.00  0.00     0.059 A 
HETATM   16  C14 UNL     1       0.154   0.083   1.054  1.00  0.00     0.116 A 
HETATM   17  N2  UNL     1      -0.302  -1.046   1.310  1.00  0.00    -0.238 NA
HETATM   18  S1  UNL     1       0.420  -2.450   2.047  1.00  0.00    -0.014 SA
HETATM   19  C15 UNL     1       1.770  -2.999   0.890  1.00  0.00     0.220 C 
HETATM   20  N3  UNL     1       1.236  -2.761  -0.484  1.00  0.00    -0.366 N 
HETATM   21  C16 UNL     1      -2.953  -1.367  -0.513  1.00  0.00     0.008 A 
HETATM   22  C17 UNL     1      -4.032  -0.944   0.132  1.00  0.00    -0.026 A 
HETATM   23  C18 UNL     1      -4.293   0.208   1.036  1.00  0.00     0.032 A 
HETATM   24  C19 UNL     1      -3.074   1.093   1.210  1.00  0.00     0.043 A 
HETATM   25  H12 UNL     1       1.031  -3.150  -1.427  1.00  0.00     0.162 HD
ENDROOT
TORSDOF 0
