REMARK  4 active torsions:
REMARK  status: ('A' for Active; 'I' for Inactive)
REMARK    1  A    between atoms: C2_2  and  C3_3 
REMARK    2  A    between atoms: C8_8  and  C9_9 
REMARK    3  A    between atoms: C10_11  and  B1_12 
REMARK    4  A    between atoms: C13_17  and  N3_18 
ROOT
HETATM    1  C3  UNL     1      -2.325   1.973  -0.085  1.00  0.00    -0.064 C 
HETATM    2  C4  UNL     1      -1.270   1.887   0.754  1.00  0.00    -0.014 C 
HETATM    3  C5  UNL     1      -0.189   1.023   0.334  1.00  0.00     0.058 C 
HETATM    4  C6  UNL     1       1.002   0.690   0.830  1.00  0.00     0.029 C 
HETATM    5  C7  UNL     1       1.770  -0.254   0.066  1.00  0.00     0.013 C 
HETATM    6  C8  UNL     1       2.755  -0.997  -0.248  1.00  0.00     0.043 C 
HETATM    7  N1  UNL     1       1.065  -1.059  -0.950  1.00  0.00    -0.343 N 
HETATM    8  C12 UNL     1      -0.360  -1.192  -0.658  1.00  0.00     0.156 A 
HETATM    9  N2  UNL     1      -0.508  -1.695   0.604  1.00  0.00    -0.045 NA
HETATM   10  C13 UNL     1      -1.736  -1.826   1.168  1.00  0.00     0.724 A 
HETATM   11  N4  UNL     1      -2.850  -1.459   0.497  1.00  0.00    -0.045 NA
HETATM   12  C14 UNL     1      -2.693  -0.969  -0.736  1.00  0.00     0.152 A 
HETATM   13  C15 UNL     1      -1.488  -0.814  -1.376  1.00  0.00     0.031 A 
HETATM   14  C16 UNL     1      -0.955  -0.422  -2.705  1.00  0.00     0.056 C 
HETATM   15  N5  UNL     1      -3.811  -0.470  -1.465  1.00  0.00    -0.373 N 
HETATM   16  C17 UNL     1      -4.288   0.930  -1.284  1.00  0.00     0.126 C 
HETATM   17  C18 UNL     1      -3.155   1.889  -1.282  1.00  0.00     0.057 C 
HETATM   18  H13 UNL     1       0.907  -1.637  -1.792  1.00  0.00     0.167 HD
HETATM   19  H19 UNL     1      -3.984  -1.363  -1.974  1.00  0.00     0.161 HD
ENDROOT
BRANCH   6  20
HETATM   20  C9  UNL     1       3.987  -1.125   0.495  1.00  0.00     0.005 A 
HETATM   21 CL1  UNL     1       4.177  -0.187   1.991  1.00  0.00    -0.187 Cl
HETATM   22  C10 UNL     1       5.124  -1.287   1.119  1.00  0.00     0.067 A 
BRANCH  22  23
HETATM   23  B1  UNL     1       6.528  -1.866   1.343  1.00  0.00     0.180 B 
HETATM   24  C11 UNL     1       7.807  -1.010   0.965  1.00  0.00    -0.057 C 
HETATM   25  H9  UNL     1       6.648  -2.625   2.252  1.00  0.00    -0.025 HD
ENDBRANCH  22  23
ENDBRANCH   6  20
BRANCH   1  26
HETATM   26  C2  UNL     1      -3.286   2.894   0.603  1.00  0.00    -0.002 C 
HETATM   27  C1  UNL     1      -4.431   3.533   0.638  1.00  0.00     0.014 C 
ENDBRANCH   1  26
BRANCH  10  28
HETATM   28  N3  UNL     1      -1.862  -2.356   2.485  1.00  0.00    -0.231 N 
HETATM   29  H14 UNL     1      -1.867  -3.339   2.856  1.00  0.00     0.174 HD
HETATM   30  H15 UNL     1      -1.965  -1.593   3.167  1.00  0.00     0.174 HD
ENDBRANCH  10  28
TORSDOF 4
