REMARK  7 active torsions:
REMARK  status: ('A' for Active; 'I' for Inactive)
REMARK    1  A    between atoms: C2_2  and  C3_3 
REMARK    2  A    between atoms: C4_4  and  C5_5 
REMARK    3  A    between atoms: C5_5  and  N1_6 
REMARK    4  A    between atoms: C7_8  and  C8_9 
REMARK    5  A    between atoms: C12_14  and  N2_15 
REMARK    6  A    between atoms: N2_15  and  C13_16 
REMARK    7  A    between atoms: C15_18  and  C16_19 
ROOT
HETATM    1  N1  UNL     1       1.790   0.765   0.427  1.00  0.00    -0.368 N 
HETATM    2  C6  UNL     1       2.195  -0.532   0.868  1.00  0.00     0.098 C 
HETATM    3  C7  UNL     1       1.425  -1.598   0.779  1.00  0.00    -0.002 C 
HETATM    4  C9  UNL     1       0.073  -1.769   0.260  1.00  0.00     0.005 A 
HETATM    5  C10 UNL     1      -0.652  -2.849   0.154  1.00  0.00     0.017 A 
HETATM    6  C11 UNL     1      -1.951  -2.527  -0.429  1.00  0.00     0.033 A 
HETATM    7  C12 UNL     1      -2.000  -1.233  -0.674  1.00  0.00     0.062 A 
HETATM    8  C18 UNL     1      -0.725  -0.665  -0.256  1.00  0.00     0.090 A 
HETATM    9  N3  UNL     1      -0.493   0.595  -0.379  1.00  0.00    -0.267 NA
HETATM   10  C19 UNL     1       0.623   1.416  -0.067  1.00  0.00     0.273 C 
ENDROOT
BRANCH   7  11
HETATM   11  N2  UNL     1      -3.164  -0.655  -1.247  1.00  0.00    -0.358 N 
HETATM   12  H13 UNL     1      -3.219  -0.550  -2.292  1.00  0.00     0.166 HD
BRANCH  11  13
HETATM   13  C13 UNL     1      -4.375  -0.138  -0.719  1.00  0.00     0.005 C 
HETATM   14  C14 UNL     1      -5.115  -1.222  -0.027  1.00  0.00     0.068 C 
HETATM   15  C15 UNL     1      -4.781   1.113  -0.823  1.00  0.00     0.022 C 
BRANCH  15  16
HETATM   16  C16 UNL     1      -6.005   1.689  -0.303  1.00  0.00    -0.003 C 
HETATM   17  C17 UNL     1      -6.368   2.935  -0.430  1.00  0.00     0.259 C 
HETATM   18 CL1  UNL     1      -5.176   3.874  -1.329  1.00  0.00    -0.251 Cl
ENDBRANCH  15  16
ENDBRANCH  11  13
ENDBRANCH   7  11
BRANCH   3  19
HETATM   19  C8  UNL     1       2.021  -2.861   1.292  1.00  0.00     0.263 C 
HETATM   20  F1  UNL     1       3.296  -2.504   1.737  1.00  0.00    -0.251 F 
ENDBRANCH   3  19
BRANCH   1  21
HETATM   21  C5  UNL     1       2.925   1.700   0.508  1.00  0.00     0.151 C 
BRANCH  21  22
HETATM   22  C4  UNL     1       3.981   1.379  -0.483  1.00  0.00    -0.007 C 
HETATM   23  C3  UNL     1       5.255   1.055  -0.346  1.00  0.00    -0.006 C 
BRANCH  23  24
HETATM   24  C2  UNL     1       5.885   0.954   0.961  1.00  0.00    -0.027 C 
HETATM   25  C1  UNL     1       7.166   0.627   1.089  1.00  0.00     0.031 C 
ENDBRANCH  23  24
ENDBRANCH  21  22
ENDBRANCH   1  21
TORSDOF 7
