REMARK  9 active torsions:
REMARK  status: ('A' for Active; 'I' for Inactive)
REMARK    1  A    between atoms: C2_2  and  C3_3 
REMARK    2  A    between atoms: C3_3  and  C4_4 
REMARK    3  A    between atoms: C4_4  and  C6_6 
REMARK    4  A    between atoms: C6_6  and  C7_7 
REMARK    5  A    between atoms: C7_7  and  N1_10 
REMARK    6  A    between atoms: N1_10  and  C10_11 
REMARK    7  A    between atoms: C12_13  and  N2_14 
REMARK    8  A    between atoms: N2_14  and  C13_15 
REMARK    9  A    between atoms: C19_23  and  N4_24 
ROOT
HETATM    1  C10 UNL     1      -0.615  -0.170   0.814  1.00  0.00     0.150 A 
HETATM    2  C11 UNL     1       0.669  -0.656   0.901  1.00  0.00     0.102 A 
HETATM    3  C12 UNL     1       1.789   0.080   0.578  1.00  0.00     0.150 A 
HETATM    4  N3  UNL     1       1.486   1.312   0.175  1.00  0.00    -0.045 NA
HETATM    5  C19 UNL     1       0.294   1.864   0.061  1.00  0.00     0.724 A 
HETATM    6  N5  UNL     1      -0.774   1.100   0.389  1.00  0.00    -0.045 NA
ENDROOT
BRANCH   1   7
HETATM    7  N1  UNL     1      -1.727  -0.987   1.163  1.00  0.00    -0.344 N 
HETATM    8  H12 UNL     1      -1.871  -0.803   2.190  1.00  0.00     0.167 HD
BRANCH   7   9
HETATM    9  C7  UNL     1      -2.312  -1.774   0.137  1.00  0.00     0.008 C 
HETATM   10  C8  UNL     1      -2.266  -3.086   0.240  1.00  0.00    -0.006 C 
HETATM   11  C9  UNL     1      -2.792  -4.111  -0.675  1.00  0.00     0.038 C 
BRANCH   9  12
HETATM   12  C6  UNL     1      -2.945  -1.060  -0.997  1.00  0.00     0.080 C 
BRANCH  12  13
HETATM   13  C4  UNL     1      -4.064  -0.175  -0.529  1.00  0.00     0.044 C 
HETATM   14  C5  UNL     1      -5.178  -0.866   0.169  1.00  0.00     0.031 C 
BRANCH  13  15
HETATM   15  C3  UNL     1      -4.096   1.133  -0.704  1.00  0.00    -0.095 C 
BRANCH  15  16
HETATM   16  C2  UNL     1      -3.875   2.410  -0.599  1.00  0.00    -0.105 C 
HETATM   17  C1  UNL     1      -3.727   3.673  -0.251  1.00  0.00     0.106 C 
ENDBRANCH  15  16
ENDBRANCH  13  15
ENDBRANCH  12  13
ENDBRANCH   9  12
ENDBRANCH   7   9
ENDBRANCH   1   7
BRANCH   3  18
HETATM   18  N2  UNL     1       3.075  -0.488   0.693  1.00  0.00    -0.340 N 
HETATM   19  H14 UNL     1       3.117  -1.495   1.035  1.00  0.00     0.167 HD
BRANCH  18  20
HETATM   20  C13 UNL     1       4.322   0.096   0.414  1.00  0.00     0.033 A 
HETATM   21  C14 UNL     1       5.519  -0.612   0.583  1.00  0.00     0.031 A 
HETATM   22  C15 UNL     1       6.746  -0.065   0.318  1.00  0.00     0.026 A 
HETATM   23  C16 UNL     1       6.871   1.216  -0.129  1.00  0.00     0.034 A 
HETATM   24 CL1  UNL     1       8.477   1.824  -0.439  1.00  0.00    -0.084 Cl
HETATM   25  C17 UNL     1       5.742   1.949  -0.311  1.00  0.00     0.026 A 
HETATM   26  C18 UNL     1       4.513   1.382  -0.039  1.00  0.00     0.031 A 
ENDBRANCH  18  20
ENDBRANCH   3  18
BRANCH   5  27
HETATM   27  N4  UNL     1       0.085   3.206  -0.386  1.00  0.00    -0.231 N 
HETATM   28  H19 UNL     1      -0.007   4.087   0.186  1.00  0.00     0.174 HD
HETATM   29  H20 UNL     1      -0.020   3.613  -1.338  1.00  0.00     0.174 HD
ENDBRANCH   5  27
TORSDOF 9
