REMARK  8 active torsions:
REMARK  status: ('A' for Active; 'I' for Inactive)
REMARK    1  A    between atoms: N1_1  and  C1_2 
REMARK    2  A    between atoms: C1_2  and  C2_3 
REMARK    3  A    between atoms: C7_8  and  C8_9 
REMARK    4  A    between atoms: C11_12  and  C12_13 
REMARK    5  A    between atoms: C12_13  and  C13_14 
REMARK    6  A    between atoms: C14_15  and  C15_16 
REMARK    7  A    between atoms: C15_16  and  C16_18 
REMARK    8  A    between atoms: C16_18  and  N2_19 
ROOT
HETATM    1  C8  UNL     1      -2.240  -0.197   0.594  1.00  0.00     0.040 C 
HETATM    2  C9  UNL     1      -1.371  -1.107   0.198  1.00  0.00     0.039 C 
HETATM    3  C10 UNL     1       0.019  -0.775   0.448  1.00  0.00    -0.030 C 
HETATM    4  C11 UNL     1       1.303  -0.531   0.606  1.00  0.00    -0.066 C 
HETATM    5  C17 UNL     1       1.132   0.515   1.681  1.00  0.00     0.065 C 
HETATM    6  C18 UNL     1      -0.243   0.028   1.710  1.00  0.00     0.119 C 
HETATM    7  N3  UNL     1      -1.351   0.802   1.177  1.00  0.00    -0.380 N 
HETATM    8  H22 UNL     1      -1.510   1.857   1.193  1.00  0.00     0.160 HD
ENDROOT
BRANCH   1   9
HETATM    9  C7  UNL     1      -3.678  -0.031   0.586  1.00  0.00    -0.002 A 
HETATM   10  C2  UNL     1      -4.626  -0.919   0.157  1.00  0.00    -0.018 A 
HETATM   11  C3  UNL     1      -5.989  -0.637   0.190  1.00  0.00     0.010 A 
HETATM   12  C4  UNL     1      -6.456   0.562   0.661  1.00  0.00     0.001 A 
HETATM   13  C5  UNL     1      -5.531   1.467   1.097  1.00  0.00     0.001 A 
HETATM   14  C6  UNL     1      -4.211   1.154   1.048  1.00  0.00     0.014 A 
BRANCH  10  15
HETATM   15  C1  UNL     1      -4.240  -2.236  -0.388  1.00  0.00     0.306 C 
BRANCH  15  16
HETATM   16  N1  UNL     1      -3.798  -2.162  -1.773  1.00  0.00     0.082 N 
HETATM   17  H1  UNL     1      -3.228  -1.312  -1.983  1.00  0.00     0.313 HD
HETATM   18  H2  UNL     1      -4.612  -2.247  -2.436  1.00  0.00     0.313 HD
ENDBRANCH  15  16
ENDBRANCH  10  15
ENDBRANCH   1   9
BRANCH   4  19
HETATM   19  C12 UNL     1       2.517  -1.033  -0.081  1.00  0.00     0.061 C 
BRANCH  19  20
HETATM   20  C13 UNL     1       3.256   0.096  -0.710  1.00  0.00    -0.025 C 
HETATM   21  C14 UNL     1       4.491   0.512  -0.491  1.00  0.00    -0.009 C 
BRANCH  21  22
HETATM   22  C15 UNL     1       5.280   1.610  -1.071  1.00  0.00     0.132 C 
HETATM   23 CL1  UNL     1       4.545   2.078  -2.605  1.00  0.00    -0.119 Cl
BRANCH  22  24
HETATM   24  C16 UNL     1       6.734   1.218  -1.273  1.00  0.00     0.290 C 
BRANCH  24  25
HETATM   25  N2  UNL     1       7.284   0.869   0.023  1.00  0.00     0.080 N 
HETATM   26  H17 UNL     1       7.252  -0.187   0.135  1.00  0.00     0.312 HD
HETATM   27  H18 UNL     1       8.299   1.109  -0.004  1.00  0.00     0.312 HD
ENDBRANCH  24  25
ENDBRANCH  22  24
ENDBRANCH  21  22
ENDBRANCH  19  20
ENDBRANCH   4  19
TORSDOF 8
