REMARK  5 active torsions:
REMARK  status: ('A' for Active; 'I' for Inactive)
REMARK    1  A    between atoms: C1_2  and  C2_3 
REMARK    2  A    between atoms: C3_4  and  C4_5 
REMARK    3  A    between atoms: C4_5  and  N1_6 
REMARK    4  A    between atoms: N1_6  and  C5_7 
REMARK    5  A    between atoms: C9_12  and  C10_13 
ROOT
HETATM    1  C5  UNL     1       3.008  -0.899  -0.768  1.00  0.00     0.122 C 
HETATM    2  C6  UNL     1       1.998  -1.753  -0.752  1.00  0.00     0.045 C 
HETATM    3  C7  UNL     1       0.583  -2.200  -0.509  1.00  0.00     0.179 C 
HETATM    4  N2  UNL     1      -0.177  -1.095   0.039  1.00  0.00    -0.300 NA
HETATM    5  C8  UNL     1      -1.435  -1.049  -0.021  1.00  0.00     0.111 C 
HETATM    6  C9  UNL     1      -1.978   0.184   0.613  1.00  0.00     0.147 C 
HETATM    7  N4  UNL     1      -1.626   1.341  -0.169  1.00  0.00    -0.373 N 
HETATM    8  C17 UNL     1      -0.207   1.342  -0.239  1.00  0.00     0.204 C 
HETATM    9  N5  UNL     1       0.944   1.605   0.323  1.00  0.00    -0.237 NA
HETATM   10  C18 UNL     1       2.151   1.317  -0.418  1.00  0.00     0.236 C 
HETATM   11  N6  UNL     1       2.085   0.045  -0.263  1.00  0.00    -0.225 NA
HETATM   12  H21 UNL     1      -2.187   2.086  -0.632  1.00  0.00     0.161 HD
ENDROOT
BRANCH   6  13
HETATM   13  C10 UNL     1      -3.513   0.112   0.680  1.00  0.00     0.138 C 
HETATM   14  C11 UNL     1      -4.060  -0.006  -0.689  1.00  0.00     0.057 C 
HETATM   15  C12 UNL     1      -5.407  -0.535  -0.838  1.00  0.00    -0.024 C 
HETATM   16  C13 UNL     1      -6.595  -0.501  -0.205  1.00  0.00    -0.004 C 
HETATM   17  C14 UNL     1      -7.000   0.189   1.044  1.00  0.00     0.001 C 
HETATM   18  C15 UNL     1      -6.412   1.019   1.907  1.00  0.00     0.019 C 
HETATM   19  C16 UNL     1      -5.063   1.628   1.993  1.00  0.00     0.111 C 
HETATM   20  N3  UNL     1      -3.926   1.217   1.476  1.00  0.00    -0.294 NA
ENDBRANCH   6  13
BRANCH   1  21
HETATM   21  N1  UNL     1       4.394  -0.931  -1.142  1.00  0.00    -0.372 N 
HETATM   22  H7  UNL     1       4.631  -0.886  -2.158  1.00  0.00     0.161 HD
BRANCH  21  23
HETATM   23  C4  UNL     1       5.389  -1.025  -0.070  1.00  0.00     0.148 C 
BRANCH  23  24
HETATM   24  C3  UNL     1       5.397   0.232   0.718  1.00  0.00    -0.011 C 
HETATM   25  C2  UNL     1       6.423   1.025   0.870  1.00  0.00    -0.018 C 
BRANCH  25  26
HETATM   26  C1  UNL     1       7.791   0.927   0.346  1.00  0.00     0.112 C 
HETATM   27 BR1  UNL     1       9.003   0.863   1.873  1.00  0.00    -0.092 Br
ENDBRANCH  25  26
ENDBRANCH  23  24
ENDBRANCH  21  23
ENDBRANCH   1  21
TORSDOF 5
