REMARK  3 active torsions:
REMARK  status: ('A' for Active; 'I' for Inactive)
REMARK    1  A    between atoms: C12_12  and  C13_13 
REMARK    2  A    between atoms: C19_21  and  N2_22 
REMARK    3  A    between atoms: N3_24  and  N4_25 
ROOT
HETATM    1  C1  UNL     1      -4.637   2.445   0.428  1.00  0.00     0.049 C 
HETATM    2  C2  UNL     1      -4.209   1.073   0.062  1.00  0.00    -0.053 A 
HETATM    3  C3  UNL     1      -5.165   0.219  -0.472  1.00  0.00     0.007 A 
HETATM    4  C4  UNL     1      -4.872  -1.073  -0.844  1.00  0.00     0.003 A 
HETATM    5  C5  UNL     1      -3.574  -1.506  -0.669  1.00  0.00     0.032 A 
HETATM    6  C6  UNL     1      -2.603  -0.656  -0.132  1.00  0.00     0.058 A 
HETATM    7  C7  UNL     1      -2.909   0.639   0.238  1.00  0.00    -0.020 A 
HETATM    8  C8  UNL     1      -2.082   1.727   0.820  1.00  0.00     0.069 C 
HETATM    9  C9  UNL     1      -0.649   1.554   0.538  1.00  0.00    -0.012 C 
HETATM   10  C10 UNL     1       0.149   0.504   0.523  1.00  0.00    -0.027 A 
HETATM   11  C11 UNL     1       1.517   0.869   0.175  1.00  0.00     0.042 A 
HETATM   12  C12 UNL     1       2.470  -0.043   0.107  1.00  0.00     0.069 A 
HETATM   13  N1  UNL     1       2.107  -1.390   0.386  1.00  0.00    -0.233 NA
HETATM   14  C19 UNL     1       0.921  -1.761   0.696  1.00  0.00     0.128 A 
HETATM   15  C20 UNL     1      -0.248  -0.896   0.817  1.00  0.00     0.209 A 
HETATM   16  N3  UNL     1      -1.345  -1.320  -0.046  1.00  0.00    -0.282 N 
ENDROOT
BRANCH  12  17
HETATM   17  C13 UNL     1       3.861   0.230  -0.233  1.00  0.00    -0.007 A 
HETATM   18  C14 UNL     1       4.812  -0.780  -0.286  1.00  0.00     0.015 A 
HETATM   19  C15 UNL     1       6.130  -0.536  -0.606  1.00  0.00     0.024 A 
HETATM   20  C16 UNL     1       6.569   0.731  -0.889  1.00  0.00     0.034 A 
HETATM   21 CL1  UNL     1       8.257   0.965  -1.287  1.00  0.00    -0.084 Cl
HETATM   22  C17 UNL     1       5.665   1.753  -0.848  1.00  0.00     0.024 A 
HETATM   23  C18 UNL     1       4.353   1.477  -0.525  1.00  0.00     0.015 A 
ENDBRANCH  12  17
BRANCH  14  24
HETATM   24  N2  UNL     1       0.699  -3.160   0.952  1.00  0.00    -0.385 N 
HETATM   25  H15 UNL     1       0.811  -3.880   0.182  1.00  0.00     0.157 HD
HETATM   26  H16 UNL     1       0.420  -3.679   1.837  1.00  0.00     0.157 HD
ENDBRANCH  14  24
BRANCH  16  27
HETATM   27  N4  UNL     1      -1.250  -2.428  -0.871  1.00  0.00    -0.342 N 
HETATM   28  H18 UNL     1      -1.508  -3.328  -0.467  1.00  0.00     0.177 HD
HETATM   29  H19 UNL     1      -1.540  -2.261  -1.848  1.00  0.00     0.177 HD
ENDBRANCH  16  27
TORSDOF 3
