REMARK  1 active torsions:
REMARK  status: ('A' for Active; 'I' for Inactive)
REMARK    1  A    between atoms: C20_26  and  N5_27 
ROOT
HETATM    1  C1  UNL     1      -4.482  -1.273  -0.552  1.00  0.00     0.036 C 
HETATM    2  C2  UNL     1      -3.278  -2.084  -0.207  1.00  0.00    -0.023 C 
HETATM    3  C3  UNL     1      -2.180  -2.048   0.481  1.00  0.00    -0.050 C 
HETATM    4  C4  UNL     1      -0.867  -2.395   1.116  1.00  0.00     0.067 C 
HETATM    5  C5  UNL     1      -0.316  -3.680   0.674  1.00  0.00    -0.003 C 
HETATM    6  C6  UNL     1       0.932  -3.523   0.137  1.00  0.00     0.112 C 
HETATM    7  N1  UNL     1       1.450  -2.209   0.108  1.00  0.00    -0.272 NA
HETATM    8  C7  UNL     1       2.016  -1.604  -0.861  1.00  0.00     0.130 C 
HETATM    9  C8  UNL     1       2.613  -0.284  -1.112  1.00  0.00     0.013 A 
HETATM   10  C9  UNL     1       3.970  -0.499  -1.195  1.00  0.00     0.039 A 
HETATM   11  C10 UNL     1       4.961   0.464  -1.424  1.00  0.00     0.037 A 
HETATM   12 CL1  UNL     1       6.683   0.169  -1.526  1.00  0.00    -0.084 Cl
HETATM   13  C11 UNL     1       4.468   1.742  -1.576  1.00  0.00     0.068 A 
HETATM   14  C12 UNL     1       3.112   1.974  -1.496  1.00  0.00     0.145 A 
HETATM   15  F1  UNL     1       2.803   3.291  -1.677  1.00  0.00    -0.204 F 
HETATM   16  C13 UNL     1       2.159   1.005  -1.269  1.00  0.00     0.084 A 
HETATM   17  N2  UNL     1       0.874   1.674  -1.258  1.00  0.00    -0.335 N 
HETATM   18  C14 UNL     1      -0.028   1.775  -0.133  1.00  0.00     0.176 A 
HETATM   19  C15 UNL     1      -0.990   1.085   0.392  1.00  0.00     0.104 A 
HETATM   20  C16 UNL     1      -1.404  -0.172  -0.191  1.00  0.00    -0.021 C 
HETATM   21  C17 UNL     1      -1.060  -0.702  -1.510  1.00  0.00     0.051 C 
HETATM   22  C18 UNL     1      -2.214  -0.588   0.819  1.00  0.00    -0.024 C 
HETATM   23  C19 UNL     1      -2.642   0.471   1.735  1.00  0.00     0.189 C 
HETATM   24  N3  UNL     1      -1.540   1.446   1.640  1.00  0.00    -0.270 N 
HETATM   25  N4  UNL     1      -1.057   2.553   2.339  1.00  0.00    -0.128 N 
HETATM   26  C20 UNL     1      -0.003   3.290   1.734  1.00  0.00     0.714 A 
HETATM   27  N6  UNL     1       0.484   2.926   0.568  1.00  0.00    -0.043 NA
HETATM   28  H12 UNL     1       0.507   2.161  -2.101  1.00  0.00     0.168 HD
HETATM   29  H18 UNL     1      -1.548   2.700   3.242  1.00  0.00     0.206 HD
ENDROOT
BRANCH  26  30
HETATM   30  N5  UNL     1       0.422   4.410   2.521  1.00  0.00    -0.231 N 
HETATM   31  H19 UNL     1       0.779   4.377   3.493  1.00  0.00     0.174 HD
HETATM   32  H20 UNL     1       0.424   5.417   2.208  1.00  0.00     0.174 HD
ENDBRANCH  26  30
TORSDOF 1
