REMARK  4 active torsions:
REMARK  status: ('A' for Active; 'I' for Inactive)
REMARK    1  A    between atoms: N1_2  and  C2_3 
REMARK    2  A    between atoms: C4_6  and  C5_7 
REMARK    3  A    between atoms: C6_8  and  N3_9 
REMARK    4  A    between atoms: N4_21  and  C18_22 
ROOT
HETATM    1  C2  UNL     1       1.591  -1.911   0.924  1.00  0.00     0.739 A 
HETATM    2  N2  UNL     1       0.433  -1.324   0.591  1.00  0.00    -0.059 NA
HETATM    3  C3  UNL     1       0.474  -0.062   0.143  1.00  0.00     0.115 A 
HETATM    4  C4  UNL     1      -0.467   0.832  -0.283  1.00  0.00     0.004 A 
HETATM    5  C15 UNL     1       0.235   1.997  -0.632  1.00  0.00     0.017 A 
HETATM    6  C16 UNL     1       1.575   1.778  -0.407  1.00  0.00     0.035 A 
HETATM    7  C17 UNL     1       1.805   0.511   0.078  1.00  0.00     0.089 A 
HETATM    8  N4  UNL     1       2.960  -0.061   0.405  1.00  0.00    -0.220 N 
HETATM    9  N5  UNL     1       2.766  -1.297   0.828  1.00  0.00     0.026 NA
ENDROOT
BRANCH   4  10
HETATM   10  C5  UNL     1      -1.927   0.646  -0.364  1.00  0.00    -0.019 C 
HETATM   11  C6  UNL     1      -2.427  -0.037   0.785  1.00  0.00     0.021 C 
HETATM   12  C7  UNL     1      -3.725  -0.006   0.357  1.00  0.00     0.142 C 
HETATM   13  C8  UNL     1      -4.996   0.037  -0.039  1.00  0.00    -0.142 C 
HETATM   14  C9  UNL     1      -6.027   0.083  -0.379  1.00  0.00    -0.009 A 
HETATM   15  C10 UNL     1      -7.288   0.151  -0.819  1.00  0.00     0.003 A 
HETATM   16  C11 UNL     1      -6.481   0.748  -1.745  1.00  0.00     0.072 A 
HETATM   17  C12 UNL     1      -5.173   1.179  -2.233  1.00  0.00    -0.017 C 
HETATM   18  C13 UNL     1      -3.837   1.257  -2.038  1.00  0.00    -0.025 C 
HETATM   19  C14 UNL     1      -2.464   1.240  -1.651  1.00  0.00     0.068 C 
BRANCH  11  20
HETATM   20  N3  UNL     1      -1.759  -0.503   1.869  1.00  0.00    -0.401 N 
HETATM   21  H5  UNL     1      -1.123   0.168   2.376  1.00  0.00     0.156 HD
HETATM   22  H6  UNL     1      -2.052  -1.520   1.971  1.00  0.00     0.156 HD
ENDBRANCH  11  20
ENDBRANCH   4  10
BRANCH   1  23
HETATM   23  N1  UNL     1       1.576  -3.238   1.405  1.00  0.00    -0.226 N 
HETATM   24  C1  UNL     1       2.668  -4.066   1.824  1.00  0.00     0.165 C 
HETATM   25  H4  UNL     1       0.697  -3.757   1.502  1.00  0.00     0.177 HD
ENDBRANCH   1  23
BRANCH   8  26
HETATM   26  C18 UNL     1       4.267   0.480   0.360  1.00  0.00     0.042 A 
HETATM   27  C19 UNL     1       4.845   1.601   0.059  1.00  0.00     0.029 A 
HETATM   28  C20 UNL     1       6.289   1.692   0.170  1.00  0.00     0.022 A 
HETATM   29  C21 UNL     1       6.600   0.482   0.586  1.00  0.00     0.017 A 
HETATM   30 CL1  UNL     1       8.204  -0.155   0.944  1.00  0.00    -0.089 Cl
HETATM   31  C22 UNL     1       5.426  -0.385   0.744  1.00  0.00     0.110 A 
ENDBRANCH   8  26
TORSDOF 4
