REMARK  2 active torsions:
REMARK  status: ('A' for Active; 'I' for Inactive)
REMARK    1  A    between atoms: C7_9  and  C8_10 
REMARK    2  A    between atoms: C23_27  and  N3_28 
ROOT
HETATM    1  C8  UNL     1      -1.077   0.184  -0.704  1.00  0.00     0.098 C 
HETATM    2  C9  UNL     1       0.124  -0.581  -0.718  1.00  0.00    -0.003 C 
HETATM    3  C10 UNL     1       1.050   0.153  -1.675  1.00  0.00     0.153 C 
HETATM    4  N1  UNL     1       1.868   1.139  -1.045  1.00  0.00    -0.219 NA
HETATM    5  N2  UNL     1       1.318   1.805   0.058  1.00  0.00    -0.144 N 
HETATM    6  C11 UNL     1       1.895   2.040   1.417  1.00  0.00     0.166 C 
HETATM    7  C12 UNL     1       3.091   1.147   1.602  1.00  0.00     0.061 C 
HETATM    8  C13 UNL     1       2.930  -0.146   0.868  1.00  0.00    -0.045 A 
HETATM    9  C14 UNL     1       4.136  -0.433   0.207  1.00  0.00     0.008 A 
HETATM   10  C15 UNL     1       4.233  -1.456  -0.706  1.00  0.00     0.001 A 
HETATM   11  C16 UNL     1       3.139  -2.226  -0.995  1.00  0.00     0.012 A 
HETATM   12  C17 UNL     1       1.992  -1.906  -0.323  1.00  0.00    -0.025 A 
HETATM   13  C18 UNL     1       0.832  -2.661  -0.630  1.00  0.00     0.024 A 
HETATM   14  C19 UNL     1       0.077  -1.932   0.271  1.00  0.00    -0.025 A 
HETATM   15  C20 UNL     1      -0.538  -1.124   1.193  1.00  0.00     0.013 A 
HETATM   16  C21 UNL     1       0.744  -0.520   1.302  1.00  0.00     0.013 A 
HETATM   17  C22 UNL     1       1.851  -0.892   0.609  1.00  0.00    -0.019 A 
HETATM   18  C23 UNL     1      -0.059   2.326  -0.059  1.00  0.00     0.711 C 
HETATM   19  N4  UNL     1      -1.070   1.701  -0.717  1.00  0.00    -0.063 NA
HETATM   20  H8  UNL     1       2.243   1.759  -1.775  1.00  0.00     0.147 HD
ENDROOT
BRANCH   1  21
HETATM   21  C7  UNL     1      -2.404  -0.456  -0.668  1.00  0.00     0.038 A 
HETATM   22  C2  UNL     1      -3.410   0.074   0.153  1.00  0.00    -0.045 A 
HETATM   23  C1  UNL     1      -3.169   1.252   1.028  1.00  0.00     0.049 C 
HETATM   24  C3  UNL     1      -4.649  -0.528   0.137  1.00  0.00     0.031 A 
HETATM   25  C4  UNL     1      -4.966  -1.624  -0.638  1.00  0.00     0.037 A 
HETATM   26 CL1  UNL     1      -6.558  -2.375  -0.640  1.00  0.00    -0.084 Cl
HETATM   27  C5  UNL     1      -3.969  -2.148  -1.453  1.00  0.00     0.067 A 
HETATM   28  C6  UNL     1      -2.729  -1.540  -1.432  1.00  0.00     0.131 A 
HETATM   29  F1  UNL     1      -1.836  -2.102  -2.266  1.00  0.00    -0.205 F 
ENDBRANCH   1  21
BRANCH  18  30
HETATM   30  N3  UNL     1      -0.190   3.575   0.649  1.00  0.00    -0.232 N 
HETATM   31  H19 UNL     1      -0.679   3.439   1.570  1.00  0.00     0.174 HD
HETATM   32  H20 UNL     1       0.132   4.513   0.348  1.00  0.00     0.174 HD
ENDBRANCH  18  30
TORSDOF 2
