REMARK  4 active torsions:
REMARK  status: ('A' for Active; 'I' for Inactive)
REMARK    1  A    between atoms: C8_10  and  N3_11 
REMARK    2  A    between atoms: C9_13  and  N5_14 
REMARK    3  A    between atoms: N5_14  and  C10_15 
REMARK    4  A    between atoms: C11_16  and  C12_17 
ROOT
HETATM    1  C1  UNL     1      -3.857   3.162  -0.440  1.00  0.00     0.014 C 
HETATM    2  C2  UNL     1      -2.823   2.302   0.297  1.00  0.00     0.008 C 
HETATM    3  C3  UNL     1      -3.589   1.358   1.116  1.00  0.00    -0.025 C 
HETATM    4  C4  UNL     1      -3.584   0.075   0.852  1.00  0.00    -0.020 C 
HETATM    5  C5  UNL     1      -2.810  -0.548  -0.292  1.00  0.00     0.054 C 
HETATM    6  C6  UNL     1      -2.807  -1.981  -0.117  1.00  0.00     0.134 C 
HETATM    7  N1  UNL     1      -1.638  -2.764  -0.355  1.00  0.00    -0.373 N 
HETATM    8  C7  UNL     1      -0.252  -2.513  -0.109  1.00  0.00     0.157 A 
HETATM    9  N2  UNL     1       0.469  -3.641   0.126  1.00  0.00    -0.045 NA
HETATM   10  C8  UNL     1       1.778  -3.463   0.366  1.00  0.00     0.724 A 
HETATM   11  N4  UNL     1       2.388  -2.269   0.386  1.00  0.00    -0.044 NA
HETATM   12  C9  UNL     1       1.707  -1.110   0.156  1.00  0.00     0.160 A 
HETATM   13  C14 UNL     1       0.348  -1.268  -0.096  1.00  0.00     0.057 A 
HETATM   14  C15 UNL     1      -0.257   0.055  -0.317  1.00  0.00     0.022 C 
HETATM   15  C16 UNL     1      -1.590   0.229  -0.380  1.00  0.00    -0.069 C 
HETATM   16  C17 UNL     1      -1.816   1.702  -0.616  1.00  0.00     0.043 C 
HETATM   17  H10 UNL     1      -1.770  -3.730  -0.797  1.00  0.00     0.161 HD
ENDROOT
BRANCH  12  18
HETATM   18  N5  UNL     1       2.279   0.189   0.166  1.00  0.00    -0.350 N 
HETATM   19  H13 UNL     1       2.135   1.027   0.755  1.00  0.00     0.166 HD
BRANCH  18  20
HETATM   20  C10 UNL     1       3.207   0.174  -0.904  1.00  0.00     0.089 C 
HETATM   21  C11 UNL     1       4.294   0.908  -0.694  1.00  0.00     0.016 C 
BRANCH  21  22
HETATM   22  C12 UNL     1       4.588   1.693   0.500  1.00  0.00     0.013 C 
HETATM   23  C13 UNL     1       5.548   2.479   0.961  1.00  0.00     0.441 C 
HETATM   24  F1  UNL     1       6.204   2.249  -0.197  1.00  0.00    -0.452 F 
ENDBRANCH  21  22
ENDBRANCH  18  20
ENDBRANCH  12  18
BRANCH  10  25
HETATM   25  N3  UNL     1       2.688  -4.520   0.629  1.00  0.00    -0.231 N 
HETATM   26  H11 UNL     1       3.103  -5.044   1.452  1.00  0.00     0.174 HD
HETATM   27  H12 UNL     1       2.948  -4.761  -0.362  1.00  0.00     0.174 HD
ENDBRANCH  10  25
TORSDOF 4
