REMARK  4 active torsions:
REMARK  status: ('A' for Active; 'I' for Inactive)
REMARK    1  A    between atoms: C2_2  and  N1_3 
REMARK    2  A    between atoms: N1_3  and  C3_4 
REMARK    3  A    between atoms: C8_11  and  C9_12 
REMARK    4  A    between atoms: C9_12  and  C10_13 
ROOT
HETATM    1  C3  UNL     1       3.179  -0.156  -0.678  1.00  0.00     0.130 A 
HETATM    2  N2  UNL     1       3.911  -0.233  -1.779  1.00  0.00    -0.276 NA
HETATM    3  C4  UNL     1       3.736  -0.886  -2.901  1.00  0.00     0.077 A 
HETATM    4  B1  UNL     1       2.073  -1.894  -2.844  1.00  0.00     0.198 B 
HETATM    5  C5  UNL     1       1.386  -1.551  -1.255  1.00  0.00    -0.146 A 
HETATM    6  C6  UNL     1       1.981  -0.728  -0.321  1.00  0.00    -0.010 A 
HETATM    7  C7  UNL     1       1.208  -0.625   0.886  1.00  0.00     0.005 A 
HETATM    8  C8  UNL     1       0.108  -1.347   0.805  1.00  0.00    -0.114 A 
HETATM    9  B2  UNL     1       0.086  -2.031  -0.577  1.00  0.00     0.209 B 
HETATM   10  H16 UNL     1      -0.807  -2.588  -1.106  1.00  0.00    -0.017 HD
ENDROOT
BRANCH   8  11
HETATM   11  C9  UNL     1      -0.916  -1.462   1.891  1.00  0.00     0.049 C 
BRANCH  11  12
HETATM   12  C10 UNL     1      -2.207  -0.880   1.548  1.00  0.00    -0.016 C 
HETATM   13  C11 UNL     1      -3.003  -0.232   0.708  1.00  0.00    -0.058 A 
HETATM   14  C12 UNL     1      -4.392   0.022   1.152  1.00  0.00     0.007 A 
HETATM   15  C16 UNL     1      -2.585   0.264  -0.617  1.00  0.00     0.065 A 
HETATM   16  C13 UNL     1      -5.296   0.686   0.470  1.00  0.00     0.000 A 
HETATM   17  C14 UNL     1      -4.981   1.241  -0.836  1.00  0.00    -0.004 A 
HETATM   18  C15 UNL     1      -3.746   0.995  -1.223  1.00  0.00    -0.022 A 
ENDBRANCH  11  12
ENDBRANCH   8  11
BRANCH   1  19
HETATM   19  N1  UNL     1       3.820   0.706   0.276  1.00  0.00    -0.354 N 
HETATM   20  H4  UNL     1       3.400   0.898   1.212  1.00  0.00     0.166 HD
BRANCH  19  21
HETATM   21  C2  UNL     1       5.042   1.418   0.175  1.00  0.00     0.063 C 
HETATM   22  C1  UNL     1       5.497   2.591  -0.211  1.00  0.00     0.049 C 
ENDBRANCH  19  21
ENDBRANCH   1  19
TORSDOF 4
