REMARK  7 active torsions:
REMARK  status: ('A' for Active; 'I' for Inactive)
REMARK    1  A    between atoms: C3_3  and  N1_4 
REMARK    2  A    between atoms: N1_4  and  C4_5 
REMARK    3  A    between atoms: C5_7  and  N3_8 
REMARK    4  A    between atoms: C7_11  and  C8_12 
REMARK    5  A    between atoms: C9_13  and  C10_14 
REMARK    6  A    between atoms: C10_14  and  C11_15 
REMARK    7  A    between atoms: C11_15  and  C12_16 
ROOT
HETATM    1  C4  UNL     1      -3.338  -1.383   0.113  1.00  0.00     0.158 A 
HETATM    2  N2  UNL     1      -4.316  -2.259  -0.161  1.00  0.00    -0.044 NA
HETATM    3  C5  UNL     1      -4.062  -3.583  -0.229  1.00  0.00     0.721 A 
HETATM    4  N4  UNL     1      -2.799  -4.023  -0.017  1.00  0.00    -0.074 NA
HETATM    5  C6  UNL     1      -1.785  -3.211   0.258  1.00  0.00     0.151 A 
HETATM    6  C7  UNL     1      -2.064  -1.864   0.323  1.00  0.00     0.028 A 
ENDROOT
BRANCH   6   7
HETATM    7  C8  UNL     1      -1.029  -0.889   0.618  1.00  0.00     0.013 C 
HETATM    8  C9  UNL     1       0.242  -1.175   0.849  1.00  0.00    -0.025 C 
BRANCH   8   9
HETATM    9  C10 UNL     1       1.399  -0.286   1.160  1.00  0.00     0.032 C 
BRANCH   9  10
HETATM   10  C11 UNL     1       2.416  -0.487   0.085  1.00  0.00     0.043 C 
BRANCH  10  11
HETATM   11  C12 UNL     1       3.645   0.296   0.199  1.00  0.00    -0.052 A 
HETATM   12  C13 UNL     1       4.825  -0.306   0.629  1.00  0.00     0.007 A 
HETATM   13  C14 UNL     1       6.016   0.338   0.766  1.00  0.00     0.001 A 
HETATM   14  C15 UNL     1       6.094   1.683   0.464  1.00  0.00     0.001 A 
HETATM   15  C16 UNL     1       4.948   2.312   0.035  1.00  0.00     0.007 A 
HETATM   16  C17 UNL     1       3.727   1.640  -0.102  1.00  0.00    -0.056 A 
HETATM   17  C18 UNL     1       2.501   2.343  -0.567  1.00  0.00     0.049 C 
ENDBRANCH  10  11
ENDBRANCH   9  10
ENDBRANCH   8   9
ENDBRANCH   6   7
BRANCH   1  18
HETATM   18  N1  UNL     1      -3.745  -0.022   0.155  1.00  0.00    -0.350 N 
HETATM   19  H6  UNL     1      -3.992   0.062   1.171  1.00  0.00     0.166 HD
BRANCH  18  20
HETATM   20  C3  UNL     1      -3.876   1.094  -0.725  1.00  0.00     0.085 C 
HETATM   21  C2  UNL     1      -3.312   2.250  -0.460  1.00  0.00    -0.014 C 
HETATM   22  C1  UNL     1      -3.542   3.307  -1.470  1.00  0.00     0.037 C 
ENDBRANCH  18  20
ENDBRANCH   1  18
BRANCH   3  23
HETATM   23  N3  UNL     1      -5.096  -4.514  -0.519  1.00  0.00    -0.231 N 
HETATM   24  H7  UNL     1      -6.045  -4.150  -0.777  1.00  0.00     0.174 HD
HETATM   25  H8  UNL     1      -4.922  -5.523  -0.479  1.00  0.00     0.174 HD
ENDBRANCH   3  23
TORSDOF 7
