REMARK  7 active torsions:
REMARK  status: ('A' for Active; 'I' for Inactive)
REMARK    1  A    between atoms: C7_7  and  C8_8 
REMARK    2  A    between atoms: C8_8  and  C9_10 
REMARK    3  A    between atoms: C9_10  and  C10_11 
REMARK    4  A    between atoms: C13_14  and  N1_15 
REMARK    5  A    between atoms: C14_17  and  N3_18 
REMARK    6  A    between atoms: N5_21  and  N6_22 
REMARK    7  A    between atoms: N6_22  and  C16_23 
ROOT
HETATM    1  C10 UNL     1      -0.077  -0.673  -0.785  1.00  0.00     0.008 C 
HETATM    2  C11 UNL     1      -1.137  -1.285  -0.296  1.00  0.00     0.057 C 
HETATM    3  C12 UNL     1      -0.851  -2.356   0.648  1.00  0.00     0.082 C 
HETATM    4  C13 UNL     1      -1.480  -3.497   0.950  1.00  0.00     0.142 C 
HETATM    5  N2  UNL     1      -2.683  -4.137   0.481  1.00  0.00    -0.046 NA
HETATM    6  C14 UNL     1      -3.723  -3.678  -0.125  1.00  0.00     0.723 C 
HETATM    7  N4  UNL     1      -4.215  -2.438  -0.613  1.00  0.00    -0.056 NA
HETATM    8  C15 UNL     1      -3.694  -1.288  -0.881  1.00  0.00     0.252 C 
HETATM    9  N5  UNL     1      -2.357  -0.786  -0.787  1.00  0.00    -0.249 N 
ENDROOT
BRANCH   1  10
HETATM   10  C9  UNL     1       1.400  -0.773  -0.636  1.00  0.00     0.071 C 
BRANCH  10  11
HETATM   11  C8  UNL     1       1.881   0.509  -0.146  1.00  0.00     0.207 C 
HETATM   12  F1  UNL     1       1.158   0.785   1.028  1.00  0.00    -0.244 F 
BRANCH  11  13
HETATM   13  C7  UNL     1       3.250   0.819   0.127  1.00  0.00    -0.018 A 
HETATM   14  C2  UNL     1       4.063   1.355  -0.875  1.00  0.00    -0.053 A 
HETATM   15  C1  UNL     1       3.476   1.590  -2.211  1.00  0.00     0.049 C 
HETATM   16  C3  UNL     1       5.388   1.628  -0.521  1.00  0.00     0.007 A 
HETATM   17  C4  UNL     1       5.889   1.396   0.723  1.00  0.00     0.001 A 
HETATM   18  C5  UNL     1       5.069   0.873   1.674  1.00  0.00     0.001 A 
HETATM   19  C6  UNL     1       3.767   0.579   1.412  1.00  0.00     0.010 A 
ENDBRANCH  11  13
ENDBRANCH  10  11
ENDBRANCH   1  10
BRANCH   9  20
HETATM   20  N6  UNL     1      -2.252   0.508  -1.312  1.00  0.00    -0.293 N 
HETATM   21  H18 UNL     1      -2.147   0.655  -2.323  1.00  0.00     0.187 HD
BRANCH  20  22
HETATM   22  C16 UNL     1      -2.291   1.621  -0.447  1.00  0.00     0.048 A 
HETATM   23  C17 UNL     1      -2.429   1.524   0.919  1.00  0.00     0.032 A 
HETATM   24  C18 UNL     1      -2.468   2.604   1.773  1.00  0.00     0.026 A 
HETATM   25  C19 UNL     1      -2.366   3.869   1.264  1.00  0.00     0.034 A 
HETATM   26 CL1  UNL     1      -2.409   5.285   2.293  1.00  0.00    -0.084 Cl
HETATM   27  C20 UNL     1      -2.228   4.000  -0.099  1.00  0.00     0.026 A 
HETATM   28  C21 UNL     1      -2.191   2.907  -0.929  1.00  0.00     0.032 A 
ENDBRANCH  20  22
ENDBRANCH   9  20
BRANCH   4  29
HETATM   29  N1  UNL     1      -0.799  -4.228   1.961  1.00  0.00    -0.383 N 
HETATM   30  H13 UNL     1       0.146  -4.627   2.020  1.00  0.00     0.157 HD
HETATM   31  H14 UNL     1      -0.953  -4.606   2.919  1.00  0.00     0.157 HD
ENDBRANCH   4  29
BRANCH   6  32
HETATM   32  N3  UNL     1      -4.670  -4.704  -0.391  1.00  0.00    -0.231 N 
HETATM   33  H15 UNL     1      -5.710  -4.669  -0.412  1.00  0.00     0.174 HD
HETATM   34  H16 UNL     1      -5.078  -5.615  -0.616  1.00  0.00     0.174 HD
ENDBRANCH   6  32
TORSDOF 7
