REMARK  4 active torsions:
REMARK  status: ('A' for Active; 'I' for Inactive)
REMARK    1  A    between atoms: N1_1  and  C1_2 
REMARK    2  A    between atoms: C9_10  and  C10_11 
REMARK    3  A    between atoms: C10_11  and  C11_12 
REMARK    4  A    between atoms: N4_19  and  C16_20 
ROOT
HETATM    1  C11 UNL     1       0.022   0.056   0.443  1.00  0.00     0.030 C 
HETATM    2  C12 UNL     1      -1.186   0.293  -0.029  1.00  0.00     0.048 C 
HETATM    3  C13 UNL     1      -2.083  -0.707   0.546  1.00  0.00     0.236 C 
HETATM    4  N2  UNL     1      -1.239  -1.383   1.544  1.00  0.00    -0.258 N 
HETATM    5  C14 UNL     1      -2.013  -2.260   2.395  1.00  0.00     0.225 C 
HETATM    6  N3  UNL     1      -3.125  -1.809   2.930  1.00  0.00    -0.264 NA
HETATM    7  C15 UNL     1      -3.467  -0.443   2.609  1.00  0.00     0.277 C 
HETATM    8  N4  UNL     1      -3.278  -0.227   1.196  1.00  0.00    -0.336 N 
HETATM    9  N5  UNL     1       0.070  -0.985   1.428  1.00  0.00    -0.299 N 
HETATM   10  H20 UNL     1       0.830  -1.426   1.983  1.00  0.00     0.187 HD
ENDROOT
BRANCH   1  11
HETATM   11  C10 UNL     1       1.217   0.857   0.081  1.00  0.00     0.097 C 
BRANCH  11  12
HETATM   12  C9  UNL     1       2.254   0.068  -0.555  1.00  0.00    -0.045 C 
HETATM   13  C4  UNL     1       3.452   0.849  -0.741  1.00  0.00    -0.037 C 
HETATM   14  C3  UNL     1       4.215   1.688  -0.041  1.00  0.00    -0.020 C 
HETATM   15  C5  UNL     1       4.274   0.527  -2.029  1.00  0.00     0.076 C 
HETATM   16  C2  UNL     1       5.463   1.042   0.188  1.00  0.00     0.025 C 
HETATM   17  C1  UNL     1       5.954  -0.265  -0.558  1.00  0.00     0.271 C 
HETATM   18  C6  UNL     1       4.722  -0.746  -1.237  1.00  0.00    -0.040 C 
HETATM   19  C7  UNL     1       3.840  -1.715  -1.333  1.00  0.00     0.006 C 
HETATM   20  C8  UNL     1       2.477  -1.212  -0.948  1.00  0.00     0.008 C 
BRANCH  17  21
HETATM   21  N1  UNL     1       6.520  -1.142   0.392  1.00  0.00     0.090 N 
HETATM   22  H1  UNL     1       6.352  -0.895   1.379  1.00  0.00     0.314 HD
HETATM   23  H2  UNL     1       6.356  -2.144   0.211  1.00  0.00     0.314 HD
ENDBRANCH  17  21
ENDBRANCH  11  12
ENDBRANCH   1  11
BRANCH   8  24
HETATM   24  C16 UNL     1      -4.225   0.454   0.379  1.00  0.00     0.033 A 
HETATM   25  C17 UNL     1      -5.308   1.158   0.858  1.00  0.00     0.031 A 
HETATM   26  C18 UNL     1      -6.237   1.813   0.078  1.00  0.00     0.026 A 
HETATM   27  C19 UNL     1      -6.092   1.775  -1.293  1.00  0.00     0.034 A 
HETATM   28 CL1  UNL     1      -7.242   2.588  -2.327  1.00  0.00    -0.084 Cl
HETATM   29  C20 UNL     1      -5.029   1.087  -1.841  1.00  0.00     0.026 A 
HETATM   30  C21 UNL     1      -4.139   0.455  -0.997  1.00  0.00     0.031 A 
ENDBRANCH   8  24
TORSDOF 4
