REMARK  5 active torsions:
REMARK  status: ('A' for Active; 'I' for Inactive)
REMARK    1  A    between atoms: N1_1  and  C1_2 
REMARK    2  A    between atoms: C10_14  and  N4_15 
REMARK    3  A    between atoms: N4_15  and  C11_16 
REMARK    4  A    between atoms: C11_16  and  C12_17 
REMARK    5  A    between atoms: C12_17  and  C13_18 
ROOT
HETATM    1  C1  UNL     1      -2.751   2.663   0.397  1.00  0.00     0.720 A 
HETATM    2  N2  UNL     1      -3.503   1.626   0.311  1.00  0.00    -0.065 NA
HETATM    3  C2  UNL     1      -2.709   0.526  -0.164  1.00  0.00     0.209 A 
HETATM    4  C3  UNL     1      -3.282  -0.194  -1.348  1.00  0.00     0.106 C 
HETATM    5  C4  UNL     1      -4.486  -0.844  -0.710  1.00  0.00    -0.025 A 
HETATM    6  C5  UNL     1      -5.676  -1.194  -1.309  1.00  0.00     0.033 A 
HETATM    7  C6  UNL     1      -6.637  -1.759  -0.497  1.00  0.00     0.034 A 
HETATM    8 CL1  UNL     1      -8.154  -2.210  -1.247  1.00  0.00    -0.084 Cl
HETATM    9  C7  UNL     1      -6.394  -1.952   0.842  1.00  0.00     0.026 A 
HETATM   10  C8  UNL     1      -5.183  -1.585   1.400  1.00  0.00     0.031 A 
HETATM   11  C9  UNL     1      -4.157  -1.006   0.641  1.00  0.00     0.036 A 
HETATM   12  N3  UNL     1      -2.813  -0.520   0.852  1.00  0.00    -0.355 N 
HETATM   13  C10 UNL     1      -1.378   1.064  -0.363  1.00  0.00     0.171 A 
HETATM   14  N5  UNL     1      -1.433   2.333  -0.017  1.00  0.00    -0.045 NA
HETATM   15  H8  UNL     1      -2.260  -0.967   1.604  1.00  0.00     0.162 HD
ENDROOT
BRANCH  13  16
HETATM   16  N4  UNL     1      -0.124   0.596  -0.838  1.00  0.00    -0.374 N 
HETATM   17  H9  UNL     1      -0.230  -0.008  -1.719  1.00  0.00     0.161 HD
BRANCH  16  18
HETATM   18  C11 UNL     1       1.197   0.845  -0.246  1.00  0.00     0.126 C 
BRANCH  18  19
HETATM   19  C12 UNL     1       2.199   0.340  -1.233  1.00  0.00     0.059 C 
BRANCH  19  20
HETATM   20  C13 UNL     1       3.600   0.467  -0.852  1.00  0.00    -0.045 A 
HETATM   21  C14 UNL     1       4.423   1.498  -1.281  1.00  0.00     0.008 A 
HETATM   22  C15 UNL     1       5.754   1.673  -0.942  1.00  0.00     0.001 A 
HETATM   23  C16 UNL     1       6.293   0.718  -0.096  1.00  0.00     0.012 A 
HETATM   24  C17 UNL     1       5.504  -0.325   0.353  1.00  0.00    -0.025 A 
HETATM   25  C18 UNL     1       6.086  -1.279   1.195  1.00  0.00     0.012 A 
HETATM   26  C22 UNL     1       4.178  -0.463  -0.008  1.00  0.00    -0.020 A 
HETATM   27  C19 UNL     1       5.278  -2.316   1.615  1.00  0.00     0.001 A 
HETATM   28  C20 UNL     1       3.954  -2.495   1.279  1.00  0.00     0.001 A 
HETATM   29  C21 UNL     1       3.421  -1.534   0.450  1.00  0.00     0.013 A 
ENDBRANCH  19  20
ENDBRANCH  18  19
ENDBRANCH  16  18
ENDBRANCH  13  16
BRANCH   1  30
HETATM   30  N1  UNL     1      -3.023   4.023   0.812  1.00  0.00    -0.231 N 
HETATM   31  H1  UNL     1      -3.616   4.197   1.635  1.00  0.00     0.174 HD
HETATM   32  H2  UNL     1      -2.609   4.834   0.270  1.00  0.00     0.174 HD
ENDBRANCH   1  30
TORSDOF 5
