REMARK  0 active torsions:
REMARK  status: ('A' for Active; 'I' for Inactive)
ROOT
HETATM    1  C1  UNL     1      -3.935  -1.695   0.945  1.00  0.00     0.046 C 
HETATM    2  C2  UNL     1      -3.566  -0.388   0.364  1.00  0.00    -0.055 A 
HETATM    3  C3  UNL     1      -4.353   0.200  -0.524  1.00  0.00     0.006 A 
HETATM    4  C4  UNL     1      -3.896   1.487  -1.035  1.00  0.00     0.019 A 
HETATM    5  C5  UNL     1      -2.773   2.089  -0.678  1.00  0.00     0.111 A 
HETATM    6  N1  UNL     1      -1.997   1.378   0.279  1.00  0.00    -0.289 N 
HETATM    7  N2  UNL     1      -0.792   1.979   0.690  1.00  0.00    -0.291 N 
HETATM    8  C6  UNL     1      -0.103   3.069   0.088  1.00  0.00     0.226 C 
HETATM    9  N3  UNL     1       0.838   3.154  -0.780  1.00  0.00    -0.213 NA
HETATM   10  C7  UNL     1       1.450   2.001  -1.382  1.00  0.00     0.235 C 
HETATM   11  F1  UNL     1       1.329   1.170  -2.436  1.00  0.00    -0.182 F 
HETATM   12  C8  UNL     1       2.466   1.751  -0.538  1.00  0.00     0.084 A 
HETATM   13  C9  UNL     1       3.431   1.808   0.591  1.00  0.00     0.184 A 
HETATM   14  N4  UNL     1       3.524   0.785  -0.444  1.00  0.00    -0.373 N 
HETATM   15  C10 UNL     1       3.799  -0.296  -1.342  1.00  0.00     0.128 C 
HETATM   16  C11 UNL     1       3.709  -1.612  -0.585  1.00  0.00     0.058 C 
HETATM   17  C12 UNL     1       2.318  -1.707  -0.052  1.00  0.00    -0.057 C 
HETATM   18  C13 UNL     1       2.110  -1.561   1.248  1.00  0.00     0.007 C 
HETATM   19  C14 UNL     1       0.958  -1.332   2.122  1.00  0.00     0.001 C 
HETATM   20  C15 UNL     1      -0.337  -1.148   1.916  1.00  0.00     0.009 C 
HETATM   21  C16 UNL     1      -1.156  -0.855   0.727  1.00  0.00    -0.029 C 
HETATM   22  C17 UNL     1      -1.055  -1.328  -0.529  1.00  0.00     0.009 C 
HETATM   23  C18 UNL     1       0.103  -1.602  -1.409  1.00  0.00     0.001 C 
HETATM   24  C19 UNL     1       1.376  -1.965  -1.167  1.00  0.00     0.007 C 
HETATM   25  C20 UNL     1      -2.276   0.106   0.899  1.00  0.00     0.169 A 
HETATM   26  H7  UNL     1      -0.223   1.696   1.520  1.00  0.00     0.188 HD
ENDROOT
TORSDOF 0
