REMARK  5 active torsions:
REMARK  status: ('A' for Active; 'I' for Inactive)
REMARK    1  A    between atoms: N1_4  and  C4_5 
REMARK    2  A    between atoms: C5_6  and  C6_7 
REMARK    3  A    between atoms: C6_7  and  C7_8 
REMARK    4  A    between atoms: C8_9  and  C9_10 
REMARK    5  A    between atoms: N2_16  and  N3_17 
ROOT
HETATM    1  C4  UNL     1      -1.110  -1.157   0.114  1.00  0.00     0.146 A 
HETATM    2  C5  UNL     1       0.082  -1.620   0.479  1.00  0.00     0.079 A 
HETATM    3  N2  UNL     1      -0.196  -1.539  -0.914  1.00  0.00    -0.262 N 
ENDROOT
BRANCH   1   4
HETATM    4  N1  UNL     1      -2.413  -0.638   0.355  1.00  0.00    -0.356 N 
HETATM    5  C3  UNL     1      -3.545  -0.969  -0.494  1.00  0.00     0.135 C 
HETATM    6  C2  UNL     1      -3.910   0.288  -1.239  1.00  0.00     0.044 C 
HETATM    7  C1  UNL     1      -5.172   0.080  -2.051  1.00  0.00     0.017 C 
HETATM    8  C18 UNL     1      -4.024   1.471  -0.354  1.00  0.00     0.015 C 
HETATM    9  C17 UNL     1      -3.482   1.395   0.856  1.00  0.00     0.018 C 
HETATM   10 CL1  UNL     1      -4.863   2.895  -0.945  1.00  0.00    -0.089 Cl
HETATM   11  C15 UNL     1      -2.765   0.249   1.430  1.00  0.00     0.106 C 
HETATM   12  C16 UNL     1      -1.653   0.612   2.358  1.00  0.00     0.037 C 
ENDBRANCH   1   4
BRANCH   2  13
HETATM   13  C6  UNL     1       1.131  -2.013   1.463  1.00  0.00     0.090 C 
BRANCH  13  14
HETATM   14  C7  UNL     1       2.383  -1.257   1.324  1.00  0.00    -0.020 C 
HETATM   15  C8  UNL     1       2.700  -0.299   0.468  1.00  0.00     0.007 C 
BRANCH  15  16
HETATM   16  C9  UNL     1       3.961   0.433   0.360  1.00  0.00    -0.036 A 
HETATM   17  C10 UNL     1       4.087   1.397  -0.605  1.00  0.00     0.011 A 
HETATM   18  C11 UNL     1       5.319   2.033  -0.626  1.00  0.00     0.001 A 
HETATM   19  C12 UNL     1       6.370   1.745   0.246  1.00  0.00     0.000 A 
HETATM   20  C13 UNL     1       6.163   0.767   1.184  1.00  0.00     0.001 A 
HETATM   21  C14 UNL     1       4.965   0.111   1.244  1.00  0.00     0.011 A 
ENDBRANCH  15  16
ENDBRANCH  13  14
ENDBRANCH   2  13
BRANCH   3  22
HETATM   22  N3  UNL     1       0.173  -1.713  -2.269  1.00  0.00    -0.241 NA
HETATM   23  H16 UNL     1      -0.497  -1.128  -2.832  1.00  0.00     0.143 HD
HETATM   24  H17 UNL     1      -0.127  -2.707  -2.498  1.00  0.00     0.143 HD
ENDBRANCH   3  22
TORSDOF 5
