REMARK  3 active torsions:
REMARK  status: ('A' for Active; 'I' for Inactive)
REMARK    1  A    between atoms: C12_13  and  N1_14 
REMARK    2  A    between atoms: C14_16  and  C15_17 
REMARK    3  A    between atoms: C17_20  and  C18_21 
ROOT
HETATM    1  C1  UNL     1      -2.739   3.374   2.372  1.00  0.00     0.045 C 
HETATM    2  C2  UNL     1      -2.424   1.945   2.189  1.00  0.00    -0.065 C 
HETATM    3  C3  UNL     1      -2.942   1.132   3.116  1.00  0.00     0.070 C 
HETATM    4  C4  UNL     1      -2.752  -0.245   3.099  1.00  0.00    -0.048 C 
HETATM    5  C5  UNL     1      -2.580  -1.379   3.071  1.00  0.00     0.059 C 
HETATM    6  O1  UNL     1      -2.362  -2.689   3.023  1.00  0.00    -0.303 OA
HETATM    7  C6  UNL     1      -2.250  -3.269   1.678  1.00  0.00     0.188 C 
HETATM    8  C7  UNL     1      -1.108  -2.460   1.092  1.00  0.00     0.028 C 
HETATM    9  C8  UNL     1      -0.757  -2.745  -0.311  1.00  0.00     0.006 C 
HETATM   10  C9  UNL     1       0.377  -1.870  -0.818  1.00  0.00     0.028 C 
HETATM   11  C10 UNL     1       0.154  -0.449  -0.824  1.00  0.00    -0.009 C 
HETATM   12  C11 UNL     1      -0.139   0.827  -0.696  1.00  0.00     0.032 A 
HETATM   13  C12 UNL     1       0.547   1.293  -1.788  1.00  0.00     0.141 A 
HETATM   14  N2  UNL     1       0.589   2.579  -2.170  1.00  0.00    -0.224 NA
HETATM   15  C19 UNL     1      -0.074   3.474  -1.453  1.00  0.00     0.235 A 
HETATM   16  N3  UNL     1      -0.739   3.009  -0.392  1.00  0.00    -0.245 NA
HETATM   17  C20 UNL     1      -0.809   1.754   0.024  1.00  0.00     0.059 A 
HETATM   18  C21 UNL     1      -1.594   1.990   1.040  1.00  0.00     0.082 C 
ENDROOT
BRANCH  13  19
HETATM   19  N1  UNL     1       1.214   0.224  -2.462  1.00  0.00    -0.343 N 
HETATM   20  C13 UNL     1       2.389  -0.067  -1.940  1.00  0.00     0.028 A 
HETATM   21  C14 UNL     1       3.425   0.040  -2.547  1.00  0.00    -0.018 A 
HETATM   22  C18 UNL     1       3.755  -0.397  -1.360  1.00  0.00     0.083 A 
HETATM   23  H14 UNL     1       0.968  -0.380  -3.269  1.00  0.00     0.167 HD
BRANCH  21  24
HETATM   24  C15 UNL     1       4.365   0.129  -3.072  1.00  0.00    -0.018 A 
HETATM   25  C16 UNL     1       5.373   0.215  -3.610  1.00  0.00     0.177 A 
HETATM   26  F1  UNL     1       6.653  -0.011  -3.307  1.00  0.00    -0.233 F 
HETATM   27  C17 UNL     1       5.145  -0.281  -2.092  1.00  0.00     0.081 A 
ENDBRANCH  21  24
ENDBRANCH  13  19
TORSDOF 3
