REMARK  2 active torsions:
REMARK  status: ('A' for Active; 'I' for Inactive)
REMARK       I    between atoms: N1_1  and  C1_2 
REMARK    1  A    between atoms: C10_14  and  N4_15 
REMARK    2  A    between atoms: N4_15  and  C11_16 
ROOT
HETATM    1  N1  UNL     1      -2.118  -2.674   2.406  1.00  0.00    -0.271 NA
HETATM    2  C1  UNL     1      -2.148  -1.380   1.763  1.00  0.00     0.197 C 
HETATM    3  N2  UNL     1      -3.299  -1.393   2.371  1.00  0.00    -0.241 NA
HETATM    4  C2  UNL     1      -4.127  -0.197   2.188  1.00  0.00     0.274 C 
HETATM    5  N3  UNL     1      -4.043   0.396   0.932  1.00  0.00    -0.371 N 
HETATM    6  C3  UNL     1      -4.067   1.205  -0.252  1.00  0.00     0.036 A 
HETATM    7  C4  UNL     1      -5.054   1.233  -1.211  1.00  0.00     0.031 A 
HETATM    8  C5  UNL     1      -5.093   2.009  -2.282  1.00  0.00     0.026 A 
HETATM    9  C6  UNL     1      -3.993   2.814  -2.339  1.00  0.00     0.034 A 
HETATM   10 CL1  UNL     1      -3.871   3.927  -3.717  1.00  0.00    -0.084 Cl
HETATM   11  C7  UNL     1      -2.925   2.942  -1.523  1.00  0.00     0.033 A 
HETATM   12  C8  UNL     1      -2.955   2.079  -0.391  1.00  0.00    -0.023 A 
HETATM   13  C9  UNL     1      -1.983   1.893   0.740  1.00  0.00     0.119 C 
HETATM   14  C10 UNL     1      -1.293   0.562   0.563  1.00  0.00     0.112 C 
HETATM   15  N5  UNL     1      -1.344  -0.638   0.932  1.00  0.00    -0.205 NA
HETATM   16  H1  UNL     1      -1.788  -3.174   1.528  1.00  0.00     0.127 HD
HETATM   17  H2  UNL     1      -1.791  -3.239   1.576  1.00  0.00     0.127 HD
HETATM   18  H5  UNL     1      -3.614  -0.335   0.275  1.00  0.00     0.161 HD
ENDROOT
BRANCH  14  19
HETATM   19  N4  UNL     1      -0.200   0.648  -0.403  1.00  0.00    -0.347 N 
HETATM   20  H11 UNL     1      -0.365   1.167  -1.342  1.00  0.00     0.167 HD
BRANCH  19  21
HETATM   21  C11 UNL     1       1.144   0.091  -0.260  1.00  0.00     0.015 A 
HETATM   22  C12 UNL     1       2.048   1.093  -0.484  1.00  0.00     0.037 A 
HETATM   23  C13 UNL     1       3.390   0.547  -0.341  1.00  0.00    -0.023 A 
HETATM   24  C14 UNL     1       4.466   1.338  -0.510  1.00  0.00     0.012 A 
HETATM   25  C22 UNL     1       3.742  -0.733  -0.036  1.00  0.00    -0.009 A 
HETATM   26  C15 UNL     1       5.849   1.116  -0.438  1.00  0.00     0.002 A 
HETATM   27  C16 UNL     1       6.088  -0.219  -0.123  1.00  0.00     0.012 A 
HETATM   28  C17 UNL     1       5.039  -1.168   0.085  1.00  0.00    -0.025 A 
HETATM   29  C18 UNL     1       5.386  -2.447   0.395  1.00  0.00     0.012 A 
HETATM   30  C19 UNL     1       4.317  -3.222   0.564  1.00  0.00     0.001 A 
HETATM   31  C20 UNL     1       2.903  -3.062   0.506  1.00  0.00     0.008 A 
HETATM   32  C21 UNL     1       2.728  -1.673   0.173  1.00  0.00    -0.041 A 
HETATM   33  C23 UNL     1       1.277  -1.323   0.066  1.00  0.00     0.096 A 
ENDBRANCH  19  21
ENDBRANCH  14  19
TORSDOF 2
