REMARK  5 active torsions:
REMARK  status: ('A' for Active; 'I' for Inactive)
REMARK    1  A    between atoms: C4_5  and  N1_6 
REMARK    2  A    between atoms: N1_6  and  C5_7 
REMARK    3  A    between atoms: C8_10  and  C9_11 
REMARK    4  A    between atoms: C9_11  and  C10_12 
REMARK    5  A    between atoms: N3_24  and  C21_25 
ROOT
HETATM    1  C5  UNL     1       1.976   0.074   1.172  1.00  0.00     0.103 C 
HETATM    2  C6  UNL     1       0.940  -0.667   0.813  1.00  0.00     0.027 A 
HETATM    3  C7  UNL     1      -0.493  -0.350   0.792  1.00  0.00     0.042 A 
HETATM    4  C8  UNL     1      -1.105  -1.436   0.349  1.00  0.00     0.016 A 
HETATM    5  N2  UNL     1      -0.210  -2.504   0.053  1.00  0.00    -0.343 N 
HETATM    6  C20 UNL     1       1.124  -2.035   0.344  1.00  0.00     0.143 A 
HETATM    7  N3  UNL     1       2.142  -2.778   0.183  1.00  0.00    -0.192 NA
HETATM    8  H15 UNL     1      -0.464  -3.452  -0.308  1.00  0.00     0.167 HD
ENDROOT
BRANCH   4   9
HETATM    9  C9  UNL     1      -2.577  -1.600   0.153  1.00  0.00     0.096 C 
BRANCH   9  10
HETATM   10  C10 UNL     1      -3.362  -0.416   0.502  1.00  0.00    -0.042 A 
HETATM   11  C11 UNL     1      -4.076  -0.394   1.707  1.00  0.00     0.008 A 
HETATM   12  C12 UNL     1      -4.812   0.724   2.022  1.00  0.00     0.001 A 
HETATM   13  C13 UNL     1      -4.847   1.798   1.174  1.00  0.00     0.012 A 
HETATM   14  C14 UNL     1      -4.166   1.834  -0.023  1.00  0.00    -0.025 A 
HETATM   15  C15 UNL     1      -4.183   2.897  -0.895  1.00  0.00     0.012 A 
HETATM   16  C19 UNL     1      -3.430   0.691  -0.317  1.00  0.00    -0.019 A 
HETATM   17  C16 UNL     1      -3.443   2.759  -2.049  1.00  0.00     0.001 A 
HETATM   18  C17 UNL     1      -2.687   1.652  -2.409  1.00  0.00     0.001 A 
HETATM   19  C18 UNL     1      -2.710   0.603  -1.479  1.00  0.00     0.013 A 
ENDBRANCH   9  10
ENDBRANCH   4   9
BRANCH   1  20
HETATM   20  N1  UNL     1       3.347  -0.212   1.198  1.00  0.00    -0.368 N 
HETATM   21  H3  UNL     1       3.740  -1.082   1.615  1.00  0.00     0.165 HD
BRANCH  20  22
HETATM   22  C4  UNL     1       4.289   0.695   0.642  1.00  0.00     0.014 A 
HETATM   23  C3  UNL     1       4.200   2.006   0.931  1.00  0.00     0.026 A 
HETATM   24  C2  UNL     1       5.303   2.680   0.214  1.00  0.00     0.021 A 
HETATM   25  C1  UNL     1       6.027   1.817  -0.478  1.00  0.00     0.017 A 
HETATM   26 CL1  UNL     1       7.404   2.249  -1.442  1.00  0.00    -0.089 Cl
HETATM   27  C22 UNL     1       5.456   0.481  -0.274  1.00  0.00     0.108 A 
ENDBRANCH  20  22
ENDBRANCH   1  20
BRANCH   7  28
HETATM   28  C21 UNL     1       2.113  -4.116  -0.298  1.00  0.00     0.264 A 
HETATM   29  N4  UNL     1       1.147  -5.148   0.027  1.00  0.00    -0.131 NA
HETATM   30  N5  UNL     1       2.193  -5.414  -0.843  1.00  0.00    -0.240 N 
HETATM   31  H16 UNL     1       2.942  -5.720  -1.511  1.00  0.00     0.192 HD
ENDBRANCH   7  28
TORSDOF 5
