REMARK  5 active torsions:
REMARK  status: ('A' for Active; 'I' for Inactive)
REMARK    1  A    between atoms: C10_10  and  C11_11 
REMARK    2  A    between atoms: C11_11  and  N1_12 
REMARK    3  A    between atoms: N1_12  and  C12_13 
REMARK    4  A    between atoms: C13_15  and  N3_16 
REMARK    5  A    between atoms: C14_17  and  N4_18 
ROOT
HETATM    1  C12 UNL     1      -0.447  -0.214   1.381  1.00  0.00     0.135 A 
HETATM    2  N2  UNL     1      -0.542  -1.095   2.306  1.00  0.00    -0.237 NA
HETATM    3  C13 UNL     1      -1.978  -1.151   2.372  1.00  0.00     0.381 A 
HETATM    4  C14 UNL     1      -1.905  -0.131   1.301  1.00  0.00     0.346 A 
ENDROOT
BRANCH   1   5
HETATM    5  N1  UNL     1       0.685   0.349   0.784  1.00  0.00    -0.372 N 
HETATM    6  H12 UNL     1       0.634   0.717  -0.205  1.00  0.00     0.161 HD
BRANCH   5   7
HETATM    7  C11 UNL     1       1.995   0.470   1.468  1.00  0.00     0.160 C 
BRANCH   7   8
HETATM    8  C10 UNL     1       3.008   1.063   0.619  1.00  0.00    -0.029 A 
HETATM    9  C9  UNL     1       3.264   2.452   0.616  1.00  0.00     0.010 A 
HETATM   10  C8  UNL     1       4.140   3.142  -0.188  1.00  0.00     0.002 A 
HETATM   11  C7  UNL     1       4.845   2.405  -1.091  1.00  0.00     0.012 A 
HETATM   12  C6  UNL     1       4.649   1.037  -1.146  1.00  0.00    -0.025 A 
HETATM   13  C5  UNL     1       5.436   0.395  -2.095  1.00  0.00     0.012 A 
HETATM   14  C22 UNL     1       3.761   0.367  -0.320  1.00  0.00    -0.012 A 
HETATM   15  C4  UNL     1       5.336  -0.960  -2.226  1.00  0.00     0.001 A 
HETATM   16  C3  UNL     1       4.445  -1.596  -1.388  1.00  0.00     0.007 A 
HETATM   17  C2  UNL     1       3.616  -1.027  -0.406  1.00  0.00    -0.050 A 
HETATM   18  C1  UNL     1       2.732  -1.796   0.471  1.00  0.00     0.049 C 
ENDBRANCH   7   8
ENDBRANCH   5   7
ENDBRANCH   1   5
BRANCH   4  19
HETATM   19  N4  UNL     1      -2.497  -0.403   0.027  1.00  0.00     0.112 N 
HETATM   20  C15 UNL     1      -2.157  -1.705  -0.501  1.00  0.00     0.301 C 
HETATM   21  C16 UNL     1      -2.882  -1.879  -1.816  1.00  0.00    -0.001 C 
HETATM   22  C17 UNL     1      -3.902  -1.084  -2.177  1.00  0.00    -0.023 C 
HETATM   23  C18 UNL     1      -4.437   0.034  -1.362  1.00  0.00     0.037 C 
HETATM   24  C19 UNL     1      -3.863   1.341  -1.843  1.00  0.00     0.016 C 
HETATM   25  C20 UNL     1      -3.903  -0.164   0.062  1.00  0.00     0.227 C 
HETATM   26  C21 UNL     1      -4.238   1.064   0.839  1.00  0.00     0.043 C 
ENDBRANCH   4  19
BRANCH   3  27
HETATM   27  N3  UNL     1      -2.519  -0.673   3.635  1.00  0.00     0.105 N 
HETATM   28  H14 UNL     1      -2.292  -1.329   4.409  1.00  0.00     0.315 HD
HETATM   29  H15 UNL     1      -2.156   0.297   3.803  1.00  0.00     0.315 HD
ENDBRANCH   3  27
TORSDOF 5
