REMARK  2 active torsions:
REMARK  status: ('A' for Active; 'I' for Inactive)
REMARK    1  A    between atoms: N1_1  and  C1_2 
REMARK    2  A    between atoms: C5_9  and  C6_10 
ROOT
HETATM    1  C1  UNL     1      -3.752  -2.721   0.071  1.00  0.00     0.721 A 
HETATM    2  N2  UNL     1      -4.251  -1.445  -0.020  1.00  0.00    -0.080 NA
HETATM    3  C2  UNL     1      -3.398  -0.439  -0.066  1.00  0.00     0.014 A 
HETATM    4  C3  UNL     1      -2.388  -1.303   0.011  1.00  0.00     0.066 A 
HETATM    5  C4  UNL     1      -1.439  -2.250   0.091  1.00  0.00     0.148 A 
HETATM    6  N3  UNL     1      -2.441  -3.119   0.125  1.00  0.00    -0.045 NA
HETATM    7  N4  UNL     1      -0.068  -2.028   0.059  1.00  0.00    -0.343 N 
HETATM    8  C5  UNL     1       0.271  -0.637  -0.170  1.00  0.00     0.025 C 
HETATM    9  C16 UNL     1      -0.161   0.415  -0.799  1.00  0.00     0.082 C 
HETATM   10  C17 UNL     1      -0.964   1.287  -1.620  1.00  0.00    -0.050 A 
HETATM   11  C18 UNL     1      -0.275   1.807  -2.685  1.00  0.00     0.031 A 
HETATM   12  C19 UNL     1      -0.786   2.687  -3.613  1.00  0.00     0.034 A 
HETATM   13 CL1  UNL     1       0.117   3.322  -4.935  1.00  0.00    -0.084 Cl
HETATM   14  C20 UNL     1      -2.092   2.995  -3.351  1.00  0.00     0.023 A 
HETATM   15  C21 UNL     1      -2.849   2.518  -2.311  1.00  0.00    -0.003 A 
HETATM   16  C22 UNL     1      -2.319   1.640  -1.398  1.00  0.00    -0.087 A 
HETATM   17  B1  UNL     1      -3.334   1.151  -0.262  1.00  0.00     0.256 B 
HETATM   18  H4  UNL     1       0.385  -2.891   0.209  1.00  0.00     0.167 HD
HETATM   19  H18 UNL     1      -4.470   1.538  -0.356  1.00  0.00    -0.014 HD
ENDROOT
BRANCH   8  20
HETATM   20  C6  UNL     1       1.517  -0.336   0.570  1.00  0.00    -0.029 A 
HETATM   21  C7  UNL     1       2.373   0.706   0.828  1.00  0.00     0.022 A 
HETATM   22  C8  UNL     1       3.827   0.770   0.402  1.00  0.00    -0.015 C 
HETATM   23  C15 UNL     1       2.271   1.912   1.768  1.00  0.00     0.046 C 
HETATM   24  C11 UNL     1       2.602  -0.981   1.382  1.00  0.00     0.022 A 
HETATM   25  C9  UNL     1       4.221  -0.352  -0.257  1.00  0.00    -0.028 C 
HETATM   26  C10 UNL     1       3.862  -1.538   0.652  1.00  0.00     0.046 C 
HETATM   27  C14 UNL     1       2.053   1.373   3.189  1.00  0.00    -0.026 C 
HETATM   28  C13 UNL     1       2.395   0.103   3.567  1.00  0.00    -0.007 C 
HETATM   29  C12 UNL     1       2.764  -1.118   2.750  1.00  0.00    -0.011 C 
ENDBRANCH   8  20
BRANCH   1  30
HETATM   30  N1  UNL     1      -4.741  -3.793   0.113  1.00  0.00    -0.231 N 
HETATM   31  H1  UNL     1      -4.751  -4.300   1.002  1.00  0.00     0.174 HD
HETATM   32  H2  UNL     1      -5.377  -4.009  -0.712  1.00  0.00     0.174 HD
ENDBRANCH   1  30
TORSDOF 2
