REMARK  5 active torsions:
REMARK  status: ('A' for Active; 'I' for Inactive)
REMARK    1  A    between atoms: C2_2  and  C3_3 
REMARK    2  A    between atoms: C3_3  and  C4_4 
REMARK    3  A    between atoms: C7_7  and  O1_8 
REMARK    4  A    between atoms: C12_17  and  N4_19 
REMARK    5  A    between atoms: N4_19  and  C14_20 
ROOT
HETATM    1  C4  UNL     1       1.497   0.036  -1.019  1.00  0.00    -0.041 A 
HETATM    2  C5  UNL     1       1.361  -0.895  -1.941  1.00  0.00     0.008 A 
HETATM    3  C6  UNL     1       0.641  -2.039  -1.399  1.00  0.00     0.036 A 
HETATM    4  C7  UNL     1       0.361  -1.749  -0.114  1.00  0.00     0.083 A 
HETATM    5  C9  UNL     1       0.902  -0.420   0.229  1.00  0.00     0.149 A 
HETATM    6  N1  UNL     1       1.976  -0.586   1.251  1.00  0.00    -0.362 N 
HETATM    7  C10 UNL     1       2.413   0.073   2.484  1.00  0.00     0.207 C 
HETATM    8  N2  UNL     1       2.050   1.272   2.689  1.00  0.00    -0.214 NA
HETATM    9  C11 UNL     1       1.281   2.195   1.990  1.00  0.00     0.222 C 
HETATM   10 CL1  UNL     1       1.564   3.926   2.170  1.00  0.00    -0.041 Cl
HETATM   11  N3  UNL     1       0.367   1.780   1.228  1.00  0.00    -0.225 NA
HETATM   12  C12 UNL     1      -0.114   0.452   0.880  1.00  0.00     0.161 C 
HETATM   13  C13 UNL     1      -0.371  -0.295   2.243  1.00  0.00     0.069 C 
HETATM   14  H13 UNL     1       2.544  -1.427   0.945  1.00  0.00     0.162 HD
ENDROOT
BRANCH  12  15
HETATM   15  N4  UNL     1      -1.398   0.586   0.331  1.00  0.00    -0.357 N 
HETATM   16  H18 UNL     1      -0.898   0.809  -0.560  1.00  0.00     0.162 HD
BRANCH  15  17
HETATM   17  C14 UNL     1      -2.729   0.725  -0.241  1.00  0.00     0.069 A 
HETATM   18  C15 UNL     1      -3.286   0.947  -1.423  1.00  0.00     0.032 A 
HETATM   19  C16 UNL     1      -4.653   0.989  -1.419  1.00  0.00     0.002 A 
HETATM   20  C17 UNL     1      -5.395   0.810  -0.254  1.00  0.00     0.003 A 
HETATM   21  C18 UNL     1      -4.672   0.580   0.946  1.00  0.00     0.044 A 
HETATM   22  C19 UNL     1      -3.210   0.500   1.149  1.00  0.00     0.142 A 
HETATM   23  F1  UNL     1      -3.448   0.294   2.370  1.00  0.00    -0.204 F 
ENDBRANCH  15  17
ENDBRANCH  12  15
BRANCH   1  24
HETATM   24  C3  UNL     1       2.139   1.369  -1.044  1.00  0.00     0.037 C 
BRANCH  24  25
HETATM   25  C2  UNL     1       2.814   1.717  -2.342  1.00  0.00    -0.000 C 
HETATM   26  C1  UNL     1       3.948   0.760  -2.605  1.00  0.00     0.005 C 
ENDBRANCH  24  25
ENDBRANCH   1  24
BRANCH   4  27
HETATM   27  O1  UNL     1      -0.338  -2.634   0.703  1.00  0.00    -0.357 OA
HETATM   28  C8  UNL     1      -0.438  -3.996   0.335  1.00  0.00     0.209 C 
ENDBRANCH   4  27
TORSDOF 5
