REMARK  6 active torsions:
REMARK  status: ('A' for Active; 'I' for Inactive)
REMARK    1  A    between atoms: O1_2  and  C2_3 
REMARK    2  A    between atoms: C5_6  and  O2_7 
REMARK    3  A    between atoms: O2_7  and  C6_8 
REMARK    4  A    between atoms: C6_8  and  N1_9 
REMARK    5  A    between atoms: C8_11  and  C9_12 
REMARK    6  A    between atoms: C9_12  and  C10_13 
ROOT
HETATM    1  C10 UNL     1      -0.779   0.779   0.556  1.00  0.00     0.094 C 
HETATM    2  N2  UNL     1      -1.013   0.784  -0.993  1.00  0.00    -0.297 N 
HETATM    3  C11 UNL     1      -2.420   1.258  -1.010  1.00  0.00     0.167 A 
HETATM    4  N3  UNL     1      -2.595   2.671  -0.441  1.00  0.00    -0.254 NA
HETATM    5  C12 UNL     1      -1.526   2.913   0.147  1.00  0.00     0.069 A 
HETATM    6  C13 UNL     1      -2.021   1.631   0.456  1.00  0.00     0.091 A 
HETATM    7  C14 UNL     1      -2.975   0.739   0.309  1.00  0.00    -0.005 A 
HETATM    8  C15 UNL     1      -4.017  -0.230   0.246  1.00  0.00     0.010 A 
HETATM    9  C16 UNL     1      -5.008   0.162   1.124  1.00  0.00     0.016 A 
HETATM   10  C17 UNL     1      -6.154  -0.651   1.201  1.00  0.00     0.025 A 
HETATM   11  C18 UNL     1      -6.189  -1.755   0.399  1.00  0.00     0.037 A 
HETATM   12 CL1  UNL     1      -7.644  -2.732   0.532  1.00  0.00    -0.084 Cl
HETATM   13  C19 UNL     1      -5.148  -2.043  -0.430  1.00  0.00     0.066 A 
HETATM   14  C20 UNL     1      -4.011  -1.317  -0.565  1.00  0.00     0.128 A 
HETATM   15  F1  UNL     1      -2.981  -1.617  -1.386  1.00  0.00    -0.205 F 
HETATM   16  H14 UNL     1      -0.409   1.591  -1.253  1.00  0.00     0.124 HD
ENDROOT
BRANCH   1  17
HETATM   17  C9  UNL     1       0.508   1.274   0.958  1.00  0.00     0.063 C 
BRANCH  17  18
HETATM   18  C8  UNL     1       1.693   0.536   0.435  1.00  0.00    -0.021 A 
HETATM   19  C2  UNL     1       2.024  -0.717   0.915  1.00  0.00     0.074 A 
HETATM   20  C3  UNL     1       3.188  -1.295   0.390  1.00  0.00     0.040 A 
HETATM   21  C4  UNL     1       3.939  -0.612  -0.556  1.00  0.00     0.039 A 
HETATM   22  C5  UNL     1       3.602   0.620  -1.016  1.00  0.00     0.071 A 
HETATM   23  C7  UNL     1       2.447   1.215  -0.512  1.00  0.00     0.046 A 
BRANCH  19  24
HETATM   24  O1  UNL     1       1.182  -1.276   1.856  1.00  0.00    -0.355 OA
HETATM   25  C1  UNL     1       1.455  -2.550   2.406  1.00  0.00     0.210 C 
ENDBRANCH  19  24
BRANCH  22  26
HETATM   26  O2  UNL     1       4.285   1.369  -1.946  1.00  0.00    -0.322 OA
BRANCH  26  27
HETATM   27  C6  UNL     1       5.480   0.977  -2.589  1.00  0.00     0.441 C 
BRANCH  27  28
HETATM   28  N1  UNL     1       6.550   0.741  -1.628  1.00  0.00     0.101 N 
HETATM   29  H8  UNL     1       6.913  -0.216  -1.784  1.00  0.00     0.315 HD
HETATM   30  H9  UNL     1       6.186   0.860  -0.663  1.00  0.00     0.315 HD
ENDBRANCH  27  28
ENDBRANCH  26  27
ENDBRANCH  22  26
ENDBRANCH  17  18
ENDBRANCH   1  17
TORSDOF 6
