REMARK  5 active torsions:
REMARK  status: ('A' for Active; 'I' for Inactive)
REMARK    1  A    between atoms: O1_2  and  C2_3 
REMARK    2  A    between atoms: C5_6  and  O2_7 
REMARK    3  A    between atoms: C14_17  and  N2_18 
REMARK    4  A    between atoms: C15_20  and  N4_21 
REMARK    5  A    between atoms: N4_21  and  C16_22 
ROOT
HETATM    1  C2  UNL     1      -2.940  -1.923  -0.005  1.00  0.00     0.077 A 
HETATM    2  C3  UNL     1      -4.086  -1.334   0.496  1.00  0.00     0.040 A 
HETATM    3  C4  UNL     1      -4.255   0.032   0.579  1.00  0.00     0.042 A 
HETATM    4  C5  UNL     1      -3.224   0.835   0.139  1.00  0.00     0.095 A 
HETATM    5  C7  UNL     1      -2.077   0.232  -0.362  1.00  0.00     0.071 A 
HETATM    6  C8  UNL     1      -1.879  -1.130  -0.458  1.00  0.00     0.008 A 
HETATM    7  C9  UNL     1      -0.911  -2.141  -0.884  1.00  0.00     0.071 C 
HETATM    8  C10 UNL     1       0.464  -1.618  -1.113  1.00  0.00    -0.015 C 
HETATM    9  C11 UNL     1       0.808  -0.437  -1.610  1.00  0.00    -0.037 C 
HETATM   10  C12 UNL     1       0.134   0.572  -2.524  1.00  0.00     0.071 C 
HETATM   11  C13 UNL     1      -0.202   1.738  -1.595  1.00  0.00     0.155 C 
HETATM   12  N1  UNL     1      -1.276   1.354  -0.702  1.00  0.00    -0.375 N 
HETATM   13  C14 UNL     1       0.969   2.077  -0.744  1.00  0.00     0.118 C 
HETATM   14  N3  UNL     1       2.084   1.465  -1.027  1.00  0.00    -0.245 NA
HETATM   15  C15 UNL     1       2.157   0.004  -1.162  1.00  0.00     0.237 C 
HETATM   16  H15 UNL     1      -1.553   2.188  -0.111  1.00  0.00     0.160 HD
ENDROOT
BRANCH  15  17
HETATM   17  N4  UNL     1       2.552  -0.547   0.115  1.00  0.00    -0.361 N 
HETATM   18  H19 UNL     1       2.010  -1.188   0.769  1.00  0.00     0.162 HD
BRANCH  17  19
HETATM   19  C16 UNL     1       3.846  -0.191   0.589  1.00  0.00     0.069 A 
HETATM   20  C17 UNL     1       4.708   0.631  -0.106  1.00  0.00     0.034 A 
HETATM   21  C18 UNL     1       5.968   0.995   0.320  1.00  0.00     0.026 A 
HETATM   22  C19 UNL     1       6.420   0.516   1.526  1.00  0.00     0.037 A 
HETATM   23 CL1  UNL     1       8.004   0.923   2.153  1.00  0.00    -0.084 Cl
HETATM   24  C20 UNL     1       5.610  -0.310   2.273  1.00  0.00     0.068 A 
HETATM   25  C21 UNL     1       4.370  -0.631   1.787  1.00  0.00     0.144 A 
HETATM   26  F1  UNL     1       3.603  -1.456   2.568  1.00  0.00    -0.204 F 
ENDBRANCH  17  19
ENDBRANCH  15  17
BRANCH  13  27
HETATM   27  N2  UNL     1       0.747   3.030   0.287  1.00  0.00    -0.386 N 
HETATM   28  H16 UNL     1       0.816   2.831   1.325  1.00  0.00     0.157 HD
HETATM   29  H17 UNL     1       0.487   4.051   0.201  1.00  0.00     0.157 HD
ENDBRANCH  13  27
BRANCH   1  30
HETATM   30  O1  UNL     1      -2.834  -3.301  -0.061  1.00  0.00    -0.355 OA
HETATM   31  C1  UNL     1      -3.905  -4.103   0.396  1.00  0.00     0.210 C 
ENDBRANCH   1  30
BRANCH   4  32
HETATM   32  O2  UNL     1      -3.409   2.187   0.230  1.00  0.00    -0.354 OA
HETATM   33  C6  UNL     1      -4.560   2.795   0.732  1.00  0.00     0.210 C 
ENDBRANCH   4  32
TORSDOF 5
