REMARK  6 active torsions:
REMARK  status: ('A' for Active; 'I' for Inactive)
REMARK    1  A    between atoms: O1_2  and  C2_3 
REMARK    2  A    between atoms: C5_6  and  O2_7 
REMARK    3  A    between atoms: C7_9  and  C8_10 
REMARK    4  A    between atoms: C8_10  and  C9_11 
REMARK    5  A    between atoms: N1_13  and  C11_14 
REMARK    6  A    between atoms: C18_23  and  N3_24 
ROOT
HETATM    1  C9  UNL     1       0.254   1.404  -0.297  1.00  0.00     0.104 C 
HETATM    2  C10 UNL     1       0.594   0.163  -1.005  1.00  0.00     0.150 C 
HETATM    3  N1  UNL     1       1.958  -0.285  -1.000  1.00  0.00    -0.359 N 
HETATM    4  C17 UNL     1       2.958   0.401  -1.804  1.00  0.00     0.293 C 
HETATM    5  N2  UNL     1       2.968   1.774  -1.687  1.00  0.00    -0.086 NA
HETATM    6  C18 UNL     1       3.694   2.669  -1.201  1.00  0.00     0.718 C 
HETATM    7  N4  UNL     1       2.858   3.798  -1.560  1.00  0.00    -0.059 NA
HETATM    8  C19 UNL     1       1.607   3.695  -1.154  1.00  0.00     0.223 C 
HETATM    9  N5  UNL     1       1.110   2.551  -0.415  1.00  0.00    -0.378 N 
HETATM   10  H23 UNL     1       1.760   2.804   0.399  1.00  0.00     0.160 HD
ENDROOT
BRANCH   1  11
HETATM   11  C8  UNL     1      -1.192   1.850  -0.449  1.00  0.00     0.068 C 
BRANCH  11  12
HETATM   12  C7  UNL     1      -2.202   0.919   0.019  1.00  0.00    -0.020 A 
HETATM   13  C5  UNL     1      -2.738  -0.180  -0.639  1.00  0.00     0.074 A 
HETATM   14  C4  UNL     1      -3.683  -1.011  -0.044  1.00  0.00     0.040 A 
HETATM   15  C3  UNL     1      -4.134  -0.779   1.235  1.00  0.00     0.039 A 
HETATM   16  C2  UNL     1      -3.648   0.293   1.948  1.00  0.00     0.068 A 
HETATM   17  C20 UNL     1      -2.706   1.086   1.300  1.00  0.00     0.046 A 
BRANCH  13  18
HETATM   18  O2  UNL     1      -2.289  -0.414  -1.929  1.00  0.00    -0.355 OA
HETATM   19  C6  UNL     1      -2.819  -1.525  -2.618  1.00  0.00     0.210 C 
ENDBRANCH  13  18
BRANCH  16  20
HETATM   20  O1  UNL     1      -4.052   0.596   3.241  1.00  0.00    -0.356 OA
HETATM   21  C1  UNL     1      -5.013  -0.258   3.832  1.00  0.00     0.210 C 
ENDBRANCH  16  20
ENDBRANCH  11  12
ENDBRANCH   1  11
BRANCH   3  22
HETATM   22  C11 UNL     1       2.332  -1.423  -0.187  1.00  0.00     0.053 A 
HETATM   23  C12 UNL     1       3.267  -1.263   0.814  1.00  0.00     0.031 A 
HETATM   24  C13 UNL     1       3.625  -2.360   1.601  1.00  0.00     0.002 A 
HETATM   25  C14 UNL     1       3.066  -3.612   1.404  1.00  0.00     0.002 A 
HETATM   26  C15 UNL     1       2.133  -3.743   0.395  1.00  0.00     0.026 A 
HETATM   27  C16 UNL     1       1.746  -2.672  -0.415  1.00  0.00     0.060 A 
HETATM   28 CL1  UNL     1       0.575  -2.872  -1.670  1.00  0.00    -0.082 Cl
ENDBRANCH   3  22
BRANCH   6  29
HETATM   29  N3  UNL     1       4.928   2.789  -0.489  1.00  0.00    -0.231 N 
HETATM   30  H20 UNL     1       5.343   2.814  -1.447  1.00  0.00     0.174 HD
HETATM   31  H21 UNL     1       5.157   2.823   0.528  1.00  0.00     0.174 HD
ENDBRANCH   6  29
TORSDOF 6
