REMARK  5 active torsions:
REMARK  status: ('A' for Active; 'I' for Inactive)
REMARK    1  A    between atoms: C2_2  and  O1_3 
REMARK    2  A    between atoms: O1_3  and  C3_4 
REMARK    3  A    between atoms: C6_7  and  O2_8 
REMARK    4  A    between atoms: C9_11  and  C10_12 
REMARK    5  A    between atoms: N1_14  and  C12_15 
ROOT
HETATM    1  C10 UNL     1       0.104   0.802   0.270  1.00  0.00     0.114 C 
HETATM    2  C11 UNL     1      -0.552  -0.101  -0.715  1.00  0.00     0.150 C 
HETATM    3  N1  UNL     1      -1.995   0.026  -0.828  1.00  0.00    -0.361 N 
HETATM    4  C17 UNL     1      -2.381   1.384  -1.320  1.00  0.00     0.275 C 
HETATM    5  N2  UNL     1      -1.941   2.339  -0.325  1.00  0.00    -0.256 NA
HETATM    6  C18 UNL     1      -2.577   2.450   0.820  1.00  0.00     0.120 C 
HETATM    7  C19 UNL     1      -3.698   1.959   1.624  1.00  0.00     0.093 C 
HETATM    8  N3  UNL     1      -1.755   3.359   1.616  1.00  0.00    -0.230 NA
HETATM    9  C20 UNL     1      -0.638   2.662   1.927  1.00  0.00     0.205 C 
HETATM   10  N4  UNL     1      -0.714   1.314   1.343  1.00  0.00    -0.377 N 
HETATM   11  H25 UNL     1      -1.391   0.602   1.683  1.00  0.00     0.160 HD
ENDROOT
BRANCH   1  12
HETATM   12  C9  UNL     1       1.547   0.568   0.573  1.00  0.00     0.091 A 
HETATM   13  C3  UNL     1       2.324   0.694  -0.664  1.00  0.00     0.053 A 
HETATM   14  C4  UNL     1       3.239  -0.201  -0.991  1.00  0.00     0.013 A 
HETATM   15  C5  UNL     1       3.604  -1.394  -0.217  1.00  0.00     0.093 A 
HETATM   16  C6  UNL     1       2.737  -1.584   0.977  1.00  0.00     0.046 A 
HETATM   17  C8  UNL     1       1.819  -0.681   1.308  1.00  0.00     0.019 A 
BRANCH  13  18
HETATM   18  O1  UNL     1       2.070   1.786  -1.485  1.00  0.00    -0.347 OA
BRANCH  18  19
HETATM   19  C2  UNL     1       3.003   2.219  -2.407  1.00  0.00     0.158 C 
HETATM   20  C1  UNL     1       3.535   3.266  -1.816  1.00  0.00     0.038 C 
ENDBRANCH  18  19
ENDBRANCH  13  18
BRANCH  16  21
HETATM   21  O2  UNL     1       2.909  -2.729   1.743  1.00  0.00    -0.360 OA
HETATM   22  C7  UNL     1       4.155  -3.241   2.128  1.00  0.00     0.209 C 
ENDBRANCH  16  21
ENDBRANCH   1  12
BRANCH   3  23
HETATM   23  C12 UNL     1      -2.816  -1.090  -0.479  1.00  0.00     0.046 A 
HETATM   24  C13 UNL     1      -3.325  -1.605   0.601  1.00  0.00     0.028 A 
HETATM   25  C14 UNL     1      -4.102  -2.796   0.276  1.00  0.00     0.001 A 
HETATM   26  C15 UNL     1      -4.067  -3.011  -1.033  1.00  0.00     0.016 A 
HETATM   27  C16 UNL     1      -3.244  -1.943  -1.630  1.00  0.00     0.242 A 
HETATM   28  F1  UNL     1      -3.933  -1.234  -2.590  1.00  0.00    -0.239 F 
ENDBRANCH   3  23
TORSDOF 5
