REMARK  4 active torsions:
REMARK  status: ('A' for Active; 'I' for Inactive)
REMARK    1  A    between atoms: O1_2  and  C2_3 
REMARK    2  A    between atoms: C5_6  and  O2_7 
REMARK    3  A    between atoms: C8_12  and  N3_13 
REMARK    4  A    between atoms: N5_16  and  C10_17 
ROOT
HETATM    1  C2  UNL     1      -3.806  -0.240  -0.543  1.00  0.00     0.046 C 
HETATM    2  C3  UNL     1      -3.387  -0.815   0.603  1.00  0.00     0.036 C 
HETATM    3  C4  UNL     1      -2.303  -0.458   1.533  1.00  0.00     0.059 C 
HETATM    4  C5  UNL     1      -1.136   0.173   1.250  1.00  0.00     0.149 C 
HETATM    5  N1  UNL     1      -0.461   0.726   0.085  1.00  0.00    -0.288 N 
HETATM    6  C7  UNL     1       0.650   1.178   0.915  1.00  0.00     0.220 C 
HETATM    7  N2  UNL     1       1.415   0.173   1.121  1.00  0.00    -0.213 NA
HETATM    8  C8  UNL     1       1.194  -1.128   0.617  1.00  0.00     0.197 C 
HETATM    9  N4  UNL     1       1.167  -1.993  -0.370  1.00  0.00    -0.239 NA
HETATM   10  C9  UNL     1       1.531  -1.480  -1.681  1.00  0.00     0.308 C 
HETATM   11  N5  UNL     1       2.157  -0.193  -1.596  1.00  0.00    -0.231 N 
HETATM   12  O3  UNL     1       1.480   0.872  -2.167  1.00  0.00    -0.244 OA
HETATM   13  C16 UNL     1       0.081   0.833  -2.267  1.00  0.00     0.193 C 
HETATM   14  C17 UNL     1      -0.810   0.768  -1.291  1.00  0.00     0.044 C 
HETATM   15  C18 UNL     1      -2.070   0.750  -2.054  1.00  0.00     0.066 C 
HETATM   16  C19 UNL     1      -3.315   0.971  -1.276  1.00  0.00     0.070 C 
ENDROOT
BRANCH  11  17
HETATM   17  C10 UNL     1       3.402   0.049  -0.960  1.00  0.00     0.098 A 
HETATM   18  C11 UNL     1       4.127  -0.950  -0.374  1.00  0.00     0.036 A 
HETATM   19  C12 UNL     1       5.354  -0.757   0.259  1.00  0.00     0.026 A 
HETATM   20  C13 UNL     1       5.888   0.514   0.310  1.00  0.00     0.037 A 
HETATM   21 CL1  UNL     1       7.428   0.736   1.110  1.00  0.00    -0.084 Cl
HETATM   22  C14 UNL     1       5.175   1.530  -0.272  1.00  0.00     0.068 A 
HETATM   23  C15 UNL     1       3.950   1.307  -0.899  1.00  0.00     0.146 A 
HETATM   24  F1  UNL     1       3.325   2.376  -1.444  1.00  0.00    -0.204 F 
ENDBRANCH  11  17
BRANCH   8  25
HETATM   25  N3  UNL     1       0.789  -2.397   1.153  1.00  0.00    -0.271 NA
HETATM   26  H10 UNL     1       0.924  -2.543   2.186  1.00  0.00     0.127 HD
HETATM   27  H11 UNL     1       0.862  -2.692   2.172  1.00  0.00     0.127 HD
ENDBRANCH   8  25
BRANCH   4  28
HETATM   28  O2  UNL     1      -0.234   0.427   2.269  1.00  0.00    -0.340 OA
HETATM   29  C6  UNL     1      -0.704   0.966   3.479  1.00  0.00     0.211 C 
ENDBRANCH   4  28
BRANCH   1  30
HETATM   30  O1  UNL     1      -4.888  -1.009  -1.019  1.00  0.00    -0.360 OA
HETATM   31  C1  UNL     1      -6.177  -0.431  -0.940  1.00  0.00     0.209 C 
ENDBRANCH   1  30
TORSDOF 4
