REMARK  4 active torsions:
REMARK  status: ('A' for Active; 'I' for Inactive)
REMARK    1  A    between atoms: C2_2  and  C3_3 
REMARK    2  A    between atoms: C8_9  and  N1_10 
REMARK    3  A    between atoms: N1_10  and  C9_11 
REMARK    4  A    between atoms: C14_16  and  N2_17 
ROOT
HETATM    1  C9  UNL     1       0.830   0.797   0.618  1.00  0.00     0.114 C 
HETATM    2  C10 UNL     1      -0.270   0.276   1.372  1.00  0.00     0.015 C 
HETATM    3  C11 UNL     1      -0.693   1.022   2.632  1.00  0.00     0.012 C 
HETATM    4  C12 UNL     1      -1.572   1.930   2.041  1.00  0.00    -0.021 C 
HETATM    5  C13 UNL     1      -1.885   2.299   0.583  1.00  0.00     0.092 C 
HETATM    6  C14 UNL     1      -1.624   1.105  -0.355  1.00  0.00     0.248 C 
HETATM    7  N3  UNL     1      -0.133   1.032  -0.500  1.00  0.00    -0.340 N 
HETATM    8  C15 UNL     1      -2.113  -0.177   0.397  1.00  0.00     0.072 A 
HETATM    9  C16 UNL     1      -3.262   0.245   1.209  1.00  0.00     0.051 C 
HETATM   10  C17 UNL     1      -4.482  -0.547   0.717  1.00  0.00    -0.025 C 
HETATM   11  C18 UNL     1      -4.885  -1.580  -0.064  1.00  0.00    -0.003 C 
HETATM   12  C19 UNL     1      -3.619  -2.122  -0.684  1.00  0.00     0.008 C 
HETATM   13  C20 UNL     1      -2.616  -1.331  -0.296  1.00  0.00    -0.040 A 
HETATM   14  C21 UNL     1      -1.265  -2.032  -0.046  1.00  0.00     0.017 A 
HETATM   15  C22 UNL     1      -0.886  -0.899   0.606  1.00  0.00    -0.026 A 
HETATM   16  H16 UNL     1       0.177   1.179  -1.528  1.00  0.00     0.163 HD
ENDROOT
BRANCH   1  17
HETATM   17  N1  UNL     1       2.213   1.207   0.280  1.00  0.00    -0.342 N 
HETATM   18  H9  UNL     1       2.687   1.914   0.883  1.00  0.00     0.167 HD
BRANCH  17  19
HETATM   19  C8  UNL     1       2.660   0.495  -0.900  1.00  0.00     0.040 A 
HETATM   20  C3  UNL     1       3.111  -0.770  -0.599  1.00  0.00    -0.030 A 
HETATM   21  C4  UNL     1       3.570  -1.602  -1.627  1.00  0.00     0.033 A 
HETATM   22  C5  UNL     1       3.568  -1.148  -2.932  1.00  0.00     0.034 A 
HETATM   23 CL1  UNL     1       4.132  -2.151  -4.247  1.00  0.00    -0.084 Cl
HETATM   24  C6  UNL     1       3.112   0.127  -3.213  1.00  0.00     0.026 A 
HETATM   25  C7  UNL     1       2.649   0.975  -2.208  1.00  0.00     0.032 A 
BRANCH  20  26
HETATM   26  C2  UNL     1       3.179  -1.358   0.754  1.00  0.00     0.036 C 
HETATM   27  C1  UNL     1       4.421  -0.795   1.449  1.00  0.00     0.010 C 
ENDBRANCH  20  26
ENDBRANCH  17  19
ENDBRANCH   1  17
BRANCH   6  28
HETATM   28  N2  UNL     1      -2.283   1.246  -1.545  1.00  0.00     0.109 N 
HETATM   29  H14 UNL     1      -3.115   1.891  -1.577  1.00  0.00     0.316 HD
HETATM   30  H15 UNL     1      -1.718   1.485  -2.408  1.00  0.00     0.316 HD
ENDBRANCH   6  28
TORSDOF 4
