REMARK  7 active torsions:
REMARK  status: ('A' for Active; 'I' for Inactive)
REMARK    1  A    between atoms: B1_1  and  C1_2 
REMARK    2  A    between atoms: C2_3  and  C3_5 
REMARK    3  A    between atoms: C3_5  and  N1_6 
REMARK    4  A    between atoms: N1_6  and  C4_7 
REMARK    5  A    between atoms: C4_7  and  C5_8 
REMARK    6  A    between atoms: C5_8  and  N2_9 
REMARK    7  A    between atoms: N2_9  and  C6_10 
ROOT
HETATM    1  C6  UNL     1      -0.313   0.862  -0.415  1.00  0.00     0.141 A 
HETATM    2  N3  UNL     1       0.028   2.173  -0.380  1.00  0.00    -0.224 NA
HETATM    3  C7  UNL     1      -0.868   3.161  -0.217  1.00  0.00     0.236 A 
HETATM    4  N4  UNL     1      -2.194   2.863  -0.077  1.00  0.00    -0.241 NA
HETATM    5  C8  UNL     1      -2.566   1.587  -0.107  1.00  0.00     0.071 A 
HETATM    6  C9  UNL     1      -1.672   0.555  -0.272  1.00  0.00     0.038 A 
HETATM    7  C10 UNL     1      -1.775  -0.747  -0.336  1.00  0.00     0.017 A 
HETATM    8  C11 UNL     1      -3.021  -1.532  -0.234  1.00  0.00     0.000 A 
HETATM    9  C12 UNL     1      -4.245  -1.063  -0.061  1.00  0.00     0.014 A 
HETATM   10  C13 UNL     1      -4.822   0.290   0.087  1.00  0.00     0.218 A 
HETATM   11  F1  UNL     1      -5.439   0.365   1.345  1.00  0.00    -0.241 F 
HETATM   12  C14 UNL     1      -3.858   1.385   0.036  1.00  0.00     0.046 A 
ENDROOT
BRANCH   1  13
HETATM   13  N2  UNL     1       0.763  -0.080  -0.599  1.00  0.00    -0.342 N 
HETATM   14  H5  UNL     1       0.898  -0.819  -1.320  1.00  0.00     0.167 HD
BRANCH  13  15
HETATM   15  C5  UNL     1       1.742   0.112   0.414  1.00  0.00     0.166 C 
BRANCH  15  16
HETATM   16  C4  UNL     1       2.289  -0.974   0.944  1.00  0.00    -0.005 C 
BRANCH  16  17
HETATM   17  N1  UNL     1       3.129  -1.873   1.342  1.00  0.00    -0.241 NA
BRANCH  17  18
HETATM   18  C3  UNL     1       4.007  -2.422   0.363  1.00  0.00     0.210 C 
BRANCH  18  19
HETATM   19  C2  UNL     1       5.062  -1.542  -0.132  1.00  0.00     0.026 C 
HETATM   20  C1  UNL     1       5.366  -0.288   0.156  1.00  0.00    -0.099 C 
HETATM   21 CL1  UNL     1       6.090  -2.317  -1.317  1.00  0.00    -0.088 Cl
BRANCH  20  22
HETATM   22  B1  UNL     1       5.156   1.489   0.065  1.00  0.00     0.159 B 
HETATM   23  H1  UNL     1       5.795   2.793   0.973  1.00  0.00    -0.030 HD
ENDBRANCH  20  22
ENDBRANCH  18  19
ENDBRANCH  17  18
ENDBRANCH  16  17
ENDBRANCH  15  16
ENDBRANCH  13  15
ENDBRANCH   1  13
TORSDOF 7
