REMARK  8 active torsions:
REMARK  status: ('A' for Active; 'I' for Inactive)
REMARK    1  A    between atoms: O1_2  and  C2_3 
REMARK    2  A    between atoms: C5_6  and  O2_7 
REMARK    3  A    between atoms: C7_9  and  C8_10 
REMARK    4  A    between atoms: C8_10  and  C9_11 
REMARK    5  A    between atoms: C12_14  and  N1_15 
REMARK    6  A    between atoms: C13_17  and  N3_18 
REMARK    7  A    between atoms: N5_21  and  N6_22 
REMARK    8  A    between atoms: N6_22  and  C15_23 
ROOT
HETATM    1  C9  UNL     1       0.411  -0.128  -0.346  1.00  0.00     0.010 C 
HETATM    2  C10 UNL     1      -0.308   0.912  -0.689  1.00  0.00     0.057 C 
HETATM    3  C11 UNL     1       0.310   1.855  -1.614  1.00  0.00     0.082 C 
HETATM    4  C12 UNL     1      -0.153   2.788  -2.464  1.00  0.00     0.142 C 
HETATM    5  N2  UNL     1      -1.485   3.228  -2.797  1.00  0.00    -0.046 NA
HETATM    6  C13 UNL     1      -2.646   3.190  -2.221  1.00  0.00     0.723 C 
HETATM    7  N4  UNL     1      -3.120   2.679  -0.969  1.00  0.00    -0.056 NA
HETATM    8  C14 UNL     1      -2.735   1.793  -0.096  1.00  0.00     0.252 C 
HETATM    9  N5  UNL     1      -1.596   0.943  -0.088  1.00  0.00    -0.249 N 
ENDROOT
BRANCH   1  10
HETATM   10  C8  UNL     1       1.756  -0.591  -0.688  1.00  0.00     0.071 C 
BRANCH  10  11
HETATM   11  C7  UNL     1       2.517  -0.668   0.594  1.00  0.00    -0.019 A 
HETATM   12  C5  UNL     1       2.312  -1.714   1.488  1.00  0.00     0.074 A 
HETATM   13  C4  UNL     1       2.963  -1.869   2.692  1.00  0.00     0.040 A 
HETATM   14  C3  UNL     1       3.888  -0.896   3.011  1.00  0.00     0.039 A 
HETATM   15  C2  UNL     1       4.118   0.165   2.137  1.00  0.00     0.068 A 
HETATM   16  C21 UNL     1       3.443   0.285   0.938  1.00  0.00     0.047 A 
BRANCH  12  17
HETATM   17  O2  UNL     1       1.370  -2.651   1.101  1.00  0.00    -0.355 OA
HETATM   18  C6  UNL     1       1.073  -3.763   1.930  1.00  0.00     0.210 C 
ENDBRANCH  12  17
BRANCH  15  19
HETATM   19  O1  UNL     1       5.075   1.059   2.599  1.00  0.00    -0.356 OA
HETATM   20  C1  UNL     1       5.387   2.179   1.784  1.00  0.00     0.210 C 
ENDBRANCH  15  19
ENDBRANCH  10  11
ENDBRANCH   1  10
BRANCH   9  21
HETATM   21  N6  UNL     1      -1.856  -0.159   0.760  1.00  0.00    -0.293 N 
HETATM   22  H18 UNL     1      -1.466  -0.366   1.728  1.00  0.00     0.187 HD
BRANCH  21  23
HETATM   23  C15 UNL     1      -2.767  -1.107   0.224  1.00  0.00     0.048 A 
HETATM   24  C16 UNL     1      -3.332  -0.954  -1.011  1.00  0.00     0.032 A 
HETATM   25  C17 UNL     1      -4.234  -1.828  -1.615  1.00  0.00     0.026 A 
HETATM   26  C18 UNL     1      -4.556  -2.946  -0.846  1.00  0.00     0.034 A 
HETATM   27 CL1  UNL     1      -5.688  -4.107  -1.522  1.00  0.00    -0.084 Cl
HETATM   28  C19 UNL     1      -4.038  -3.180   0.401  1.00  0.00     0.026 A 
HETATM   29  C20 UNL     1      -3.143  -2.246   0.918  1.00  0.00     0.032 A 
ENDBRANCH  21  23
ENDBRANCH   9  21
BRANCH   4  30
HETATM   30  N1  UNL     1       0.886   3.463  -3.163  1.00  0.00    -0.383 N 
HETATM   31  H13 UNL     1       0.657   3.925  -4.078  1.00  0.00     0.157 HD
HETATM   32  H14 UNL     1       1.834   3.468  -2.729  1.00  0.00     0.157 HD
ENDBRANCH   4  30
BRANCH   6  33
HETATM   33  N3  UNL     1      -3.699   3.783  -2.985  1.00  0.00    -0.231 N 
HETATM   34  H15 UNL     1      -4.158   4.725  -2.902  1.00  0.00     0.174 HD
HETATM   35  H16 UNL     1      -4.289   3.464  -3.808  1.00  0.00     0.174 HD
ENDBRANCH   6  33
TORSDOF 8
