REMARK  7 active torsions:
REMARK  status: ('A' for Active; 'I' for Inactive)
REMARK    1  A    between atoms: O1_2  and  C2_3 
REMARK    2  A    between atoms: C2_3  and  C3_4 
REMARK    3  A    between atoms: C5_6  and  C6_7 
REMARK    4  A    between atoms: C6_7  and  C7_8 
REMARK    5  A    between atoms: C7_8  and  C8_9 
REMARK    6  A    between atoms: C16_17  and  O2_18 
REMARK    7  A    between atoms: C20_23  and  N2_24 
ROOT
HETATM    1  C8  UNL     1      -0.678  -0.946   0.173  1.00  0.00     0.065 A 
HETATM    2  C9  UNL     1       0.716  -1.374  -0.184  1.00  0.00     0.093 A 
HETATM    3  C10 UNL     1       2.165  -1.120   0.184  1.00  0.00     0.026 C 
HETATM    4  C11 UNL     1       3.133  -0.329  -0.472  1.00  0.00     0.049 A 
HETATM    5  C12 UNL     1       3.534   1.085   0.118  1.00  0.00     0.040 A 
HETATM    6  C13 UNL     1       3.487   2.146  -0.893  1.00  0.00     0.032 A 
HETATM    7  C14 UNL     1       4.801   2.479  -0.253  1.00  0.00    -0.013 A 
HETATM    8  C15 UNL     1       5.691   2.014   0.827  1.00  0.00     0.009 A 
HETATM    9  C16 UNL     1       4.843   0.868   1.280  1.00  0.00     0.101 A 
HETATM   10  C18 UNL     1       3.557   0.171   0.977  1.00  0.00     0.050 A 
HETATM   11  C19 UNL     1       2.951   1.016  -0.193  1.00  0.00     0.070 A 
HETATM   12  N1  UNL     1       1.873   1.374  -0.892  1.00  0.00    -0.251 NA
HETATM   13  C20 UNL     1       0.792   0.489  -0.617  1.00  0.00     0.172 C 
HETATM   14  N3  UNL     1       0.512  -0.263   0.579  1.00  0.00    -0.233 NA
ENDROOT
BRANCH   1  15
HETATM   15  C7  UNL     1      -1.428  -1.826  -0.734  1.00  0.00     0.055 C 
BRANCH  15  16
HETATM   16  C6  UNL     1      -2.741  -1.655  -0.616  1.00  0.00     0.001 C 
BRANCH  16  17
HETATM   17  C5  UNL     1      -4.069  -1.154  -0.174  1.00  0.00    -0.021 C 
HETATM   18  C3  UNL     1      -5.340  -1.080  -0.159  1.00  0.00    -0.064 C 
HETATM   19  C4  UNL     1      -6.111  -1.953  -1.074  1.00  0.00     0.045 C 
BRANCH  18  20
HETATM   20  C2  UNL     1      -5.893  -0.101   0.800  1.00  0.00     0.200 C 
BRANCH  20  21
HETATM   21  O1  UNL     1      -6.635   0.848   0.115  1.00  0.00    -0.392 OA
HETATM   22  C1  UNL     1      -5.750   1.487  -0.764  1.00  0.00     0.201 C 
ENDBRANCH  20  21
ENDBRANCH  18  20
ENDBRANCH  16  17
ENDBRANCH  15  16
ENDBRANCH   1  15
BRANCH  13  23
HETATM   23  N2  UNL     1      -0.012   0.451  -1.788  1.00  0.00    -0.374 N 
HETATM   24  H22 UNL     1      -0.578   0.423  -2.615  1.00  0.00     0.158 HD
HETATM   25  H23 UNL     1      -1.005   0.891  -1.587  1.00  0.00     0.158 HD
ENDBRANCH  13  23
BRANCH   9  26
HETATM   26  O2  UNL     1       5.438   0.210   2.380  1.00  0.00    -0.379 OA
HETATM   27  C17 UNL     1       6.624   0.510   3.004  1.00  0.00     0.203 C 
ENDBRANCH   9  26
TORSDOF 7
