REMARK  5 active torsions:
REMARK  status: ('A' for Active; 'I' for Inactive)
REMARK    1  A    between atoms: C2_2  and  O1_3 
REMARK    2  A    between atoms: O1_3  and  C3_4 
REMARK    3  A    between atoms: C5_6  and  C6_7 
REMARK    4  A    between atoms: C9_12  and  N3_13 
REMARK    5  A    between atoms: N3_13  and  C10_14 
ROOT
HETATM    1  C6  UNL     1       1.186  -0.063  -0.696  1.00  0.00     0.084 C 
HETATM    2  C7  UNL     1       1.380  -1.435  -1.191  1.00  0.00     0.104 C 
HETATM    3  N1  UNL     1       0.638  -2.471  -1.393  1.00  0.00    -0.257 NA
HETATM    4  C8  UNL     1      -0.764  -2.637  -1.176  1.00  0.00     0.234 C 
HETATM    5  N2  UNL     1      -1.548  -1.884  -0.474  1.00  0.00    -0.225 NA
HETATM    6  C9  UNL     1      -1.203  -0.696   0.262  1.00  0.00     0.126 C 
HETATM    7  C16 UNL     1      -0.070  -0.024   0.103  1.00  0.00     0.038 C 
ENDROOT
BRANCH   6   8
HETATM    8  N3  UNL     1      -2.083  -0.145   1.239  1.00  0.00    -0.341 N 
HETATM    9  H9  UNL     1      -1.624  -0.020   2.180  1.00  0.00     0.167 HD
BRANCH   8  10
HETATM   10  C10 UNL     1      -3.379   0.108   0.727  1.00  0.00     0.034 A 
HETATM   11  C11 UNL     1      -4.532  -0.600   0.894  1.00  0.00     0.029 A 
HETATM   12  C12 UNL     1      -5.745  -0.296   0.345  1.00  0.00     0.004 A 
HETATM   13  C13 UNL     1      -5.746   0.854  -0.446  1.00  0.00     0.019 A 
HETATM   14  C14 UNL     1      -4.629   1.629  -0.668  1.00  0.00     0.013 A 
HETATM   15 BR1  UNL     1      -4.675   3.197  -1.760  1.00  0.00    -0.051 Br
HETATM   16  C15 UNL     1      -3.439   1.256  -0.079  1.00  0.00     0.048 A 
ENDBRANCH   8  10
ENDBRANCH   6   8
BRANCH   1  17
HETATM   17  C5  UNL     1       2.324   0.460   0.080  1.00  0.00    -0.035 A 
HETATM   18  C3  UNL     1       3.771   0.840   0.362  1.00  0.00     0.181 A 
HETATM   19  C4  UNL     1       2.692   1.011   1.290  1.00  0.00     0.016 A 
BRANCH  18  20
HETATM   20  O1  UNL     1       4.659  -0.255   0.535  1.00  0.00    -0.350 OA
BRANCH  20  21
HETATM   21  C2  UNL     1       5.958  -0.124   0.080  1.00  0.00     0.125 C 
HETATM   22  C1  UNL     1       6.898   0.635  -0.435  1.00  0.00     0.037 C 
ENDBRANCH  20  21
ENDBRANCH  18  20
ENDBRANCH   1  17
TORSDOF 5
