REMARK  5 active torsions:
REMARK  status: ('A' for Active; 'I' for Inactive)
REMARK    1  A    between atoms: O1_2  and  C2_3 
REMARK    2  A    between atoms: C2_3  and  C3_4 
REMARK    3  A    between atoms: C3_4  and  O2_20 
REMARK    4  A    between atoms: C4_5  and  C5_6 
REMARK    5  A    between atoms: C6_7  and  C7_8 
ROOT
HETATM    1  C5  UNL     1       0.063  -1.251  -0.904  1.00  0.00    -0.067 C 
HETATM    2  C6  UNL     1       1.376  -1.297  -0.965  1.00  0.00     0.063 C 
HETATM    3  N1  UNL     1       2.057  -2.441  -1.460  1.00  0.00    -0.242 NA
HETATM    4  C13 UNL     1       1.720  -3.375  -2.240  1.00  0.00     0.232 C 
HETATM    5  N2  UNL     1       0.589  -3.747  -2.968  1.00  0.00    -0.258 NA
HETATM    6  C14 UNL     1      -0.623  -3.396  -2.963  1.00  0.00     0.002 C 
HETATM    7  B1  UNL     1      -1.134  -2.486  -1.395  1.00  0.00     0.254 B 
ENDROOT
BRANCH   1   8
HETATM    8  C4  UNL     1      -0.555  -0.062  -0.390  1.00  0.00     0.031 C 
HETATM    9  C3  UNL     1      -1.770   0.383  -0.165  1.00  0.00     0.069 C 
BRANCH   9  10
HETATM   10  C2  UNL     1      -2.314   1.627   0.370  1.00  0.00     0.231 C 
BRANCH  10  11
HETATM   11  O1  UNL     1      -3.070   1.387   1.520  1.00  0.00    -0.390 OA
HETATM   12  C1  UNL     1      -3.553   2.601   1.987  1.00  0.00     0.201 C 
ENDBRANCH  10  11
ENDBRANCH   9  10
BRANCH   9  13
HETATM   13  O2  UNL     1      -2.754  -0.509  -0.504  1.00  0.00    -0.358 OA
HETATM   14  C15 UNL     1      -3.441  -1.286   0.448  1.00  0.00     0.209 C 
ENDBRANCH   9  13
ENDBRANCH   1   8
BRANCH   2  15
HETATM   15  C7  UNL     1       2.254  -0.218  -0.551  1.00  0.00    -0.006 A 
HETATM   16  C8  UNL     1       2.321   1.111  -0.872  1.00  0.00     0.014 A 
HETATM   17  C9  UNL     1       3.235   1.959  -0.288  1.00  0.00     0.002 A 
HETATM   18  C10 UNL     1       4.134   1.495   0.658  1.00  0.00     0.019 A 
HETATM   19  C11 UNL     1       4.092   0.160   1.000  1.00  0.00     0.011 A 
HETATM   20 BR1  UNL     1       5.360  -0.396   2.303  1.00  0.00    -0.051 Br
HETATM   21  C12 UNL     1       3.167  -0.682   0.406  1.00  0.00     0.032 A 
ENDBRANCH   2  15
TORSDOF 5
