REMARK  5 active torsions:
REMARK  status: ('A' for Active; 'I' for Inactive)
REMARK    1  A    between atoms: O1_2  and  C2_3 
REMARK    2  A    between atoms: C2_3  and  C3_4 
REMARK    3  A    between atoms: C5_7  and  C6_8 
REMARK    4  A    between atoms: C6_8  and  O2_9 
REMARK    5  A    between atoms: O2_9  and  C7_10 
ROOT
HETATM    1  C6  UNL     1       0.148   0.005   1.377  1.00  0.00     0.097 C 
HETATM    2  C12 UNL     1       0.834   1.156   1.358  1.00  0.00     0.081 C 
HETATM    3  N2  UNL     1       2.249   1.023   1.386  1.00  0.00    -0.364 N 
HETATM    4  C13 UNL     1       3.231   1.949   0.954  1.00  0.00     0.088 C 
HETATM    5  C14 UNL     1       3.040   3.134   0.380  1.00  0.00     0.017 C 
HETATM    6  C15 UNL     1       1.783   3.788   0.046  1.00  0.00     0.007 C 
HETATM    7  C16 UNL     1       0.584   3.459   0.449  1.00  0.00    -0.044 C 
HETATM    8  C17 UNL     1      -0.455   4.374  -0.110  1.00  0.00     0.046 C 
HETATM    9  C18 UNL     1       0.083   2.402   1.313  1.00  0.00     0.251 C 
HETATM   10  F1  UNL     1      -0.160   2.848   2.618  1.00  0.00    -0.238 F 
HETATM   11  H17 UNL     1       2.617   0.111   1.782  1.00  0.00     0.165 HD
ENDROOT
BRANCH   1  12
HETATM   12  C5  UNL     1       0.817  -1.271   1.422  1.00  0.00     0.075 C 
HETATM   13  C2  UNL     1       1.674  -2.014   0.743  1.00  0.00     0.071 C 
BRANCH  13  14
HETATM   14  O1  UNL     1       2.121  -3.292   1.126  1.00  0.00    -0.356 OA
HETATM   15  C1  UNL     1       1.396  -4.444   0.679  1.00  0.00     0.210 C 
ENDBRANCH  13  14
BRANCH  13  16
HETATM   16  C3  UNL     1       2.299  -1.632  -0.518  1.00  0.00     0.048 C 
HETATM   17  C4  UNL     1       3.169  -2.291  -1.287  1.00  0.00     0.087 C 
HETATM   18 CL1  UNL     1       3.804  -1.660  -2.769  1.00  0.00    -0.097 Cl
ENDBRANCH  13  16
ENDBRANCH   1  12
BRANCH   1  19
HETATM   19  O2  UNL     1      -1.250   0.095   1.350  1.00  0.00    -0.344 OA
BRANCH  19  20
HETATM   20  C7  UNL     1      -1.923  -0.670   0.379  1.00  0.00     0.132 C 
HETATM   21  C8  UNL     1      -3.416  -0.460   0.486  1.00  0.00     0.062 C 
HETATM   22  C9  UNL     1      -4.155  -0.926  -0.726  1.00  0.00     0.272 C 
HETATM   23  N1  UNL     1      -3.372  -1.785  -1.579  1.00  0.00     0.083 N 
HETATM   24  C10 UNL     1      -2.124  -1.232  -1.986  1.00  0.00     0.272 C 
HETATM   25  H12 UNL     1      -3.356  -2.770  -1.271  1.00  0.00     0.315 HD
HETATM   26  C11 UNL     1      -1.525  -0.237  -1.020  1.00  0.00     0.062 C 
ENDBRANCH  19  20
ENDBRANCH   1  19
TORSDOF 5
