REMARK  8 active torsions:
REMARK  status: ('A' for Active; 'I' for Inactive)
REMARK    1  A    between atoms: C3_3  and  C4_4 
REMARK    2  A    between atoms: C8_8  and  C9_9 
REMARK    3  A    between atoms: C11_13  and  N3_14 
REMARK    4  A    between atoms: C14_17  and  C15_18 
REMARK    5  A    between atoms: C15_18  and  O1_19 
REMARK    6  A    between atoms: O1_19  and  C16_20 
REMARK    7  A    between atoms: C16_20  and  C17_21 
REMARK    8  A    between atoms: C19_23  and  O2_24 
ROOT
HETATM    1  C1  UNL     1       8.830  -1.743  -1.167  1.00  0.00     0.112 C 
HETATM    2  C2  UNL     1       7.500  -1.105  -1.074  1.00  0.00    -0.105 C 
HETATM    3  C3  UNL     1       6.428  -0.572  -0.988  1.00  0.00    -0.067 C 
ENDROOT
BRANCH   3   4
HETATM    4  C4  UNL     1       5.144   0.058  -0.862  1.00  0.00     0.018 A 
HETATM    5  C5  UNL     1       4.962   1.261  -1.512  1.00  0.00     0.020 A 
HETATM    6  C6  UNL     1       3.733   1.866  -1.392  1.00  0.00     0.002 A 
HETATM    7  C7  UNL     1       2.668   1.391  -0.689  1.00  0.00     0.014 A 
HETATM    8  C8  UNL     1       2.853   0.197  -0.046  1.00  0.00    -0.005 A 
HETATM    9  C21 UNL     1       4.084  -0.462  -0.135  1.00  0.00     0.034 A 
BRANCH   8  10
HETATM   10  C9  UNL     1       1.941  -0.604   0.767  1.00  0.00     0.079 C 
HETATM   11  N1  UNL     1       1.965  -1.721   1.458  1.00  0.00    -0.241 NA
HETATM   12  C10 UNL     1       0.851  -2.201   2.175  1.00  0.00     0.231 C 
HETATM   13  N2  UNL     1      -0.366  -1.615   2.301  1.00  0.00    -0.231 NA
HETATM   14  C11 UNL     1      -0.466  -0.336   1.617  1.00  0.00     0.327 A 
HETATM   15  C12 UNL     1       0.504  -0.254   0.530  1.00  0.00     0.039 A 
HETATM   16  C19 UNL     1      -1.749   0.025   1.112  1.00  0.00     0.119 A 
HETATM   17  C13 UNL     1      -0.210   0.160  -0.532  1.00  0.00     0.026 A 
HETATM   18  C14 UNL     1      -1.614   0.338  -0.187  1.00  0.00     0.000 A 
BRANCH  14  19
HETATM   19  N3  UNL     1      -0.071   0.646   2.688  1.00  0.00     0.121 N 
HETATM   20  H8  UNL     1      -0.885   0.638   3.337  1.00  0.00     0.317 HD
HETATM   21  H9  UNL     1       0.038   1.586   2.222  1.00  0.00     0.317 HD
ENDBRANCH  14  19
BRANCH  18  22
HETATM   22  C15 UNL     1      -2.679   0.784  -1.121  1.00  0.00     0.209 C 
BRANCH  22  23
HETATM   23  O1  UNL     1      -3.906   0.840  -0.439  1.00  0.00    -0.387 OA
BRANCH  23  24
HETATM   24  C16 UNL     1      -4.865   1.259  -1.346  1.00  0.00     0.167 C 
BRANCH  24  25
HETATM   25  C17 UNL     1      -6.213   1.330  -0.634  1.00  0.00     0.022 C 
HETATM   26  C18 UNL     1      -6.583  -0.031  -0.097  1.00  0.00     0.007 C 
ENDBRANCH  24  25
ENDBRANCH  23  24
ENDBRANCH  22  23
ENDBRANCH  18  22
BRANCH  16  27
HETATM   27  O2  UNL     1      -2.930   0.048   1.845  1.00  0.00    -0.355 OA
HETATM   28  C20 UNL     1      -3.695  -1.135   1.959  1.00  0.00     0.209 C 
ENDBRANCH  16  27
ENDBRANCH   8  10
ENDBRANCH   3   4
TORSDOF 8
