REMARK  8 active torsions:
REMARK  status: ('A' for Active; 'I' for Inactive)
REMARK    1  A    between atoms: C2_2  and  C3_3 
REMARK    2  A    between atoms: C3_3  and  N1_4 
REMARK    3  A    between atoms: N1_4  and  C4_5 
REMARK    4  A    between atoms: N1_4  and  C6_7 
REMARK    5  A    between atoms: C6_7  and  C7_8 
REMARK    6  A    between atoms: C7_8  and  C8_9 
REMARK    7  A    between atoms: C8_9  and  N2_10 
REMARK    8  A    between atoms: C8_9  and  C9_11 
ROOT
HETATM    1  C9  UNL     1       1.511  -0.392   0.335  1.00  0.00    -0.025 C 
HETATM    2  C10 UNL     1       2.185   0.650   0.938  1.00  0.00    -0.018 C 
HETATM    3  C11 UNL     1       3.543   0.498   1.547  1.00  0.00     0.057 C 
HETATM    4  C12 UNL     1       4.623   1.113   0.754  1.00  0.00     0.273 C 
HETATM    5  N3  UNL     1       5.915   0.371   0.912  1.00  0.00     0.087 N 
HETATM    6  C13 UNL     1       5.676  -0.830   0.044  1.00  0.00     0.297 C 
HETATM    7  C14 UNL     1       4.607  -1.599   0.689  1.00  0.00     0.010 C 
HETATM    8  C15 UNL     1       3.573  -1.540  -0.115  1.00  0.00    -0.017 C 
HETATM    9  C16 UNL     1       3.004  -1.034  -1.437  1.00  0.00     0.307 C 
HETATM   10  N4  UNL     1       2.063  -2.173  -1.282  1.00  0.00     0.100 N 
HETATM   11  C17 UNL     1       2.077  -1.785   0.109  1.00  0.00     0.282 C 
HETATM   12  H25 UNL     1       6.640   0.951   0.473  1.00  0.00     0.316 HD
HETATM   13  H31 UNL     1       1.175  -1.942  -1.747  1.00  0.00     0.317 HD
ENDROOT
BRANCH   1  14
HETATM   14  C8  UNL     1       0.156  -0.120  -0.226  1.00  0.00     0.107 C 
BRANCH  14  15
HETATM   15  C7  UNL     1      -0.862  -1.112   0.294  1.00  0.00     0.059 C 
BRANCH  15  16
HETATM   16  C6  UNL     1      -2.192  -1.014  -0.392  1.00  0.00     0.274 C 
BRANCH  16  17
HETATM   17  N1  UNL     1      -2.891   0.216  -0.210  1.00  0.00     0.088 N 
BRANCH  17  18
HETATM   18  C3  UNL     1      -4.048   0.347  -1.062  1.00  0.00     0.272 C 
BRANCH  18  19
HETATM   19  C2  UNL     1      -4.519   1.766  -1.229  1.00  0.00     0.026 C 
HETATM   20  C1  UNL     1      -5.739   1.837  -2.147  1.00  0.00     0.007 C 
ENDBRANCH  18  19
ENDBRANCH  17  18
BRANCH  17  21
HETATM   21  C4  UNL     1      -3.197   0.513   1.166  1.00  0.00     0.268 C 
HETATM   22  C5  UNL     1      -4.133  -0.522   1.773  1.00  0.00     0.037 C 
ENDBRANCH  17  21
ENDBRANCH  16  17
ENDBRANCH  15  16
ENDBRANCH  14  15
BRANCH  14  23
HETATM   23  N2  UNL     1      -0.313   1.202  -0.041  1.00  0.00    -0.422 N 
HETATM   24  H18 UNL     1      -0.329   1.600   0.887  1.00  0.00     0.150 HD
HETATM   25  H19 UNL     1      -0.566   1.758  -0.851  1.00  0.00     0.150 HD
ENDBRANCH  14  23
ENDBRANCH   1  14
TORSDOF 8
