REMARK  9 active torsions:
REMARK  status: ('A' for Active; 'I' for Inactive)
REMARK    1  A    between atoms: C2_2  and  C3_3 
REMARK    2  A    between atoms: C4_5  and  C5_6 
REMARK    3  A    between atoms: C14_18  and  C15_19 
REMARK    4  A    between atoms: C15_19  and  C16_20 
REMARK       I    between atoms: C16_20  and  N3_22 
REMARK    5  A    between atoms: N3_22  and  C17_23 
REMARK    6  A    between atoms: C17_23  and  C18_24 
REMARK    7  A    between atoms: C18_24  and  N4_25 
REMARK    8  A    between atoms: N4_25  and  C19_26 
REMARK    9  A    between atoms: N4_25  and  C21_28 
ROOT
HETATM    1  C3  UNL     1      -1.086  -2.162  -0.167  1.00  0.00     0.113 A 
HETATM    2  N1  UNL     1      -2.434  -1.894  -0.592  1.00  0.00    -0.381 N 
HETATM    3  C4  UNL     1      -2.503  -0.656   0.090  1.00  0.00     0.034 A 
HETATM    4  C14 UNL     1      -1.259  -0.857   0.509  1.00  0.00    -0.022 A 
HETATM    5  H7  UNL     1      -2.842  -2.636  -1.194  1.00  0.00     0.160 HD
ENDROOT
BRANCH   3   6
HETATM    6  C5  UNL     1      -3.557   0.323   0.205  1.00  0.00     0.047 C 
HETATM    7  C6  UNL     1      -4.776   0.399  -0.276  1.00  0.00     0.047 A 
HETATM    8  C7  UNL     1      -5.576  -0.464  -1.122  1.00  0.00     0.257 A 
HETATM    9  C13 UNL     1      -5.664   1.538   0.003  1.00  0.00     0.009 A 
HETATM   10  O1  UNL     1      -5.217  -1.559  -1.605  1.00  0.00    -0.267 OA
HETATM   11  N2  UNL     1      -6.870   0.066  -1.371  1.00  0.00    -0.322 N 
HETATM   12  C8  UNL     1      -6.845   1.284  -0.652  1.00  0.00     0.046 A 
HETATM   13  H9  UNL     1      -7.652  -0.329  -1.937  1.00  0.00     0.169 HD
HETATM   14  C9  UNL     1      -7.844   2.251  -0.519  1.00  0.00     0.033 A 
HETATM   15  C10 UNL     1      -7.707   3.407   0.212  1.00  0.00     0.044 A 
HETATM   16  C11 UNL     1      -6.521   3.660   0.869  1.00  0.00     0.117 A 
HETATM   17  F1  UNL     1      -6.272   4.757   1.613  1.00  0.00    -0.206 F 
HETATM   18  C12 UNL     1      -5.540   2.705   0.736  1.00  0.00     0.057 A 
ENDBRANCH   3   6
BRANCH   4  19
HETATM   19  C15 UNL     1      -0.333  -0.054   1.359  1.00  0.00     0.141 C 
BRANCH  19  20
HETATM   20  C16 UNL     1       0.893   0.230   0.573  1.00  0.00     0.221 C 
HETATM   21  O2  UNL     1       1.043  -0.275  -0.568  1.00  0.00    -0.273 OA
HETATM   22  N3  UNL     1       1.897   1.094   1.151  1.00  0.00    -0.359 N 
HETATM   23  H15 UNL     1       1.678   1.477   2.120  1.00  0.00     0.162 HD
BRANCH  22  24
HETATM   24  C17 UNL     1       3.149   1.435   0.459  1.00  0.00     0.152 C 
BRANCH  24  25
HETATM   25  C18 UNL     1       3.947   0.199   0.210  1.00  0.00     0.292 C 
BRANCH  25  26
HETATM   26  N4  UNL     1       5.197   0.456  -0.510  1.00  0.00     0.089 N 
BRANCH  26  27
HETATM   27  C19 UNL     1       6.036   1.198   0.417  1.00  0.00     0.268 C 
HETATM   28  C20 UNL     1       7.372   1.597  -0.118  1.00  0.00     0.037 C 
ENDBRANCH  26  27
BRANCH  26  29
HETATM   29  C21 UNL     1       5.729  -0.893  -0.762  1.00  0.00     0.268 C 
HETATM   30  C22 UNL     1       6.916  -0.926  -1.653  1.00  0.00     0.037 C 
ENDBRANCH  26  29
ENDBRANCH  25  26
ENDBRANCH  24  25
ENDBRANCH  22  24
ENDBRANCH  19  20
ENDBRANCH   4  19
BRANCH   1  31
HETATM   31  C2  UNL     1      -0.964  -3.348   0.767  1.00  0.00     0.025 C 
HETATM   32  C1  UNL     1      -1.482  -4.556   0.016  1.00  0.00     0.007 C 
ENDBRANCH   1  31
TORSDOF 9
