REMARK  6 active torsions:
REMARK  status: ('A' for Active; 'I' for Inactive)
REMARK    1  A    between atoms: N1_1  and  C1_2 
REMARK    2  A    between atoms: C3_6  and  C4_7 
REMARK    3  A    between atoms: C5_8  and  C6_9 
REMARK    4  A    between atoms: C7_10  and  C8_11 
REMARK    5  A    between atoms: C8_11  and  C9_12 
REMARK    6  A    between atoms: N4_16  and  C11_17 
ROOT
HETATM    1  C4  UNL     1       0.751  -0.126   0.063  1.00  0.00     0.093 A 
HETATM    2  C5  UNL     1       1.704  -0.865  -0.595  1.00  0.00     0.087 A 
HETATM    3  N3  UNL     1       1.132  -1.417  -1.682  1.00  0.00    -0.242 NA
HETATM    4  C10 UNL     1      -0.165  -1.047  -1.733  1.00  0.00     0.211 A 
HETATM    5  N4  UNL     1      -0.394  -0.256  -0.662  1.00  0.00    -0.333 N 
ENDROOT
BRANCH   1   6
HETATM    6  C3  UNL     1       0.929   0.635   1.279  1.00  0.00     0.092 C 
HETATM    7  C2  UNL     1       1.622   0.051   2.330  1.00  0.00    -0.023 C 
HETATM    8  B1  UNL     1       2.445   1.042   3.556  1.00  0.00     0.362 B 
HETATM    9  N2  UNL     1       1.125   2.581   3.768  1.00  0.00    -0.181 NA
HETATM   10  C1  UNL     1       0.584   2.634   2.530  1.00  0.00     0.700 C 
HETATM   11  N5  UNL     1       0.463   1.875   1.452  1.00  0.00    -0.064 NA
BRANCH  10  12
HETATM   12  N1  UNL     1       0.004   3.935   2.494  1.00  0.00    -0.233 N 
HETATM   13  H1  UNL     1      -0.895   4.111   2.979  1.00  0.00     0.174 HD
HETATM   14  H2  UNL     1       0.518   4.699   1.963  1.00  0.00     0.174 HD
ENDBRANCH  10  12
ENDBRANCH   1   6
BRANCH   2  15
HETATM   15  C6  UNL     1       3.123  -1.059  -0.224  1.00  0.00     0.034 C 
HETATM   16  C7  UNL     1       3.923  -1.795  -0.948  1.00  0.00     0.004 C 
BRANCH  16  17
HETATM   17  C8  UNL     1       5.313  -1.984  -0.585  1.00  0.00     0.029 C 
BRANCH  17  18
HETATM   18  C9  UNL     1       6.107  -2.733  -1.330  1.00  0.00     0.188 C 
HETATM   19  F1  UNL     1       6.736  -3.529  -2.222  1.00  0.00    -0.219 F 
ENDBRANCH  17  18
ENDBRANCH  16  17
ENDBRANCH   2  15
BRANCH   5  20
HETATM   20  C11 UNL     1      -1.681   0.352  -0.354  1.00  0.00     0.091 C 
HETATM   21  C12 UNL     1      -2.383   0.741  -1.635  1.00  0.00     0.026 C 
HETATM   22  C13 UNL     1      -3.761   1.240  -1.239  1.00  0.00     0.002 C 
HETATM   23  C14 UNL     1      -4.609   0.181  -0.607  1.00  0.00     0.000 C 
HETATM   24  C15 UNL     1      -3.762  -1.051  -0.320  1.00  0.00     0.002 C 
HETATM   25  C16 UNL     1      -2.570  -0.574   0.458  1.00  0.00     0.026 C 
ENDBRANCH   5  20
TORSDOF 6
