REMARK  0 active torsions:
REMARK  status: ('A' for Active; 'I' for Inactive)
ROOT
HETATM    1  C1  UNL     1      -3.716   2.596   1.489  1.00  0.00     0.045 C 
HETATM    2  C2  UNL     1      -2.801   1.476   1.078  1.00  0.00    -0.066 C 
HETATM    3  C3  UNL     1      -1.483   1.701   1.295  1.00  0.00     0.138 C 
HETATM    4  N1  UNL     1      -0.435   0.827   0.996  1.00  0.00    -0.075 NA
HETATM    5  C4  UNL     1       0.638   0.687   1.640  1.00  0.00     0.727 C 
HETATM    6  N2  UNL     1       1.222   1.254   2.796  1.00  0.00    -0.072 NA
HETATM    7  C5  UNL     1       2.417   1.692   2.857  1.00  0.00     0.174 C 
HETATM    8  C6  UNL     1       3.362   1.679   1.744  1.00  0.00     0.117 C 
HETATM    9  F1  UNL     1       4.648   2.106   1.767  1.00  0.00    -0.209 F 
HETATM   10  C7  UNL     1       3.702   1.427   0.492  1.00  0.00     0.070 C 
HETATM   11  C8  UNL     1       3.741   1.028  -0.932  1.00  0.00     0.049 C 
HETATM   12  C9  UNL     1       5.103   0.374  -1.215  1.00  0.00     0.017 C 
HETATM   13  C10 UNL     1       2.704   0.058  -1.319  1.00  0.00     0.085 A 
HETATM   14  N3  UNL     1       2.661  -0.469  -2.541  1.00  0.00    -0.244 NA
HETATM   15  C11 UNL     1       1.630  -1.293  -2.622  1.00  0.00     0.211 A 
HETATM   16  N4  UNL     1       0.983  -1.316  -1.451  1.00  0.00    -0.326 N 
HETATM   17  C12 UNL     1       1.624  -0.481  -0.602  1.00  0.00     0.149 A 
HETATM   18  N5  UNL     1       1.084  -0.353   0.723  1.00  0.00    -0.171 N 
HETATM   19  C13 UNL     1      -0.220  -2.115  -1.178  1.00  0.00     0.131 C 
HETATM   20  C14 UNL     1      -1.395  -1.346  -1.707  1.00  0.00     0.020 C 
HETATM   21  C15 UNL     1      -2.717  -1.976  -1.462  1.00  0.00     0.002 C 
HETATM   22  C16 UNL     1      -2.986  -2.240   0.003  1.00  0.00     0.000 C 
HETATM   23  C17 UNL     1      -2.668  -1.019   0.836  1.00  0.00     0.004 C 
HETATM   24  C18 UNL     1      -3.415   0.217   0.538  1.00  0.00     0.035 C 
HETATM   25  H12 UNL     1       0.986  -1.316   1.168  1.00  0.00     0.186 HD
ENDROOT
TORSDOF 0
