REMARK  7 active torsions:
REMARK  status: ('A' for Active; 'I' for Inactive)
REMARK    1  A    between atoms: O1_2  and  C2_3 
REMARK    2  A    between atoms: C4_5  and  O2_6 
REMARK    3  A    between atoms: O2_6  and  C5_7 
REMARK    4  A    between atoms: C11_14  and  C12_15 
REMARK    5  A    between atoms: C14_17  and  C15_18 
REMARK    6  A    between atoms: C16_19  and  N2_20 
REMARK    7  A    between atoms: C16_19  and  C17_21 
ROOT
HETATM    1  C2  UNL     1      -2.189   2.302  -2.735  1.00  0.00     0.073 A 
HETATM    2  C3  UNL     1      -2.046   1.065  -2.087  1.00  0.00     0.074 A 
HETATM    3  C4  UNL     1      -0.949   0.705  -1.338  1.00  0.00     0.086 A 
HETATM    4  C10 UNL     1       0.028   1.663  -1.264  1.00  0.00     0.056 A 
HETATM    5  C11 UNL     1       1.111   1.367  -0.499  1.00  0.00     0.079 A 
HETATM    6  N3  UNL     1       2.090   2.317  -0.348  1.00  0.00    -0.241 NA
HETATM    7  C18 UNL     1       1.972   3.504  -0.952  1.00  0.00     0.234 A 
HETATM    8  N4  UNL     1       0.896   3.762  -1.704  1.00  0.00    -0.241 NA
HETATM    9  C19 UNL     1      -0.090   2.881  -1.886  1.00  0.00     0.076 A 
HETATM   10  C20 UNL     1      -1.166   3.251  -2.629  1.00  0.00     0.069 A 
ENDROOT
BRANCH   5  11
HETATM   11  C12 UNL     1       1.531   0.048   0.053  1.00  0.00    -0.032 C 
HETATM   12  C13 UNL     1       1.507  -1.418  -0.202  1.00  0.00     0.050 C 
HETATM   13  C14 UNL     1       2.333   0.190   1.145  1.00  0.00     0.011 C 
BRANCH  13  14
HETATM   14  C15 UNL     1       2.951  -0.814   1.971  1.00  0.00     0.027 C 
HETATM   15  C16 UNL     1       3.717  -0.597   3.019  1.00  0.00     0.031 C 
BRANCH  15  16
HETATM   16  N2  UNL     1       4.308  -1.614   3.807  1.00  0.00    -0.400 N 
HETATM   17  H20 UNL     1       4.205  -2.004   4.744  1.00  0.00     0.156 HD
HETATM   18  H21 UNL     1       5.087  -2.311   3.624  1.00  0.00     0.156 HD
ENDBRANCH  15  16
BRANCH  15  19
HETATM   19  C17 UNL     1       4.195   0.635   3.704  1.00  0.00     0.278 C 
HETATM   20  F1  UNL     1       3.803   0.695   5.026  1.00  0.00    -0.249 F 
ENDBRANCH  15  19
ENDBRANCH  13  14
ENDBRANCH   5  11
BRANCH   3  21
HETATM   21  O2  UNL     1      -0.957  -0.524  -0.758  1.00  0.00    -0.345 OA
BRANCH  21  22
HETATM   22  C5  UNL     1      -1.945  -1.493  -0.800  1.00  0.00     0.132 C 
HETATM   23  C6  UNL     1      -2.886  -1.396   0.413  1.00  0.00     0.062 C 
HETATM   24  C7  UNL     1      -2.134  -1.798   1.651  1.00  0.00     0.272 C 
HETATM   25  N1  UNL     1      -1.635  -3.124   1.486  1.00  0.00     0.083 N 
HETATM   26  C8  UNL     1      -1.897  -3.755   0.238  1.00  0.00     0.272 C 
HETATM   27  H10 UNL     1      -0.641  -3.226   1.839  1.00  0.00     0.315 HD
HETATM   28  C9  UNL     1      -1.537  -2.919  -0.983  1.00  0.00     0.062 C 
ENDBRANCH  21  22
ENDBRANCH   3  21
BRANCH   1  29
HETATM   29  O1  UNL     1      -3.295   2.685  -3.500  1.00  0.00    -0.356 OA
HETATM   30  C1  UNL     1      -3.373   3.949  -4.124  1.00  0.00     0.210 C 
ENDBRANCH   1  29
TORSDOF 7
