REMARK  1 active torsions:
REMARK  status: ('A' for Active; 'I' for Inactive)
REMARK    1  A    between atoms: C4_5  and  C5_6 
ROOT
HETATM    1  C5  UNL     1       1.449  -0.735  -0.232  1.00  0.00     0.085 A 
HETATM    2  C6  UNL     1       0.332  -0.177   0.281  1.00  0.00     0.047 A 
HETATM    3  C7  UNL     1       0.480   1.224   0.611  1.00  0.00     0.095 A 
HETATM    4  C8  UNL     1       1.456   2.032   1.116  1.00  0.00     0.053 A 
HETATM    5  C9  UNL     1       1.015   3.328   1.195  1.00  0.00     0.139 A 
HETATM    6  N1  UNL     1      -0.241   3.718   0.811  1.00  0.00    -0.075 NA
HETATM    7  C10 UNL     1      -1.104   2.866   0.342  1.00  0.00     0.722 A 
HETATM    8  N2  UNL     1      -0.727   1.594   0.242  1.00  0.00    -0.062 NA
HETATM    9  N3  UNL     1      -2.188   2.203  -0.161  1.00  0.00    -0.222 N 
HETATM   10  C11 UNL     1      -3.214   1.433  -0.721  1.00  0.00     0.139 C 
HETATM   11  C12 UNL     1      -3.260  -0.016  -0.245  1.00  0.00     0.034 C 
HETATM   12  C13 UNL     1      -2.225  -0.929  -0.732  1.00  0.00     0.040 C 
HETATM   13  C14 UNL     1      -2.887  -2.351  -0.528  1.00  0.00     0.015 C 
HETATM   14  C15 UNL     1      -3.068  -2.478   0.956  1.00  0.00     0.010 C 
HETATM   15  C16 UNL     1      -1.872  -1.887   1.682  1.00  0.00     0.065 C 
HETATM   16  S1  UNL     1      -0.967  -1.225   0.381  1.00  0.00    -0.180 SA
HETATM   17  C17 UNL     1       0.235  -2.645  -0.393  1.00  0.00     0.148 A 
HETATM   18  N4  UNL     1       1.360  -2.105  -0.592  1.00  0.00    -0.253 NA
HETATM   19  H5  UNL     1      -2.676   3.069   0.276  1.00  0.00     0.177 HD
ENDROOT
BRANCH   1  20
HETATM   20  C4  UNL     1       2.810  -0.233  -0.542  1.00  0.00    -0.006 A 
HETATM   21  C3  UNL     1       3.013   0.949  -1.272  1.00  0.00     0.017 A 
HETATM   22  C2  UNL     1       4.267   1.443  -1.557  1.00  0.00     0.043 A 
HETATM   23  C1  UNL     1       5.381   0.763  -1.116  1.00  0.00     0.116 A 
HETATM   24  F1  UNL     1       6.637   1.200  -1.365  1.00  0.00    -0.206 F 
HETATM   25  C19 UNL     1       5.240  -0.402  -0.396  1.00  0.00     0.043 A 
HETATM   26  C18 UNL     1       3.981  -0.841  -0.145  1.00  0.00     0.017 A 
ENDBRANCH   1  20
TORSDOF 1
