REMARK  3 active torsions:
REMARK  status: ('A' for Active; 'I' for Inactive)
REMARK    1  A    between atoms: N1_1  and  C1_2 
REMARK    2  A    between atoms: C4_6  and  C5_7 
REMARK    3  A    between atoms: N4_18  and  C13_19 
ROOT
HETATM    1  C5  UNL     1      -0.727   0.435  -0.036  1.00  0.00     0.059 C 
HETATM    2  C6  UNL     1      -1.796  -0.231   0.242  1.00  0.00     0.031 A 
HETATM    3  C7  UNL     1      -2.190  -1.495  -0.291  1.00  0.00     0.026 A 
HETATM    4  C8  UNL     1      -3.347  -2.069  -0.173  1.00  0.00    -0.035 A 
HETATM    5  C9  UNL     1      -3.937  -1.001   0.667  1.00  0.00     0.052 A 
HETATM    6  C10 UNL     1      -3.081   0.012   0.892  1.00  0.00     0.129 A 
HETATM    7  F1  UNL     1      -3.436   1.098   1.626  1.00  0.00    -0.205 F 
HETATM    8  C11 UNL     1      -3.105  -3.279  -0.991  1.00  0.00     0.185 C 
HETATM    9  N3  UNL     1      -2.663  -2.892  -2.323  1.00  0.00    -0.311 NA
HETATM   10  C12 UNL     1      -1.792  -1.945  -2.529  1.00  0.00     0.053 C 
HETATM   11  B1  UNL     1      -0.722  -0.757  -2.460  1.00  0.00     0.316 B 
HETATM   12  N4  UNL     1      -0.098  -0.315  -1.095  1.00  0.00    -0.422 N 
HETATM   13  H10 UNL     1       0.107  -0.898  -3.332  1.00  0.00     0.006 HD
ENDROOT
BRANCH   1  14
HETATM   14  C4  UNL     1      -0.507   1.687   0.627  1.00  0.00     0.103 A 
HETATM   15  C3  UNL     1      -0.705   1.741   1.991  1.00  0.00     0.054 A 
HETATM   16  C2  UNL     1      -0.525   2.951   2.641  1.00  0.00     0.139 A 
HETATM   17  N2  UNL     1      -0.163   4.006   1.890  1.00  0.00    -0.075 NA
HETATM   18  C1  UNL     1       0.023   3.920   0.560  1.00  0.00     0.720 A 
HETATM   19  N5  UNL     1      -0.142   2.766  -0.108  1.00  0.00    -0.061 NA
BRANCH  18  20
HETATM   20  N1  UNL     1       0.409   5.036  -0.250  1.00  0.00    -0.231 N 
HETATM   21  H1  UNL     1      -0.203   5.273  -1.079  1.00  0.00     0.174 HD
HETATM   22  H2  UNL     1       1.221   5.703  -0.186  1.00  0.00     0.174 HD
ENDBRANCH  18  20
ENDBRANCH   1  14
BRANCH  12  23
HETATM   23  C13 UNL     1       1.202  -0.506  -0.597  1.00  0.00     0.068 C 
HETATM   24  C14 UNL     1       1.244  -1.292   0.686  1.00  0.00     0.024 C 
HETATM   25  C15 UNL     1       2.681  -1.390   1.145  1.00  0.00     0.002 C 
HETATM   26  C16 UNL     1       3.652  -1.168   0.019  1.00  0.00     0.000 C 
HETATM   27  C17 UNL     1       3.520   0.219  -0.572  1.00  0.00     0.002 C 
HETATM   28  C18 UNL     1       2.061   0.703  -0.446  1.00  0.00     0.024 C 
ENDBRANCH  12  23
TORSDOF 3
