REMARK  5 active torsions:
REMARK  status: ('A' for Active; 'I' for Inactive)
REMARK    1  A    between atoms: N1_7  and  C7_8 
REMARK    2  A    between atoms: N2_9  and  C8_10 
REMARK    3  A    between atoms: C8_10  and  C9_11 
REMARK    4  A    between atoms: C14_17  and  N3_18 
REMARK    5  A    between atoms: C17_22  and  N5_23 
ROOT
HETATM    1  C1  UNL     1      -4.470   0.309   0.827  1.00  0.00     0.010 C 
HETATM    2  C2  UNL     1      -3.654   1.372   0.219  1.00  0.00    -0.014 C 
HETATM    3  C3  UNL     1      -2.969   2.381   1.026  1.00  0.00     0.004 C 
HETATM    4  C4  UNL     1      -1.877   2.094   1.967  1.00  0.00     0.002 C 
HETATM    5  C5  UNL     1      -0.735   1.329   1.317  1.00  0.00     0.020 C 
HETATM    6  C6  UNL     1      -0.998  -0.153   1.353  1.00  0.00     0.127 C 
HETATM    7  N1  UNL     1      -0.265  -0.874   0.351  1.00  0.00    -0.331 N 
HETATM    8  C14 UNL     1      -0.745  -0.744  -1.043  1.00  0.00     0.315 A 
HETATM    9  C15 UNL     1      -2.109  -0.175  -1.146  1.00  0.00     0.004 A 
HETATM   10  C16 UNL     1      -2.922  -1.199  -1.574  1.00  0.00     0.126 A 
HETATM   11  N4  UNL     1      -2.224  -2.434  -1.787  1.00  0.00    -0.243 NA
HETATM   12  C17 UNL     1      -0.981  -2.188  -1.493  1.00  0.00     0.162 A 
HETATM   13  C18 UNL     1      -2.931   1.049  -1.060  1.00  0.00     0.045 C 
ENDROOT
BRANCH   7  14
HETATM   14  C7  UNL     1       0.873  -1.696   0.574  1.00  0.00     0.201 C 
HETATM   15  N2  UNL     1       1.857  -1.203  -0.067  1.00  0.00    -0.281 NA
BRANCH  15  16
HETATM   16  C8  UNL     1       3.186  -1.653  -0.160  1.00  0.00     0.184 C 
BRANCH  16  17
HETATM   17  C9  UNL     1       4.225  -0.619  -0.069  1.00  0.00    -0.054 A 
HETATM   18  C10 UNL     1       3.798   0.620   0.090  1.00  0.00     0.007 A 
HETATM   19  C11 UNL     1       4.954   1.542   0.163  1.00  0.00     0.038 A 
HETATM   20  C12 UNL     1       6.029   0.778   0.042  1.00  0.00     0.098 A 
HETATM   21  F1  UNL     1       7.386   0.971   0.023  1.00  0.00    -0.211 F 
HETATM   22  C13 UNL     1       5.706  -0.686  -0.120  1.00  0.00     0.106 A 
ENDBRANCH  16  17
ENDBRANCH  15  16
ENDBRANCH   7  14
BRANCH   8  23
HETATM   23  N3  UNL     1       0.219  -0.161  -1.903  1.00  0.00     0.120 N 
HETATM   24  H20 UNL     1       0.584  -0.834  -2.616  1.00  0.00     0.317 HD
HETATM   25  H21 UNL     1      -0.073   0.750  -2.328  1.00  0.00     0.317 HD
ENDBRANCH   8  23
BRANCH  12  26
HETATM   26  N5  UNL     1       0.252  -2.941  -1.484  1.00  0.00    -0.383 N 
HETATM   27  H23 UNL     1       1.053  -2.863  -2.178  1.00  0.00     0.157 HD
HETATM   28  H24 UNL     1       0.656  -3.683  -0.870  1.00  0.00     0.157 HD
ENDBRANCH  12  26
TORSDOF 5
