REMARK  7 active torsions:
REMARK  status: ('A' for Active; 'I' for Inactive)
REMARK    1  A    between atoms: N1_1  and  C1_2 
REMARK    2  A    between atoms: C2_3  and  C3_4 
REMARK    3  A    between atoms: C3_4  and  N2_5 
REMARK    4  A    between atoms: C4_6  and  C5_7 
REMARK    5  A    between atoms: C6_9  and  C7_10 
REMARK    6  A    between atoms: C11_15  and  S1_16 
REMARK    7  A    between atoms: N4_17  and  C12_18 
ROOT
HETATM    1  C5  UNL     1       0.753   0.655   0.295  1.00  0.00     0.142 A 
HETATM    2  N3  UNL     1       0.408   1.823   0.689  1.00  0.00    -0.244 NA
HETATM    3  C6  UNL     1      -0.978   1.477   0.928  1.00  0.00     0.232 A 
HETATM    4  N4  UNL     1      -0.536   0.135   0.467  1.00  0.00    -0.335 N 
ENDROOT
BRANCH   1   5
HETATM    5  C4  UNL     1       1.963  -0.043  -0.180  1.00  0.00     0.160 C 
HETATM    6  N2  UNL     1       2.069  -1.278  -0.534  1.00  0.00    -0.294 NA
BRANCH   6   7
HETATM    7  C3  UNL     1       3.362  -1.759  -0.972  1.00  0.00     0.177 C 
BRANCH   7   8
HETATM    8  C2  UNL     1       4.292  -0.600  -1.210  1.00  0.00     0.011 C 
HETATM    9  C1  UNL     1       5.461  -0.285  -0.656  1.00  0.00     0.078 C 
BRANCH   9  10
HETATM   10  N1  UNL     1       6.416   0.763  -0.794  1.00  0.00    -0.408 N 
HETATM   11  H1  UNL     1       7.350   0.608  -1.260  1.00  0.00     0.155 HD
HETATM   12  H2  UNL     1       6.328   1.762  -0.475  1.00  0.00     0.155 HD
ENDBRANCH   9  10
ENDBRANCH   7   8
ENDBRANCH   6   7
ENDBRANCH   1   5
BRANCH   4  13
HETATM   13  C12 UNL     1      -1.442  -0.959   0.395  1.00  0.00     0.088 C 
HETATM   14  C13 UNL     1      -2.020  -1.217   1.794  1.00  0.00     0.025 C 
HETATM   15  C14 UNL     1      -3.162  -2.176   1.750  1.00  0.00     0.002 C 
HETATM   16  C15 UNL     1      -3.272  -2.756   0.374  1.00  0.00     0.000 C 
HETATM   17  C16 UNL     1      -1.940  -3.299  -0.088  1.00  0.00     0.002 C 
HETATM   18  C17 UNL     1      -0.841  -2.238  -0.066  1.00  0.00     0.025 C 
ENDBRANCH   4  13
BRANCH   3  19
HETATM   19  C7  UNL     1      -1.937   2.021  -0.044  1.00  0.00     0.070 A 
HETATM   20  C8  UNL     1      -1.394   3.506  -0.180  1.00  0.00     0.077 A 
HETATM   21  C9  UNL     1      -1.873   4.907  -1.099  1.00  0.00     0.116 A 
HETATM   22  S1  UNL     1      -2.404   3.187  -0.861  1.00  0.00    -0.194 SA
HETATM   23  C10 UNL     1      -3.096   5.107  -2.149  1.00  0.00     0.190 A 
HETATM   24  C11 UNL     1      -2.785   4.209  -1.556  1.00  0.00     0.001 A 
HETATM   25  F1  UNL     1      -2.485   6.236  -2.098  1.00  0.00    -0.232 F 
ENDBRANCH   3  19
TORSDOF 7
