REMARK  5 active torsions:
REMARK  status: ('A' for Active; 'I' for Inactive)
REMARK    1  A    between atoms: C2_2  and  C3_3 
REMARK    2  A    between atoms: C3_3  and  N1_4 
REMARK    3  A    between atoms: C5_7  and  C6_8 
REMARK    4  A    between atoms: C12_15  and  C13_16 
REMARK    5  A    between atoms: C16_20  and  N4_21 
ROOT
HETATM    1  N1  UNL     1      -1.212  -1.726  -0.999  1.00  0.00    -0.334 N 
HETATM    2  C4  UNL     1      -0.485  -2.864  -0.972  1.00  0.00     0.211 A 
HETATM    3  N2  UNL     1       0.774  -2.593  -0.531  1.00  0.00    -0.241 NA
HETATM    4  C5  UNL     1       0.847  -1.255  -0.274  1.00  0.00     0.097 A 
HETATM    5  C12 UNL     1      -0.398  -0.724  -0.569  1.00  0.00     0.095 A 
ENDROOT
BRANCH   5   6
HETATM    6  C13 UNL     1      -0.634   0.703  -0.392  1.00  0.00     0.106 A 
HETATM    7  C14 UNL     1       0.148   1.520  -1.206  1.00  0.00     0.054 A 
HETATM    8  C15 UNL     1       0.051   2.881  -1.164  1.00  0.00     0.139 A 
HETATM    9  N3  UNL     1      -0.836   3.424  -0.302  1.00  0.00    -0.075 NA
HETATM   10  C16 UNL     1      -1.595   2.614   0.488  1.00  0.00     0.720 A 
HETATM   11  N5  UNL     1      -1.509   1.254   0.457  1.00  0.00    -0.061 NA
BRANCH  10  12
HETATM   12  N4  UNL     1      -2.508   3.251   1.372  1.00  0.00    -0.231 N 
HETATM   13  H13 UNL     1      -2.379   4.055   2.032  1.00  0.00     0.174 HD
HETATM   14  H14 UNL     1      -3.493   2.874   1.391  1.00  0.00     0.174 HD
ENDBRANCH  10  12
ENDBRANCH   5   6
BRANCH   1  15
HETATM   15  C3  UNL     1      -2.578  -1.504  -1.387  1.00  0.00     0.156 C 
BRANCH  15  16
HETATM   16  C2  UNL     1      -3.484  -1.652  -0.220  1.00  0.00    -0.017 C 
HETATM   17  C1  UNL     1      -3.383  -1.933   1.081  1.00  0.00     0.008 C 
ENDBRANCH  15  16
ENDBRANCH   1  15
BRANCH   4  18
HETATM   18  C6  UNL     1       2.090  -0.674   0.217  1.00  0.00    -0.005 A 
HETATM   19  C7  UNL     1       2.232  -0.061   1.445  1.00  0.00     0.017 A 
HETATM   20  C8  UNL     1       3.464   0.453   1.799  1.00  0.00     0.043 A 
HETATM   21  C9  UNL     1       4.516   0.339   0.914  1.00  0.00     0.116 A 
HETATM   22  F1  UNL     1       5.720   0.855   1.289  1.00  0.00    -0.206 F 
HETATM   23  C10 UNL     1       4.391  -0.270  -0.315  1.00  0.00     0.043 A 
HETATM   24  C11 UNL     1       3.164  -0.779  -0.661  1.00  0.00     0.017 A 
ENDBRANCH   4  18
TORSDOF 5
