REMARK  2 active torsions:
REMARK  status: ('A' for Active; 'I' for Inactive)
REMARK    1  A    between atoms: C7_9  and  C12_16 
REMARK    2  A    between atoms: C12_16  and  C13_17 
ROOT
HETATM    1  C1  UNL     1      -2.984  -0.651  -0.342  1.00  0.00    -0.078 C 
HETATM    2  C2  UNL     1      -3.458   0.211  -0.853  1.00  0.00    -0.093 C 
HETATM    3  C3  UNL     1      -4.053   1.251  -1.495  1.00  0.00     0.115 C 
HETATM    4  C4  UNL     1      -3.293   1.627  -2.568  1.00  0.00     0.171 C 
HETATM    5  O1  UNL     1      -2.474   0.613  -2.124  1.00  0.00    -0.357 OA
HETATM    6  C5  UNL     1      -1.327   0.204  -2.799  1.00  0.00     0.344 C 
HETATM    7  O2  UNL     1      -0.306  -0.231  -1.889  1.00  0.00    -0.333 OA
HETATM    8  C6  UNL     1       0.164   0.599  -0.944  1.00  0.00     0.045 A 
HETATM    9  C7  UNL     1       0.665   1.344  -0.021  1.00  0.00     0.073 A 
HETATM   10  C8  UNL     1       1.830   1.026   0.861  1.00  0.00     0.067 A 
HETATM   11  C9  UNL     1       2.929   0.155   1.278  1.00  0.00     0.114 A 
HETATM   12  N1  UNL     1       3.819   0.381   2.226  1.00  0.00    -0.228 NA
HETATM   13  C10 UNL     1       3.897   1.447   2.990  1.00  0.00     0.229 A 
HETATM   14  N2  UNL     1       2.940   2.347   2.711  1.00  0.00    -0.268 NA
HETATM   15  C11 UNL     1       2.038   2.139   1.763  1.00  0.00     0.106 A 
HETATM   16  C12 UNL     1       1.260   1.755   0.801  1.00  0.00     0.060 A 
HETATM   17  C13 UNL     1       1.209   0.453  -0.048  1.00  0.00     0.048 A 
HETATM   18  C14 UNL     1       1.811  -1.053  -0.266  1.00  0.00     0.122 C 
HETATM   19  C15 UNL     1       0.787  -1.916   0.265  1.00  0.00    -0.001 C 
HETATM   20  C16 UNL     1      -0.125  -2.771   0.787  1.00  0.00    -0.001 C 
HETATM   21  C17 UNL     1      -1.581  -2.593   0.745  1.00  0.00     0.009 C 
HETATM   22  C18 UNL     1      -2.392  -1.725   0.267  1.00  0.00     0.064 C 
HETATM   23  N3  UNL     1       3.061  -1.008   0.515  1.00  0.00    -0.368 N 
HETATM   24  H13 UNL     1       3.974  -1.456   0.742  1.00  0.00     0.161 HD
ENDROOT
TORSDOF 2
