REMARK  8 active torsions:
REMARK  status: ('A' for Active; 'I' for Inactive)
REMARK    1  A    between atoms: N1_2  and  C2_3 
REMARK    2  A    between atoms: C3_4  and  C4_5 
REMARK    3  A    between atoms: C5_6  and  C7_8 
REMARK    4  A    between atoms: C7_8  and  P1_9 
REMARK    5  A    between atoms: P1_9  and  C8_10 
REMARK    6  A    between atoms: C14_18  and  C15_19 
REMARK    7  A    between atoms: C15_19  and  C16_20 
REMARK    8  A    between atoms: C16_20  and  O1_21 
ROOT
HETATM    1  C8  UNL     1      -0.200   1.388   0.463  1.00  0.00     0.070 A 
HETATM    2  C9  UNL     1      -0.901   0.562   1.288  1.00  0.00     0.034 A 
HETATM    3  C10 UNL     1      -2.234   0.304   1.169  1.00  0.00     0.016 A 
HETATM    4  C11 UNL     1      -3.062   0.837   0.204  1.00  0.00    -0.004 A 
HETATM    5  C12 UNL     1      -2.287   1.641  -0.566  1.00  0.00     0.076 A 
HETATM    6  N2  UNL     1      -0.972   1.931  -0.495  1.00  0.00    -0.246 NA
HETATM    7  P2  UNL     1      -3.336   2.376  -1.830  1.00  0.00    -0.023 P 
HETATM    8  C13 UNL     1      -4.946   1.478  -1.218  1.00  0.00     0.081 A 
HETATM    9  C14 UNL     1      -4.381   0.764  -0.063  1.00  0.00    -0.060 A 
ENDROOT
BRANCH   1  10
HETATM   10  P1  UNL     1       1.550   1.784   0.548  1.00  0.00    -0.001 P 
BRANCH  10  11
HETATM   11  C7  UNL     1       2.683   0.556   0.362  1.00  0.00     0.025 C 
BRANCH  11  12
HETATM   12  C5  UNL     1       4.108   0.860   0.428  1.00  0.00    -0.061 C 
HETATM   13  C4  UNL     1       5.008  -0.098   0.283  1.00  0.00     0.008 C 
HETATM   14  C6  UNL     1       4.545   2.267   0.661  1.00  0.00     0.048 C 
BRANCH  13  15
HETATM   15  C3  UNL     1       6.425   0.223   0.352  1.00  0.00     0.017 C 
HETATM   16  C2  UNL     1       7.327  -0.745   0.205  1.00  0.00     0.082 C 
BRANCH  16  17
HETATM   17  N1  UNL     1       6.872  -2.074  -0.016  1.00  0.00    -0.403 N 
HETATM   18  C1  UNL     1       6.397  -2.955  -1.054  1.00  0.00     0.145 C 
HETATM   19  H4  UNL     1       6.906  -2.557   0.921  1.00  0.00     0.158 HD
ENDBRANCH  16  17
ENDBRANCH  13  15
ENDBRANCH  11  12
ENDBRANCH  10  11
ENDBRANCH   1  10
BRANCH   9  20
HETATM   20  C15 UNL     1      -5.198  -0.013   0.882  1.00  0.00     0.061 C 
BRANCH  20  21
HETATM   21  C16 UNL     1      -5.982  -1.183   0.428  1.00  0.00     0.171 C 
BRANCH  21  22
HETATM   22  O1  UNL     1      -7.017  -1.184  -0.336  1.00  0.00    -0.396 OA
HETATM   23  C17 UNL     1      -7.402  -0.819  -1.518  1.00  0.00     0.201 C 
ENDBRANCH  21  22
ENDBRANCH  20  21
ENDBRANCH   9  20
TORSDOF 8
