REMARK  8 active torsions:
REMARK  status: ('A' for Active; 'I' for Inactive)
REMARK    1  A    between atoms: C1_2  and  C2_3 
REMARK    2  A    between atoms: C4_5  and  N2_6 
REMARK    3  A    between atoms: C6_8  and  C7_9 
REMARK    4  A    between atoms: C14_19  and  O1_20 
REMARK    5  A    between atoms: C14_19  and  C15_21 
REMARK    6  A    between atoms: C15_21  and  C16_22 
REMARK    7  A    between atoms: C16_22  and  C17_23 
REMARK    8  A    between atoms: C17_23  and  N4_24 
ROOT
HETATM    1  C2  UNL     1      -0.070   1.012   1.758  1.00  0.00    -0.002 C 
HETATM    2  C3  UNL     1       1.164   0.900   2.288  1.00  0.00     0.036 C 
HETATM    3  C4  UNL     1       2.014   1.307   1.167  1.00  0.00     0.237 A 
HETATM    4  C5  UNL     1       3.361   0.722   1.107  1.00  0.00     0.057 A 
HETATM    5  C6  UNL     1       3.371  -0.037  -0.003  1.00  0.00     0.066 A 
HETATM    6  N3  UNL     1       2.105  -0.009  -0.676  1.00  0.00    -0.250 NA
HETATM    7  C13 UNL     1       1.301   0.756  -0.015  1.00  0.00     0.098 A 
HETATM    8  C14 UNL     1       0.014   1.447   0.326  1.00  0.00     0.130 C 
ENDROOT
BRANCH   8   9
HETATM    9  O1  UNL     1       0.191   2.795   0.175  1.00  0.00    -0.379 OA
HETATM   10  H10 UNL     1      -0.066   3.026  -0.755  1.00  0.00     0.211 HD
ENDBRANCH   8   9
BRANCH   8  11
HETATM   11  C15 UNL     1      -1.121   0.918  -0.496  1.00  0.00     0.051 C 
BRANCH  11  12
HETATM   12  C16 UNL     1      -1.233  -0.567  -0.557  1.00  0.00     0.023 C 
BRANCH  12  13
HETATM   13  C17 UNL     1      -2.420  -1.010  -1.423  1.00  0.00     0.117 C 
BRANCH  13  14
HETATM   14  N4  UNL     1      -3.668  -0.521  -0.929  1.00  0.00    -0.408 N 
HETATM   15  C18 UNL     1      -4.080  -1.086   0.310  1.00  0.00     0.143 C 
HETATM   16  C19 UNL     1      -5.496  -0.836   0.700  1.00  0.00     0.187 C 
HETATM   17  O2  UNL     1      -6.099   0.147  -0.088  1.00  0.00    -0.388 OA
HETATM   18  C20 UNL     1      -6.076  -0.366  -1.394  1.00  0.00     0.187 C 
HETATM   19  C21 UNL     1      -4.670  -0.334  -1.919  1.00  0.00     0.143 C 
ENDBRANCH  13  14
ENDBRANCH  12  13
ENDBRANCH  11  12
ENDBRANCH   8  11
BRANCH   1  20
HETATM   20  C1  UNL     1      -1.228   0.697   2.563  1.00  0.00     0.117 C 
HETATM   21  N1  UNL     1      -1.142   0.308   3.783  1.00  0.00    -0.312 NA
HETATM   22  H1  UNL     1      -0.213   0.194   4.280  1.00  0.00     0.186 HD
ENDBRANCH   1  20
BRANCH   3  23
HETATM   23  N2  UNL     1       2.087   2.773   1.133  1.00  0.00     0.101 N 
HETATM   24  H4  UNL     1       2.815   3.092   0.489  1.00  0.00     0.315 HD
HETATM   25  H5  UNL     1       2.166   3.127   2.100  1.00  0.00     0.315 HD
ENDBRANCH   3  23
BRANCH   5  26
HETATM   26  C7  UNL     1       4.478  -0.832  -0.516  1.00  0.00    -0.006 A 
HETATM   27  C8  UNL     1       4.426  -1.593  -1.664  1.00  0.00     0.017 A 
HETATM   28  C9  UNL     1       5.471  -2.346  -2.154  1.00  0.00     0.045 A 
HETATM   29  C10 UNL     1       6.622  -2.281  -1.383  1.00  0.00     0.138 A 
HETATM   30  F1  UNL     1       7.712  -2.997  -1.793  1.00  0.00    -0.204 F 
HETATM   31  C11 UNL     1       6.761  -1.548  -0.225  1.00  0.00     0.073 A 
HETATM   32 CL1  UNL     1       8.273  -1.549   0.660  1.00  0.00    -0.081 Cl
HETATM   33  C12 UNL     1       5.661  -0.827   0.187  1.00  0.00     0.040 A 
ENDBRANCH   5  26
TORSDOF 8
