REMARK  10 active torsions:
REMARK  status: ('A' for Active; 'I' for Inactive)
REMARK    1  A    between atoms: O1_2  and  C2_3 
REMARK    2  A    between atoms: C2_3  and  C3_4 
REMARK    3  A    between atoms: C3_4  and  O2_5 
REMARK    4  A    between atoms: O2_5  and  C4_6 
REMARK    5  A    between atoms: C9_11  and  O3_12 
REMARK    6  A    between atoms: O3_12  and  C10_13 
REMARK    7  A    between atoms: C10_13  and  O4_14 
REMARK    8  A    between atoms: O4_14  and  C11_15 
REMARK    9  A    between atoms: C11_15  and  N1_16 
REMARK   10  A    between atoms: N2_18  and  C13_19 
ROOT
HETATM    1  C4  UNL     1      -2.239  -0.437  -0.192  1.00  0.00     0.102 A 
HETATM    2  C5  UNL     1      -1.119  -1.230  -0.247  1.00  0.00     0.048 A 
HETATM    3  C6  UNL     1       0.175  -0.832  -0.130  1.00  0.00    -0.033 A 
HETATM    4  C7  UNL     1       0.415   0.510   0.064  1.00  0.00    -0.029 A 
HETATM    5  C8  UNL     1      -0.644   1.391   0.132  1.00  0.00     0.049 A 
HETATM    6  C9  UNL     1      -1.954   0.922   0.006  1.00  0.00     0.105 A 
HETATM    7  C12 UNL     1       1.809   1.004   0.199  1.00  0.00     0.182 C 
HETATM    8  N2  UNL     1       2.710  -0.108   0.382  1.00  0.00    -0.308 N 
HETATM    9  N3  UNL     1       2.288  -1.407   0.731  1.00  0.00    -0.233 NA
HETATM   10  C20 UNL     1       1.253  -1.848  -0.216  1.00  0.00     0.149 C 
HETATM   11  H25 UNL     1       1.859  -1.325   1.695  1.00  0.00     0.147 HD
ENDROOT
BRANCH   6  12
HETATM   12  O3  UNL     1      -2.916   1.917   0.094  1.00  0.00    -0.323 OA
BRANCH  12  13
HETATM   13  C10 UNL     1      -2.581   3.254   0.292  1.00  0.00     0.347 C 
BRANCH  13  14
HETATM   14  O4  UNL     1      -3.673   4.089   0.352  1.00  0.00    -0.338 OA
BRANCH  14  15
HETATM   15  C11 UNL     1      -4.457   4.091  -0.784  1.00  0.00     0.436 C 
BRANCH  15  16
HETATM   16  N1  UNL     1      -5.591   4.980  -0.679  1.00  0.00     0.101 N 
HETATM   17  H14 UNL     1      -5.552   5.702  -1.423  1.00  0.00     0.315 HD
HETATM   18  H15 UNL     1      -5.644   5.415   0.266  1.00  0.00     0.315 HD
ENDBRANCH  15  16
ENDBRANCH  14  15
ENDBRANCH  13  14
ENDBRANCH  12  13
ENDBRANCH   6  12
BRANCH   1  19
HETATM   19  O2  UNL     1      -3.568  -0.638  -0.281  1.00  0.00    -0.346 OA
BRANCH  19  20
HETATM   20  C3  UNL     1      -4.338  -1.768  -0.447  1.00  0.00     0.201 C 
BRANCH  20  21
HETATM   21  C2  UNL     1      -4.178  -2.717   0.711  1.00  0.00     0.193 C 
BRANCH  21  22
HETATM   22  O1  UNL     1      -4.932  -3.873   0.608  1.00  0.00    -0.394 OA
HETATM   23  C1  UNL     1      -4.584  -4.604  -0.499  1.00  0.00     0.201 C 
ENDBRANCH  21  22
ENDBRANCH  20  21
ENDBRANCH  19  20
ENDBRANCH   1  19
BRANCH   8  24
HETATM   24  C13 UNL     1       4.099   0.118   0.200  1.00  0.00     0.046 A 
HETATM   25  C14 UNL     1       4.582   1.352  -0.138  1.00  0.00     0.031 A 
HETATM   26  C15 UNL     1       5.932   1.619  -0.326  1.00  0.00     0.003 A 
HETATM   27  C16 UNL     1       6.851   0.587  -0.165  1.00  0.00     0.007 A 
HETATM   28  C17 UNL     1       6.379  -0.671   0.178  1.00  0.00    -0.060 A 
HETATM   29  C18 UNL     1       7.313  -1.798   0.361  1.00  0.00     0.048 C 
HETATM   30  C19 UNL     1       5.028  -0.890   0.355  1.00  0.00     0.037 A 
ENDBRANCH   8  24
TORSDOF 10
