REMARK  5 active torsions:
REMARK  status: ('A' for Active; 'I' for Inactive)
REMARK    1  A    between atoms: C9_10  and  C10_11 
REMARK    2  A    between atoms: C11_12  and  C12_13 
REMARK    3  A    between atoms: C12_13  and  C13_14 
REMARK    4  A    between atoms: C13_14  and  C14_15 
REMARK    5  A    between atoms: C14_15  and  O1_16 
ROOT
HETATM    1  C1  UNL     1      -3.605   3.679   2.488  1.00  0.00     0.019 C 
HETATM    2  C2  UNL     1      -3.446   2.599   2.077  1.00  0.00    -0.059 C 
HETATM    3  C3  UNL     1      -3.229   1.233   1.577  1.00  0.00     0.092 C 
HETATM    4  C4  UNL     1      -2.234   0.306   1.522  1.00  0.00     0.006 C 
HETATM    5  C5  UNL     1      -2.169  -0.150   0.039  1.00  0.00     0.021 C 
HETATM    6  C6  UNL     1      -2.981   0.361  -0.852  1.00  0.00    -0.010 C 
HETATM    7  C7  UNL     1      -2.205   1.244  -1.677  1.00  0.00     0.308 C 
HETATM    8  N1  UNL     1      -0.750   1.075  -1.688  1.00  0.00     0.091 N 
HETATM    9  C8  UNL     1      -0.139   1.257  -0.372  1.00  0.00     0.308 C 
HETATM   10  C9  UNL     1       0.167   0.045   0.361  1.00  0.00    -0.032 C 
HETATM   11  C16 UNL     1      -0.132  -0.746   1.388  1.00  0.00     0.014 C 
HETATM   12  C17 UNL     1      -1.224  -0.527   2.366  1.00  0.00     0.168 C 
HETATM   13  N2  UNL     1      -2.110  -1.759   2.507  1.00  0.00    -0.271 NA
HETATM   14  C18 UNL     1      -2.997  -2.219   1.600  1.00  0.00     0.199 C 
HETATM   15  N3  UNL     1      -3.724  -1.630   0.463  1.00  0.00    -0.360 N 
HETATM   16  C19 UNL     1      -4.087  -0.397  -0.231  1.00  0.00     0.214 C 
HETATM   17  N4  UNL     1      -4.372   0.525   0.947  1.00  0.00    -0.358 N 
HETATM   18  H5  UNL     1      -0.561   0.098  -1.973  1.00  0.00     0.316 HD
HETATM   19  H22 UNL     1      -4.174  -2.428  -0.083  1.00  0.00     0.162 HD
HETATM   20  H24 UNL     1      -5.404   0.579   1.218  1.00  0.00     0.162 HD
ENDROOT
BRANCH  10  21
HETATM   21  C10 UNL     1       1.289  -0.709  -0.274  1.00  0.00     0.004 C 
HETATM   22  C11 UNL     1       1.995  -0.381  -1.370  1.00  0.00    -0.026 C 
BRANCH  22  23
HETATM   23  C12 UNL     1       3.104  -0.927  -2.171  1.00  0.00     0.029 C 
BRANCH  23  24
HETATM   24  C13 UNL     1       4.298  -0.029  -2.240  1.00  0.00     0.030 C 
BRANCH  24  25
HETATM   25  C14 UNL     1       4.899   0.266  -0.888  1.00  0.00     0.167 C 
BRANCH  25  26
HETATM   26  O1  UNL     1       4.005   0.889  -0.039  1.00  0.00    -0.396 OA
HETATM   27  C15 UNL     1       4.571   1.157   1.208  1.00  0.00     0.201 C 
ENDBRANCH  25  26
ENDBRANCH  24  25
ENDBRANCH  23  24
ENDBRANCH  22  23
ENDBRANCH  10  21
TORSDOF 5
