REMARK  5 active torsions:
REMARK  status: ('A' for Active; 'I' for Inactive)
REMARK    1  A    between atoms: N1_7  and  C6_8 
REMARK    2  A    between atoms: C6_8  and  C7_9 
REMARK    3  A    between atoms: C7_9  and  C8_10 
REMARK    4  A    between atoms: C8_10  and  C9_11 
REMARK    5  A    between atoms: C13_16  and  C14_17 
ROOT
HETATM    1  C9  UNL     1       1.199   0.204   0.184  1.00  0.00    -0.020 C 
HETATM    2  C10 UNL     1       0.994  -0.844  -0.592  1.00  0.00     0.011 C 
HETATM    3  C11 UNL     1       1.628  -2.047  -1.123  1.00  0.00     0.017 C 
HETATM    4  C12 UNL     1       2.918  -2.394  -1.127  1.00  0.00     0.084 C 
HETATM    5  N2  UNL     1       4.130  -1.820  -0.670  1.00  0.00    -0.388 N 
HETATM    6  C13 UNL     1       4.589  -0.473  -0.392  1.00  0.00     0.131 C 
HETATM    7  C16 UNL     1       3.807   0.199   0.661  1.00  0.00     0.044 C 
HETATM    8  C17 UNL     1       2.501   0.458   0.879  1.00  0.00     0.121 C 
HETATM    9  F1  UNL     1       2.403   1.134   2.062  1.00  0.00    -0.206 F 
HETATM   10  H18 UNL     1       4.851  -2.587  -0.504  1.00  0.00     0.159 HD
ENDROOT
BRANCH   1  11
HETATM   11  C8  UNL     1       0.329   1.304   0.556  1.00  0.00     0.043 C 
BRANCH  11  12
HETATM   12  C7  UNL     1      -1.087   1.302   0.084  1.00  0.00     0.024 C 
BRANCH  12  13
HETATM   13  C6  UNL     1      -1.970   0.243   0.622  1.00  0.00     0.123 C 
BRANCH  13  14
HETATM   14  N1  UNL     1      -3.322   0.292   0.116  1.00  0.00    -0.381 N 
HETATM   15  C2  UNL     1      -3.922  -0.664  -0.747  1.00  0.00     0.021 C 
HETATM   16  C1  UNL     1      -3.169  -1.600  -1.292  1.00  0.00     0.040 C 
HETATM   17  C3  UNL     1      -5.359  -0.643  -1.055  1.00  0.00     0.223 C 
HETATM   18  O1  UNL     1      -6.000   0.486  -0.555  1.00  0.00    -0.384 OA
HETATM   19  C4  UNL     1      -5.173   1.619  -0.568  1.00  0.00     0.187 C 
HETATM   20  C5  UNL     1      -4.137   1.406   0.517  1.00  0.00     0.149 C 
ENDBRANCH  13  14
ENDBRANCH  12  13
ENDBRANCH  11  12
ENDBRANCH   1  11
BRANCH   6  21
HETATM   21  C14 UNL     1       6.019  -0.530  -0.002  1.00  0.00     0.014 C 
HETATM   22  C15 UNL     1       6.626   0.647  -0.036  1.00  0.00     0.083 C 
HETATM   23 CL1  UNL     1       6.191   2.291  -0.425  1.00  0.00    -0.097 Cl
ENDBRANCH   6  21
TORSDOF 5
