REMARK  9 active torsions:
REMARK  status: ('A' for Active; 'I' for Inactive)
REMARK    1  A    between atoms: C5_6  and  N1_7 
REMARK    2  A    between atoms: N1_7  and  C6_8 
REMARK    3  A    between atoms: C10_14  and  C11_15 
REMARK    4  A    between atoms: C11_15  and  C12_16 
REMARK    5  A    between atoms: C11_15  and  O2_22 
REMARK    6  A    between atoms: C12_16  and  O1_17 
REMARK    7  A    between atoms: O1_17  and  C13_18 
REMARK    8  A    between atoms: C13_18  and  C14_19 
REMARK    9  A    between atoms: C14_19  and  N4_20 
ROOT
HETATM    1  C6  UNL     1       2.336   0.637  -0.937  1.00  0.00     0.143 A 
HETATM    2  N2  UNL     1       3.111   1.435  -1.692  1.00  0.00    -0.223 NA
HETATM    3  C7  UNL     1       2.689   2.603  -2.207  1.00  0.00     0.236 A 
HETATM    4  N3  UNL     1       1.407   2.998  -1.948  1.00  0.00    -0.240 NA
HETATM    5  C8  UNL     1       0.651   2.189  -1.193  1.00  0.00     0.087 A 
HETATM    6  C9  UNL     1       1.033   0.984  -0.642  1.00  0.00     0.055 A 
HETATM    7  C10 UNL     1      -0.351   1.457  -0.390  1.00  0.00     0.042 A 
ENDROOT
BRANCH   1   8
HETATM    8  N1  UNL     1       2.870  -0.581  -0.435  1.00  0.00    -0.338 N 
HETATM    9  H4  UNL     1       2.285  -1.221   0.150  1.00  0.00     0.167 HD
BRANCH   8  10
HETATM   10  C5  UNL     1       4.210  -0.967  -0.713  1.00  0.00     0.075 A 
HETATM   11  C4  UNL     1       5.075  -0.595  -1.826  1.00  0.00     0.057 A 
HETATM   12  C3  UNL     1       6.272  -1.153  -1.753  1.00  0.00     0.048 A 
HETATM   13  C2  UNL     1       6.278  -1.961  -0.541  1.00  0.00     0.017 A 
HETATM   14 CL1  UNL     1       7.602  -0.971  -2.876  1.00  0.00    -0.083 Cl
HETATM   15  C1  UNL     1       7.264  -2.709  -0.046  1.00  0.00     0.028 C 
HETATM   16  C17 UNL     1       4.951  -1.769   0.018  1.00  0.00     0.154 A 
HETATM   17  F1  UNL     1       4.544  -2.369   1.182  1.00  0.00    -0.203 F 
ENDBRANCH   8  10
ENDBRANCH   1   8
BRANCH   7  18
HETATM   18  C11 UNL     1      -1.469   1.101   0.239  1.00  0.00     0.083 C 
BRANCH  18  19
HETATM   19  C12 UNL     1      -1.620  -0.145   1.020  1.00  0.00     0.233 C 
BRANCH  19  20
HETATM   20  O1  UNL     1      -2.597  -1.002   0.582  1.00  0.00    -0.383 OA
BRANCH  20  21
HETATM   21  C13 UNL     1      -3.865  -0.481   0.590  1.00  0.00     0.198 C 
BRANCH  21  22
HETATM   22  C14 UNL     1      -4.866  -1.526   0.102  1.00  0.00     0.295 C 
BRANCH  22  23
HETATM   23  N4  UNL     1      -6.183  -0.923   0.133  1.00  0.00     0.081 N 
HETATM   24  C15 UNL     1      -6.607  -0.680   1.499  1.00  0.00     0.306 C 
HETATM   25  H12 UNL     1      -6.853  -1.538  -0.362  1.00  0.00     0.315 HD
ENDBRANCH  22  23
ENDBRANCH  21  22
ENDBRANCH  20  21
ENDBRANCH  19  20
ENDBRANCH  18  19
BRANCH  18  26
HETATM   26  O2  UNL     1      -2.401   2.073   0.028  1.00  0.00    -0.357 OA
HETATM   27  C16 UNL     1      -2.260   3.299   0.764  1.00  0.00     0.209 C 
ENDBRANCH  18  26
ENDBRANCH   7  18
TORSDOF 9
