REMARK  8 active torsions:
REMARK  status: ('A' for Active; 'I' for Inactive)
REMARK    1  A    between atoms: O1_2  and  C2_3 
REMARK    2  A    between atoms: C7_8  and  O2_9 
REMARK    3  A    between atoms: O2_9  and  C8_10 
REMARK    4  A    between atoms: C8_10  and  C9_11 
REMARK    5  A    between atoms: C9_11  and  C10_12 
REMARK    6  A    between atoms: C10_12  and  N1_13 
REMARK    7  A    between atoms: C15_19  and  N2_20 
REMARK    8  A    between atoms: N2_20  and  C16_21 
ROOT
HETATM    1  C2  UNL     1      -0.603   0.440  -2.356  1.00  0.00     0.102 A 
HETATM    2  C3  UNL     1      -1.856   0.728  -2.880  1.00  0.00     0.054 A 
HETATM    3  C4  UNL     1      -2.898   0.613  -2.012  1.00  0.00     0.012 A 
HETATM    4  C5  UNL     1      -2.774   0.241  -0.691  1.00  0.00     0.025 A 
HETATM    5  C6  UNL     1      -1.504  -0.032  -0.229  1.00  0.00     0.055 A 
HETATM    6  C7  UNL     1      -0.360   0.052  -1.030  1.00  0.00     0.103 A 
HETATM    7  C15 UNL     1      -3.971   0.233  -0.128  1.00  0.00     0.140 A 
HETATM    8  N3  UNL     1      -4.888   0.617  -1.145  1.00  0.00    -0.227 NA
HETATM    9  C22 UNL     1      -4.170   0.811  -2.192  1.00  0.00     0.100 A 
ENDROOT
BRANCH   6  10
HETATM   10  O2  UNL     1       0.811  -0.175  -0.689  1.00  0.00    -0.348 OA
BRANCH  10  11
HETATM   11  C8  UNL     1       2.023  -0.437  -0.239  1.00  0.00     0.177 C 
BRANCH  11  12
HETATM   12  C9  UNL     1       3.146  -0.262  -1.211  1.00  0.00     0.057 C 
BRANCH  12  13
HETATM   13  C10 UNL     1       4.522  -0.515  -0.747  1.00  0.00     0.274 C 
BRANCH  13  14
HETATM   14  N1  UNL     1       4.951   0.332   0.344  1.00  0.00     0.092 N 
HETATM   15  C11 UNL     1       6.445   0.323   0.378  1.00  0.00     0.298 C 
HETATM   16  C12 UNL     1       6.826   1.181   1.552  1.00  0.00     0.198 C 
HETATM   17  O3  UNL     1       6.630   0.437   2.725  1.00  0.00    -0.388 OA
HETATM   18  C13 UNL     1       5.726  -0.592   2.516  1.00  0.00     0.198 C 
HETATM   19  C14 UNL     1       4.544  -0.174   1.656  1.00  0.00     0.298 C 
ENDBRANCH  13  14
ENDBRANCH  12  13
ENDBRANCH  11  12
ENDBRANCH  10  11
ENDBRANCH   6  10
BRANCH   1  20
HETATM   20  O1  UNL     1       0.480   0.548  -3.222  1.00  0.00    -0.353 OA
HETATM   21  C1  UNL     1       0.384   0.922  -4.567  1.00  0.00     0.210 C 
ENDBRANCH   1  20
BRANCH   7  22
HETATM   22  N2  UNL     1      -4.316  -0.088   1.210  1.00  0.00    -0.340 N 
HETATM   23  H20 UNL     1      -3.548  -0.098   1.922  1.00  0.00     0.167 HD
BRANCH  22  24
HETATM   24  C16 UNL     1      -5.680  -0.387   1.547  1.00  0.00     0.035 A 
HETATM   25  C17 UNL     1      -6.270  -1.626   1.631  1.00  0.00     0.032 A 
HETATM   26  C18 UNL     1      -7.611  -1.726   1.966  1.00  0.00     0.046 A 
HETATM   27  C19 UNL     1      -8.395  -0.623   2.225  1.00  0.00     0.138 A 
HETATM   28  F1  UNL     1      -9.703  -0.727   2.550  1.00  0.00    -0.204 F 
HETATM   29  C20 UNL     1      -7.818   0.631   2.145  1.00  0.00     0.074 A 
HETATM   30 CL1  UNL     1      -8.818   2.026   2.469  1.00  0.00    -0.081 Cl
HETATM   31  C21 UNL     1      -6.481   0.722   1.810  1.00  0.00     0.056 A 
ENDBRANCH  22  24
ENDBRANCH   7  22
TORSDOF 8
