REMARK  0 active torsions:
REMARK  status: ('A' for Active; 'I' for Inactive)
ROOT
HETATM    1  F1  UNL     1       2.766   0.520   4.611  1.00  0.00    -0.203 F 
HETATM    2  C1  UNL     1       2.736  -0.004   3.386  1.00  0.00     0.153 C 
HETATM    3  C2  UNL     1       2.486  -1.353   3.504  1.00  0.00     0.133 C 
HETATM    4  N1  UNL     1       2.421  -2.140   2.339  1.00  0.00    -0.347 N 
HETATM    5  C3  UNL     1       2.053  -2.807   1.140  1.00  0.00     0.139 A 
HETATM    6  N2  UNL     1       2.963  -3.676   0.776  1.00  0.00    -0.224 NA
HETATM    7  C4  UNL     1       2.974  -4.174  -0.510  1.00  0.00     0.235 A 
HETATM    8  N3  UNL     1       1.924  -3.532  -1.057  1.00  0.00    -0.241 NA
HETATM    9  C5  UNL     1       1.053  -2.641  -0.553  1.00  0.00     0.072 A 
HETATM   10  C6  UNL     1       0.984  -2.119   0.719  1.00  0.00     0.040 A 
HETATM   11  C7  UNL     1       0.044  -1.289   1.360  1.00  0.00     0.212 C 
HETATM   12  O1  UNL     1      -1.052  -0.999   0.499  1.00  0.00    -0.386 OA
HETATM   13  C8  UNL     1      -1.961  -0.186   1.076  1.00  0.00     0.168 C 
HETATM   14  C9  UNL     1      -3.084   0.227   0.162  1.00  0.00     0.031 C 
HETATM   15  C10 UNL     1      -2.710   1.037  -1.022  1.00  0.00    -0.004 C 
HETATM   16  C11 UNL     1      -3.377   2.406  -0.950  1.00  0.00     0.031 C 
HETATM   17  C12 UNL     1      -3.406   2.969  -2.349  1.00  0.00     0.168 C 
HETATM   18  O2  UNL     1      -2.199   2.706  -2.989  1.00  0.00    -0.391 OA
HETATM   19  C13 UNL     1      -1.147   2.578  -2.052  1.00  0.00     0.172 C 
HETATM   20  C14 UNL     1      -1.255   1.256  -1.302  1.00  0.00     0.020 C 
HETATM   21  C15 UNL     1      -0.619   0.174  -2.160  1.00  0.00     0.071 C 
HETATM   22  C16 UNL     1       0.433  -0.592  -1.417  1.00  0.00     0.049 C 
HETATM   23  C17 UNL     1      -0.002  -1.871  -1.290  1.00  0.00     0.064 C 
HETATM   24  O3  UNL     1       1.557  -0.130  -0.970  1.00  0.00    -0.352 OA
HETATM   25  C18 UNL     1       2.713   0.342  -0.533  1.00  0.00     0.204 C 
HETATM   26  C19 UNL     1       2.809   0.639   0.955  1.00  0.00     0.026 C 
HETATM   27  C20 UNL     1       2.912   0.996   2.270  1.00  0.00     0.072 C 
HETATM   28 CL1  UNL     1       3.271   2.607   2.987  1.00  0.00    -0.081 Cl
HETATM   29  H2  UNL     1       3.422  -2.332   2.725  1.00  0.00     0.167 HD
ENDROOT
TORSDOF 0
