REMARK  6 active torsions:
REMARK  status: ('A' for Active; 'I' for Inactive)
REMARK    1  A    between atoms: C5_6  and  O1_7 
REMARK    2  A    between atoms: O1_7  and  C6_8 
REMARK    3  A    between atoms: C6_8  and  C7_9 
REMARK    4  A    between atoms: C16_21  and  N3_22 
REMARK    5  A    between atoms: C16_21  and  C17_23 
REMARK    6  A    between atoms: C17_23  and  C18_24 
ROOT
HETATM    1  C1  UNL     1      -1.962  -3.448   0.293  1.00  0.00     0.070 C 
HETATM    2  C2  UNL     1      -1.097  -2.242   0.172  1.00  0.00     0.062 C 
HETATM    3  N1  UNL     1       0.129  -2.539  -0.107  1.00  0.00    -0.290 NA
HETATM    4  C3  UNL     1       1.178  -1.636  -0.509  1.00  0.00     0.187 C 
HETATM    5  C4  UNL     1       0.793  -0.244  -0.353  1.00  0.00    -0.007 C 
HETATM    6  C5  UNL     1       1.350   0.650   0.446  1.00  0.00     0.098 C 
HETATM    7  C13 UNL     1       0.335   1.403   1.238  1.00  0.00     0.083 C 
HETATM    8 CL1  UNL     1       0.885   2.611   2.333  1.00  0.00    -0.080 Cl
HETATM    9  C14 UNL     1      -1.001   1.185   1.149  1.00  0.00     0.115 C 
HETATM   10  N2  UNL     1      -1.241   0.152   0.213  1.00  0.00    -0.345 N 
HETATM   11  C15 UNL     1      -0.490   0.227  -1.088  1.00  0.00     0.164 C 
HETATM   12  C16 UNL     1      -1.994  -1.040   0.430  1.00  0.00     0.273 C 
ENDROOT
BRANCH  12  13
HETATM   13  N3  UNL     1      -2.538  -1.127   1.759  1.00  0.00     0.114 N 
HETATM   14  H15 UNL     1      -2.621  -0.235   2.264  1.00  0.00     0.316 HD
HETATM   15  H16 UNL     1      -3.400  -1.671   1.793  1.00  0.00     0.316 HD
ENDBRANCH  12  13
BRANCH  12  16
HETATM   16  C17 UNL     1      -3.101  -1.126  -0.575  1.00  0.00     0.109 C 
BRANCH  16  17
HETATM   17  C18 UNL     1      -4.094  -0.013  -0.483  1.00  0.00    -0.054 A 
HETATM   18  C19 UNL     1      -5.243  -0.036   0.280  1.00  0.00     0.007 A 
HETATM   19  C20 UNL     1      -6.134   1.013   0.339  1.00  0.00     0.001 A 
HETATM   20  C21 UNL     1      -5.911   2.151  -0.376  1.00  0.00     0.000 A 
HETATM   21  C22 UNL     1      -4.781   2.215  -1.149  1.00  0.00     0.001 A 
HETATM   22  C23 UNL     1      -3.899   1.156  -1.197  1.00  0.00     0.007 A 
ENDBRANCH  16  17
ENDBRANCH  12  16
BRANCH   6  23
HETATM   23  O1  UNL     1       2.672   0.702   0.398  1.00  0.00    -0.344 OA
BRANCH  23  24
HETATM   24  C6  UNL     1       3.655   0.666   1.376  1.00  0.00     0.214 C 
BRANCH  24  25
HETATM   25  C7  UNL     1       4.960   0.765   0.662  1.00  0.00    -0.031 A 
HETATM   26  C8  UNL     1       5.588  -0.410   0.252  1.00  0.00     0.009 A 
HETATM   27  C9  UNL     1       6.791  -0.417  -0.412  1.00  0.00     0.004 A 
HETATM   28  C10 UNL     1       7.400   0.803  -0.682  1.00  0.00     0.042 A 
HETATM   29  C11 UNL     1       6.808   1.987  -0.293  1.00  0.00     0.117 A 
HETATM   30  F1  UNL     1       7.411   3.172  -0.562  1.00  0.00    -0.206 F 
HETATM   31  C12 UNL     1       5.590   1.973   0.378  1.00  0.00     0.051 A 
ENDBRANCH  24  25
ENDBRANCH  23  24
ENDBRANCH   6  23
TORSDOF 6
