REMARK  6 active torsions:
REMARK  status: ('A' for Active; 'I' for Inactive)
REMARK    1  A    between atoms: C1_2  and  C2_3 
REMARK    2  A    between atoms: C3_4  and  C4_5 
REMARK    3  A    between atoms: C4_5  and  O1_6 
REMARK    4  A    between atoms: O1_6  and  C5_7 
REMARK    5  A    between atoms: C9_11  and  C10_12 
REMARK    6  A    between atoms: C11_13  and  C12_14 
ROOT
HETATM    1  C5  UNL     1      -1.997  -0.165   1.263  1.00  0.00     0.060 C 
HETATM    2  C6  UNL     1      -2.169  -1.414   0.797  1.00  0.00     0.013 C 
HETATM    3  C7  UNL     1      -1.123  -2.451   1.110  1.00  0.00     0.086 C 
HETATM    4  C8  UNL     1       0.172  -1.770   0.743  1.00  0.00     0.017 C 
HETATM    5  C9  UNL     1       0.993  -2.399  -0.079  1.00  0.00     0.089 C 
HETATM    6  N1  UNL     1       0.391  -0.496   1.326  1.00  0.00    -0.386 N 
HETATM    7  C18 UNL     1      -0.745   0.067   2.068  1.00  0.00     0.183 C 
HETATM    8  H16 UNL     1       1.331  -0.070   1.180  1.00  0.00     0.159 HD
ENDROOT
BRANCH   5   9
HETATM    9  C10 UNL     1       2.238  -1.790  -0.458  1.00  0.00    -0.071 C 
HETATM   10  C11 UNL     1       3.277  -1.263  -0.789  1.00  0.00    -0.062 C 
BRANCH  10  11
HETATM   11  C12 UNL     1       4.511  -0.640  -1.192  1.00  0.00     0.018 A 
HETATM   12  C13 UNL     1       4.925   0.512  -0.560  1.00  0.00     0.020 A 
HETATM   13  C14 UNL     1       6.100   1.143  -0.915  1.00  0.00     0.001 A 
HETATM   14  C15 UNL     1       6.817   0.528  -1.944  1.00  0.00     0.000 A 
HETATM   15  C16 UNL     1       6.432  -0.626  -2.599  1.00  0.00     0.001 A 
HETATM   16  C17 UNL     1       5.235  -1.226  -2.204  1.00  0.00     0.020 A 
ENDBRANCH  10  11
ENDBRANCH   5   9
BRANCH   1  17
HETATM   17  O1  UNL     1      -3.085   0.628   0.855  1.00  0.00    -0.350 OA
BRANCH  17  18
HETATM   18  C4  UNL     1      -4.388   0.275   1.216  1.00  0.00     0.202 C 
BRANCH  18  19
HETATM   19  C3  UNL     1      -5.294   1.277   0.564  1.00  0.00    -0.002 C 
HETATM   20  C2  UNL     1      -4.866   2.291  -0.202  1.00  0.00     0.002 C 
BRANCH  20  21
HETATM   21  C1  UNL     1      -5.824   3.266  -0.831  1.00  0.00     0.249 C 
HETATM   22  F1  UNL     1      -5.545   4.530  -0.381  1.00  0.00    -0.251 F 
ENDBRANCH  20  21
ENDBRANCH  18  19
ENDBRANCH  17  18
ENDBRANCH   1  17
TORSDOF 6
