REMARK  7 active torsions:
REMARK  status: ('A' for Active; 'I' for Inactive)
REMARK    1  A    between atoms: C4_6  and  N3_7 
REMARK    2  A    between atoms: N3_7  and  C5_8 
REMARK    3  A    between atoms: C8_11  and  O1_12 
REMARK    4  A    between atoms: O1_12  and  C9_13 
REMARK    5  A    between atoms: C9_13  and  C10_14 
REMARK    6  A    between atoms: C18_24  and  C19_25 
REMARK    7  A    between atoms: C20_26  and  C21_27 
ROOT
HETATM    1  N3  UNL     1      -1.194   0.970  -2.152  1.00  0.00    -0.340 N 
HETATM    2  H5  UNL     1      -1.639   1.911  -2.078  1.00  0.00     0.167 HD
ENDROOT
BRANCH   1   3
HETATM    3  C4  UNL     1      -1.743  -0.175  -2.792  1.00  0.00     0.150 A 
HETATM    4  N2  UNL     1      -1.248  -0.670  -3.949  1.00  0.00    -0.223 NA
HETATM    5  C3  UNL     1      -1.815  -1.752  -4.515  1.00  0.00     0.235 A 
HETATM    6  N1  UNL     1      -2.874  -2.403  -3.999  1.00  0.00    -0.245 NA
HETATM    7  C2  UNL     1      -3.400  -1.947  -2.851  1.00  0.00     0.054 A 
HETATM    8  C1  UNL     1      -4.587  -2.634  -2.228  1.00  0.00     0.072 C 
HETATM    9  C18 UNL     1      -2.827  -0.822  -2.244  1.00  0.00     0.088 A 
BRANCH   9  10
HETATM   10  C19 UNL     1      -3.467  -0.383  -1.016  1.00  0.00    -0.055 C 
HETATM   11  C20 UNL     1      -4.013  -0.018  -0.013  1.00  0.00    -0.061 C 
BRANCH  11  12
HETATM   12  C21 UNL     1      -4.681   0.431   1.172  1.00  0.00     0.017 A 
HETATM   13  C22 UNL     1      -6.002   0.534   1.125  1.00  0.00     0.013 A 
HETATM   14  C23 UNL     1      -6.899   0.969   2.205  1.00  0.00     0.147 A 
HETATM   15  N4  UNL     1      -6.186   1.296   3.420  1.00  0.00    -0.395 N 
HETATM   16  C24 UNL     1      -4.769   1.181   3.454  1.00  0.00     0.084 A 
HETATM   17  H18 UNL     1      -6.769   1.608   4.231  1.00  0.00     0.159 HD
HETATM   18  C25 UNL     1      -4.035   0.782   2.429  1.00  0.00     0.037 A 
ENDBRANCH  11  12
ENDBRANCH   9  10
ENDBRANCH   1   3
BRANCH   1  19
HETATM   19  C5  UNL     1       0.103   0.848  -1.533  1.00  0.00     0.035 A 
HETATM   20  C6  UNL     1       0.680   1.850  -0.770  1.00  0.00     0.032 A 
HETATM   21  C7  UNL     1       1.940   1.665  -0.224  1.00  0.00     0.041 A 
HETATM   22  C8  UNL     1       2.666   0.506  -0.408  1.00  0.00     0.091 A 
HETATM   23  C16 UNL     1       2.113  -0.526  -1.172  1.00  0.00     0.069 A 
HETATM   24 CL1  UNL     1       2.973  -2.028  -1.453  1.00  0.00    -0.081 Cl
HETATM   25  C17 UNL     1       0.853  -0.300  -1.698  1.00  0.00     0.056 A 
BRANCH  22  26
HETATM   26  O1  UNL     1       3.921   0.246   0.097  1.00  0.00    -0.345 OA
BRANCH  26  27
HETATM   27  C9  UNL     1       4.680   1.126   0.901  1.00  0.00     0.214 C 
BRANCH  27  28
HETATM   28  C10 UNL     1       5.967   0.424   1.191  1.00  0.00    -0.031 A 
HETATM   29  C11 UNL     1       6.052  -0.424   2.273  1.00  0.00     0.009 A 
HETATM   30  C12 UNL     1       7.249  -1.078   2.560  1.00  0.00     0.004 A 
HETATM   31  C13 UNL     1       8.367  -0.888   1.768  1.00  0.00     0.042 A 
HETATM   32  C14 UNL     1       8.276  -0.037   0.683  1.00  0.00     0.117 A 
HETATM   33  F1  UNL     1       9.390   0.125  -0.070  1.00  0.00    -0.206 F 
HETATM   34  C15 UNL     1       7.101   0.611   0.393  1.00  0.00     0.051 A 
ENDBRANCH  27  28
ENDBRANCH  26  27
ENDBRANCH  22  26
ENDBRANCH   1  19
TORSDOF 7
