REMARK  6 active torsions:
REMARK  status: ('A' for Active; 'I' for Inactive)
REMARK    1  A    between atoms: O1_2  and  C2_3 
REMARK    2  A    between atoms: C6_7  and  C7_8 
REMARK    3  A    between atoms: C14_18  and  C15_19 
REMARK    4  A    between atoms: C15_19  and  C16_20 
REMARK    5  A    between atoms: C16_20  and  C17_21 
REMARK    6  A    between atoms: C17_21  and  N2_22 
ROOT
HETATM    1  C2  UNL     1      -0.597  -1.676  -0.846  1.00  0.00     0.076 C 
HETATM    2  C3  UNL     1      -1.920  -1.772  -1.243  1.00  0.00     0.039 C 
HETATM    3  C4  UNL     1      -2.516  -1.700   0.214  1.00  0.00     0.095 C 
HETATM    4  C5  UNL     1      -2.267  -0.255  -0.274  1.00  0.00    -0.055 C 
HETATM    5  C6  UNL     1      -3.352   0.235  -0.831  1.00  0.00    -0.027 C 
HETATM    6  C13 UNL     1      -4.114  -0.807  -1.635  1.00  0.00     0.159 C 
HETATM    7  N1  UNL     1      -3.069  -1.768  -2.147  1.00  0.00    -0.387 N 
HETATM    8  C14 UNL     1      -0.847  -0.429   0.139  1.00  0.00     0.074 C 
HETATM    9  H11 UNL     1      -2.734  -2.465  -2.897  1.00  0.00     0.159 HD
ENDROOT
BRANCH   8  10
HETATM   10  C15 UNL     1      -0.450  -0.591   1.473  1.00  0.00     0.018 C 
BRANCH  10  11
HETATM   11  C16 UNL     1       1.045  -0.850   1.617  1.00  0.00     0.031 C 
BRANCH  11  12
HETATM   12  C17 UNL     1       1.891   0.286   1.099  1.00  0.00     0.272 C 
BRANCH  12  13
HETATM   13  N2  UNL     1       3.318   0.045   1.265  1.00  0.00     0.092 N 
HETATM   14  C18 UNL     1       4.050   1.214   0.802  1.00  0.00     0.298 C 
HETATM   15  C19 UNL     1       5.533   1.018   0.765  1.00  0.00     0.198 C 
HETATM   16  O2  UNL     1       5.808   0.004  -0.144  1.00  0.00    -0.388 OA
HETATM   17  C20 UNL     1       5.238  -1.178   0.336  1.00  0.00     0.198 C 
HETATM   18  C21 UNL     1       3.736  -1.073   0.451  1.00  0.00     0.298 C 
ENDBRANCH  12  13
ENDBRANCH  11  12
ENDBRANCH  10  11
ENDBRANCH   8  10
BRANCH   1  19
HETATM   19  O1  UNL     1      -0.020  -2.755  -1.617  1.00  0.00    -0.358 OA
HETATM   20  C1  UNL     1       1.033  -3.483  -1.029  1.00  0.00     0.209 C 
ENDBRANCH   1  19
BRANCH   5  21
HETATM   21  C7  UNL     1      -3.458   1.653  -0.541  1.00  0.00    -0.026 A 
HETATM   22  C8  UNL     1      -3.193   2.308   0.625  1.00  0.00     0.015 A 
HETATM   23  C9  UNL     1      -3.378   3.666   0.604  1.00  0.00     0.045 A 
HETATM   24  C10 UNL     1      -3.801   4.405  -0.478  1.00  0.00     0.138 A 
HETATM   25  F1  UNL     1      -3.954   5.752  -0.394  1.00  0.00    -0.204 F 
HETATM   26  C11 UNL     1      -4.061   3.718  -1.642  1.00  0.00     0.073 A 
HETATM   27 CL1  UNL     1      -4.595   4.670  -3.005  1.00  0.00    -0.081 Cl
HETATM   28  C12 UNL     1      -3.888   2.333  -1.674  1.00  0.00     0.039 A 
ENDBRANCH   5  21
TORSDOF 6
