REMARK  0 active torsions:
REMARK  status: ('A' for Active; 'I' for Inactive)
ROOT
HETATM    1  C1  UNL     1       4.291  -0.417   0.748  1.00  0.00     0.049 C 
HETATM    2  C2  UNL     1       2.834  -0.020   0.664  1.00  0.00    -0.044 C 
HETATM    3  C3  UNL     1       2.469  -0.008  -0.608  1.00  0.00     0.050 C 
HETATM    4 CL1  UNL     1       3.939  -0.481  -1.485  1.00  0.00    -0.085 Cl
HETATM    5  C4  UNL     1       1.325   0.216  -1.532  1.00  0.00     0.198 C 
HETATM    6  C5  UNL     1       0.436   1.245  -0.956  1.00  0.00     0.028 C 
HETATM    7  C6  UNL     1       0.405   2.323  -0.149  1.00  0.00     0.086 C 
HETATM    8  N1  UNL     1      -0.699   3.180   0.255  1.00  0.00    -0.374 N 
HETATM    9  C7  UNL     1      -1.838   2.302   0.165  1.00  0.00     0.104 C 
HETATM   10  C8  UNL     1      -1.794   1.167   0.844  1.00  0.00     0.015 C 
HETATM   11  C9  UNL     1      -0.653   0.902   1.602  1.00  0.00    -0.069 C 
HETATM   12  C10 UNL     1       0.300   0.694   2.214  1.00  0.00    -0.091 C 
HETATM   13  C11 UNL     1       1.452   0.456   2.928  1.00  0.00     0.108 C 
HETATM   14  C12 UNL     1       2.153   0.223   1.914  1.00  0.00    -0.000 C 
HETATM   15  C13 UNL     1      -2.915   0.199   0.789  1.00  0.00     0.083 C 
HETATM   16  C14 UNL     1      -2.495  -1.037   0.052  1.00  0.00    -0.072 C 
HETATM   17  C15 UNL     1      -3.015  -1.222  -1.190  1.00  0.00    -0.017 C 
HETATM   18  C16 UNL     1      -2.070  -1.045  -2.358  1.00  0.00     0.095 C 
HETATM   19  C17 UNL     1      -0.688  -1.238  -1.837  1.00  0.00     0.085 C 
HETATM   20  C18 UNL     1      -0.679  -2.304  -0.994  1.00  0.00     0.127 C 
HETATM   21  F1  UNL     1      -0.044  -3.493  -0.873  1.00  0.00    -0.208 F 
HETATM   22  C19 UNL     1      -1.624  -2.233   0.185  1.00  0.00     0.107 C 
HETATM   23  O1  UNL     1       0.663  -1.035  -1.636  1.00  0.00    -0.338 OA
HETATM   24  H7  UNL     1      -0.312   4.116   0.469  1.00  0.00     0.164 HD
ENDROOT
TORSDOF 0
