REMARK  7 active torsions:
REMARK  status: ('A' for Active; 'I' for Inactive)
REMARK    1  A    between atoms: C2_2  and  C4_6 
REMARK    2  A    between atoms: N1_3  and  C3_4 
REMARK    3  A    between atoms: C4_6  and  C5_7 
REMARK    4  A    between atoms: C6_8  and  C7_9 
REMARK    5  A    between atoms: C10_12  and  C11_13 
REMARK    6  A    between atoms: C11_13  and  N3_14 
REMARK    7  A    between atoms: N4_19  and  C16_20 
ROOT
HETATM    1  C4  UNL     1      -2.725  -0.164   0.597  1.00  0.00     0.134 C 
HETATM    2  N4  UNL     1      -3.505   0.744   1.019  1.00  0.00    -0.243 NA
ENDROOT
BRANCH   1   3
HETATM    3  C2  UNL     1      -3.138  -1.535   0.341  1.00  0.00     0.069 C 
HETATM    4  C1  UNL     1      -2.178  -2.537  -0.149  1.00  0.00     0.074 C 
HETATM    5  N1  UNL     1      -4.351  -1.930   0.531  1.00  0.00    -0.245 NA
BRANCH   5   6
HETATM    6  C3  UNL     1      -4.631  -3.293   0.246  1.00  0.00     0.223 C 
HETATM    7  N2  UNL     1      -4.601  -4.404  -0.404  1.00  0.00    -0.293 NA
HETATM    8  H5  UNL     1      -5.090  -5.239  -0.067  1.00  0.00     0.187 HD
ENDBRANCH   5   6
ENDBRANCH   1   3
BRANCH   1   9
HETATM    9  C5  UNL     1      -1.369   0.218   0.369  1.00  0.00    -0.039 C 
HETATM   10  C6  UNL     1      -0.210   0.554   0.157  1.00  0.00    -0.060 C 
BRANCH  10  11
HETATM   11  C7  UNL     1       1.135   0.953  -0.111  1.00  0.00     0.018 A 
HETATM   12  C8  UNL     1       1.454   1.768  -1.167  1.00  0.00     0.021 A 
HETATM   13  C9  UNL     1       2.771   2.120  -1.374  1.00  0.00     0.010 A 
HETATM   14  C10 UNL     1       3.753   1.655  -0.526  1.00  0.00    -0.030 A 
HETATM   15  C14 UNL     1       3.411   0.834   0.535  1.00  0.00     0.010 A 
HETATM   16  C15 UNL     1       2.105   0.463   0.771  1.00  0.00     0.021 A 
BRANCH  14  17
HETATM   17  C11 UNL     1       5.168   2.081  -0.814  1.00  0.00     0.309 C 
BRANCH  17  18
HETATM   18  N3  UNL     1       5.707   1.072  -1.702  1.00  0.00     0.084 N 
HETATM   19  C12 UNL     1       7.059   1.287  -2.102  1.00  0.00     0.309 C 
HETATM   20  C13 UNL     1       5.420  -0.262  -1.279  1.00  0.00     0.309 C 
ENDBRANCH  17  18
ENDBRANCH  14  17
ENDBRANCH  10  11
ENDBRANCH   1   9
BRANCH   2  21
HETATM   21  C16 UNL     1      -4.888   0.569   1.306  1.00  0.00     0.032 A 
HETATM   22  C17 UNL     1      -6.054   0.275   0.851  1.00  0.00     0.001 A 
HETATM   23  C18 UNL     1      -6.705   0.433   2.142  1.00  0.00     0.035 A 
HETATM   24  C19 UNL     1      -5.364   0.770   2.667  1.00  0.00     0.063 A 
ENDBRANCH   2  21
TORSDOF 7
