REMARK  6 active torsions:
REMARK  status: ('A' for Active; 'I' for Inactive)
REMARK    1  A    between atoms: C3_4  and  C4_5 
REMARK    2  A    between atoms: C5_6  and  C6_7 
REMARK    3  A    between atoms: C7_8  and  N1_9 
REMARK    4  A    between atoms: N1_9  and  C8_10 
REMARK    5  A    between atoms: C16_19  and  C17_20 
REMARK    6  A    between atoms: C17_20  and  N2_21 
ROOT
HETATM    1  F1  UNL     1      -3.262   1.553  -1.023  1.00  0.00    -0.205 F 
HETATM    2  C1  UNL     1      -2.548   0.409  -0.839  1.00  0.00     0.125 A 
HETATM    3  C2  UNL     1      -1.175   0.475  -0.926  1.00  0.00     0.063 A 
HETATM    4  C3  UNL     1      -0.398  -0.671  -0.791  1.00  0.00     0.021 A 
HETATM    5  C14 UNL     1      -1.117  -1.824  -0.572  1.00  0.00     0.021 A 
HETATM    6  C15 UNL     1      -2.488  -1.904  -0.484  1.00  0.00     0.013 A 
HETATM    7  C16 UNL     1      -3.248  -0.745  -0.621  1.00  0.00     0.009 A 
ENDROOT
BRANCH   4   8
HETATM    8  C4  UNL     1       1.032  -0.635  -0.883  1.00  0.00    -0.053 C 
HETATM    9  C5  UNL     1       2.232  -0.616  -0.977  1.00  0.00    -0.008 C 
BRANCH   9  10
HETATM   10  C6  UNL     1       3.642  -0.615  -1.093  1.00  0.00     0.009 C 
HETATM   11  C7  UNL     1       4.843  -0.634  -1.200  1.00  0.00     0.025 C 
BRANCH  11  12
HETATM   12  N1  UNL     1       6.254  -0.668  -1.344  1.00  0.00    -0.315 N 
HETATM   13  H2  UNL     1       6.624  -1.347  -2.045  1.00  0.00     0.176 HD
BRANCH  12  14
HETATM   14  C8  UNL     1       7.134   0.159  -0.593  1.00  0.00     0.041 A 
HETATM   15  C9  UNL     1       8.498   0.064  -0.818  1.00  0.00     0.030 A 
HETATM   16  C10 UNL     1       9.328   0.890  -0.063  1.00  0.00     0.004 A 
HETATM   17  C11 UNL     1       8.851   1.794   0.893  1.00  0.00     0.024 A 
HETATM   18  C12 UNL     1       7.464   1.845   1.076  1.00  0.00     0.036 A 
HETATM   19 CL1  UNL     1       6.889   2.974   2.271  1.00  0.00    -0.084 Cl
HETATM   20  C13 UNL     1       6.642   1.038   0.340  1.00  0.00     0.053 A 
ENDBRANCH  12  14
ENDBRANCH  11  12
ENDBRANCH   9  10
ENDBRANCH   4   8
BRANCH   7  21
HETATM   21  C17 UNL     1      -4.684  -0.962  -0.454  1.00  0.00     0.314 C 
BRANCH  21  22
HETATM   22  N2  UNL     1      -5.151  -0.791   0.862  1.00  0.00     0.092 NA
HETATM   23  C18 UNL     1      -4.928   0.416   1.558  1.00  0.00     0.273 C 
HETATM   24  C19 UNL     1      -6.167   1.252   1.179  1.00  0.00     0.032 C 
HETATM   25  C20 UNL     1      -7.245   0.216   1.438  1.00  0.00     0.032 C 
HETATM   26  C21 UNL     1      -6.587  -1.066   0.969  1.00  0.00     0.273 C 
ENDBRANCH  21  22
ENDBRANCH   7  21
TORSDOF 6
