REMARK  7 active torsions:
REMARK  status: ('A' for Active; 'I' for Inactive)
REMARK    1  A    between atoms: C2_2  and  N1_3 
REMARK    2  A    between atoms: N1_3  and  C3_4 
REMARK    3  A    between atoms: C6_7  and  C7_8 
REMARK    4  A    between atoms: C7_8  and  C8_9 
REMARK    5  A    between atoms: C8_9  and  O1_10 
REMARK    6  A    between atoms: O1_10  and  C9_11 
REMARK    7  A    between atoms: C9_11  and  C10_12 
ROOT
HETATM    1  C3  UNL     1       4.214   0.006  -0.324  1.00  0.00     0.033 A 
HETATM    2  C4  UNL     1       3.625   1.130   0.187  1.00  0.00     0.030 A 
HETATM    3  C5  UNL     1       2.263   1.188   0.259  1.00  0.00     0.011 A 
HETATM    4  C6  UNL     1       1.485   0.132  -0.177  1.00  0.00    -0.034 A 
HETATM    5  C16 UNL     1       2.095  -1.008  -0.697  1.00  0.00     0.042 A 
HETATM    6 CL1  UNL     1       1.188  -2.399  -1.275  1.00  0.00    -0.084 Cl
HETATM    7  C17 UNL     1       3.481  -1.092  -0.781  1.00  0.00     0.053 A 
ENDROOT
BRANCH   4   8
HETATM    8  C7  UNL     1      -0.024   0.109  -0.138  1.00  0.00     0.066 C 
BRANCH   8   9
HETATM    9  C8  UNL     1      -0.560  -0.747   0.962  1.00  0.00     0.172 C 
BRANCH   9  10
HETATM   10  O1  UNL     1      -1.930  -0.754   0.979  1.00  0.00    -0.386 OA
BRANCH  10  11
HETATM   11  C9  UNL     1      -2.555   0.447   1.158  1.00  0.00     0.206 C 
BRANCH  11  12
HETATM   12  C10 UNL     1      -4.034   0.187   1.143  1.00  0.00    -0.032 A 
HETATM   13  C11 UNL     1      -4.732   0.228  -0.037  1.00  0.00     0.009 A 
HETATM   14  C12 UNL     1      -6.085   0.017  -0.229  1.00  0.00     0.004 A 
HETATM   15  C13 UNL     1      -6.764  -0.264   0.950  1.00  0.00     0.042 A 
HETATM   16  C14 UNL     1      -6.129  -0.322   2.174  1.00  0.00     0.117 A 
HETATM   17  F1  UNL     1      -6.820  -0.601   3.322  1.00  0.00    -0.206 F 
HETATM   18  C15 UNL     1      -4.772  -0.099   2.278  1.00  0.00     0.051 A 
ENDBRANCH  11  12
ENDBRANCH  10  11
ENDBRANCH   9  10
ENDBRANCH   8   9
ENDBRANCH   4   8
BRANCH   1  19
HETATM   19  N1  UNL     1       5.634  -0.048  -0.397  1.00  0.00    -0.369 N 
HETATM   20  H4  UNL     1       6.070  -0.432   0.464  1.00  0.00     0.165 HD
BRANCH  19  21
HETATM   21  C2  UNL     1       6.427   0.365  -1.499  1.00  0.00     0.061 C 
HETATM   22  C1  UNL     1       6.178   0.013  -2.748  1.00  0.00     0.049 C 
ENDBRANCH  19  21
ENDBRANCH   1  19
TORSDOF 7
