REMARK  7 active torsions:
REMARK  status: ('A' for Active; 'I' for Inactive)
REMARK    1  A    between atoms: C6_8  and  C7_9 
REMARK    2  A    between atoms: C8_10  and  N1_11 
REMARK    3  A    between atoms: N1_11  and  C9_12 
REMARK    4  A    between atoms: C10_13  and  C11_14 
REMARK    5  A    between atoms: C12_15  and  C13_16 
REMARK    6  A    between atoms: C16_19  and  C17_20 
REMARK    7  A    between atoms: C17_20  and  N2_21 
ROOT
HETATM    1  C9  UNL     1       1.740   1.382   0.131  1.00  0.00     0.096 C 
HETATM    2  C10 UNL     1       1.272   0.288  -0.451  1.00  0.00     0.082 C 
ENDROOT
BRANCH   2   3
HETATM    3  C11 UNL     1      -0.113  -0.081  -0.494  1.00  0.00    -0.070 C 
HETATM    4  C12 UNL     1      -1.269  -0.409  -0.525  1.00  0.00    -0.037 C 
BRANCH   4   5
HETATM    5  C13 UNL     1      -2.657  -0.797  -0.587  1.00  0.00     0.129 A 
HETATM    6  C14 UNL     1      -3.209  -1.979  -0.208  1.00  0.00     0.049 A 
HETATM    7  C15 UNL     1      -4.560  -1.849  -0.468  1.00  0.00     0.038 A 
HETATM    8  C16 UNL     1      -4.783  -0.592  -0.995  1.00  0.00     0.083 A 
HETATM    9  O2  UNL     1      -3.596  -0.016  -1.038  1.00  0.00    -0.304 OA
BRANCH   8  10
HETATM   10  C17 UNL     1      -5.998   0.111  -1.458  1.00  0.00     0.337 C 
BRANCH  10  11
HETATM   11  N2  UNL     1      -6.553   0.881  -0.387  1.00  0.00     0.094 N 
HETATM   12  C18 UNL     1      -7.729   1.633  -0.829  1.00  0.00     0.273 C 
HETATM   13  C19 UNL     1      -8.762   0.556  -0.927  1.00  0.00     0.032 C 
HETATM   14  C20 UNL     1      -8.475  -0.325   0.269  1.00  0.00     0.032 C 
HETATM   15  C21 UNL     1      -7.046   0.047   0.666  1.00  0.00     0.273 C 
ENDBRANCH  10  11
ENDBRANCH   8  10
ENDBRANCH   4   5
ENDBRANCH   2   3
BRANCH   1  16
HETATM   16  N1  UNL     1       3.154   1.643   0.107  1.00  0.00    -0.375 N 
HETATM   17  H9  UNL     1       3.727   2.099  -0.622  1.00  0.00     0.164 HD
BRANCH  16  18
HETATM   18  C8  UNL     1       3.774   1.161   1.321  1.00  0.00     0.087 C 
HETATM   19  C7  UNL     1       4.964   0.612   1.240  1.00  0.00     0.020 C 
BRANCH  19  20
HETATM   20  C6  UNL     1       6.163   0.142   0.618  1.00  0.00     0.037 C 
HETATM   21  C5  UNL     1       7.346  -0.414   0.621  1.00  0.00     0.084 C 
HETATM   22  C1  UNL     1       8.018  -0.912   1.835  1.00  0.00     0.249 C 
HETATM   23  O1  UNL     1       7.971  -0.520  -0.608  1.00  0.00    -0.348 OA
HETATM   24  F1  UNL     1       8.021  -2.283   1.881  1.00  0.00    -0.238 F 
HETATM   25  C2  UNL     1       9.420  -0.341   1.836  1.00  0.00     0.015 C 
HETATM   26  C3  UNL     1      10.016  -0.171   0.645  1.00  0.00    -0.001 C 
HETATM   27  C4  UNL     1       9.394  -0.508  -0.687  1.00  0.00     0.202 C 
ENDBRANCH  19  20
ENDBRANCH  16  18
ENDBRANCH   1  16
TORSDOF 7
