REMARK  1 active torsions:
REMARK  status: ('A' for Active; 'I' for Inactive)
REMARK    1  A    between atoms: C5_8  and  C6_9 
ROOT
HETATM    1  C1  UNL     1       5.025  -0.100   1.115  1.00  0.00     0.066 C 
HETATM    2  C2  UNL     1       3.653  -0.281   0.607  1.00  0.00     0.021 C 
HETATM    3  N1  UNL     1       3.293  -1.545   0.626  1.00  0.00    -0.251 NA
HETATM    4  C3  UNL     1       1.984  -1.903   0.165  1.00  0.00     0.228 C 
HETATM    5  N2  UNL     1       0.884  -1.487   0.672  1.00  0.00    -0.253 NA
HETATM    6  C4  UNL     1      -0.418  -1.852   0.202  1.00  0.00     0.420 C 
HETATM    7  N3  UNL     1      -1.285  -0.704  -0.055  1.00  0.00     0.114 N 
HETATM    8  C5  UNL     1      -2.548  -1.269  -0.501  1.00  0.00     0.271 C 
HETATM    9  C8  UNL     1      -3.490  -0.189  -0.843  1.00  0.00     0.036 C 
HETATM   10  C9  UNL     1      -3.220   1.096  -0.903  1.00  0.00     0.133 C 
HETATM   11  O1  UNL     1      -1.950   1.550  -0.632  1.00  0.00    -0.360 OA
HETATM   12  C10 UNL     1      -1.119   2.130  -1.611  1.00  0.00     0.202 C 
HETATM   13  C11 UNL     1       0.243   2.300  -1.086  1.00  0.00     0.002 C 
HETATM   14  C12 UNL     1       1.409   2.677  -0.665  1.00  0.00     0.036 C 
HETATM   15  C13 UNL     1       2.645   2.176  -0.106  1.00  0.00     0.104 C 
HETATM   16  F1  UNL     1       3.586   3.093   0.154  1.00  0.00    -0.210 F 
HETATM   17  C14 UNL     1       3.354   1.147   0.307  1.00  0.00     0.111 C 
HETATM   18  H7  UNL     1      -1.402  -0.185   0.841  1.00  0.00     0.319 HD
ENDROOT
BRANCH   8  19
HETATM   19  C6  UNL     1      -3.074  -2.151   0.607  1.00  0.00     0.024 C 
HETATM   20  C7  UNL     1      -3.688  -1.409   1.502  1.00  0.00     0.216 C 
HETATM   21 CL1  UNL     1      -4.577  -1.202   2.995  1.00  0.00    -0.230 Cl
ENDBRANCH   8  19
TORSDOF 1
