REMARK  8 active torsions:
REMARK  status: ('A' for Active; 'I' for Inactive)
REMARK    1  A    between atoms: C5_6  and  C6_7 
REMARK    2  A    between atoms: C6_7  and  O1_8 
REMARK    3  A    between atoms: O1_8  and  C7_9 
REMARK    4  A    between atoms: C10_12  and  N1_13 
REMARK    5  A    between atoms: C11_14  and  C12_16 
REMARK    6  A    between atoms: C12_16  and  C13_17 
REMARK    7  A    between atoms: C13_17  and  C14_18 
REMARK    8  A    between atoms: C14_18  and  C15_19 
ROOT
HETATM    1  N1  UNL     1       0.152  -0.397  -2.272  1.00  0.00    -0.346 N 
HETATM    2  C11 UNL     1      -1.188  -0.471  -2.520  1.00  0.00     0.112 C 
HETATM    3 CL1  UNL     1      -1.474  -0.024  -0.809  1.00  0.00    -0.064 Cl
HETATM    4  H8  UNL     1       0.108  -1.439  -2.428  1.00  0.00     0.167 HD
ENDROOT
BRANCH   1   5
HETATM    5  C10 UNL     1       1.505  -0.348  -2.026  1.00  0.00     0.033 A 
HETATM    6  C9  UNL     1       2.573  -0.544  -2.828  1.00  0.00     0.032 A 
HETATM    7  C8  UNL     1       3.852  -0.511  -2.350  1.00  0.00     0.039 A 
HETATM    8  C7  UNL     1       3.929  -0.255  -0.991  1.00  0.00     0.069 A 
HETATM    9  C23 UNL     1       2.906  -0.059  -0.098  1.00  0.00     0.039 A 
HETATM   10  C22 UNL     1       1.660  -0.101  -0.627  1.00  0.00     0.032 A 
BRANCH   8  11
HETATM   11  O1  UNL     1       5.247  -0.189  -0.471  1.00  0.00    -0.347 OA
BRANCH  11  12
HETATM   12  C6  UNL     1       5.443   0.110   0.903  1.00  0.00     0.214 C 
BRANCH  12  13
HETATM   13  C5  UNL     1       6.855   0.152   1.271  1.00  0.00    -0.031 A 
HETATM   14  C4  UNL     1       7.174  -0.190   2.578  1.00  0.00     0.009 A 
HETATM   15  C3  UNL     1       8.469  -0.198   3.066  1.00  0.00     0.004 A 
HETATM   16  C2  UNL     1       9.435   0.147   2.159  1.00  0.00     0.042 A 
HETATM   17  C1  UNL     1       9.183   0.496   0.830  1.00  0.00     0.117 A 
HETATM   18  F1  UNL     1      10.146   0.830  -0.057  1.00  0.00    -0.206 F 
HETATM   19  C24 UNL     1       7.858   0.496   0.399  1.00  0.00     0.051 A 
ENDBRANCH  12  13
ENDBRANCH  11  12
ENDBRANCH   8  11
ENDBRANCH   1   5
BRANCH   2  20
HETATM   20  C12 UNL     1      -2.151  -0.637  -3.381  1.00  0.00     0.107 C 
BRANCH  20  21
HETATM   21  C13 UNL     1      -3.362  -0.582  -2.605  1.00  0.00    -0.068 C 
BRANCH  21  22
HETATM   22  C14 UNL     1      -4.369  -0.543  -1.949  1.00  0.00    -0.037 C 
BRANCH  22  23
HETATM   23  C15 UNL     1      -5.541  -0.501  -1.175  1.00  0.00     0.123 C 
HETATM   24  C16 UNL     1      -6.713  -1.067  -1.506  1.00  0.00     0.048 C 
HETATM   25  C17 UNL     1      -7.911  -1.021  -0.718  1.00  0.00     0.031 C 
HETATM   26  C18 UNL     1      -7.853  -0.374   0.434  1.00  0.00     0.035 C 
HETATM   27  N2  UNL     1      -8.771  -0.084   1.495  1.00  0.00    -0.391 N 
HETATM   28  C21 UNL     1      -6.538   0.142   0.946  1.00  0.00     0.180 C 
HETATM   29  C19 UNL     1      -8.117   0.798   2.506  1.00  0.00     0.122 C 
HETATM   30  H12 UNL     1      -9.731  -0.480   1.460  1.00  0.00     0.159 HD
HETATM   31  C20 UNL     1      -7.014   1.424   1.598  1.00  0.00     0.058 C 
HETATM   32  O2  UNL     1      -5.514   0.192   0.064  1.00  0.00    -0.331 OA
ENDBRANCH  22  23
ENDBRANCH  21  22
ENDBRANCH  20  21
ENDBRANCH   2  20
TORSDOF 8
