REMARK  4 active torsions:
REMARK  status: ('A' for Active; 'I' for Inactive)
REMARK    1  A    between atoms: C2_2  and  C3_4 
REMARK    2  A    between atoms: C3_4  and  N1_5 
REMARK    3  A    between atoms: N1_5  and  C4_6 
REMARK    4  A    between atoms: C8_12  and  O1_13 
ROOT
HETATM    1  C4  UNL     1      -2.292  -0.356  -0.738  1.00  0.00     0.243 C 
HETATM    2  N2  UNL     1      -1.646   0.599  -1.335  1.00  0.00    -0.202 NA
HETATM    3  C5  UNL     1      -0.347   1.023  -1.068  1.00  0.00     0.236 C 
HETATM    4  N3  UNL     1       0.538   1.902  -1.273  1.00  0.00    -0.254 NA
HETATM    5  C6  UNL     1       1.831   1.859  -0.698  1.00  0.00     0.120 C 
HETATM    6  C7  UNL     1       2.942   1.564  -0.085  1.00  0.00     0.058 C 
HETATM    7  C8  UNL     1       3.523   0.480   0.662  1.00  0.00     0.091 C 
HETATM    8  C10 UNL     1       3.124  -0.717   1.038  1.00  0.00     0.171 C 
HETATM    9  O2  UNL     1       2.408  -1.879   1.260  1.00  0.00    -0.360 OA
HETATM   10  C11 UNL     1       0.988  -1.746   1.446  1.00  0.00     0.176 C 
HETATM   11  C12 UNL     1       0.255  -2.537   0.414  1.00  0.00     0.053 C 
HETATM   12  C13 UNL     1      -1.258  -2.288   0.452  1.00  0.00     0.181 C 
HETATM   13  O3  UNL     1      -1.464  -0.896   0.222  1.00  0.00    -0.321 OA
ENDROOT
BRANCH   1  14
HETATM   14  N1  UNL     1      -3.615  -0.664  -1.128  1.00  0.00    -0.350 N 
HETATM   15  H5  UNL     1      -3.795  -1.701  -0.995  1.00  0.00     0.163 HD
BRANCH  14  16
HETATM   16  C3  UNL     1      -4.458   0.390  -1.608  1.00  0.00     0.173 C 
BRANCH  16  17
HETATM   17  C2  UNL     1      -4.814   1.369  -0.515  1.00  0.00     0.020 C 
HETATM   18  C1  UNL     1      -4.661   1.671   0.771  1.00  0.00     0.034 C 
HETATM   19 CL1  UNL     1      -5.860   2.673  -1.112  1.00  0.00    -0.088 Cl
ENDBRANCH  16  17
ENDBRANCH  14  16
ENDBRANCH   1  14
BRANCH   7  20
HETATM   20  O1  UNL     1       4.811   0.674   1.129  1.00  0.00    -0.354 OA
HETATM   21  C9  UNL     1       5.905   1.006   0.295  1.00  0.00     0.210 C 
ENDBRANCH   7  20
TORSDOF 4
