REMARK  6 active torsions:
REMARK  status: ('A' for Active; 'I' for Inactive)
REMARK    1  A    between atoms: C5_6  and  C6_7 
REMARK    2  A    between atoms: C6_7  and  O1_8 
REMARK    3  A    between atoms: O1_8  and  C7_9 
REMARK    4  A    between atoms: C10_12  and  N1_13 
REMARK    5  A    between atoms: N1_13  and  B1_14 
REMARK    6  A    between atoms: B1_14  and  C11_15 
ROOT
HETATM    1  C11 UNL     1       5.960   0.287  -1.142  1.00  0.00    -0.125 C 
HETATM    2  C12 UNL     1       6.390   1.389  -1.413  1.00  0.00    -0.008 C 
HETATM    3 CL1  UNL     1       7.011   2.963  -1.772  1.00  0.00    -0.024 Cl
ENDROOT
BRANCH   1   4
HETATM    4  B1  UNL     1       5.413  -1.119  -0.770  1.00  0.00     0.361 B 
HETATM    5  H9  UNL     1       6.101  -2.070  -0.960  1.00  0.00     0.015 HD
BRANCH   4   6
HETATM    6  N1  UNL     1       4.493  -1.149   0.454  1.00  0.00    -0.431 N 
HETATM    7  H8  UNL     1       4.877  -1.361   1.395  1.00  0.00     0.139 HD
BRANCH   6   8
HETATM    8  C10 UNL     1       3.104  -0.889   0.333  1.00  0.00     0.014 A 
HETATM    9  C9  UNL     1       2.257  -0.912   1.425  1.00  0.00     0.030 A 
HETATM   10  C8  UNL     1       0.903  -0.657   1.291  1.00  0.00     0.039 A 
HETATM   11  C7  UNL     1       0.442  -0.380   0.021  1.00  0.00     0.069 A 
HETATM   12  C14 UNL     1       1.246  -0.347  -1.088  1.00  0.00     0.039 A 
HETATM   13  C13 UNL     1       2.589  -0.608  -0.909  1.00  0.00     0.030 A 
BRANCH  11  14
HETATM   14  O1  UNL     1      -0.926  -0.115  -0.158  1.00  0.00    -0.347 OA
BRANCH  14  15
HETATM   15  C6  UNL     1      -1.840  -0.124   0.921  1.00  0.00     0.214 C 
BRANCH  15  16
HETATM   16  C5  UNL     1      -3.221   0.180   0.499  1.00  0.00    -0.031 A 
HETATM   17  C4  UNL     1      -4.204  -0.698   0.092  1.00  0.00     0.009 A 
HETATM   18  C3  UNL     1      -5.454  -0.259  -0.273  1.00  0.00     0.004 A 
HETATM   19  C2  UNL     1      -5.779   1.090  -0.247  1.00  0.00     0.042 A 
HETATM   20  C1  UNL     1      -4.823   2.001   0.156  1.00  0.00     0.117 A 
HETATM   21  F1  UNL     1      -5.105   3.328   0.194  1.00  0.00    -0.206 F 
HETATM   22  C15 UNL     1      -3.568   1.532   0.519  1.00  0.00     0.051 A 
ENDBRANCH  15  16
ENDBRANCH  14  15
ENDBRANCH  11  14
ENDBRANCH   6   8
ENDBRANCH   4   6
ENDBRANCH   1   4
TORSDOF 6
