REMARK  1 active torsions:
REMARK  status: ('A' for Active; 'I' for Inactive)
REMARK    1  A    between atoms: C2_3  and  C3_4 
ROOT
HETATM    1  C3  UNL     1       2.292   0.384   0.311  1.00  0.00    -0.009 C 
HETATM    2  C4  UNL     1       2.850   1.690   0.320  1.00  0.00     0.123 C 
HETATM    3  C5  UNL     1       1.552   2.192   0.559  1.00  0.00    -0.097 C 
HETATM    4  C6  UNL     1       0.465   2.593   0.746  1.00  0.00    -0.080 C 
HETATM    5  C7  UNL     1      -0.868   3.057   0.966  1.00  0.00     0.261 C 
HETATM    6  O1  UNL     1      -1.699   1.865   0.977  1.00  0.00    -0.375 OA
HETATM    7  C8  UNL     1      -1.485   1.237  -0.265  1.00  0.00     0.208 C 
HETATM    8  C9  UNL     1      -1.973  -0.133  -0.305  1.00  0.00    -0.025 A 
HETATM    9  C10 UNL     1      -3.270  -0.540  -0.094  1.00  0.00     0.052 A 
HETATM   10  C11 UNL     1      -3.724  -1.837  -0.123  1.00  0.00     0.117 A 
HETATM   11  F2  UNL     1      -5.015  -2.136   0.096  1.00  0.00    -0.206 F 
HETATM   12  C12 UNL     1      -2.788  -2.837  -0.391  1.00  0.00     0.043 A 
HETATM   13  C13 UNL     1      -1.466  -2.497  -0.613  1.00  0.00     0.011 A 
HETATM   14  C14 UNL     1      -1.049  -1.182  -0.575  1.00  0.00    -0.048 A 
HETATM   15  C15 UNL     1       0.405  -0.807  -0.833  1.00  0.00     0.059 C 
HETATM   16  C16 UNL     1       0.955  -0.399   0.482  1.00  0.00     0.092 C 
HETATM   17 CL1  UNL     1       1.362  -1.885   1.414  1.00  0.00    -0.124 Cl
ENDROOT
BRANCH   1  18
HETATM   18  C2  UNL     1       3.421  -0.557   0.051  1.00  0.00     0.036 C 
HETATM   19  C1  UNL     1       4.453   0.266  -0.056  1.00  0.00     0.419 C 
HETATM   20  F1  UNL     1       5.799   0.238  -0.282  1.00  0.00    -0.455 F 
ENDBRANCH   1  18
TORSDOF 1
