REMARK  3 active torsions:
REMARK  status: ('A' for Active; 'I' for Inactive)
REMARK    1  A    between atoms: C7_7  and  O1_8 
REMARK    2  A    between atoms: O1_8  and  C8_9 
REMARK    3  A    between atoms: N2_26  and  C23_27 
ROOT
HETATM    1  C8  UNL     1      -1.320  -0.281  -1.094  1.00  0.00     0.098 A 
HETATM    2  C9  UNL     1      -0.473  -0.724  -2.092  1.00  0.00     0.070 A 
HETATM    3 CL1  UNL     1      -0.926  -2.238  -2.824  1.00  0.00    -0.081 Cl
HETATM    4  C10 UNL     1       0.696  -0.111  -2.567  1.00  0.00     0.056 A 
HETATM    5  C11 UNL     1       0.922   1.111  -1.848  1.00  0.00     0.032 A 
HETATM    6  C12 UNL     1       0.169   1.613  -0.892  1.00  0.00     0.039 A 
HETATM    7  C13 UNL     1      -0.983   0.911  -0.482  1.00  0.00    -0.017 A 
HETATM    8  C14 UNL     1      -1.461   1.592   0.801  1.00  0.00     0.069 C 
HETATM    9  C15 UNL     1      -0.179   1.873   1.561  1.00  0.00    -0.013 C 
HETATM   10  C16 UNL     1       0.925   2.144   2.287  1.00  0.00     0.060 C 
HETATM   11  C17 UNL     1       1.958   1.802   1.438  1.00  0.00    -0.077 C 
HETATM   12  C18 UNL     1       2.754   1.539   0.755  1.00  0.00    -0.081 C 
HETATM   13  C19 UNL     1       3.757   1.191  -0.130  1.00  0.00     0.118 A 
HETATM   14  C20 UNL     1       5.031   0.717   0.086  1.00  0.00    -0.053 A 
HETATM   15  C21 UNL     1       5.354   0.681   1.538  1.00  0.00     0.046 C 
HETATM   16  N1  UNL     1       4.686   0.764  -1.234  1.00  0.00     0.000 N 
HETATM   17  C22 UNL     1       5.509   0.390  -2.144  1.00  0.00     0.094 A 
HETATM   18  N2  UNL     1       4.273   0.848  -2.419  1.00  0.00    -0.184 NA
HETATM   19  C23 UNL     1       3.365   1.254  -1.483  1.00  0.00     0.172 A 
HETATM   20  N3  UNL     1       2.206   1.630  -2.282  1.00  0.00    -0.362 N 
HETATM   21  H18 UNL     1       2.019   2.168  -3.126  1.00  0.00     0.162 HD
ENDROOT
BRANCH   1  22
HETATM   22  O1  UNL     1      -2.437  -0.822  -0.616  1.00  0.00    -0.335 OA
BRANCH  22  23
HETATM   23  C7  UNL     1      -2.828  -1.624   0.405  1.00  0.00     0.181 A 
HETATM   24  C2  UNL     1      -4.131  -1.196   0.926  1.00  0.00    -0.047 A 
HETATM   25  C1  UNL     1      -4.605  -0.031   1.319  1.00  0.00     0.041 C 
HETATM   26  C3  UNL     1      -5.308  -2.043   1.094  1.00  0.00     0.006 A 
HETATM   27  C4  UNL     1      -5.260  -3.338   0.741  1.00  0.00     0.000 A 
HETATM   28  C5  UNL     1      -4.002  -3.879   0.178  1.00  0.00    -0.001 A 
HETATM   29  C6  UNL     1      -2.956  -3.082   0.050  1.00  0.00     0.010 A 
ENDBRANCH  22  23
ENDBRANCH   1  22
TORSDOF 3
