REMARK  4 active torsions:
REMARK  status: ('A' for Active; 'I' for Inactive)
REMARK    1  A    between atoms: C10_12  and  N1_13 
REMARK    2  A    between atoms: N1_13  and  C11_14 
REMARK    3  A    between atoms: C12_15  and  C13_16 
REMARK    4  A    between atoms: C14_17  and  C15_18 
ROOT
HETATM    1  F1  UNL     1      -6.989   1.178  -1.626  1.00  0.00    -0.205 F 
HETATM    2  C1  UNL     1      -6.706   0.627  -0.424  1.00  0.00     0.128 A 
HETATM    3  C2  UNL     1      -7.591   0.484   0.580  1.00  0.00     0.043 A 
HETATM    4  C3  UNL     1      -7.211  -0.110   1.805  1.00  0.00     0.004 A 
HETATM    5  C4  UNL     1      -5.910  -0.560   2.001  1.00  0.00     0.010 A 
HETATM    6  C5  UNL     1      -4.944  -0.438   0.997  1.00  0.00    -0.020 A 
HETATM    7  C6  UNL     1      -5.444   0.169  -0.182  1.00  0.00     0.029 A 
HETATM    8  C7  UNL     1      -4.495   0.308  -1.287  1.00  0.00     0.028 A 
HETATM    9 CL1  UNL     1      -4.857   0.101  -2.788  1.00  0.00    -0.175 Cl
HETATM   10  C8  UNL     1      -3.248   0.609  -1.536  1.00  0.00     0.121 A 
HETATM   11  C9  UNL     1      -1.865   0.929  -1.934  1.00  0.00     0.082 C 
HETATM   12  C10 UNL     1      -0.795  -0.043  -1.587  1.00  0.00     0.017 C 
HETATM   13  C21 UNL     1      -0.988  -1.105  -0.893  1.00  0.00     0.024 C 
HETATM   14  C22 UNL     1      -1.830  -2.036  -0.118  1.00  0.00     0.197 C 
HETATM   15  O1  UNL     1      -3.144  -1.761   0.089  1.00  0.00    -0.383 OA
HETATM   16  C23 UNL     1      -3.506  -0.844   1.066  1.00  0.00     0.207 C 
ENDROOT
BRANCH  12  17
HETATM   17  N1  UNL     1       0.464   0.365  -2.144  1.00  0.00    -0.319 N 
HETATM   18  H7  UNL     1       0.537   0.791  -3.089  1.00  0.00     0.176 HD
BRANCH  17  19
HETATM   19  C11 UNL     1       1.664   0.208  -1.455  1.00  0.00     0.015 C 
HETATM   20  C12 UNL     1       2.711   0.080  -0.874  1.00  0.00    -0.055 C 
BRANCH  20  21
HETATM   21  C13 UNL     1       3.968  -0.065  -0.151  1.00  0.00     0.067 C 
HETATM   22  C14 UNL     1       5.028   0.710  -0.442  1.00  0.00     0.020 C 
BRANCH  22  23
HETATM   23  C15 UNL     1       6.289   0.533   0.307  1.00  0.00    -0.036 A 
HETATM   24  C16 UNL     1       6.419  -0.403   1.270  1.00  0.00     0.011 A 
HETATM   25  C17 UNL     1       7.646  -0.447   1.884  1.00  0.00     0.001 A 
HETATM   26  C18 UNL     1       8.725   0.394   1.573  1.00  0.00     0.000 A 
HETATM   27  C19 UNL     1       8.475   1.327   0.554  1.00  0.00     0.001 A 
HETATM   28  C20 UNL     1       7.259   1.447  -0.125  1.00  0.00     0.011 A 
ENDBRANCH  22  23
ENDBRANCH  20  21
ENDBRANCH  17  19
ENDBRANCH  12  17
TORSDOF 4
