REMARK  8 active torsions:
REMARK  status: ('A' for Active; 'I' for Inactive)
REMARK    1  A    between atoms: N1_2  and  C2_3 
REMARK    2  A    between atoms: C2_3  and  C3_4 
REMARK    3  A    between atoms: C4_5  and  C5_6 
REMARK    4  A    between atoms: C5_6  and  C6_7 
REMARK    5  A    between atoms: C7_8  and  C8_9 
REMARK    6  A    between atoms: C13_15  and  O1_16 
REMARK    7  A    between atoms: O1_16  and  C14_17 
REMARK    8  A    between atoms: C14_17  and  C15_18 
ROOT
HETATM    1  C8  UNL     1      -0.551  -1.501  -0.930  1.00  0.00     0.091 C 
HETATM    2  C9  UNL     1      -1.352  -1.721   0.072  1.00  0.00     0.042 C 
HETATM    3  N2  UNL     1      -0.949  -2.045   1.405  1.00  0.00    -0.391 N 
HETATM    4  C10 UNL     1      -2.041  -2.112   2.361  1.00  0.00     0.119 C 
HETATM    5  C11 UNL     1      -3.152  -3.020   1.954  1.00  0.00     0.022 C 
HETATM    6  C12 UNL     1      -3.314  -3.045   0.447  1.00  0.00     0.040 C 
HETATM    7  C13 UNL     1      -2.856  -1.661  -0.047  1.00  0.00     0.171 C 
HETATM    8  H12 UNL     1       0.084  -2.203   1.576  1.00  0.00     0.159 HD
ENDROOT
BRANCH   1   9
HETATM    9  C7  UNL     1       0.855  -1.591  -0.675  1.00  0.00    -0.076 C 
HETATM   10  C6  UNL     1       2.040  -1.645  -0.459  1.00  0.00    -0.098 C 
BRANCH  10  11
HETATM   11  C5  UNL     1       3.474  -1.696  -0.177  1.00  0.00     0.121 C 
BRANCH  11  12
HETATM   12  C4  UNL     1       4.104  -0.532  -0.873  1.00  0.00    -0.017 C 
HETATM   13  C3  UNL     1       4.799   0.529  -0.552  1.00  0.00    -0.001 C 
BRANCH  13  14
HETATM   14  C2  UNL     1       5.537   1.785  -0.833  1.00  0.00     0.296 C 
BRANCH  14  15
HETATM   15  N1  UNL     1       4.917   2.878  -0.142  1.00  0.00     0.082 N 
HETATM   16  C1  UNL     1       5.061   2.788   1.295  1.00  0.00     0.307 C 
HETATM   17  H4  UNL     1       5.302   3.802  -0.441  1.00  0.00     0.315 HD
ENDBRANCH  14  15
ENDBRANCH  13  14
ENDBRANCH  11  12
ENDBRANCH  10  11
ENDBRANCH   1   9
BRANCH   7  18
HETATM   18  O1  UNL     1      -3.258  -1.479  -1.334  1.00  0.00    -0.375 OA
BRANCH  18  19
HETATM   19  C14 UNL     1      -4.015  -0.354  -1.519  1.00  0.00     0.207 C 
BRANCH  19  20
HETATM   20  C15 UNL     1      -3.337   0.907  -1.178  1.00  0.00    -0.032 A 
HETATM   21  C16 UNL     1      -3.346   1.653  -0.023  1.00  0.00     0.009 A 
HETATM   22  C17 UNL     1      -2.623   2.815   0.109  1.00  0.00     0.004 A 
HETATM   23  C18 UNL     1      -1.843   3.307  -0.907  1.00  0.00     0.042 A 
HETATM   24  C19 UNL     1      -1.803   2.594  -2.084  1.00  0.00     0.117 A 
HETATM   25  F1  UNL     1      -1.039   3.063  -3.100  1.00  0.00    -0.206 F 
HETATM   26  C20 UNL     1      -2.536   1.426  -2.201  1.00  0.00     0.051 A 
ENDBRANCH  19  20
ENDBRANCH  18  19
ENDBRANCH   7  18
TORSDOF 8
