REMARK  3 active torsions:
REMARK  status: ('A' for Active; 'I' for Inactive)
REMARK    1  A    between atoms: C5_6  and  C6_7 
REMARK    2  A    between atoms: C6_7  and  O1_8 
REMARK    3  A    between atoms: O1_8  and  C7_9 
ROOT
HETATM    1  C7  UNL     1       0.501  -0.544   0.587  1.00  0.00     0.088 C 
HETATM    2  C8  UNL     1       0.374  -0.882  -0.720  1.00  0.00     0.018 C 
HETATM    3  C9  UNL     1      -0.539  -1.023  -1.888  1.00  0.00     0.088 C 
HETATM    4  C10 UNL     1      -1.897  -0.505  -1.628  1.00  0.00     0.035 C 
HETATM    5  C11 UNL     1      -2.893  -1.353  -1.813  1.00  0.00     0.004 C 
HETATM    6  C12 UNL     1      -4.298  -1.014  -2.231  1.00  0.00     0.057 C 
HETATM    7  C13 UNL     1      -4.965  -0.080  -1.302  1.00  0.00    -0.006 C 
HETATM    8  C14 UNL     1      -4.768   0.918  -0.412  1.00  0.00     0.090 C 
HETATM    9  N1  UNL     1      -3.493   1.514  -0.045  1.00  0.00    -0.335 N 
HETATM   10  C15 UNL     1      -2.365   1.883  -0.881  1.00  0.00     0.211 C 
HETATM   11  N2  UNL     1      -1.594   0.868  -1.238  1.00  0.00    -0.248 NA
HETATM   12  C16 UNL     1      -3.611   1.617   1.422  1.00  0.00     0.251 C 
HETATM   13  N3  UNL     1      -2.942   0.442   1.984  1.00  0.00    -0.381 N 
HETATM   14  C17 UNL     1      -1.549   0.210   2.001  1.00  0.00     0.111 C 
HETATM   15  C18 UNL     1      -0.297  -0.084   1.718  1.00  0.00     0.082 C 
HETATM   16 CL1  UNL     1       0.692   0.168   3.188  1.00  0.00    -0.080 Cl
HETATM   17  H17 UNL     1      -3.630  -0.284   2.382  1.00  0.00     0.160 HD
ENDROOT
BRANCH   1  18
HETATM   18  O1  UNL     1       1.840  -0.741   0.816  1.00  0.00    -0.345 OA
BRANCH  18  19
HETATM   19  C6  UNL     1       2.772  -0.005   1.510  1.00  0.00     0.214 C 
BRANCH  19  20
HETATM   20  C5  UNL     1       4.149  -0.114   0.890  1.00  0.00    -0.031 A 
HETATM   21  C4  UNL     1       4.410   0.851  -0.071  1.00  0.00     0.009 A 
HETATM   22  C3  UNL     1       5.636   0.869  -0.722  1.00  0.00     0.004 A 
HETATM   23  C2  UNL     1       6.590  -0.076  -0.407  1.00  0.00     0.042 A 
HETATM   24  C1  UNL     1       6.308  -1.036   0.561  1.00  0.00     0.117 A 
HETATM   25  F1  UNL     1       7.205  -1.978   0.903  1.00  0.00    -0.206 F 
HETATM   26  C19 UNL     1       5.091  -1.051   1.204  1.00  0.00     0.051 A 
ENDBRANCH  19  20
ENDBRANCH  18  19
ENDBRANCH   1  18
TORSDOF 3
