REMARK  2 active torsions:
REMARK  status: ('A' for Active; 'I' for Inactive)
REMARK    1  A    between atoms: N5_11  and  C7_12 
REMARK    2  A    between atoms: C14_20  and  N6_21 
ROOT
HETATM    1  C1  UNL     1      -0.577   3.450   0.540  1.00  0.00     0.330 C 
HETATM    2  N1  UNL     1      -1.091   2.489  -0.472  1.00  0.00     0.104 N 
HETATM    3  C2  UNL     1      -0.447   2.549  -1.844  1.00  0.00     0.417 A 
HETATM    4  N2  UNL     1      -0.515   1.447  -1.317  1.00  0.00    -0.160 N 
HETATM    5  C3  UNL     1      -0.187   0.152  -1.567  1.00  0.00     0.200 A 
HETATM    6  C4  UNL     1      -1.114  -0.168  -2.479  1.00  0.00     0.132 A 
HETATM    7  N3  UNL     1      -1.146  -1.534  -1.998  1.00  0.00    -0.265 NA
HETATM    8  C5  UNL     1      -0.234  -1.524  -0.976  1.00  0.00     0.188 A 
HETATM    9  N4  UNL     1       0.673  -0.886  -0.219  1.00  0.00    -0.236 NA
HETATM   10  C6  UNL     1       0.731   0.450  -0.656  1.00  0.00     0.142 A 
HETATM   11  N5  UNL     1       1.676   0.728   0.290  1.00  0.00    -0.342 N 
HETATM   12  C13 UNL     1      -0.709  -2.483  -0.004  1.00  0.00     0.096 C 
HETATM   13  C14 UNL     1      -2.177  -2.505   0.230  1.00  0.00     0.222 C 
HETATM   14  C15 UNL     1      -3.015  -1.319   0.366  1.00  0.00     0.036 C 
HETATM   15  C16 UNL     1      -2.934  -0.234   1.316  1.00  0.00     0.018 C 
HETATM   16  C17 UNL     1      -1.945   0.886   1.153  1.00  0.00     0.120 C 
HETATM   17  N7  UNL     1      -2.150   1.630  -0.017  1.00  0.00    -0.130 NA
HETATM   18  H6  UNL     1       1.244   1.327   1.044  1.00  0.00     0.167 HD
HETATM   19  H22 UNL     1      -3.033   2.149  -0.021  1.00  0.00     0.155 HD
ENDROOT
BRANCH  11  20
HETATM   20  C7  UNL     1       3.022   0.291   0.280  1.00  0.00     0.035 A 
HETATM   21  C8  UNL     1       3.460  -0.531  -0.746  1.00  0.00     0.029 A 
HETATM   22  C9  UNL     1       4.764  -0.954  -0.616  1.00  0.00     0.004 A 
HETATM   23  C10 UNL     1       5.545  -0.580   0.448  1.00  0.00     0.024 A 
HETATM   24  C11 UNL     1       5.049   0.246   1.438  1.00  0.00     0.036 A 
HETATM   25 CL1  UNL     1       6.001   0.760   2.847  1.00  0.00    -0.084 Cl
HETATM   26  C12 UNL     1       3.754   0.689   1.349  1.00  0.00     0.053 A 
ENDBRANCH  11  20
BRANCH  13  27
HETATM   27  N6  UNL     1      -2.786  -3.331  -0.891  1.00  0.00     0.083 N 
HETATM   28  H14 UNL     1      -3.621  -2.882  -1.223  1.00  0.00     0.313 HD
HETATM   29  H15 UNL     1      -2.067  -3.631  -1.549  1.00  0.00     0.313 HD
ENDBRANCH  13  27
TORSDOF 2
