REMARK  1 active torsions:
REMARK  status: ('A' for Active; 'I' for Inactive)
REMARK    1  A    between atoms: N1_3  and  C3_4 
ROOT
HETATM    1  C1  UNL     1       2.975   3.168  -0.499  1.00  0.00     0.037 C 
HETATM    2  C2  UNL     1       1.947   2.567  -0.223  1.00  0.00    -0.005 C 
HETATM    3  N1  UNL     1       0.759   1.889   0.085  1.00  0.00    -0.339 N 
HETATM    4  H2  UNL     1       0.208   2.347   0.866  1.00  0.00     0.170 HD
ENDROOT
BRANCH   3   5
HETATM    5  C3  UNL     1       0.401   0.690  -0.643  1.00  0.00     0.155 C 
HETATM    6  C4  UNL     1      -0.965   0.250  -0.289  1.00  0.00     0.013 A 
HETATM    7  C5  UNL     1      -1.361  -1.042  -0.077  1.00  0.00     0.112 A 
HETATM    8  C12 UNL     1      -2.117   0.981  -0.092  1.00  0.00     0.004 A 
HETATM    9  N2  UNL     1      -2.668  -1.127   0.231  1.00  0.00    -0.344 N 
HETATM   10  C13 UNL     1      -0.370  -2.129  -0.206  1.00  0.00     0.269 C 
HETATM   11  C6  UNL     1      -3.456  -2.311   0.524  1.00  0.00     0.157 C 
HETATM   12  C7  UNL     1      -3.139   0.109   0.224  1.00  0.00     0.069 A 
HETATM   13  C8  UNL     1      -4.428   0.594   0.475  1.00  0.00     0.083 A 
HETATM   14 CL1  UNL     1      -5.784  -0.441   0.884  1.00  0.00    -0.080 Cl
HETATM   15  C9  UNL     1      -4.717   1.937   0.416  1.00  0.00     0.058 A 
HETATM   16 CL2  UNL     1      -6.326   2.576   0.726  1.00  0.00    -0.082 Cl
HETATM   17  C10 UNL     1      -3.717   2.823   0.103  1.00  0.00     0.026 A 
HETATM   18  C11 UNL     1      -2.456   2.317  -0.139  1.00  0.00     0.016 A 
HETATM   19  O1  UNL     1      -0.630  -3.350  -0.032  1.00  0.00    -0.266 OA
HETATM   20  N3  UNL     1       0.948  -1.720  -0.549  1.00  0.00    -0.344 N 
HETATM   21  C14 UNL     1       1.438  -0.357  -0.464  1.00  0.00     0.061 C 
HETATM   22  H9  UNL     1       1.580  -2.494  -0.884  1.00  0.00     0.163 HD
HETATM   23  C15 UNL     1       2.118  -0.278   0.911  1.00  0.00     0.063 C 
HETATM   24  C18 UNL     1       2.570  -0.243  -1.468  1.00  0.00     0.063 C 
HETATM   25  C16 UNL     1       2.983  -1.519   1.087  1.00  0.00     0.272 C 
HETATM   26  N4  UNL     1       3.793  -1.788  -0.062  1.00  0.00     0.083 N 
HETATM   27  C17 UNL     1       3.919  -0.595  -0.861  1.00  0.00     0.272 C 
HETATM   28  H14 UNL     1       4.776  -2.083   0.208  1.00  0.00     0.315 HD
ENDBRANCH   3   5
TORSDOF 1
