REMARK  0 active torsions:
REMARK  status: ('A' for Active; 'I' for Inactive)
ROOT
HETATM    1  C1  UNL     1       1.508   3.245  -1.219  1.00  0.00     0.152 C 
HETATM    2  N1  UNL     1       1.471   1.867  -0.903  1.00  0.00    -0.356 N 
HETATM    3  C2  UNL     1       2.801   1.208  -0.879  1.00  0.00     0.069 C 
HETATM    4  C3  UNL     1       3.713   0.204  -0.698  1.00  0.00     0.113 C 
HETATM    5  C4  UNL     1       3.386  -1.141  -0.253  1.00  0.00     0.043 A 
HETATM    6 CL1  UNL     1       4.945  -1.982  -0.207  1.00  0.00    -0.197 Cl
HETATM    7  C5  UNL     1       3.010  -2.335   0.153  1.00  0.00     0.252 A 
HETATM    8  S1  UNL     1       1.350  -2.911   0.544  1.00  0.00    -0.190 SA
HETATM    9  C6  UNL     1       0.109  -1.662   0.320  1.00  0.00    -0.002 C 
HETATM   10  C7  UNL     1      -0.931  -0.980   0.884  1.00  0.00    -0.008 C 
HETATM   11  C8  UNL     1      -1.411  -1.184   2.299  1.00  0.00     0.307 C 
HETATM   12  N2  UNL     1      -2.457  -0.272   2.626  1.00  0.00     0.087 N 
HETATM   13  C9  UNL     1      -3.474  -0.307   1.616  1.00  0.00     0.272 C 
HETATM   14  C10 UNL     1      -3.009   0.232   0.272  1.00  0.00     0.066 C 
HETATM   15  C11 UNL     1      -1.622   0.004  -0.021  1.00  0.00     0.061 C 
HETATM   16  C12 UNL     1      -1.459  -0.958  -1.286  1.00  0.00     0.075 C 
HETATM   17  C13 UNL     1       0.034  -0.906  -0.932  1.00  0.00    -0.038 C 
HETATM   18  C14 UNL     1       0.796  -0.187  -1.655  1.00  0.00     0.052 C 
HETATM   19  C15 UNL     1       0.518   0.824  -0.573  1.00  0.00     0.203 C 
HETATM   20 CL2  UNL     1       1.067   0.365   1.071  1.00  0.00    -0.067 Cl
HETATM   21  N3  UNL     1      -0.833   1.122  -0.455  1.00  0.00    -0.368 N 
HETATM   22  H9  UNL     1      -2.039   0.666   2.764  1.00  0.00     0.316 HD
HETATM   23  H17 UNL     1      -1.270   1.690  -1.182  1.00  0.00     0.158 HD
ENDROOT
TORSDOF 0
