REMARK  1 active torsions:
REMARK  status: ('A' for Active; 'I' for Inactive)
REMARK    1  A    between atoms: B1_1  and  C1_2 
ROOT
HETATM    1  C1  UNL     1      -4.598   0.570   0.266  1.00  0.00    -0.085 A 
HETATM    2  C2  UNL     1      -3.727   1.487   0.825  1.00  0.00    -0.003 A 
HETATM    3  C3  UNL     1      -2.370   1.260   0.894  1.00  0.00     0.014 A 
HETATM    4  C4  UNL     1      -1.810   0.081   0.397  1.00  0.00     0.004 A 
HETATM    5  C5  UNL     1      -0.530  -0.459   0.305  1.00  0.00     0.008 A 
HETATM    6  C6  UNL     1      -0.657  -1.688  -0.308  1.00  0.00     0.128 A 
HETATM    7  N1  UNL     1      -1.954  -1.897  -0.580  1.00  0.00    -0.246 N 
HETATM    8 CL1  UNL     1      -2.519  -3.360  -1.362  1.00  0.00     0.019 Cl
HETATM    9  C7  UNL     1      -2.698  -0.833  -0.163  1.00  0.00     0.084 A 
HETATM   10  C8  UNL     1      -4.052  -0.602  -0.230  1.00  0.00     0.057 A 
HETATM   11 CL2  UNL     1      -5.142  -1.777  -0.942  1.00  0.00    -0.082 Cl
HETATM   12  C9  UNL     1       0.608  -2.396  -0.483  1.00  0.00     0.271 C 
HETATM   13  O1  UNL     1       0.563  -3.540  -1.043  1.00  0.00    -0.266 OA
HETATM   14  N2  UNL     1       1.838  -1.843  -0.053  1.00  0.00    -0.345 N 
HETATM   15  C10 UNL     1       1.939  -0.377  -0.002  1.00  0.00     0.057 C 
HETATM   16  C11 UNL     1       1.973   0.121  -1.401  1.00  0.00     0.062 C 
HETATM   17  C12 UNL     1       2.999   1.148  -1.723  1.00  0.00     0.272 C 
HETATM   18  N3  UNL     1       4.180   1.135  -0.924  1.00  0.00     0.083 N 
HETATM   19  C13 UNL     1       3.778   1.256   0.466  1.00  0.00     0.272 C 
HETATM   20  C14 UNL     1       3.156  -0.082   0.815  1.00  0.00     0.062 C 
HETATM   21  C15 UNL     1       0.754   0.151   0.769  1.00  0.00     0.157 C 
HETATM   22  C16 UNL     1       0.922  -0.059   2.196  1.00  0.00     0.071 C 
HETATM   23  N4  UNL     1       1.068  -0.212   3.355  1.00  0.00    -0.196 NA
HETATM   24  H5  UNL     1       2.592  -2.537   0.199  1.00  0.00     0.163 HD
HETATM   25  H10 UNL     1       4.784   0.315  -1.092  1.00  0.00     0.315 HD
ENDROOT
BRANCH   1  26
HETATM   26  B1  UNL     1      -6.111   0.884   0.218  1.00  0.00     0.176 B 
HETATM   27  H1  UNL     1      -6.934   0.041   0.290  1.00  0.00    -0.026 HD
HETATM   28  H2  UNL     1      -6.503   2.004   0.104  1.00  0.00    -0.026 HD
ENDBRANCH   1  26
TORSDOF 1
