REMARK  0 active torsions:
REMARK  status: ('A' for Active; 'I' for Inactive)
ROOT
HETATM    1  O1  UNL     1      -0.650   3.423  -1.499  1.00  0.00    -0.227 OA
HETATM    2  S1  UNL     1      -1.598   2.271  -1.187  1.00  0.00     0.151 S 
HETATM    3  O2  UNL     1      -2.888   2.633  -1.839  1.00  0.00    -0.227 OA
HETATM    4  C1  UNL     1      -1.739   2.146   0.540  1.00  0.00     0.170 C 
HETATM    5  C2  UNL     1      -0.518   2.144   1.374  1.00  0.00     0.284 C 
HETATM    6  N1  UNL     1       0.591   1.319   0.936  1.00  0.00     0.090 N 
HETATM    7  C3  UNL     1       1.517   1.320   2.074  1.00  0.00     0.333 C 
HETATM    8  C4  UNL     1       2.860   0.837   1.729  1.00  0.00     0.072 C 
HETATM    9  C5  UNL     1       4.041   0.332   1.381  1.00  0.00     0.010 C 
HETATM   10  C6  UNL     1       4.127  -1.157   1.260  1.00  0.00     0.072 C 
HETATM   11  C7  UNL     1       2.731  -1.261   0.656  1.00  0.00     0.111 C 
HETATM   12  C8  UNL     1       1.806  -1.768  -0.094  1.00  0.00     0.057 C 
HETATM   13  C9  UNL     1       1.151  -2.632  -1.029  1.00  0.00    -0.017 C 
HETATM   14  C10 UNL     1      -0.127  -2.319  -1.258  1.00  0.00     0.010 C 
HETATM   15  C11 UNL     1      -1.455  -1.685  -1.245  1.00  0.00    -0.009 C 
HETATM   16  C12 UNL     1      -1.560  -0.362  -1.562  1.00  0.00     0.060 C 
HETATM   17  C13 UNL     1      -0.824   0.842  -1.936  1.00  0.00     0.200 C 
HETATM   18  N2  UNL     1      -2.936  -0.268  -1.691  1.00  0.00    -0.245 NA
HETATM   19  C14 UNL     1      -4.094  -0.464  -1.295  1.00  0.00     0.234 C 
HETATM   20  N3  UNL     1      -3.908  -1.175  -0.016  1.00  0.00    -0.240 NA
HETATM   21  C15 UNL     1      -3.458  -2.407  -0.000  1.00  0.00     0.087 C 
HETATM   22  C16 UNL     1      -2.380  -2.751  -0.689  1.00  0.00     0.047 C 
HETATM   23  O3  UNL     1       2.080  -0.253   1.217  1.00  0.00    -0.339 OA
HETATM   24  H5  UNL     1       1.077   1.924   0.193  1.00  0.00     0.316 HD
ENDROOT
TORSDOF 0
