REMARK  1 active torsions:
REMARK  status: ('A' for Active; 'I' for Inactive)
REMARK    1  A    between atoms: C11_13  and  N2_14 
ROOT
HETATM    1  C1  UNL     1       4.114  -0.948   0.157  1.00  0.00     0.052 C 
HETATM    2  C2  UNL     1       3.179   0.233   0.205  1.00  0.00    -0.013 A 
HETATM    3  C3  UNL     1       3.715   1.493   0.387  1.00  0.00     0.042 A 
HETATM    4 CL1  UNL     1       5.445   1.694   0.554  1.00  0.00    -0.084 Cl
HETATM    5  C4  UNL     1       2.908   2.604   0.438  1.00  0.00     0.025 A 
HETATM    6  C5  UNL     1       1.556   2.419   0.305  1.00  0.00     0.016 A 
HETATM    7  C6  UNL     1       1.017   1.146   0.122  1.00  0.00     0.001 A 
HETATM    8  C7  UNL     1      -0.301   0.720  -0.035  1.00  0.00    -0.003 A 
HETATM    9  C8  UNL     1      -0.258  -0.630  -0.177  1.00  0.00     0.044 A 
HETATM   10  N1  UNL     1       1.041  -1.045  -0.112  1.00  0.00    -0.351 N 
HETATM   11  C9  UNL     1       1.496  -2.434  -0.224  1.00  0.00     0.156 C 
HETATM   12  C10 UNL     1       1.821   0.026   0.069  1.00  0.00     0.053 A 
HETATM   13  C11 UNL     1      -1.337  -1.601  -0.373  1.00  0.00     0.158 C 
HETATM   14  C12 UNL     1      -2.691  -1.146   0.055  1.00  0.00     0.248 C 
HETATM   15  C13 UNL     1      -3.166   0.086  -0.668  1.00  0.00     0.046 C 
HETATM   16  C14 UNL     1      -2.750   1.160   0.292  1.00  0.00     0.038 C 
HETATM   17  C15 UNL     1      -2.867   0.532   1.654  1.00  0.00     0.276 C 
HETATM   18  N3  UNL     1      -2.671  -0.869   1.464  1.00  0.00     0.090 N 
HETATM   19  C16 UNL     1      -1.402   1.673  -0.025  1.00  0.00     0.134 C 
HETATM   20  C17 UNL     1      -1.507   2.416  -1.303  1.00  0.00     0.069 C 
HETATM   21  N4  UNL     1      -1.594   2.988  -2.316  1.00  0.00    -0.197 NA
HETATM   22  H18 UNL     1      -1.818  -1.189   1.948  1.00  0.00     0.316 HD
ENDROOT
BRANCH  13  23
HETATM   23  N2  UNL     1      -1.299  -2.159  -1.705  1.00  0.00    -0.419 N 
HETATM   24  H10 UNL     1      -2.218  -2.321  -2.134  1.00  0.00     0.150 HD
HETATM   25  H11 UNL     1      -0.560  -1.773  -2.312  1.00  0.00     0.150 HD
ENDBRANCH  13  23
TORSDOF 1
