REMARK  5 active torsions:
REMARK  status: ('A' for Active; 'I' for Inactive)
REMARK    1  A    between atoms: N2_3  and  C2_4 
REMARK    2  A    between atoms: C3_5  and  C4_6 
REMARK    3  A    between atoms: C4_6  and  C5_7 
REMARK    4  A    between atoms: C5_7  and  N3_8 
REMARK    5  A    between atoms: C5_7  and  C7_10 
ROOT
HETATM    1  C4  UNL     1       0.681   0.377  -1.144  1.00  0.00     0.078 C 
ENDROOT
BRANCH   1   2
HETATM    2  C3  UNL     1       1.451  -0.841  -0.804  1.00  0.00    -0.024 A 
HETATM    3  C2  UNL     1       2.399  -0.705   0.205  1.00  0.00     0.108 A 
HETATM    4  C15 UNL     1       3.182  -1.784   0.608  1.00  0.00     0.086 A 
HETATM    5  C14 UNL     1       3.002  -3.000  -0.015  1.00  0.00     0.058 A 
HETATM    6 CL3  UNL     1       4.369  -1.594   1.882  1.00  0.00    -0.080 Cl
HETATM    7  C13 UNL     1       2.068  -3.168  -1.022  1.00  0.00     0.026 A 
HETATM    8 CL2  UNL     1       3.934  -4.395   0.425  1.00  0.00    -0.082 Cl
HETATM    9  C12 UNL     1       1.306  -2.095  -1.406  1.00  0.00     0.011 A 
BRANCH   3  10
HETATM   10  N2  UNL     1       2.627   0.545   0.887  1.00  0.00    -0.154 NA
HETATM   11  N1  UNL     1       3.723   1.119   0.693  1.00  0.00    -0.197 NA
HETATM   12  C1  UNL     1       4.173   2.354   1.251  1.00  0.00     0.204 C 
ENDBRANCH   3  10
ENDBRANCH   1   2
BRANCH   1  13
HETATM   13  C5  UNL     1      -0.384   0.723  -0.151  1.00  0.00     0.247 C 
BRANCH  13  14
HETATM   14  N3  UNL     1      -1.047   1.929  -0.621  1.00  0.00     0.086 N 
HETATM   15  C6  UNL     1      -0.170   3.062  -0.731  1.00  0.00     0.307 C 
HETATM   16  H7  UNL     1      -1.367   1.713  -1.608  1.00  0.00     0.315 HD
ENDBRANCH  13  14
BRANCH  13  17
HETATM   17  C7  UNL     1      -1.433  -0.309   0.068  1.00  0.00     0.071 C 
HETATM   18 CL1  UNL     1      -0.817  -1.853   0.655  1.00  0.00    -0.117 Cl
HETATM   19  C8  UNL     1      -2.353   0.227   1.174  1.00  0.00     0.047 C 
HETATM   20  C9  UNL     1      -3.799   0.084   0.833  1.00  0.00     0.115 C 
HETATM   21  N4  UNL     1      -4.170  -1.121   0.167  1.00  0.00    -0.421 N 
HETATM   22  C10 UNL     1      -3.275  -1.569  -0.857  1.00  0.00     0.115 C 
HETATM   23  H15 UNL     1      -4.559  -1.862   0.780  1.00  0.00     0.153 HD
HETATM   24  C11 UNL     1      -2.297  -0.443  -1.142  1.00  0.00     0.047 C 
ENDBRANCH  13  17
ENDBRANCH   1  13
TORSDOF 5
