REMARK  1 active torsions:
REMARK  status: ('A' for Active; 'I' for Inactive)
REMARK    1  A    between atoms: C2_2  and  N1_3 
ROOT
HETATM    1  N1  UNL     1       3.632  -0.156  -2.081  1.00  0.00    -0.324 N 
HETATM    2  C3  UNL     1       3.564  -1.224  -2.932  1.00  0.00     0.212 A 
HETATM    3  N2  UNL     1       2.463  -1.980  -2.645  1.00  0.00    -0.236 NA
HETATM    4  C4  UNL     1       1.875  -1.363  -1.625  1.00  0.00     0.151 A 
HETATM    5  C5  UNL     1       0.742  -1.622  -0.889  1.00  0.00     0.179 A 
HETATM    6  N3  UNL     1       0.364  -0.824   0.110  1.00  0.00    -0.043 NA
HETATM    7  C6  UNL     1       1.072   0.248   0.424  1.00  0.00     0.726 A 
HETATM    8  N4  UNL     1       2.181   0.590  -0.222  1.00  0.00    -0.042 NA
HETATM    9  C7  UNL     1       2.591  -0.216  -1.254  1.00  0.00     0.182 A 
HETATM   10  N5  UNL     1       0.205   0.616   1.460  1.00  0.00    -0.216 N 
HETATM   11  C8  UNL     1      -1.190   0.937   1.584  1.00  0.00     0.124 C 
HETATM   12  C9  UNL     1      -1.536   2.331   1.153  1.00  0.00     0.028 C 
HETATM   13  C10 UNL     1      -2.734   2.753   1.977  1.00  0.00     0.002 C 
HETATM   14  C11 UNL     1      -3.604   1.493   2.078  1.00  0.00     0.002 C 
HETATM   15  C12 UNL     1      -3.479   0.672   0.813  1.00  0.00     0.029 C 
HETATM   16  C13 UNL     1      -2.109  -0.068   0.808  1.00  0.00     0.132 C 
HETATM   17  N6  UNL     1      -2.295  -1.070   1.695  1.00  0.00    -0.280 NA
HETATM   18  C14 UNL     1      -3.348  -1.785   1.700  1.00  0.00     0.080 C 
HETATM   19  C15 UNL     1      -3.502  -2.401   0.558  1.00  0.00     0.035 C 
HETATM   20  C16 UNL     1      -2.534  -2.137  -0.538  1.00  0.00     0.019 C 
HETATM   21  C17 UNL     1      -1.303  -2.611  -0.649  1.00  0.00     0.090 C 
HETATM   22  N7  UNL     1      -0.026  -2.792  -1.254  1.00  0.00    -0.348 N 
HETATM   23  H7  UNL     1       0.944   0.592   2.199  1.00  0.00     0.178 HD
HETATM   24  H21 UNL     1       0.297  -3.579  -1.834  1.00  0.00     0.167 HD
ENDROOT
BRANCH   1  25
HETATM   25  C2  UNL     1       4.614   0.901  -2.011  1.00  0.00     0.127 C 
HETATM   26  C1  UNL     1       5.772   0.600  -1.102  1.00  0.00     0.027 C 
ENDBRANCH   1  25
TORSDOF 1
