REMARK  6 active torsions:
REMARK  status: ('A' for Active; 'I' for Inactive)
REMARK    1  A    between atoms: C2_2  and  N1_3 
REMARK    2  A    between atoms: C5_7  and  N3_8 
REMARK    3  A    between atoms: N3_8  and  C6_9 
REMARK    4  A    between atoms: C12_17  and  N5_18 
REMARK    5  A    between atoms: N5_18  and  C13_19 
REMARK    6  A    between atoms: C17_23  and  N6_24 
ROOT
HETATM    1  N1  UNL     1       0.820   3.083  -0.355  1.00  0.00    -0.324 N 
HETATM    2  C3  UNL     1       2.053   3.401   0.060  1.00  0.00     0.212 A 
HETATM    3  N2  UNL     1       2.629   2.304   0.628  1.00  0.00    -0.236 NA
HETATM    4  C4  UNL     1       1.709   1.346   0.535  1.00  0.00     0.151 A 
HETATM    5  C5  UNL     1       1.728   0.032   0.936  1.00  0.00     0.180 A 
HETATM    6  N4  UNL     1       0.684  -0.783   0.747  1.00  0.00    -0.043 NA
HETATM    7  C12 UNL     1      -0.433  -0.332   0.148  1.00  0.00     0.726 A 
HETATM    8  N7  UNL     1      -0.491   0.957  -0.262  1.00  0.00    -0.042 NA
HETATM    9  C18 UNL     1       0.542   1.799  -0.085  1.00  0.00     0.182 A 
ENDROOT
BRANCH   7  10
HETATM   10  N5  UNL     1      -1.518  -1.228  -0.053  1.00  0.00    -0.216 N 
HETATM   11  H12 UNL     1      -1.443  -2.217   0.246  1.00  0.00     0.178 HD
BRANCH  10  12
HETATM   12  C13 UNL     1      -2.740  -0.818  -0.668  1.00  0.00     0.132 C 
HETATM   13  C14 UNL     1      -3.476   0.244   0.123  1.00  0.00     0.028 C 
HETATM   14  C15 UNL     1      -4.831  -0.413   0.413  1.00  0.00     0.004 C 
HETATM   15  C16 UNL     1      -5.034  -1.178  -0.904  1.00  0.00     0.037 C 
HETATM   16  C17 UNL     1      -3.703  -1.927  -0.964  1.00  0.00     0.240 C 
BRANCH  16  17
HETATM   17  N6  UNL     1      -3.702  -2.987   0.033  1.00  0.00     0.085 N 
HETATM   18  H21 UNL     1      -3.114  -3.784  -0.352  1.00  0.00     0.313 HD
HETATM   19  H22 UNL     1      -3.304  -2.648   0.936  1.00  0.00     0.313 HD
ENDBRANCH  16  17
ENDBRANCH  10  12
ENDBRANCH   7  10
BRANCH   5  20
HETATM   20  N3  UNL     1       2.825  -0.609   1.577  1.00  0.00    -0.338 N 
HETATM   21  H7  UNL     1       2.790  -0.404   2.579  1.00  0.00     0.167 HD
BRANCH  20  22
HETATM   22  C6  UNL     1       3.806  -1.402   0.924  1.00  0.00     0.035 A 
HETATM   23  C7  UNL     1       4.850  -1.934   1.679  1.00  0.00     0.029 A 
HETATM   24  C8  UNL     1       5.778  -2.710   1.009  1.00  0.00     0.004 A 
HETATM   25  C9  UNL     1       5.660  -2.938  -0.356  1.00  0.00     0.024 A 
HETATM   26  C10 UNL     1       4.612  -2.399  -1.094  1.00  0.00     0.036 A 
HETATM   27 CL1  UNL     1       4.520  -2.731  -2.821  1.00  0.00    -0.084 Cl
HETATM   28  C11 UNL     1       3.685  -1.626  -0.431  1.00  0.00     0.053 A 
ENDBRANCH  20  22
ENDBRANCH   5  20
BRANCH   1  29
HETATM   29  C2  UNL     1      -0.102   4.019  -1.012  1.00  0.00     0.127 C 
HETATM   30  C1  UNL     1      -0.881   4.675   0.127  1.00  0.00     0.027 C 
ENDBRANCH   1  29
TORSDOF 6
