REMARK  6 active torsions:
REMARK  status: ('A' for Active; 'I' for Inactive)
REMARK    1  A    between atoms: C2_2  and  C3_3 
REMARK    2  A    between atoms: C3_3  and  C4_5 
REMARK    3  A    between atoms: C5_6  and  C6_7 
REMARK    4  A    between atoms: C12_13  and  C13_14 
REMARK    5  A    between atoms: N2_18  and  C16_19 
REMARK    6  A    between atoms: C17_21  and  O1_22 
ROOT
HETATM    1  C13 UNL     1       1.040   0.217   0.091  1.00  0.00     0.091 C 
HETATM    2  C14 UNL     1       1.099  -0.449   1.456  1.00  0.00     0.045 C 
HETATM    3  C15 UNL     1       0.992  -0.779  -1.009  1.00  0.00     0.145 C 
HETATM    4  N1  UNL     1       2.232  -1.025  -1.353  1.00  0.00    -0.168 NA
HETATM    5  N2  UNL     1       3.090  -0.263  -0.558  1.00  0.00    -0.169 N 
HETATM    6  N4  UNL     1       2.344   0.825  -0.107  1.00  0.00    -0.195 NA
HETATM    7  H19 UNL     1       2.654   1.189   0.817  1.00  0.00     0.150 HD
ENDROOT
BRANCH   1   8
HETATM    8  C12 UNL     1      -0.054   1.189   0.002  1.00  0.00    -0.018 A 
HETATM    9  C6  UNL     1      -1.399   0.926   0.141  1.00  0.00    -0.027 A 
HETATM   10  C7  UNL     1      -2.393   1.875   0.052  1.00  0.00     0.018 A 
HETATM   11  C8  UNL     1      -2.048   3.180  -0.191  1.00  0.00    -0.061 A 
HETATM   12  C9  UNL     1      -3.059   4.251  -0.299  1.00  0.00     0.048 C 
HETATM   13  C10 UNL     1      -0.735   3.535  -0.343  1.00  0.00     0.007 A 
HETATM   14  C11 UNL     1       0.233   2.535  -0.244  1.00  0.00     0.011 A 
BRANCH   9  15
HETATM   15  C5  UNL     1      -1.785  -0.455   0.396  1.00  0.00     0.011 C 
HETATM   16  C4  UNL     1      -3.028  -0.880   0.556  1.00  0.00     0.015 C 
BRANCH  16  17
HETATM   17  C3  UNL     1      -3.511  -2.281   0.822  1.00  0.00     0.215 C 
HETATM   18  F1  UNL     1      -4.181  -2.319   2.007  1.00  0.00    -0.241 F 
BRANCH  17  19
HETATM   19  C2  UNL     1      -4.337  -2.683  -0.339  1.00  0.00     0.004 C 
HETATM   20  C1  UNL     1      -5.573  -3.195  -0.172  1.00  0.00     0.010 C 
ENDBRANCH  17  19
ENDBRANCH  16  17
ENDBRANCH   9  15
ENDBRANCH   1   8
BRANCH   5  21
HETATM   21  C16 UNL     1       4.457  -0.589  -0.297  1.00  0.00     0.208 A 
HETATM   22  N3  UNL     1       5.169  -1.627  -0.727  1.00  0.00    -0.197 NA
HETATM   23  C17 UNL     1       6.434  -1.634  -0.293  1.00  0.00     0.171 A 
HETATM   24  C18 UNL     1       7.025  -0.584   0.597  1.00  0.00     0.111 A 
HETATM   25  S1  UNL     1       5.448   0.464   0.734  1.00  0.00    -0.057 SA
BRANCH  23  26
HETATM   26  O1  UNL     1       7.072  -2.781  -0.820  1.00  0.00    -0.344 OA
HETATM   27  H17 UNL     1       7.104  -3.627  -0.261  1.00  0.00     0.219 HD
ENDBRANCH  23  26
ENDBRANCH   5  21
TORSDOF 6
