REMARK  2 active torsions:
REMARK  status: ('A' for Active; 'I' for Inactive)
REMARK    1  A    between atoms: N2_14  and  C12_15 
REMARK    2  A    between atoms: C13_17  and  O1_18 
ROOT
HETATM    1  C1  UNL     1      -5.336   0.055   0.045  1.00  0.00     0.044 C 
HETATM    2  C2  UNL     1      -3.801  -0.141   0.014  1.00  0.00    -0.079 A 
HETATM    3  C3  UNL     1      -3.428  -1.434   0.267  1.00  0.00     0.001 A 
HETATM    4  C4  UNL     1      -2.952  -2.766   0.524  1.00  0.00     0.010 A 
HETATM    5  C5  UNL     1      -1.635  -3.103   0.528  1.00  0.00     0.196 A 
HETATM    6  C6  UNL     1      -0.146  -3.138   0.460  1.00  0.00     0.153 A 
HETATM    7  F1  UNL     1      -0.642  -1.914   0.225  1.00  0.00    -0.377 F 
HETATM    8  C7  UNL     1       0.886  -2.340   0.247  1.00  0.00     0.021 A 
HETATM    9  C8  UNL     1       1.782  -1.237  -0.021  1.00  0.00     0.027 A 
HETATM   10  C9  UNL     1       1.466   0.021  -0.257  1.00  0.00     0.044 A 
HETATM   11  C10 UNL     1       0.110   0.592  -0.300  1.00  0.00     0.115 A 
HETATM   12  C11 UNL     1       0.315   2.018  -0.621  1.00  0.00     0.039 A 
HETATM   13  N1  UNL     1       1.549   2.247  -0.726  1.00  0.00    -0.174 NA
HETATM   14  N2  UNL     1       2.303   1.122  -0.526  1.00  0.00    -0.213 N 
HETATM   15  C15 UNL     1      -0.970   2.756  -0.726  1.00  0.00     0.062 A 
HETATM   16  C16 UNL     1      -2.193   1.964  -0.502  1.00  0.00     0.005 A 
HETATM   17  C17 UNL     1      -2.555   0.669  -0.212  1.00  0.00     0.027 A 
ENDROOT
BRANCH  14  18
HETATM   18  C12 UNL     1       3.760   0.995  -0.566  1.00  0.00     0.196 A 
HETATM   19  N3  UNL     1       4.702   1.082   0.137  1.00  0.00    -0.198 NA
HETATM   20  C13 UNL     1       5.951   0.905  -0.189  1.00  0.00     0.171 A 
HETATM   21  C14 UNL     1       6.194   0.590  -1.465  1.00  0.00     0.111 A 
HETATM   22  S1  UNL     1       4.557   0.539  -2.254  1.00  0.00    -0.058 SA
BRANCH  20  23
HETATM   23  O1  UNL     1       6.888   1.071   0.858  1.00  0.00    -0.344 OA
HETATM   24  H11 UNL     1       7.063   1.988   1.261  1.00  0.00     0.219 HD
ENDBRANCH  20  23
ENDBRANCH  14  18
TORSDOF 2
