REMARK  4 active torsions:
REMARK  status: ('A' for Active; 'I' for Inactive)
REMARK    1  A    between atoms: C5_5  and  C6_6 
REMARK    2  A    between atoms: N2_8  and  C7_9 
REMARK    3  A    between atoms: C8_11  and  O1_12 
REMARK    4  A    between atoms: C10_14  and  C11_15 
ROOT
HETATM    1  C6  UNL     1       0.915   0.103  -0.265  1.00  0.00     0.067 C 
HETATM    2  N1  UNL     1       0.197   1.066  -0.683  1.00  0.00    -0.174 NA
HETATM    3  N2  UNL     1      -1.163   0.744  -0.733  1.00  0.00    -0.242 N 
HETATM    4  C10 UNL     1      -1.237  -0.702  -0.667  1.00  0.00     0.151 C 
HETATM    5  C17 UNL     1       0.054  -1.073   0.041  1.00  0.00     0.094 C 
ENDROOT
BRANCH   1   6
HETATM    6  C5  UNL     1       2.381   0.132  -0.101  1.00  0.00    -0.010 A 
HETATM    7  C4  UNL     1       3.056  -0.977   0.363  1.00  0.00     0.014 A 
HETATM    8  C3  UNL     1       4.442  -0.918   0.507  1.00  0.00     0.007 A 
HETATM    9  C2  UNL     1       5.119   0.222   0.191  1.00  0.00    -0.062 A 
HETATM   10  C1  UNL     1       6.602   0.235   0.362  1.00  0.00     0.048 C 
HETATM   11  C19 UNL     1       4.456   1.325  -0.270  1.00  0.00     0.007 A 
HETATM   12  C18 UNL     1       3.088   1.266  -0.411  1.00  0.00     0.014 A 
ENDBRANCH   1   6
BRANCH   3  13
HETATM   13  C7  UNL     1      -2.089   1.820  -0.828  1.00  0.00     0.153 A 
HETATM   14  N3  UNL     1      -2.809   2.748  -0.292  1.00  0.00    -0.205 NA
HETATM   15  C8  UNL     1      -3.342   3.186  -1.549  1.00  0.00     0.167 A 
HETATM   16  C9  UNL     1      -2.615   2.239  -2.144  1.00  0.00     0.110 A 
BRANCH  15  17
HETATM   17  O1  UNL     1      -4.254   4.211  -1.867  1.00  0.00    -0.345 OA
HETATM   18  H6  UNL     1      -4.996   4.420  -1.211  1.00  0.00     0.219 HD
ENDBRANCH  15  17
ENDBRANCH   3  13
BRANCH   4  19
HETATM   19  C11 UNL     1      -2.358  -1.201   0.158  1.00  0.00    -0.033 A 
HETATM   20  C12 UNL     1      -3.633  -0.675   0.068  1.00  0.00     0.012 A 
HETATM   21  C13 UNL     1      -4.715  -1.105   0.815  1.00  0.00     0.043 A 
HETATM   22  C14 UNL     1      -4.528  -2.134   1.723  1.00  0.00     0.116 A 
HETATM   23  F1  UNL     1      -5.570  -2.570   2.463  1.00  0.00    -0.206 F 
HETATM   24  C15 UNL     1      -3.274  -2.695   1.852  1.00  0.00     0.043 A 
HETATM   25  C16 UNL     1      -2.234  -2.222   1.078  1.00  0.00     0.012 A 
ENDBRANCH   4  19
TORSDOF 4
