REMARK  3 active torsions:
REMARK  status: ('A' for Active; 'I' for Inactive)
REMARK    1  A    between atoms: C2_2  and  C3_3 
REMARK    2  A    between atoms: N2_13  and  C12_14 
REMARK    3  A    between atoms: C13_16  and  O1_17 
ROOT
HETATM    1  C3  UNL     1      -2.349  -2.028  -0.454  1.00  0.00     0.004 C 
HETATM    2  C4  UNL     1      -3.485  -1.533   0.293  1.00  0.00     0.016 C 
HETATM    3  C5  UNL     1      -3.688  -0.344   0.903  1.00  0.00    -0.019 C 
HETATM    4  C6  UNL     1      -2.619   0.739   0.862  1.00  0.00     0.062 C 
HETATM    5  C7  UNL     1      -2.685   1.998   1.437  1.00  0.00    -0.028 C 
HETATM    6  C8  UNL     1      -3.536   2.997   2.275  1.00  0.00     0.015 C 
HETATM    7  C9  UNL     1      -1.420   2.656   1.033  1.00  0.00    -0.019 C 
HETATM    8  C10 UNL     1      -0.227   2.942   0.510  1.00  0.00     0.025 C 
HETATM    9  C11 UNL     1       0.693   2.129  -0.330  1.00  0.00     0.056 C 
HETATM   10  N1  UNL     1       1.943   1.962  -0.443  1.00  0.00    -0.175 NA
HETATM   11  N2  UNL     1       2.375   0.636  -0.484  1.00  0.00    -0.240 N 
HETATM   12  C15 UNL     1       1.119  -0.037  -0.816  1.00  0.00     0.122 C 
HETATM   13  C16 UNL     1       1.307  -1.226  -1.661  1.00  0.00     0.055 C 
HETATM   14  C17 UNL     1       0.116  -2.086  -1.606  1.00  0.00    -0.023 C 
HETATM   15  C18 UNL     1      -0.970  -1.783  -0.945  1.00  0.00     0.015 C 
HETATM   16  C19 UNL     1       0.383   1.131  -1.426  1.00  0.00     0.088 C 
ENDROOT
BRANCH  11  17
HETATM   17  C12 UNL     1       3.753   0.276  -0.229  1.00  0.00     0.192 A 
HETATM   18  N3  UNL     1       4.220  -0.008   0.779  1.00  0.00    -0.198 NA
HETATM   19  C13 UNL     1       5.446  -0.344   1.111  1.00  0.00     0.171 A 
HETATM   20  C14 UNL     1       6.331  -0.343  -0.023  1.00  0.00     0.111 A 
HETATM   21  S1  UNL     1       5.182   0.174  -1.478  1.00  0.00    -0.058 SA
BRANCH  19  22
HETATM   22  O1  UNL     1       6.468  -0.725   1.961  1.00  0.00    -0.344 OA
HETATM   23  H11 UNL     1       6.602  -0.337   2.873  1.00  0.00     0.219 HD
ENDBRANCH  19  22
ENDBRANCH  11  17
BRANCH   1  24
HETATM   24  C2  UNL     1      -2.347  -3.218  -1.041  1.00  0.00    -0.143 C 
HETATM   25  C1  UNL     1      -2.681  -4.414  -1.497  1.00  0.00     0.097 C 
ENDBRANCH   1  24
TORSDOF 3
