REMARK  4 active torsions:
REMARK  status: ('A' for Active; 'I' for Inactive)
REMARK    1  A    between atoms: C5_5  and  C6_6 
REMARK    2  A    between atoms: N2_8  and  C7_9 
REMARK    3  A    between atoms: C8_11  and  O1_12 
REMARK    4  A    between atoms: C10_15  and  C11_16 
ROOT
HETATM    1  C6  UNL     1       1.056   0.298   0.583  1.00  0.00     0.067 A 
HETATM    2  N1  UNL     1       0.300   1.305   0.298  1.00  0.00    -0.173 NA
HETATM    3  N2  UNL     1      -1.001   1.116   0.765  1.00  0.00    -0.236 N 
HETATM    4  C10 UNL     1      -1.077  -0.168   1.437  1.00  0.00     0.152 A 
HETATM    5  C16 UNL     1       0.310  -0.736   1.312  1.00  0.00     0.094 A 
ENDROOT
BRANCH   4   6
HETATM    6  C11 UNL     1      -2.002  -1.112   0.808  1.00  0.00    -0.018 A 
HETATM    7  C12 UNL     1      -2.972  -1.664   1.514  1.00  0.00     0.095 A 
HETATM    8  N4  UNL     1      -3.857  -2.576   0.884  1.00  0.00    -0.366 N 
HETATM    9  C13 UNL     1      -3.807  -2.982  -0.506  1.00  0.00     0.292 A 
HETATM   10  H10 UNL     1      -4.658  -3.082   1.312  1.00  0.00     0.162 HD
HETATM   11  F1  UNL     1      -3.694  -4.351  -0.621  1.00  0.00    -0.223 F 
HETATM   12  C14 UNL     1      -2.669  -2.273  -1.142  1.00  0.00     0.032 A 
HETATM   13  C15 UNL     1      -1.816  -1.416  -0.607  1.00  0.00     0.011 A 
ENDBRANCH   4   6
BRANCH   3  14
HETATM   14  C7  UNL     1      -2.014   2.097   0.557  1.00  0.00     0.192 A 
HETATM   15  N3  UNL     1      -2.802   2.343  -0.242  1.00  0.00    -0.198 NA
HETATM   16  C8  UNL     1      -3.680   3.327  -0.255  1.00  0.00     0.171 A 
HETATM   17  C9  UNL     1      -3.660   4.181   0.827  1.00  0.00     0.111 A 
HETATM   18  S1  UNL     1      -2.340   3.496   1.828  1.00  0.00    -0.058 SA
BRANCH  16  19
HETATM   19  O1  UNL     1      -4.573   3.461  -1.338  1.00  0.00    -0.344 OA
HETATM   20  H6  UNL     1      -4.930   4.374  -1.583  1.00  0.00     0.219 HD
ENDBRANCH  16  19
ENDBRANCH   3  14
BRANCH   1  21
HETATM   21  C5  UNL     1       2.467   0.215   0.221  1.00  0.00    -0.010 A 
HETATM   22  C4  UNL     1       3.122   1.214  -0.465  1.00  0.00     0.014 A 
HETATM   23  C3  UNL     1       4.457   1.102  -0.792  1.00  0.00     0.007 A 
HETATM   24  C2  UNL     1       5.199  -0.012  -0.449  1.00  0.00    -0.062 A 
HETATM   25  C1  UNL     1       6.627  -0.253  -0.737  1.00  0.00     0.048 C 
HETATM   26  C18 UNL     1       4.568  -1.031   0.241  1.00  0.00     0.007 A 
HETATM   27  C17 UNL     1       3.229  -0.887   0.552  1.00  0.00     0.014 A 
ENDBRANCH   1  21
TORSDOF 4
