REMARK  2 active torsions:
REMARK  status: ('A' for Active; 'I' for Inactive)
REMARK    1  A    between atoms: C10_13  and  N3_14 
REMARK    2  A    between atoms: N3_14  and  C11_15 
ROOT
HETATM    1  C1  UNL     1       4.157   2.160  -1.890  1.00  0.00     0.041 C 
HETATM    2  C2  UNL     1       4.484   1.353  -0.698  1.00  0.00     0.032 C 
HETATM    3  C3  UNL     1       3.568   0.495  -0.218  1.00  0.00     0.177 C 
HETATM    4  O1  UNL     1       2.349   0.407  -0.867  1.00  0.00    -0.330 OA
HETATM    5  C4  UNL     1       1.197   1.163  -0.613  1.00  0.00     0.182 C 
HETATM    6  C5  UNL     1       0.309   0.611   0.428  1.00  0.00     0.064 C 
HETATM    7  C6  UNL     1      -0.291  -0.727   0.233  1.00  0.00    -0.038 C 
HETATM    8  C7  UNL     1      -1.522  -1.315   0.139  1.00  0.00     0.013 C 
HETATM    9  C8  UNL     1      -1.721  -2.728  -0.050  1.00  0.00     0.193 C 
HETATM   10  N1  UNL     1      -3.085  -3.108   0.140  1.00  0.00    -0.278 NA
HETATM   11  C9  UNL     1      -4.017  -2.280   0.313  1.00  0.00     0.229 C 
HETATM   12  N2  UNL     1      -3.922  -0.864   0.376  1.00  0.00    -0.224 NA
HETATM   13  C10 UNL     1      -2.689  -0.406   0.271  1.00  0.00     0.137 C 
HETATM   14  C15 UNL     1       0.896  -1.691   0.047  1.00  0.00     0.149 C 
HETATM   15  C16 UNL     1       0.896  -2.242  -1.378  1.00  0.00     0.044 C 
HETATM   16  O2  UNL     1       2.054  -1.109   0.350  1.00  0.00    -0.357 OA
HETATM   17  C17 UNL     1       3.004  -1.329   1.191  1.00  0.00     0.347 C 
HETATM   18  O3  UNL     1       3.966  -0.246   0.937  1.00  0.00    -0.305 OA
ENDROOT
BRANCH  13  19
HETATM   19  N3  UNL     1      -2.580   1.036   0.213  1.00  0.00    -0.338 N 
HETATM   20  H12 UNL     1      -1.891   1.295  -0.584  1.00  0.00     0.167 HD
BRANCH  19  21
HETATM   21  C11 UNL     1      -3.341   1.841   1.125  1.00  0.00     0.072 A 
HETATM   22  C12 UNL     1      -4.639   1.890   1.364  1.00  0.00     0.143 A 
HETATM   23  F1  UNL     1      -5.807   1.339   0.988  1.00  0.00    -0.204 F 
HETATM   24  C13 UNL     1      -4.298   2.926   2.344  1.00  0.00     0.047 A 
HETATM   25  C14 UNL     1      -3.017   2.872   2.102  1.00  0.00     0.036 A 
ENDBRANCH  19  21
ENDBRANCH  13  19
TORSDOF 2
