REMARK  5 active torsions:
REMARK  status: ('A' for Active; 'I' for Inactive)
REMARK    1  A    between atoms: O1_2  and  C2_3 
REMARK    2  A    between atoms: C4_5  and  O2_6 
REMARK    3  A    between atoms: O2_6  and  B1_7 
REMARK    4  A    between atoms: C9_13  and  N1_14 
REMARK    5  A    between atoms: N1_14  and  C10_15 
ROOT
HETATM    1  C2  UNL     1       2.976  -1.456  -0.432  1.00  0.00     0.073 A 
HETATM    2  C3  UNL     1       2.194  -0.373  -0.064  1.00  0.00     0.073 A 
HETATM    3  C4  UNL     1       0.883  -0.240  -0.457  1.00  0.00     0.069 A 
HETATM    4  C8  UNL     1       0.260  -1.201  -1.258  1.00  0.00     0.070 A 
HETATM    5  C9  UNL     1      -1.049  -1.102  -1.685  1.00  0.00     0.144 A 
HETATM    6  N2  UNL     1      -1.535  -2.094  -2.471  1.00  0.00    -0.223 NA
HETATM    7  C16 UNL     1      -0.767  -3.145  -2.824  1.00  0.00     0.236 A 
HETATM    8  N3  UNL     1       0.530  -3.252  -2.406  1.00  0.00    -0.241 NA
HETATM    9  C17 UNL     1       1.061  -2.273  -1.612  1.00  0.00     0.077 A 
HETATM   10  C18 UNL     1       2.377  -2.416  -1.224  1.00  0.00     0.069 A 
ENDROOT
BRANCH   5  11
HETATM   11  N1  UNL     1      -1.756   0.049  -1.241  1.00  0.00    -0.340 N 
HETATM   12  H11 UNL     1      -1.557   1.020  -1.593  1.00  0.00     0.167 HD
BRANCH  11  13
HETATM   13  C10 UNL     1      -2.807  -0.057  -0.275  1.00  0.00     0.035 A 
HETATM   14  C11 UNL     1      -3.365  -1.300   0.061  1.00  0.00     0.032 A 
HETATM   15  C12 UNL     1      -4.386  -1.483   0.971  1.00  0.00     0.046 A 
HETATM   16  C13 UNL     1      -4.870  -0.323   1.579  1.00  0.00     0.138 A 
HETATM   17  F1  UNL     1      -5.877  -0.438   2.477  1.00  0.00    -0.204 F 
HETATM   18  C14 UNL     1      -4.337   0.910   1.265  1.00  0.00     0.074 A 
HETATM   19 CL1  UNL     1      -4.951   2.383   2.036  1.00  0.00    -0.081 Cl
HETATM   20  C15 UNL     1      -3.326   1.054   0.360  1.00  0.00     0.056 A 
ENDBRANCH  11  13
ENDBRANCH   5  11
BRANCH   3  21
HETATM   21  O2  UNL     1       0.161   0.864  -0.056  1.00  0.00    -0.413 OA
BRANCH  21  22
HETATM   22  B1  UNL     1       0.732   1.933   0.800  1.00  0.00     0.363 B 
HETATM   23  C5  UNL     1       1.766   3.072   0.339  1.00  0.00     0.013 C 
HETATM   24  C6  UNL     1       1.273   4.237   1.197  1.00  0.00     0.159 C 
HETATM   25  O3  UNL     1       0.816   3.621   2.387  1.00  0.00    -0.398 OA
HETATM   26  C7  UNL     1      -0.080   2.627   1.986  1.00  0.00     0.152 C 
ENDBRANCH  21  22
ENDBRANCH   3  21
BRANCH   1  27
HETATM   27  O1  UNL     1       4.265  -1.436   0.042  1.00  0.00    -0.356 OA
HETATM   28  C1  UNL     1       5.240  -2.409  -0.191  1.00  0.00     0.210 C 
ENDBRANCH   1  27
TORSDOF 5
