REMARK  5 active torsions:
REMARK  status: ('A' for Active; 'I' for Inactive)
REMARK    1  A    between atoms: C5_5  and  C6_6 
REMARK    2  A    between atoms: B1_9  and  C7_10 
REMARK    3  A    between atoms: C8_12  and  O1_13 
REMARK    4  A    between atoms: C10_16  and  C11_17 
REMARK    5  A    between atoms: C11_17  and  C12_18 
ROOT
HETATM    1  C6  UNL     1       1.442   0.745  -0.193  1.00  0.00     0.061 A 
HETATM    2  N1  UNL     1       1.602   1.787  -0.936  1.00  0.00    -0.198 NA
HETATM    3  N2  UNL     1       0.409   2.493  -1.080  1.00  0.00    -0.353 N 
HETATM    4  B1  UNL     1      -0.681   1.787  -0.300  1.00  0.00     0.383 B 
HETATM    5  C10 UNL     1       0.064   0.486   0.297  1.00  0.00     0.038 A 
HETATM    6  H6  UNL     1       0.310   3.383  -1.652  1.00  0.00     0.162 HD
ENDROOT
BRANCH   5   7
HETATM    7  C11 UNL     1      -0.469  -0.708  -0.482  1.00  0.00     0.042 C 
BRANCH   7   8
HETATM    8  C12 UNL     1      -1.833  -1.095  -0.105  1.00  0.00    -0.058 A 
HETATM    9  C13 UNL     1      -2.983  -0.583  -0.712  1.00  0.00     0.009 A 
HETATM   10  C14 UNL     1      -4.257  -0.953  -0.350  1.00  0.00     0.024 A 
HETATM   11  C15 UNL     1      -4.382  -1.877   0.666  1.00  0.00     0.034 A 
HETATM   12 CL1  UNL     1      -5.995  -2.378   1.162  1.00  0.00    -0.084 Cl
HETATM   13  C16 UNL     1      -3.303  -2.428   1.314  1.00  0.00     0.024 A 
HETATM   14  C17 UNL     1      -2.027  -2.026   0.918  1.00  0.00     0.009 A 
ENDBRANCH   7   8
ENDBRANCH   5   7
BRANCH   1  15
HETATM   15  C5  UNL     1       2.630  -0.067   0.031  1.00  0.00    -0.010 A 
HETATM   16  C4  UNL     1       3.860   0.194  -0.519  1.00  0.00     0.014 A 
HETATM   17  C3  UNL     1       5.016  -0.541  -0.317  1.00  0.00     0.007 A 
HETATM   18  C2  UNL     1       4.941  -1.640   0.511  1.00  0.00    -0.062 A 
HETATM   19  C1  UNL     1       6.160  -2.452   0.751  1.00  0.00     0.048 C 
HETATM   20  C19 UNL     1       3.738  -1.962   1.098  1.00  0.00     0.007 A 
HETATM   21  C18 UNL     1       2.635  -1.178   0.844  1.00  0.00     0.014 A 
ENDBRANCH   1  15
BRANCH   4  22
HETATM   22  C7  UNL     1      -1.961   2.478   0.278  1.00  0.00     0.064 A 
HETATM   23  N3  UNL     1      -2.933   3.038  -0.130  1.00  0.00    -0.232 NA
HETATM   24  C8  UNL     1      -3.891   3.541   0.625  1.00  0.00     0.168 A 
HETATM   25  C9  UNL     1      -3.730   3.391   2.071  1.00  0.00     0.108 A 
HETATM   26  S1  UNL     1      -2.154   2.507   2.163  1.00  0.00    -0.092 SA
BRANCH  24  27
HETATM   27  O1  UNL     1      -4.942   4.158  -0.088  1.00  0.00    -0.344 OA
HETATM   28  H7  UNL     1      -4.822   5.055  -0.509  1.00  0.00     0.219 HD
ENDBRANCH  24  27
ENDBRANCH   4  22
TORSDOF 5
