REMARK  1 active torsions:
REMARK  status: ('A' for Active; 'I' for Inactive)
REMARK    1  A    between atoms: C2_5  and  C3_6 
ROOT
HETATM    1  B1  UNL     1       2.470  -4.194   1.861  1.00  0.00     0.225 B 
HETATM    2  C1  UNL     1       1.931  -2.844   0.849  1.00  0.00    -0.130 C 
HETATM    3  N1  UNL     1       1.489  -1.802   0.069  1.00  0.00    -0.221 N 
HETATM    4  N2  UNL     1       0.170  -1.402  -0.324  1.00  0.00    -0.165 NA
HETATM    5  C2  UNL     1      -0.173  -0.097  -0.425  1.00  0.00     0.070 C 
HETATM    6  C10 UNL     1       0.553   1.256  -0.572  1.00  0.00     0.096 C 
HETATM    7  C11 UNL     1       1.992   1.063  -0.641  1.00  0.00    -0.067 C 
HETATM    8  C12 UNL     1       2.708   1.804   0.186  1.00  0.00     0.027 C 
HETATM    9  C13 UNL     1       3.954   1.352   0.870  1.00  0.00     0.034 C 
HETATM   10 CL1  UNL     1       4.919   2.588   1.578  1.00  0.00    -0.084 Cl
HETATM   11  C14 UNL     1       4.385   0.069   1.014  1.00  0.00     0.026 C 
HETATM   12  C15 UNL     1       3.634  -1.160   0.584  1.00  0.00     0.030 C 
HETATM   13  C16 UNL     1       2.636  -1.021  -0.323  1.00  0.00     0.047 C 
HETATM   14  C17 UNL     1       2.597  -0.048  -1.540  1.00  0.00     0.094 C 
ENDROOT
BRANCH   5  15
HETATM   15  C3  UNL     1      -1.635   0.035  -0.368  1.00  0.00    -0.010 C 
HETATM   16  C4  UNL     1      -2.246   1.199  -0.456  1.00  0.00     0.013 C 
HETATM   17  C5  UNL     1      -3.653   1.627  -0.431  1.00  0.00    -0.003 C 
HETATM   18  C6  UNL     1      -4.636   0.866   0.025  1.00  0.00    -0.023 C 
HETATM   19  C7  UNL     1      -4.720  -0.486   0.595  1.00  0.00     0.054 C 
HETATM   20  C8  UNL     1      -3.664  -1.411   0.189  1.00  0.00    -0.022 C 
HETATM   21  C9  UNL     1      -2.412  -1.186  -0.201  1.00  0.00     0.010 C 
ENDBRANCH   5  15
TORSDOF 1
