REMARK  3 active torsions:
REMARK  status: ('A' for Active; 'I' for Inactive)
REMARK    1  A    between atoms: O1_2  and  C2_3 
REMARK    2  A    between atoms: N1_15  and  N2_16 
REMARK    3  A    between atoms: C11_17  and  C12_18 
ROOT
HETATM    1  C2  UNL     1      -2.002   2.448   0.404  1.00  0.00     0.165 C 
HETATM    2  C3  UNL     1      -2.690   2.525  -0.734  1.00  0.00     0.114 C 
HETATM    3  S1  UNL     1      -2.760   1.648  -2.285  1.00  0.00    -0.062 SA
HETATM    4  S2  UNL     1      -2.285  -0.378  -1.989  1.00  0.00    -0.052 SA
HETATM    5  C4  UNL     1      -1.887  -0.744  -0.256  1.00  0.00     0.157 A 
HETATM    6  C5  UNL     1      -3.144  -0.536   0.561  1.00  0.00     0.081 A 
HETATM    7  C6  UNL     1      -3.668  -1.753   1.184  1.00  0.00     0.001 A 
HETATM    8  C7  UNL     1      -3.263  -3.015   1.179  1.00  0.00     0.030 A 
HETATM    9 CL1  UNL     1      -4.039  -4.336   1.998  1.00  0.00    -0.085 Cl
HETATM   10  C8  UNL     1      -2.036  -3.207   0.378  1.00  0.00     0.029 A 
HETATM   11  C9  UNL     1      -1.480  -2.171  -0.228  1.00  0.00    -0.039 A 
HETATM   12  C10 UNL     1      -0.234  -2.460  -1.024  1.00  0.00     0.047 C 
HETATM   13  N1  UNL     1      -0.797   0.123   0.210  1.00  0.00    -0.183 N 
HETATM   14  N3  UNL     1      -1.004   1.460   0.634  1.00  0.00    -0.259 N 
HETATM   15  H20 UNL     1      -0.219   1.789   1.276  1.00  0.00     0.191 HD
ENDROOT
BRANCH  13  16
HETATM   16  N2  UNL     1       0.540  -0.278   0.283  1.00  0.00    -0.167 NA
HETATM   17  C11 UNL     1       1.451   0.289  -0.434  1.00  0.00     0.147 C 
BRANCH  17  18
HETATM   18  C12 UNL     1       2.859  -0.165  -0.328  1.00  0.00    -0.039 A 
HETATM   19  C13 UNL     1       3.055  -1.150   0.531  1.00  0.00     0.008 A 
HETATM   20  C14 UNL     1       4.418  -1.644   0.683  1.00  0.00    -0.003 A 
HETATM   21  C15 UNL     1       5.288  -1.013  -0.084  1.00  0.00    -0.026 A 
HETATM   22  C16 UNL     1       5.205   0.086  -1.072  1.00  0.00     0.032 A 
HETATM   23  C17 UNL     1       3.804   0.563  -1.202  1.00  0.00     0.043 A 
ENDBRANCH  17  18
ENDBRANCH  13  16
BRANCH   1  24
HETATM   24  O1  UNL     1      -2.235   3.359   1.455  1.00  0.00    -0.339 OA
HETATM   25  C1  UNL     1      -2.413   4.736   1.181  1.00  0.00     0.211 C 
ENDBRANCH   1  24
TORSDOF 3
