REMARK  4 active torsions:
REMARK  status: ('A' for Active; 'I' for Inactive)
REMARK    1  A    between atoms: C5_5  and  C6_6 
REMARK    2  A    between atoms: N2_8  and  C7_9 
REMARK    3  A    between atoms: C8_11  and  O1_12 
REMARK    4  A    between atoms: C10_15  and  C11_16 
ROOT
HETATM    1  C6  UNL     1       0.912  -0.082  -0.484  1.00  0.00     0.067 C 
HETATM    2  N1  UNL     1       0.144  -1.043  -0.863  1.00  0.00    -0.173 NA
HETATM    3  N2  UNL     1      -1.206  -0.658  -0.900  1.00  0.00    -0.236 N 
HETATM    4  C10 UNL     1      -1.258   0.754  -0.787  1.00  0.00     0.151 C 
HETATM    5  C17 UNL     1       0.084   1.115  -0.191  1.00  0.00     0.094 C 
ENDROOT
BRANCH   1   6
HETATM    6  C5  UNL     1       2.364  -0.034  -0.303  1.00  0.00    -0.010 A 
HETATM    7  C4  UNL     1       3.139  -1.141  -0.515  1.00  0.00     0.014 A 
HETATM    8  C3  UNL     1       4.515  -1.112  -0.371  1.00  0.00     0.007 A 
HETATM    9  C2  UNL     1       5.152   0.055  -0.003  1.00  0.00    -0.062 A 
HETATM   10  C1  UNL     1       6.620   0.211   0.178  1.00  0.00     0.048 C 
HETATM   11  C19 UNL     1       4.385   1.179   0.215  1.00  0.00     0.007 A 
HETATM   12  C18 UNL     1       3.019   1.128   0.066  1.00  0.00     0.014 A 
ENDBRANCH   1   6
BRANCH   3  13
HETATM   13  C7  UNL     1      -2.029  -1.853  -1.052  1.00  0.00     0.192 A 
HETATM   14  N3  UNL     1      -2.394  -2.662  -0.174  1.00  0.00    -0.198 NA
HETATM   15  C8  UNL     1      -3.152  -3.696  -0.481  1.00  0.00     0.171 A 
HETATM   16  C9  UNL     1      -3.561  -3.906  -1.797  1.00  0.00     0.111 A 
HETATM   17  S1  UNL     1      -2.808  -2.531  -2.641  1.00  0.00    -0.058 SA
BRANCH  15  18
HETATM   18  O1  UNL     1      -3.545  -4.584   0.510  1.00  0.00    -0.344 OA
HETATM   19  H6  UNL     1      -3.235  -4.609   1.453  1.00  0.00     0.219 HD
ENDBRANCH  15  18
ENDBRANCH   3  13
BRANCH   4  20
HETATM   20  C11 UNL     1      -2.278   1.315   0.104  1.00  0.00    -0.033 A 
HETATM   21  C12 UNL     1      -2.605   0.788   1.322  1.00  0.00     0.011 A 
HETATM   22  C13 UNL     1      -3.580   1.434   2.091  1.00  0.00     0.019 A 
HETATM   23  C14 UNL     1      -4.213   2.577   1.655  1.00  0.00     0.011 A 
HETATM   24 BR1  UNL     1      -5.527   3.419   2.737  1.00  0.00    -0.051 Br
HETATM   25  C15 UNL     1      -3.914   3.136   0.441  1.00  0.00     0.019 A 
HETATM   26  C16 UNL     1      -2.949   2.473  -0.289  1.00  0.00     0.011 A 
ENDBRANCH   4  20
TORSDOF 4
