REMARK  5 active torsions:
REMARK  status: ('A' for Active; 'I' for Inactive)
REMARK    1  A    between atoms: C4_4  and  C5_5 
REMARK    2  A    between atoms: C5_5  and  C6_6 
REMARK    3  A    between atoms: C6_6  and  N1_7 
REMARK    4  A    between atoms: C6_6  and  C9_12 
REMARK    5  A    between atoms: N1_7  and  N2_8 
ROOT
HETATM    1  C6  UNL     1      -1.507   0.454  -0.606  1.00  0.00     0.139 C 
ENDROOT
BRANCH   1   2
HETATM    2  C5  UNL     1      -0.373   1.309  -0.170  1.00  0.00     0.090 C 
BRANCH   2   3
HETATM    3  C4  UNL     1       0.963   0.662  -0.221  1.00  0.00     0.032 C 
HETATM    4  C3  UNL     1       1.232  -0.517   0.594  1.00  0.00     0.033 C 
HETATM    5  C2  UNL     1       2.096  -1.497   0.381  1.00  0.00    -0.060 C 
HETATM    6  C1  UNL     1       2.156  -2.590   1.400  1.00  0.00     0.048 C 
HETATM    7  C18 UNL     1       3.008  -1.621  -0.761  1.00  0.00     0.005 C 
HETATM    8  C17 UNL     1       3.463  -0.590  -1.466  1.00  0.00     0.000 C 
HETATM    9  C15 UNL     1       3.217   0.869  -1.335  1.00  0.00     0.127 C 
HETATM   10  N3  UNL     1       1.845   1.186  -1.006  1.00  0.00    -0.285 NA
HETATM   11  C16 UNL     1       4.091   1.516  -0.286  1.00  0.00     0.039 C 
ENDBRANCH   2   3
ENDBRANCH   1   2
BRANCH   1  12
HETATM   12  N1  UNL     1      -2.736   1.263  -0.496  1.00  0.00    -0.315 N 
HETATM   13  H8  UNL     1      -3.531   0.970   0.149  1.00  0.00     0.182 HD
BRANCH  12  14
HETATM   14  N2  UNL     1      -2.972   2.465  -1.215  1.00  0.00    -0.239 N 
HETATM   15  C7  UNL     1      -3.977   3.388  -1.302  1.00  0.00     0.133 A 
HETATM   16  C8  UNL     1      -3.439   4.257  -2.224  1.00  0.00     0.089 A 
HETATM   17  S1  UNL     1      -2.040   3.322  -2.351  1.00  0.00    -0.001 SA
ENDBRANCH  12  14
ENDBRANCH   1  12
BRANCH   1  18
HETATM   18  C9  UNL     1      -1.680  -0.712   0.267  1.00  0.00    -0.034 A 
HETATM   19  C10 UNL     1      -1.363  -2.029  -0.022  1.00  0.00     0.011 A 
HETATM   20  C11 UNL     1      -1.587  -3.046   0.894  1.00  0.00     0.019 A 
HETATM   21  C12 UNL     1      -2.136  -2.713   2.109  1.00  0.00     0.011 A 
HETATM   22 BR1  UNL     1      -2.421  -4.136   3.323  1.00  0.00    -0.051 Br
HETATM   23  C13 UNL     1      -2.471  -1.423   2.453  1.00  0.00     0.019 A 
HETATM   24  C14 UNL     1      -2.235  -0.416   1.511  1.00  0.00     0.011 A 
ENDBRANCH   1  18
TORSDOF 5
