REMARK  1 active torsions:
REMARK  status: ('A' for Active; 'I' for Inactive)
REMARK    1  A    between atoms: C17_20  and  N2_21 
ROOT
HETATM    1  C1  UNL     1      -4.747   1.987   0.641  1.00  0.00     0.038 A 
HETATM    2  C2  UNL     1      -3.804   1.054   0.641  1.00  0.00    -0.076 A 
HETATM    3  C3  UNL     1      -3.782  -0.419   0.485  1.00  0.00     0.010 C 
HETATM    4  C4  UNL     1      -2.450  -0.664   0.607  1.00  0.00     0.059 C 
HETATM    5  C5  UNL     1      -1.742  -1.971   0.541  1.00  0.00    -0.080 C 
HETATM    6  C6  UNL     1      -1.787  -3.494   0.361  1.00  0.00     0.043 C 
HETATM    7  C7  UNL     1      -0.455  -1.608   0.736  1.00  0.00    -0.004 C 
HETATM    8  C8  UNL     1       0.221  -0.345   0.965  1.00  0.00     0.095 C 
HETATM    9  C9  UNL     1       1.603  -0.422   1.588  1.00  0.00     0.051 C 
HETATM   10  C10 UNL     1       2.214  -0.218   0.193  1.00  0.00     0.029 C 
HETATM   11  C11 UNL     1       2.497  -1.498  -0.458  1.00  0.00     0.054 C 
HETATM   12  C12 UNL     1       3.703  -1.509  -1.332  1.00  0.00    -0.010 C 
HETATM   13  C13 UNL     1       4.693  -0.594  -1.301  1.00  0.00    -0.015 C 
HETATM   14 BR1  UNL     1       6.188  -0.733  -2.486  1.00  0.00    -0.056 Br
HETATM   15  C14 UNL     1       4.581   0.511  -0.327  1.00  0.00     0.048 C 
HETATM   16  C15 UNL     1       3.229   0.838   0.150  1.00  0.00     0.032 C 
HETATM   17  N1  UNL     1       0.865   0.279  -0.169  1.00  0.00    -0.240 NA
HETATM   18  S1  UNL     1       0.749   2.043   0.197  1.00  0.00    -0.068 SA
HETATM   19  C16 UNL     1      -0.845   2.659  -0.136  1.00  0.00     0.135 C 
HETATM   20  C17 UNL     1      -2.167   2.706   0.134  1.00  0.00     0.043 C 
HETATM   21  O1  UNL     1      -3.354   2.362   0.828  1.00  0.00     0.000 OA
ENDROOT
BRANCH  20  22
HETATM   22  N2  UNL     1      -2.457   3.642  -0.896  1.00  0.00    -0.400 N 
HETATM   23  H20 UNL     1      -2.324   4.679  -0.888  1.00  0.00     0.156 HD
HETATM   24  H21 UNL     1      -2.841   3.700  -1.883  1.00  0.00     0.156 HD
ENDBRANCH  20  22
TORSDOF 1
