REMARK  6 active torsions:
REMARK  status: ('A' for Active; 'I' for Inactive)
REMARK    1  A    between atoms: C5_5  and  C6_6 
REMARK    2  A    between atoms: N2_16  and  C15_17 
REMARK    3  A    between atoms: C15_17  and  S1_18 
REMARK    4  A    between atoms: S1_18  and  C16_19 
REMARK    5  A    between atoms: C17_20  and  N3_21 
REMARK    6  A    between atoms: C17_20  and  O1_22 
ROOT
HETATM    1  C6  UNL     1      -0.140   0.277   0.812  1.00  0.00     0.172 C 
HETATM    2  C7  UNL     1      -0.615  -1.126   0.638  1.00  0.00    -0.017 A 
HETATM    3  C8  UNL     1      -1.619  -1.726   1.399  1.00  0.00     0.017 A 
HETATM    4  C9  UNL     1      -2.065  -2.996   1.106  1.00  0.00    -0.061 A 
HETATM    5  C10 UNL     1      -3.136  -3.625   1.927  1.00  0.00     0.048 C 
HETATM    6  C11 UNL     1      -1.525  -3.704   0.048  1.00  0.00     0.007 A 
HETATM    7  C12 UNL     1      -0.528  -3.106  -0.703  1.00  0.00     0.014 A 
HETATM    8  C13 UNL     1      -0.066  -1.822  -0.417  1.00  0.00    -0.008 A 
HETATM    9  C14 UNL     1       1.074  -1.440  -1.242  1.00  0.00     0.150 C 
HETATM   10  N1  UNL     1       1.655  -0.305  -0.935  1.00  0.00    -0.187 NA
HETATM   11  N2  UNL     1       1.129   0.422   0.165  1.00  0.00    -0.282 N 
ENDROOT
BRANCH  11  12
HETATM   12  C15 UNL     1       2.128   1.406   0.609  1.00  0.00     0.224 C 
BRANCH  12  13
HETATM   13  S1  UNL     1       3.696   0.556   0.995  1.00  0.00    -0.116 SA
BRANCH  13  14
HETATM   14  C16 UNL     1       4.398  -0.129  -0.486  1.00  0.00     0.101 C 
HETATM   15  C17 UNL     1       5.696  -0.332  -0.460  1.00  0.00     0.139 C 
BRANCH  15  16
HETATM   16  N3  UNL     1       6.543  -0.863  -1.476  1.00  0.00    -0.380 N 
HETATM   17  H17 UNL     1       6.875  -1.823  -1.712  1.00  0.00     0.158 HD
HETATM   18  H18 UNL     1       7.110  -0.556  -2.300  1.00  0.00     0.158 HD
ENDBRANCH  15  16
BRANCH  15  19
HETATM   19  O1  UNL     1       6.626  -0.096   0.551  1.00  0.00    -0.346 OA
HETATM   20  H19 UNL     1       6.376   0.658   1.184  1.00  0.00     0.219 HD
ENDBRANCH  15  19
ENDBRANCH  13  14
ENDBRANCH  12  13
ENDBRANCH  11  12
BRANCH   1  21
HETATM   21  C5  UNL     1      -1.146   1.250   0.321  1.00  0.00    -0.029 A 
HETATM   22  C4  UNL     1      -0.913   2.590   0.118  1.00  0.00     0.010 A 
HETATM   23  C3  UNL     1      -1.816   3.513  -0.334  1.00  0.00     0.007 A 
HETATM   24  C2  UNL     1      -3.100   3.102  -0.628  1.00  0.00    -0.062 A 
HETATM   25  C1  UNL     1      -4.106   4.065  -1.119  1.00  0.00     0.048 C 
HETATM   26  C19 UNL     1      -3.409   1.776  -0.451  1.00  0.00     0.007 A 
HETATM   27  C18 UNL     1      -2.452   0.895   0.008  1.00  0.00     0.010 A 
ENDBRANCH   1  21
TORSDOF 6
