REMARK  8 active torsions:
REMARK  status: ('A' for Active; 'I' for Inactive)
REMARK    1  A    between atoms: O1_1  and  C1_2 
REMARK    2  A    between atoms: C1_2  and  C2_3 
REMARK    3  A    between atoms: C3_4  and  C4_5 
REMARK    4  A    between atoms: C5_6  and  C6_7 
REMARK    5  A    between atoms: C6_7  and  C7_8 
REMARK    6  A    between atoms: C9_10  and  C10_11 
REMARK    7  A    between atoms: N2_18  and  C16_19 
REMARK    8  A    between atoms: C16_19  and  C17_20 
ROOT
HETATM    1  C7  UNL     1       0.057   0.900   1.071  1.00  0.00     0.114 C 
HETATM    2  C8  UNL     1      -0.151  -0.578   1.035  1.00  0.00     0.089 C 
HETATM    3  C9  UNL     1      -1.380  -0.672   0.181  1.00  0.00     0.066 C 
HETATM    4  N1  UNL     1      -1.648   0.470  -0.348  1.00  0.00    -0.180 NA
HETATM    5  N2  UNL     1      -0.754   1.458   0.001  1.00  0.00    -0.294 N 
ENDROOT
BRANCH   1   6
HETATM    6  C6  UNL     1       1.511   1.290   0.925  1.00  0.00     0.054 C 
BRANCH   6   7
HETATM    7  C5  UNL     1       2.088   0.821  -0.350  1.00  0.00    -0.025 C 
HETATM    8  C4  UNL     1       3.107   0.006  -0.561  1.00  0.00    -0.004 C 
BRANCH   8   9
HETATM    9  C3  UNL     1       3.857  -0.586   0.519  1.00  0.00    -0.002 C 
HETATM   10  C2  UNL     1       4.869  -1.396   0.261  1.00  0.00    -0.001 C 
BRANCH  10  11
HETATM   11  C1  UNL     1       5.450  -1.867  -1.011  1.00  0.00     0.191 C 
BRANCH  11  12
HETATM   12  O1  UNL     1       6.807  -1.479  -1.096  1.00  0.00    -0.397 OA
HETATM   13  H1  UNL     1       6.912  -0.568  -0.692  1.00  0.00     0.209 HD
ENDBRANCH  11  12
ENDBRANCH  10  11
ENDBRANCH   8   9
ENDBRANCH   6   7
ENDBRANCH   1   6
BRANCH   5  14
HETATM   14  C16 UNL     1      -0.651   2.765  -0.575  1.00  0.00     0.212 C 
BRANCH  14  15
HETATM   15  C17 UNL     1      -1.918   3.565  -0.425  1.00  0.00     0.094 A 
HETATM   16  N3  UNL     1      -2.993   3.658  -1.238  1.00  0.00    -0.256 NA
HETATM   17  C18 UNL     1      -3.925   4.487  -0.741  1.00  0.00     0.124 A 
HETATM   18  C19 UNL     1      -3.899   5.216   0.455  1.00  0.00     0.071 A 
HETATM   19  S1  UNL     1      -2.196   4.620   1.023  1.00  0.00    -0.084 SA
ENDBRANCH  14  15
ENDBRANCH   5  14
BRANCH   3  20
HETATM   20  C10 UNL     1      -2.177  -1.889  -0.031  1.00  0.00    -0.010 A 
HETATM   21  C11 UNL     1      -3.282  -1.798  -0.850  1.00  0.00     0.013 A 
HETATM   22  C12 UNL     1      -4.000  -2.969  -1.019  1.00  0.00     0.001 A 
HETATM   23  C13 UNL     1      -3.712  -4.191  -0.452  1.00  0.00     0.000 A 
HETATM   24  C14 UNL     1      -2.582  -4.178   0.354  1.00  0.00     0.001 A 
HETATM   25  C15 UNL     1      -1.801  -3.069   0.587  1.00  0.00     0.013 A 
ENDBRANCH   3  20
TORSDOF 8
