REMARK  2 active torsions:
REMARK  status: ('A' for Active; 'I' for Inactive)
REMARK    1  A    between atoms: O1_1  and  N1_2 
REMARK    2  A    between atoms: C12_18  and  C13_19 
ROOT
HETATM    1  N1  UNL     1      -3.481  -0.785   1.742  1.00  0.00    -0.232 N 
HETATM    2  C1  UNL     1      -2.746  -1.307   2.848  1.00  0.00     0.135 C 
HETATM    3  C2  UNL     1      -1.454  -0.907   2.887  1.00  0.00     0.067 C 
HETATM    4  S1  UNL     1       0.149  -0.275   2.741  1.00  0.00    -0.119 SA
HETATM    5  C3  UNL     1       0.578   0.647   1.242  1.00  0.00     0.221 C 
HETATM    6  N2  UNL     1       0.554  -0.291   0.059  1.00  0.00    -0.311 N 
HETATM    7  N3  UNL     1      -0.748  -0.604   0.035  1.00  0.00    -0.310 N 
HETATM    8  C4  UNL     1      -1.847  -1.312  -0.520  1.00  0.00     0.131 A 
HETATM    9  C5  UNL     1      -2.617  -2.339  -0.313  1.00  0.00     0.058 A 
HETATM   10  S2  UNL     1      -3.581  -0.763   0.096  1.00  0.00    -0.142 SA
HETATM   11  C6  UNL     1      -3.082   0.383  -1.080  1.00  0.00     0.105 C 
HETATM   12  C7  UNL     1      -1.899  -0.203  -1.925  1.00  0.00    -0.071 C 
HETATM   13  C8  UNL     1      -2.684  -1.238  -1.822  1.00  0.00     0.024 C 
HETATM   14  C9  UNL     1      -0.693   0.361  -2.308  1.00  0.00     0.035 C 
HETATM   15  C10 UNL     1       0.336   0.885  -3.067  1.00  0.00     0.007 C 
HETATM   16  C11 UNL     1       1.416   1.147  -1.920  1.00  0.00     0.032 C 
HETATM   17  C12 UNL     1       1.460   0.048  -0.914  1.00  0.00     0.135 C 
HETATM   18  H6  UNL     1      -1.491  -0.228   0.641  1.00  0.00     0.182 HD
HETATM   19  H8  UNL     1      -5.254  -1.214  -0.277  1.00  0.00     0.102 HD
ENDROOT
BRANCH  17  20
HETATM   20  C13 UNL     1       2.718   0.374  -0.146  1.00  0.00    -0.034 A 
HETATM   21  C14 UNL     1       3.519   1.494  -0.228  1.00  0.00     0.011 A 
HETATM   22  C15 UNL     1       4.641   1.561   0.572  1.00  0.00     0.024 A 
HETATM   23  C16 UNL     1       5.014   0.563   1.459  1.00  0.00     0.034 A 
HETATM   24 CL1  UNL     1       6.466   0.780   2.415  1.00  0.00    -0.084 Cl
HETATM   25  C17 UNL     1       4.217  -0.558   1.545  1.00  0.00     0.024 A 
HETATM   26  C18 UNL     1       3.097  -0.614   0.740  1.00  0.00     0.011 A 
ENDBRANCH  17  20
BRANCH   1  27
HETATM   27  O1  UNL     1      -4.388  -0.063   2.481  1.00  0.00    -0.279 OA
HETATM   28  H1  UNL     1      -4.171   0.912   2.428  1.00  0.00     0.245 HD
ENDBRANCH   1  27
TORSDOF 2
