REMARK  6 active torsions:
REMARK  status: ('A' for Active; 'I' for Inactive)
REMARK    1  A    between atoms: C2_2  and  O1_3 
REMARK    2  A    between atoms: C2_2  and  C4_5 
REMARK    3  A    between atoms: C4_5  and  O2_20 
REMARK    4  A    between atoms: C5_6  and  C6_7 
REMARK    5  A    between atoms: C9_12  and  N3_13 
REMARK    6  A    between atoms: N3_13  and  C10_14 
ROOT
HETATM    1  C6  UNL     1       0.577  -0.176  -1.792  1.00  0.00     0.030 A 
HETATM    2  C7  UNL     1       0.010   0.293  -2.981  1.00  0.00     0.133 A 
HETATM    3  N1  UNL     1       0.760   1.078  -3.799  1.00  0.00    -0.253 NA
HETATM    4  C8  UNL     1       2.024   1.410  -3.491  1.00  0.00     0.234 A 
HETATM    5  N2  UNL     1       2.553   0.954  -2.349  1.00  0.00    -0.224 NA
HETATM    6  C9  UNL     1       1.868   0.176  -1.497  1.00  0.00     0.137 A 
ENDROOT
BRANCH   1   7
HETATM    7  C5  UNL     1      -0.328  -0.977  -1.042  1.00  0.00     0.056 C 
HETATM    8  C4  UNL     1      -1.529  -0.961  -0.541  1.00  0.00     0.098 C 
BRANCH   8   9
HETATM    9  C2  UNL     1      -2.455   0.160  -0.659  1.00  0.00     0.079 C 
HETATM   10  C1  UNL     1      -3.683   0.455  -0.280  1.00  0.00     0.074 C 
BRANCH   9  11
HETATM   11  O1  UNL     1      -2.098   1.325  -1.327  1.00  0.00    -0.357 OA
HETATM   12  C3  UNL     1      -1.910   2.498  -0.568  1.00  0.00     0.209 C 
ENDBRANCH   9  11
ENDBRANCH   8   9
BRANCH   8  13
HETATM   13  O2  UNL     1      -1.998  -2.065   0.158  1.00  0.00    -0.353 OA
HETATM   14  C15 UNL     1      -2.240  -1.993   1.547  1.00  0.00     0.210 C 
ENDBRANCH   8  13
ENDBRANCH   1   7
BRANCH   6  15
HETATM   15  N3  UNL     1       2.443  -0.254  -0.285  1.00  0.00    -0.363 N 
HETATM   16  H9  UNL     1       3.459   0.047  -0.205  1.00  0.00     0.162 HD
BRANCH  15  17
HETATM   17  C10 UNL     1       2.148  -0.972   0.908  1.00  0.00     0.131 A 
HETATM   18  C11 UNL     1       1.067  -0.201   1.612  1.00  0.00     0.003 A 
HETATM   19  C12 UNL     1       1.508   0.187   2.821  1.00  0.00     0.017 A 
HETATM   20  C13 UNL     1       2.886  -0.289   3.005  1.00  0.00     0.009 A 
HETATM   21 BR1  UNL     1       4.208  -0.185   4.371  1.00  0.00    -0.051 Br
HETATM   22  C14 UNL     1       3.251  -0.949   1.914  1.00  0.00     0.021 A 
ENDBRANCH  15  17
ENDBRANCH   6  15
TORSDOF 6
