REMARK  7 active torsions:
REMARK  status: ('A' for Active; 'I' for Inactive)
REMARK    1  A    between atoms: C3_3  and  C4_5 
REMARK    2  A    between atoms: C4_5  and  C5_6 
REMARK    3  A    between atoms: C5_6  and  C6_7 
REMARK    4  A    between atoms: C6_7  and  C7_8 
REMARK    5  A    between atoms: C9_10  and  C10_11 
REMARK    6  A    between atoms: N2_19  and  C17_20 
REMARK    7  A    between atoms: C18_22  and  O1_23 
ROOT
HETATM    1  C1  UNL     1      -5.161  -4.108   0.299  1.00  0.00     0.098 C 
HETATM    2  C2  UNL     1      -5.013  -2.803   0.280  1.00  0.00    -0.136 C 
HETATM    3  C3  UNL     1      -4.835  -1.518   0.121  1.00  0.00     0.051 C 
HETATM    4 BR1  UNL     1      -5.813  -0.644  -1.185  1.00  0.00    -0.042 Br
ENDROOT
BRANCH   3   5
HETATM    5  C4  UNL     1      -3.914  -0.817   0.934  1.00  0.00     0.023 C 
BRANCH   5   6
HETATM    6  C5  UNL     1      -2.675  -0.528   0.596  1.00  0.00    -0.022 C 
BRANCH   6   7
HETATM    7  C6  UNL     1      -1.476  -0.482  -0.246  1.00  0.00     0.055 C 
BRANCH   7   8
HETATM    8  C7  UNL     1      -1.031   0.925  -0.588  1.00  0.00     0.122 C 
HETATM    9  C8  UNL     1       0.236   0.736  -1.464  1.00  0.00     0.089 C 
HETATM   10  C9  UNL     1       1.163   0.346  -0.336  1.00  0.00     0.067 C 
HETATM   11  N1  UNL     1       0.697   0.892   0.771  1.00  0.00    -0.174 NA
HETATM   12  N2  UNL     1      -0.445   1.612   0.499  1.00  0.00    -0.240 N 
BRANCH  10  13
HETATM   13  C10 UNL     1       2.394  -0.450  -0.322  1.00  0.00    -0.010 A 
HETATM   14  C11 UNL     1       3.067  -0.618   0.857  1.00  0.00     0.014 A 
HETATM   15  C12 UNL     1       4.222  -1.325   0.967  1.00  0.00     0.007 A 
HETATM   16  C13 UNL     1       4.792  -1.928  -0.143  1.00  0.00    -0.062 A 
HETATM   17  C14 UNL     1       6.058  -2.690   0.026  1.00  0.00     0.048 C 
HETATM   18  C15 UNL     1       4.102  -1.758  -1.349  1.00  0.00     0.007 A 
HETATM   19  C16 UNL     1       2.937  -1.040  -1.434  1.00  0.00     0.014 A 
ENDBRANCH  10  13
BRANCH  12  20
HETATM   20  C17 UNL     1      -0.801   2.805   1.262  1.00  0.00     0.192 A 
HETATM   21  N3  UNL     1      -1.250   3.812   0.769  1.00  0.00    -0.198 NA
HETATM   22  C18 UNL     1      -1.584   4.905   1.417  1.00  0.00     0.171 A 
HETATM   23  C19 UNL     1      -1.386   4.858   2.832  1.00  0.00     0.111 A 
HETATM   24  S1  UNL     1      -0.685   3.097   3.025  1.00  0.00    -0.058 SA
BRANCH  22  25
HETATM   25  O1  UNL     1      -2.089   5.985   0.662  1.00  0.00    -0.344 OA
HETATM   26  H17 UNL     1      -2.644   6.691   1.112  1.00  0.00     0.219 HD
ENDBRANCH  22  25
ENDBRANCH  12  20
ENDBRANCH   7   8
ENDBRANCH   6   7
ENDBRANCH   5   6
ENDBRANCH   3   5
TORSDOF 7
