REMARK  2 active torsions:
REMARK  status: ('A' for Active; 'I' for Inactive)
REMARK    1  A    between atoms: C8_8  and  C9_9 
REMARK    2  A    between atoms: N2_18  and  C16_19 
ROOT
HETATM    1  C1  UNL     1      -4.342   1.460   2.876  1.00  0.00     0.048 C 
HETATM    2  C2  UNL     1      -3.058   1.207   2.201  1.00  0.00    -0.061 A 
HETATM    3  C3  UNL     1      -1.881   1.485   2.868  1.00  0.00     0.007 A 
HETATM    4  C4  UNL     1      -0.686   1.226   2.180  1.00  0.00     0.015 A 
HETATM    5  C5  UNL     1      -0.699   0.717   0.903  1.00  0.00     0.001 A 
HETATM    6  C6  UNL     1      -1.803   0.423   0.197  1.00  0.00    -0.016 A 
HETATM    7  C7  UNL     1      -2.945   0.700   0.921  1.00  0.00     0.019 A 
HETATM    8  C8  UNL     1      -2.037  -0.096  -1.131  1.00  0.00    -0.033 C 
HETATM    9  C10 UNL     1      -1.189  -0.598  -1.953  1.00  0.00     0.009 C 
HETATM   10  C11 UNL     1       0.004  -1.084  -2.585  1.00  0.00    -0.001 C 
HETATM   11  C12 UNL     1       1.276  -1.180  -2.216  1.00  0.00     0.001 C 
HETATM   12  C13 UNL     1       1.448  -0.702  -0.936  1.00  0.00     0.141 C 
HETATM   13  C14 UNL     1       1.085   0.798  -0.893  1.00  0.00     0.093 C 
HETATM   14  C15 UNL     1       0.717   0.610   0.542  1.00  0.00     0.068 C 
HETATM   15  N1  UNL     1       1.949   0.388   0.883  1.00  0.00    -0.173 NA
HETATM   16  N2  UNL     1       2.549  -0.515  -0.083  1.00  0.00    -0.237 N 
ENDROOT
BRANCH  16  17
HETATM   17  C16 UNL     1       3.883  -0.995  -0.070  1.00  0.00     0.191 A 
HETATM   18  N3  UNL     1       4.767  -0.539  -0.692  1.00  0.00    -0.215 NA
HETATM   19  C17 UNL     1       6.020  -0.937  -0.718  1.00  0.00     0.112 A 
HETATM   20 BR1  UNL     1       7.655  -0.453  -1.571  1.00  0.00    -0.029 Br
HETATM   21  C18 UNL     1       6.391  -2.056   0.096  1.00  0.00     0.092 A 
HETATM   22  S1  UNL     1       4.716  -2.432   0.874  1.00  0.00    -0.059 SA
ENDBRANCH  16  17
BRANCH   8  23
HETATM   23  C9  UNL     1      -3.428  -0.050  -1.732  1.00  0.00     0.154 C 
HETATM   24 CL1  UNL     1      -4.489  -1.179  -0.862  1.00  0.00    -0.126 Cl
ENDBRANCH   8  23
TORSDOF 2
