REMARK  2 active torsions:
REMARK  status: ('A' for Active; 'I' for Inactive)
REMARK    1  A    between atoms: C2_2  and  C3_3 
REMARK    2  A    between atoms: C3_3  and  C4_4 
ROOT
HETATM    1  C4  UNL     1       2.156  -0.782   0.035  1.00  0.00     0.038 C 
HETATM    2  N1  UNL     1       1.555  -1.642  -0.675  1.00  0.00    -0.184 NA
HETATM    3  N2  UNL     1       0.254  -1.284  -1.044  1.00  0.00    -0.286 N 
HETATM    4  C5  UNL     1      -0.895  -2.160  -1.307  1.00  0.00     0.223 C 
HETATM    5  S1  UNL     1      -1.186  -3.321   0.033  1.00  0.00    -0.119 SA
HETATM    6  C6  UNL     1      -1.638  -2.407   1.501  1.00  0.00     0.063 C 
HETATM    7  C7  UNL     1      -2.147  -1.186   1.485  1.00  0.00     0.095 C 
HETATM    8  N3  UNL     1      -2.418  -0.412   0.347  1.00  0.00    -0.365 N 
HETATM    9  C8  UNL     1      -2.028   0.665  -0.467  1.00  0.00     0.041 A 
HETATM   10  C9  UNL     1      -3.099   1.527  -0.567  1.00  0.00     0.049 A 
HETATM   11  C10 UNL     1      -3.082   2.720  -1.296  1.00  0.00     0.013 A 
HETATM   12 BR1  UNL     1      -4.473   3.965  -1.502  1.00  0.00    -0.051 Br
HETATM   13  C11 UNL     1      -1.882   2.975  -1.924  1.00  0.00     0.020 A 
HETATM   14  C12 UNL     1      -0.815   2.113  -1.823  1.00  0.00     0.013 A 
HETATM   15  C13 UNL     1      -0.837   0.935  -1.101  1.00  0.00    -0.007 A 
HETATM   16  C14 UNL     1       0.385   0.133  -1.091  1.00  0.00     0.145 C 
HETATM   17  C15 UNL     1       1.184   0.331   0.209  1.00  0.00     0.088 C 
HETATM   18  H10 UNL     1      -3.296  -0.963   0.100  1.00  0.00     0.165 HD
ENDROOT
BRANCH   1  19
HETATM   19  C3  UNL     1       3.547  -0.821   0.610  1.00  0.00     0.082 C 
BRANCH  19  20
HETATM   20  C2  UNL     1       3.465  -0.735   2.079  1.00  0.00    -0.031 C 
HETATM   21  C1  UNL     1       4.043   0.253   2.716  1.00  0.00     0.007 C 
ENDBRANCH  19  20
ENDBRANCH   1  19
TORSDOF 2
