REMARK  6 active torsions:
REMARK  status: ('A' for Active; 'I' for Inactive)
REMARK    1  A    between atoms: C1_2  and  C2_3 
REMARK    2  A    between atoms: C1_2  and  C5_7 
REMARK    3  A    between atoms: C2_3  and  C3_4 
REMARK    4  A    between atoms: C5_7  and  C6_8 
REMARK    5  A    between atoms: C7_10  and  O1_11 
REMARK    6  A    between atoms: C13_19  and  N3_20 
ROOT
HETATM    1  C5  UNL     1      -0.439  -0.528   0.723  1.00  0.00     0.112 C 
HETATM    2  C9  UNL     1      -1.307  -0.776   1.901  1.00  0.00     0.016 C 
HETATM    3  C10 UNL     1      -2.517  -1.112   1.516  1.00  0.00    -0.009 C 
HETATM    4  C11 UNL     1      -2.647  -1.938   0.499  1.00  0.00     0.023 C 
HETATM    5 BR2  UNL     1      -4.398  -2.340  -0.118  1.00  0.00    -0.050 Br
HETATM    6  C12 UNL     1      -1.429  -2.512  -0.112  1.00  0.00     0.046 C 
HETATM    7  C13 UNL     1      -0.292  -1.805  -0.007  1.00  0.00     0.029 C 
ENDROOT
BRANCH   1   8
HETATM    8  C1  UNL     1       0.877   0.054   1.096  1.00  0.00     0.032 C 
HETATM    9  N1  UNL     1       1.115   0.179   2.350  1.00  0.00    -0.307 NA
HETATM   10  H1  UNL     1       1.966   0.558   2.762  1.00  0.00     0.186 HD
BRANCH   8  11
HETATM   11  C2  UNL     1       1.734   0.409  -0.070  1.00  0.00     0.083 C 
BRANCH  11  12
HETATM   12  C3  UNL     1       3.048   0.992   0.376  1.00  0.00    -0.013 C 
HETATM   13  C4  UNL     1       4.281   0.541   0.138  1.00  0.00     0.052 C 
HETATM   14 BR1  UNL     1       5.839   1.421   0.791  1.00  0.00    -0.064 Br
ENDBRANCH  11  12
ENDBRANCH   8  11
ENDBRANCH   1   8
BRANCH   1  15
HETATM   15  C6  UNL     1      -1.131   0.517  -0.095  1.00  0.00     0.102 A 
HETATM   16  N2  UNL     1      -1.295   1.729   0.007  1.00  0.00    -0.220 NA
HETATM   17  C7  UNL     1      -1.971   2.430  -0.889  1.00  0.00     0.169 A 
HETATM   18  C8  UNL     1      -2.529   1.755  -2.013  1.00  0.00     0.109 A 
HETATM   19  S1  UNL     1      -1.984   0.009  -1.651  1.00  0.00    -0.080 SA
BRANCH  17  20
HETATM   20  O1  UNL     1      -2.048   3.807  -0.593  1.00  0.00    -0.344 OA
HETATM   21  H6  UNL     1      -2.781   4.198  -0.024  1.00  0.00     0.219 HD
ENDBRANCH  17  20
ENDBRANCH   1  15
BRANCH   7  22
HETATM   22  N3  UNL     1       0.790  -2.506  -0.654  1.00  0.00    -0.401 N 
HETATM   23  H10 UNL     1       1.191  -3.010   0.189  1.00  0.00     0.156 HD
HETATM   24  H11 UNL     1       1.095  -2.516  -1.664  1.00  0.00     0.156 HD
ENDBRANCH   7  22
TORSDOF 6
