REMARK  7 active torsions:
REMARK  status: ('A' for Active; 'I' for Inactive)
REMARK    1  A    between atoms: C2_2  and  C3_3 
REMARK    2  A    between atoms: C4_4  and  C5_5 
REMARK    3  A    between atoms: C4_4  and  C7_7 
REMARK    4  A    between atoms: N2_9  and  C8_10 
REMARK    5  A    between atoms: C9_12  and  O1_13 
REMARK    6  A    between atoms: C10_14  and  S1_15 
REMARK    7  A    between atoms: C11_16  and  C12_17 
ROOT
HETATM    1  C7  UNL     1       1.514  -0.035   0.822  1.00  0.00     0.067 C 
HETATM    2  N1  UNL     1       0.727  -0.282   1.846  1.00  0.00    -0.173 NA
HETATM    3  N2  UNL     1      -0.606  -0.069   1.480  1.00  0.00    -0.230 N 
HETATM    4  C11 UNL     1      -0.492  -0.846   0.274  1.00  0.00     0.151 C 
HETATM    5  C18 UNL     1       0.584   0.119  -0.363  1.00  0.00     0.094 C 
ENDROOT
BRANCH   3   6
HETATM    6  C8  UNL     1      -1.768   0.610   1.938  1.00  0.00     0.301 A 
HETATM    7  N3  UNL     1      -2.807   1.222   2.356  1.00  0.00     0.097 N 
HETATM    8  C9  UNL     1      -3.565   1.811   1.459  1.00  0.00     0.354 A 
HETATM    9  C10 UNL     1      -4.032   1.945   2.866  1.00  0.00     0.372 A 
HETATM   10  S1  UNL     1      -2.643   0.974   3.552  1.00  0.00     0.106 SA
BRANCH   8  11
HETATM   11  O1  UNL     1      -4.538   2.526   0.697  1.00  0.00    -0.357 OA
HETATM   12  H8  UNL     1      -4.197   3.067  -0.131  1.00  0.00     0.213 HD
ENDBRANCH   8  11
ENDBRANCH   3   6
BRANCH   4  13
HETATM   13  C12 UNL     1      -1.663  -1.024  -0.576  1.00  0.00    -0.033 A 
HETATM   14  C13 UNL     1      -1.981  -2.357  -0.810  1.00  0.00     0.011 A 
HETATM   15  C14 UNL     1      -3.056  -2.753  -1.636  1.00  0.00     0.019 A 
HETATM   16  C15 UNL     1      -3.779  -1.734  -2.190  1.00  0.00     0.011 A 
HETATM   17 BR1  UNL     1      -5.218  -2.288  -3.329  1.00  0.00    -0.051 Br
HETATM   18  C16 UNL     1      -3.449  -0.429  -1.952  1.00  0.00     0.019 A 
HETATM   19  C17 UNL     1      -2.397  -0.010  -1.151  1.00  0.00     0.011 A 
ENDBRANCH   4  13
BRANCH   1  20
HETATM   20  C4  UNL     1       2.920  -0.038   0.546  1.00  0.00    -0.011 C 
HETATM   21  C3  UNL     1       4.092  -0.345   1.091  1.00  0.00     0.009 C 
BRANCH  21  22
HETATM   22  C2  UNL     1       5.127   0.103   0.185  1.00  0.00    -0.008 C 
HETATM   23  C1  UNL     1       6.376  -0.135   0.646  1.00  0.00     0.013 C 
ENDBRANCH  21  22
BRANCH  20  24
HETATM   24  C5  UNL     1       3.480   0.572  -0.662  1.00  0.00     0.003 C 
HETATM   25  C6  UNL     1       2.681   1.090  -1.600  1.00  0.00     0.012 C 
ENDBRANCH  20  24
ENDBRANCH   1  20
TORSDOF 7
