REMARK  4 active torsions:
REMARK  status: ('A' for Active; 'I' for Inactive)
REMARK    1  A    between atoms: C5_5  and  C6_6 
REMARK    2  A    between atoms: N2_8  and  C7_9 
REMARK    3  A    between atoms: C8_11  and  O2_12 
REMARK    4  A    between atoms: C10_15  and  C11_16 
ROOT
HETATM    1  C6  UNL     1       1.200   0.134  -0.239  1.00  0.00     0.067 C 
HETATM    2  N1  UNL     1       0.568   1.139   0.269  1.00  0.00    -0.177 NA
HETATM    3  N2  UNL     1      -0.815   0.947   0.102  1.00  0.00    -0.257 N 
HETATM    4  C10 UNL     1      -1.074  -0.163  -0.775  1.00  0.00     0.146 C 
HETATM    5  C17 UNL     1       0.258  -0.873  -0.822  1.00  0.00     0.093 C 
ENDROOT
BRANCH   1   6
HETATM    6  C5  UNL     1       2.673  -0.004  -0.246  1.00  0.00    -0.010 A 
HETATM    7  C4  UNL     1       3.381   1.041   0.347  1.00  0.00     0.014 A 
HETATM    8  C3  UNL     1       4.771   0.965   0.370  1.00  0.00     0.007 A 
HETATM    9  C2  UNL     1       5.415  -0.124  -0.183  1.00  0.00    -0.062 A 
HETATM   10  C1  UNL     1       6.892  -0.255  -0.185  1.00  0.00     0.048 C 
HETATM   11  C19 UNL     1       4.659  -1.132  -0.758  1.00  0.00     0.007 A 
HETATM   12  C18 UNL     1       3.275  -1.089  -0.799  1.00  0.00     0.014 A 
ENDBRANCH   1   6
BRANCH   3  13
HETATM   13  C7  UNL     1      -1.677   1.886   0.832  1.00  0.00     0.319 C 
HETATM   14  O1  UNL     1      -3.041   1.594   0.588  1.00  0.00    -0.293 OA
HETATM   15  C8  UNL     1      -3.860   2.684   0.680  1.00  0.00     0.187 C 
HETATM   16  C9  UNL     1      -3.360   3.905   0.412  1.00  0.00     0.113 C 
HETATM   17  S1  UNL     1      -1.632   3.529   0.003  1.00  0.00    -0.082 SA
BRANCH  15  18
HETATM   18  O2  UNL     1      -5.184   2.376   1.060  1.00  0.00    -0.341 OA
HETATM   19  H7  UNL     1      -5.845   3.078   1.359  1.00  0.00     0.220 HD
ENDBRANCH  15  18
ENDBRANCH   3  13
BRANCH   4  20
HETATM   20  C11 UNL     1      -2.183  -1.032  -0.350  1.00  0.00    -0.033 A 
HETATM   21  C12 UNL     1      -3.146  -1.475  -1.247  1.00  0.00     0.011 A 
HETATM   22  C13 UNL     1      -4.228  -2.291  -0.962  1.00  0.00     0.019 A 
HETATM   23  C14 UNL     1      -4.335  -2.691   0.371  1.00  0.00     0.011 A 
HETATM   24 BR1  UNL     1      -5.822  -3.818   0.787  1.00  0.00    -0.051 Br
HETATM   25  C15 UNL     1      -3.393  -2.273   1.313  1.00  0.00     0.019 A 
HETATM   26  C16 UNL     1      -2.346  -1.460   0.941  1.00  0.00     0.011 A 
ENDBRANCH   4  20
TORSDOF 4
