REMARK  1 active torsions:
REMARK  status: ('A' for Active; 'I' for Inactive)
REMARK    1  A    between atoms: C11_15  and  C12_16 
ROOT
HETATM    1  C1  UNL     1      -4.566  -2.305   1.066  1.00  0.00     0.044 C 
HETATM    2  C2  UNL     1      -3.640  -1.826   0.010  1.00  0.00    -0.070 C 
HETATM    3  C3  UNL     1      -2.493  -2.320  -0.535  1.00  0.00    -0.017 C 
HETATM    4  C4  UNL     1      -1.556  -1.863  -1.594  1.00  0.00     0.083 C 
HETATM    5  C5  UNL     1      -0.286  -1.297  -1.050  1.00  0.00     0.038 C 
HETATM    6  N1  UNL     1       0.090  -0.178  -1.566  1.00  0.00    -0.184 NA
HETATM    7  N2  UNL     1       0.671   0.615  -0.580  1.00  0.00    -0.286 N 
HETATM    8  C6  UNL     1       0.534   2.076  -0.702  1.00  0.00     0.223 C 
HETATM    9  S1  UNL     1      -0.924   2.425  -1.696  1.00  0.00    -0.118 SA
HETATM   10  C7  UNL     1      -2.421   1.988  -0.868  1.00  0.00     0.071 C 
HETATM   11  C8  UNL     1      -3.623   1.750  -0.260  1.00  0.00     0.007 C 
HETATM   12  C9  UNL     1      -4.287   3.012  -0.620  1.00  0.00     0.068 C 
HETATM   13  N3  UNL     1      -3.877   0.510   0.468  1.00  0.00    -0.389 N 
HETATM   14  C10 UNL     1      -3.911  -0.502  -0.587  1.00  0.00     0.153 C 
HETATM   15  C11 UNL     1       1.308  -0.333   0.354  1.00  0.00     0.143 C 
HETATM   16  C19 UNL     1       0.738  -1.640  -0.036  1.00  0.00     0.088 C 
HETATM   17  H13 UNL     1      -3.856   1.215   1.226  1.00  0.00     0.159 HD
ENDROOT
BRANCH  15  18
HETATM   18  C12 UNL     1       2.776  -0.212   0.287  1.00  0.00    -0.033 A 
HETATM   19  C13 UNL     1       3.302   1.053   0.469  1.00  0.00     0.010 A 
HETATM   20  C14 UNL     1       4.671   1.290   0.403  1.00  0.00     0.007 A 
HETATM   21  C15 UNL     1       5.571   0.278   0.151  1.00  0.00    -0.062 A 
HETATM   22  C16 UNL     1       7.037   0.462   0.061  1.00  0.00     0.048 C 
HETATM   23  C17 UNL     1       5.075  -0.997  -0.034  1.00  0.00     0.007 A 
HETATM   24  C18 UNL     1       3.716  -1.183   0.041  1.00  0.00     0.010 A 
ENDBRANCH  15  18
TORSDOF 1
