REMARK  5 active torsions:
REMARK  status: ('A' for Active; 'I' for Inactive)
REMARK    1  A    between atoms: C5_5  and  C6_6 
REMARK    2  A    between atoms: C6_6  and  C7_7 
REMARK    3  A    between atoms: C7_7  and  C8_8 
REMARK    4  A    between atoms: N2_16  and  S1_17 
REMARK    5  A    between atoms: C16_19  and  N3_20 
ROOT
HETATM    1  C1  UNL     1      -1.693   0.851   2.431  1.00  0.00     0.048 C 
HETATM    2  C2  UNL     1      -2.248  -0.465   2.958  1.00  0.00    -0.066 C 
HETATM    3  C3  UNL     1      -1.247  -1.125   2.389  1.00  0.00    -0.013 C 
HETATM    4  C4  UNL     1      -0.023  -0.778   1.541  1.00  0.00     0.098 C 
HETATM    5  C5  UNL     1      -0.355  -0.711   0.103  1.00  0.00     0.091 C 
HETATM    6  N1  UNL     1      -1.386  -0.680  -0.545  1.00  0.00    -0.322 NA
HETATM    7  N2  UNL     1      -2.264  -0.636  -1.484  1.00  0.00    -0.174 N 
HETATM    8  C15 UNL     1      -3.537  -0.735  -0.745  1.00  0.00     0.193 C 
HETATM    9  C16 UNL     1      -4.786  -0.916  -0.060  1.00  0.00     0.155 C 
HETATM   10  O1  UNL     1      -5.132   0.230   0.709  1.00  0.00    -0.331 OA
HETATM   11  C17 UNL     1      -4.006   0.860   1.415  1.00  0.00     0.205 C 
HETATM   12  C18 UNL     1      -4.326   1.028   2.878  1.00  0.00     0.000 C 
HETATM   13  C19 UNL     1      -3.280   0.234   3.444  1.00  0.00     0.004 C 
ENDROOT
BRANCH   5  14
HETATM   14  C6  UNL     1       0.963  -0.543  -0.620  1.00  0.00     0.075 C 
BRANCH  14  15
HETATM   15  C7  UNL     1       1.798   0.537  -0.091  1.00  0.00     0.045 C 
BRANCH  15  16
HETATM   16  C8  UNL     1       3.125   0.593  -0.805  1.00  0.00    -0.058 A 
HETATM   17  C9  UNL     1       3.347   1.414  -1.944  1.00  0.00     0.007 A 
HETATM   18  C10 UNL     1       4.627   1.385  -2.426  1.00  0.00     0.007 A 
HETATM   19  C11 UNL     1       5.651   0.652  -1.905  1.00  0.00    -0.062 A 
HETATM   20  C12 UNL     1       7.030   0.707  -2.477  1.00  0.00     0.048 C 
HETATM   21  C13 UNL     1       5.383  -0.096  -0.837  1.00  0.00     0.007 A 
HETATM   22  C14 UNL     1       4.129  -0.189  -0.213  1.00  0.00     0.007 A 
ENDBRANCH  15  16
ENDBRANCH  14  15
ENDBRANCH   5  14
BRANCH   7  23
HETATM   23  S1  UNL     1      -2.473  -0.369  -3.219  1.00  0.00    -0.030 SA
HETATM   24  H18 UNL     1      -3.842  -0.490  -3.559  1.00  0.00     0.129 HD
ENDBRANCH   7  23
BRANCH   9  25
HETATM   25  N3  UNL     1      -5.458  -2.143  -0.248  1.00  0.00    -0.379 N 
HETATM   26  H20 UNL     1      -5.148  -2.788   0.548  1.00  0.00     0.158 HD
HETATM   27  H21 UNL     1      -5.949  -3.017  -0.400  1.00  0.00     0.158 HD
ENDBRANCH   9  25
TORSDOF 5
