REMARK  2 active torsions:
REMARK  status: ('A' for Active; 'I' for Inactive)
REMARK    1  A    between atoms: C3_4  and  C4_5 
REMARK    2  A    between atoms: C18_19  and  N2_20 
ROOT
HETATM    1  C1  UNL     1      -1.608   2.749   0.901  1.00  0.00     0.041 C 
HETATM    2  C2  UNL     1      -0.839   1.691   0.702  1.00  0.00     0.041 C 
HETATM    3  N1  UNL     1       0.574   1.531   0.939  1.00  0.00    -0.257 NA
HETATM    4  C3  UNL     1       1.092   0.701   0.098  1.00  0.00     0.046 C 
HETATM    5  C11 UNL     1       0.003   0.212  -0.824  1.00  0.00     0.082 C 
HETATM    6  C12 UNL     1      -1.158   0.324   0.175  1.00  0.00     0.054 A 
HETATM    7  C13 UNL     1      -0.974  -0.729   1.221  1.00  0.00     0.050 A 
HETATM    8  C14 UNL     1      -2.183  -1.573   1.279  1.00  0.00    -0.019 A 
HETATM    9  C15 UNL     1      -3.349  -1.628   0.656  1.00  0.00    -0.064 A 
HETATM   10  C16 UNL     1      -4.430  -2.600   0.902  1.00  0.00     0.048 C 
HETATM   11  C17 UNL     1      -3.489  -0.586  -0.355  1.00  0.00     0.032 A 
HETATM   12  C18 UNL     1      -2.454   0.229  -0.487  1.00  0.00     0.020 A 
ENDROOT
BRANCH  12  13
HETATM   13  N2  UNL     1      -2.630   1.246  -1.496  1.00  0.00    -0.397 N 
HETATM   14  C19 UNL     1      -3.949   1.844  -1.691  1.00  0.00     0.146 C 
HETATM   15  H19 UNL     1      -1.942   1.680  -2.178  1.00  0.00     0.158 HD
ENDBRANCH  12  13
BRANCH   4  16
HETATM   16  C4  UNL     1       2.501   0.285   0.026  1.00  0.00    -0.011 A 
HETATM   17  C5  UNL     1       2.906  -0.624  -0.946  1.00  0.00     0.014 A 
HETATM   18  C6  UNL     1       4.229  -0.997  -0.993  1.00  0.00     0.007 A 
HETATM   19  C7  UNL     1       5.140  -0.464  -0.075  1.00  0.00    -0.062 A 
HETATM   20  C8  UNL     1       6.572  -0.878  -0.139  1.00  0.00     0.048 C 
HETATM   21  C9  UNL     1       4.727   0.425   0.870  1.00  0.00     0.007 A 
HETATM   22  C10 UNL     1       3.393   0.804   0.921  1.00  0.00     0.014 A 
ENDBRANCH   4  16
TORSDOF 2
