REMARK  4 active torsions:
REMARK  status: ('A' for Active; 'I' for Inactive)
REMARK    1  A    between atoms: C5_5  and  C6_6 
REMARK    2  A    between atoms: N2_8  and  S1_9 
REMARK    3  A    between atoms: C7_11  and  O1_12 
REMARK    4  A    between atoms: C9_15  and  C10_16 
ROOT
HETATM    1  C6  UNL     1       1.727   0.047  -0.132  1.00  0.00     0.068 C 
HETATM    2  N1  UNL     1       1.363   0.949   0.692  1.00  0.00    -0.168 NA
HETATM    3  N2  UNL     1      -0.003   0.968   0.958  1.00  0.00    -0.214 N 
HETATM    4  C9  UNL     1      -0.293  -0.444   0.789  1.00  0.00     0.158 C 
HETATM    5  C17 UNL     1       0.460  -0.679  -0.510  1.00  0.00     0.095 C 
ENDROOT
BRANCH   1   6
HETATM    6  C5  UNL     1       3.065  -0.283  -0.654  1.00  0.00    -0.010 A 
HETATM    7  C4  UNL     1       3.224  -1.319  -1.553  1.00  0.00     0.014 A 
HETATM    8  C3  UNL     1       4.525  -1.549  -1.984  1.00  0.00     0.007 A 
HETATM    9  C2  UNL     1       5.584  -0.778  -1.531  1.00  0.00    -0.062 A 
HETATM   10  C1  UNL     1       6.935  -1.092  -2.042  1.00  0.00     0.048 C 
HETATM   11  C19 UNL     1       5.380   0.249  -0.632  1.00  0.00     0.007 A 
HETATM   12  C18 UNL     1       4.104   0.499  -0.189  1.00  0.00     0.014 A 
ENDBRANCH   1   6
BRANCH   3  13
HETATM   13  S1  UNL     1      -0.998   2.210   1.348  1.00  0.00     0.086 SA
HETATM   14  N3  UNL     1      -2.456   2.924   0.723  1.00  0.00    -0.170 NA
HETATM   15  C7  UNL     1      -2.832   4.025   1.556  1.00  0.00     0.178 A 
HETATM   16  C8  UNL     1      -2.306   4.549   2.629  1.00  0.00     0.117 A 
HETATM   17  S2  UNL     1      -0.840   3.680   3.093  1.00  0.00    -0.031 SA
BRANCH  15  18
HETATM   18  O1  UNL     1      -4.010   4.462   0.900  1.00  0.00    -0.344 OA
HETATM   19  H6  UNL     1      -4.886   4.592   1.380  1.00  0.00     0.219 HD
ENDBRANCH  15  18
ENDBRANCH   3  13
BRANCH   4  20
HETATM   20  C10 UNL     1      -1.714  -0.767   0.671  1.00  0.00    -0.032 A 
HETATM   21  C11 UNL     1      -2.043  -1.656  -0.359  1.00  0.00     0.010 A 
HETATM   22  C12 UNL     1      -3.343  -2.043  -0.578  1.00  0.00     0.007 A 
HETATM   23  C13 UNL     1      -4.378  -1.587   0.189  1.00  0.00    -0.062 A 
HETATM   24  C14 UNL     1      -5.807  -1.929   0.051  1.00  0.00     0.048 C 
HETATM   25  C15 UNL     1      -4.071  -0.713   1.205  1.00  0.00     0.007 A 
HETATM   26  C16 UNL     1      -2.768  -0.322   1.428  1.00  0.00     0.010 A 
ENDBRANCH   4  20
TORSDOF 4
