REMARK  3 active torsions:
REMARK  status: ('A' for Active; 'I' for Inactive)
REMARK    1  A    between atoms: C5_5  and  C6_6 
REMARK    2  A    between atoms: C6_6  and  C7_7 
REMARK    3  A    between atoms: C16_20  and  S1_21 
ROOT
HETATM    1  C6  UNL     1       0.216  -0.228  -0.153  1.00  0.00     0.134 C 
HETATM    2  N1  UNL     1       0.912  -0.710  -1.356  1.00  0.00    -0.317 NA
HETATM    3  B1  UNL     1       2.338  -0.191  -1.254  1.00  0.00     0.406 B 
HETATM    4  O1  UNL     1       3.470  -1.161  -1.165  1.00  0.00    -0.398 OA
HETATM    5  C14 UNL     1       3.988  -1.592   0.045  1.00  0.00     0.236 C 
HETATM    6  N2  UNL     1       3.488  -2.294   0.993  1.00  0.00    -0.213 NA
HETATM    7  C15 UNL     1       2.151  -2.751   0.837  1.00  0.00     0.192 C 
HETATM    8  C16 UNL     1       2.159  -4.028   0.440  1.00  0.00     0.101 C 
HETATM    9  O2  UNL     1       0.896  -2.137   1.014  1.00  0.00    -0.241 OA
HETATM   10  N3  UNL     1       0.899  -0.752   1.020  1.00  0.00    -0.166 NA
HETATM   11  H13 UNL     1       0.895  -1.750  -1.373  1.00  0.00     0.108 HD
HETATM   12  H14 UNL     1       2.619   0.907  -1.641  1.00  0.00     0.029 HD
HETATM   13  H18 UNL     1       0.404  -0.434   1.884  1.00  0.00     0.157 HD
ENDROOT
BRANCH   1  14
HETATM   14  C5  UNL     1      -1.195  -0.691  -0.151  1.00  0.00    -0.015 A 
HETATM   15  C4  UNL     1      -1.866  -0.272   1.002  1.00  0.00     0.011 A 
HETATM   16  C3  UNL     1      -3.208  -0.618   1.176  1.00  0.00     0.007 A 
HETATM   17  C2  UNL     1      -3.874  -1.364   0.229  1.00  0.00    -0.062 A 
HETATM   18  C1  UNL     1      -5.274  -1.807   0.262  1.00  0.00     0.048 C 
HETATM   19  C18 UNL     1      -3.189  -1.768  -0.906  1.00  0.00     0.007 A 
HETATM   20  C17 UNL     1      -1.861  -1.432  -1.090  1.00  0.00     0.011 A 
ENDBRANCH   1  14
BRANCH   1  21
HETATM   21  C7  UNL     1       0.347   1.240  -0.163  1.00  0.00    -0.015 A 
HETATM   22  C8  UNL     1      -0.137   2.000  -1.211  1.00  0.00     0.011 A 
HETATM   23  C9  UNL     1      -0.005   3.378  -1.209  1.00  0.00     0.007 A 
HETATM   24  C10 UNL     1       0.618   4.028  -0.149  1.00  0.00    -0.062 A 
HETATM   25  C11 UNL     1       0.818   5.501  -0.035  1.00  0.00     0.048 C 
HETATM   26  C12 UNL     1       1.119   3.287   0.927  1.00  0.00     0.007 A 
HETATM   27  C13 UNL     1       0.969   1.915   0.889  1.00  0.00     0.011 A 
ENDBRANCH   1  21
BRANCH   8  28
HETATM   28  S1  UNL     1       3.729  -4.845   0.203  1.00  0.00    -0.150 SA
HETATM   29  H17 UNL     1       4.778  -3.941   0.091  1.00  0.00     0.106 HD
ENDBRANCH   8  28
TORSDOF 3
