REMARK  4 active torsions:
REMARK  status: ('A' for Active; 'I' for Inactive)
REMARK    1  A    between atoms: C5_5  and  C6_6 
REMARK    2  A    between atoms: N2_8  and  C7_9 
REMARK    3  A    between atoms: C13_15  and  C14_16 
REMARK    4  A    between atoms: C15_18  and  O1_19 
ROOT
HETATM    1  C7  UNL     1      -2.189   1.080   0.863  1.00  0.00     0.066 A 
HETATM    2  C8  UNL     1      -2.854   2.000   1.653  1.00  0.00     0.033 A 
HETATM    3  C9  UNL     1      -4.192   2.301   1.548  1.00  0.00     0.009 A 
HETATM    4  C10 UNL     1      -4.938   1.649   0.592  1.00  0.00    -0.061 A 
HETATM    5  C11 UNL     1      -6.388   1.921   0.419  1.00  0.00     0.048 C 
HETATM    6  C12 UNL     1      -4.294   0.732  -0.203  1.00  0.00     0.023 A 
HETATM    7  C13 UNL     1      -2.959   0.445  -0.084  1.00  0.00     0.029 A 
ENDROOT
BRANCH   1   8
HETATM    8  N2  UNL     1      -0.812   0.828   1.091  1.00  0.00    -0.268 N 
HETATM    9  N1  UNL     1       0.152  -0.103   0.789  1.00  0.00    -0.176 NA
HETATM   10  C6  UNL     1       1.344   0.328   0.701  1.00  0.00     0.066 C 
HETATM   11  C18 UNL     1       1.244   1.800   0.998  1.00  0.00     0.084 C 
HETATM   12  C17 UNL     1       0.006   1.731   1.916  1.00  0.00     0.157 C 
BRANCH  10  13
HETATM   13  C5  UNL     1       2.613  -0.319   0.407  1.00  0.00    -0.010 A 
HETATM   14  C4  UNL     1       3.807   0.369   0.355  1.00  0.00     0.014 A 
HETATM   15  C3  UNL     1       5.012  -0.237   0.083  1.00  0.00     0.007 A 
HETATM   16  C2  UNL     1       5.068  -1.595  -0.153  1.00  0.00    -0.062 A 
HETATM   17  C1  UNL     1       6.367  -2.251  -0.447  1.00  0.00     0.048 C 
HETATM   18  C20 UNL     1       3.906  -2.337  -0.114  1.00  0.00     0.007 A 
HETATM   19  C19 UNL     1       2.732  -1.669   0.164  1.00  0.00     0.014 A 
ENDBRANCH  10  13
ENDBRANCH   1   8
BRANCH   7  20
HETATM   20  C14 UNL     1      -2.233  -0.538  -0.967  1.00  0.00     0.113 A 
HETATM   21  N3  UNL     1      -1.242  -0.989  -1.203  1.00  0.00    -0.216 NA
HETATM   22  C15 UNL     1      -0.828  -1.876  -2.076  1.00  0.00     0.169 A 
HETATM   23  C16 UNL     1      -1.899  -2.372  -2.910  1.00  0.00     0.109 A 
HETATM   24  S1  UNL     1      -3.346  -1.392  -2.209  1.00  0.00    -0.077 SA
BRANCH  22  25
HETATM   25  O1  UNL     1       0.493  -2.288  -2.184  1.00  0.00    -0.344 OA
HETATM   26  H12 UNL     1       0.765  -3.270  -2.070  1.00  0.00     0.219 HD
ENDBRANCH  22  25
ENDBRANCH   7  20
TORSDOF 4
