REMARK  6 active torsions:
REMARK  status: ('A' for Active; 'I' for Inactive)
REMARK    1  A    between atoms: O1_2  and  C2_3 
REMARK    2  A    between atoms: C5_6  and  C6_7 
REMARK    3  A    between atoms: C8_9  and  C9_10 
REMARK    4  A    between atoms: N2_18  and  C16_19 
REMARK    5  A    between atoms: C18_22  and  O2_23 
REMARK    6  A    between atoms: C19_24  and  S1_25 
ROOT
HETATM    1  C6  UNL     1       0.750   0.821  -1.008  1.00  0.00     0.149 A 
HETATM    2  C7  UNL     1      -0.299  -0.215  -1.285  1.00  0.00     0.094 A 
HETATM    3  C8  UNL     1      -1.374   0.112  -0.343  1.00  0.00     0.067 A 
HETATM    4  N1  UNL     1      -1.057   1.079   0.419  1.00  0.00    -0.175 NA
HETATM    5  N2  UNL     1       0.247   1.544   0.120  1.00  0.00    -0.256 N 
ENDROOT
BRANCH   5   6
HETATM    6  C16 UNL     1       0.854   2.573   0.893  1.00  0.00     0.105 A 
HETATM    7  C17 UNL     1       1.939   2.646   1.647  1.00  0.00     0.120 A 
HETATM    8  N3  UNL     1       2.151   3.808   2.121  1.00  0.00    -0.219 NA
HETATM    9  C18 UNL     1       1.049   4.643   1.711  1.00  0.00     0.182 A 
HETATM   10  C19 UNL     1       0.242   3.904   0.957  1.00  0.00     0.081 A 
BRANCH   9  11
HETATM   11  O2  UNL     1       0.843   5.994   2.036  1.00  0.00    -0.344 OA
HETATM   12  H16 UNL     1       0.596   6.693   1.341  1.00  0.00     0.219 HD
ENDBRANCH   9  11
BRANCH  10  13
HETATM   13  S1  UNL     1      -1.258   4.496   0.215  1.00  0.00    -0.136 SA
HETATM   14  H17 UNL     1      -1.175   4.366  -1.199  1.00  0.00     0.107 HD
ENDBRANCH  10  13
ENDBRANCH   5   6
BRANCH   1  15
HETATM   15  C5  UNL     1       2.035   0.118  -0.760  1.00  0.00    -0.033 A 
HETATM   16  C4  UNL     1       2.153  -0.591   0.417  1.00  0.00     0.012 A 
HETATM   17  C3  UNL     1       3.321  -1.265   0.705  1.00  0.00     0.037 A 
HETATM   18  C2  UNL     1       4.389  -1.239  -0.183  1.00  0.00     0.068 A 
HETATM   19  C21 UNL     1       4.269  -0.531  -1.359  1.00  0.00     0.037 A 
HETATM   20  C20 UNL     1       3.103   0.148  -1.657  1.00  0.00     0.012 A 
BRANCH  18  21
HETATM   21  O1  UNL     1       5.616  -1.861  -0.036  1.00  0.00    -0.356 OA
HETATM   22  C1  UNL     1       5.927  -2.638   1.113  1.00  0.00     0.210 C 
ENDBRANCH  18  21
ENDBRANCH   1  15
BRANCH   3  23
HETATM   23  C9  UNL     1      -2.662  -0.582  -0.278  1.00  0.00    -0.010 A 
HETATM   24  C10 UNL     1      -3.630  -0.219   0.637  1.00  0.00     0.014 A 
HETATM   25  C11 UNL     1      -4.842  -0.887   0.685  1.00  0.00     0.007 A 
HETATM   26  C12 UNL     1      -5.117  -1.932  -0.179  1.00  0.00    -0.062 A 
HETATM   27  C13 UNL     1      -6.393  -2.662  -0.155  1.00  0.00     0.048 C 
HETATM   28  C14 UNL     1      -4.165  -2.315  -1.104  1.00  0.00     0.007 A 
HETATM   29  C15 UNL     1      -2.967  -1.628  -1.125  1.00  0.00     0.014 A 
ENDBRANCH   3  23
TORSDOF 6
