REMARK  3 active torsions:
REMARK  status: ('A' for Active; 'I' for Inactive)
REMARK    1  A    between atoms: C9_9  and  C10_10 
REMARK    2  A    between atoms: P1_19  and  C17_20 
REMARK    3  A    between atoms: C18_22  and  O1_23 
ROOT
HETATM    1  C1  UNL     1      -1.140  -2.455   3.069  1.00  0.00     0.049 C 
HETATM    2  C2  UNL     1      -0.970  -1.263   2.174  1.00  0.00    -0.051 C 
HETATM    3  C3  UNL     1      -0.746  -0.007   2.517  1.00  0.00    -0.022 C 
HETATM    4  C4  UNL     1       0.203   0.572   1.837  1.00  0.00     0.013 C 
HETATM    5  C5  UNL     1      -0.312   0.757   0.471  1.00  0.00     0.097 A 
HETATM    6  C6  UNL     1      -0.740  -0.553  -0.078  1.00  0.00    -0.058 C 
HETATM    7  C7  UNL     1      -0.810  -0.756  -1.532  1.00  0.00     0.045 C 
HETATM    8  C8  UNL     1      -1.072  -1.571   0.735  1.00  0.00     0.012 C 
HETATM    9  C9  UNL     1       0.646   1.447  -0.431  1.00  0.00     0.088 A 
HETATM   10  N1  UNL     1       0.417   2.531  -1.042  1.00  0.00    -0.177 NA
HETATM   11  N2  UNL     1      -0.843   3.063  -0.809  1.00  0.00    -0.280 N 
HETATM   12  P1  UNL     1      -1.661   2.018   0.387  1.00  0.00     0.086 P 
HETATM   13  H16 UNL     1      -1.296   3.913  -1.218  1.00  0.00     0.188 HD
ENDROOT
BRANCH   9  14
HETATM   14  C10 UNL     1       1.988   0.875  -0.676  1.00  0.00    -0.008 A 
HETATM   15  C11 UNL     1       2.393  -0.306  -0.089  1.00  0.00     0.014 A 
HETATM   16  C12 UNL     1       3.616  -0.916  -0.253  1.00  0.00     0.007 A 
HETATM   17  C13 UNL     1       4.528  -0.295  -1.078  1.00  0.00    -0.062 A 
HETATM   18  C14 UNL     1       5.865  -0.907  -1.292  1.00  0.00     0.048 C 
HETATM   19  C15 UNL     1       4.223   0.885  -1.711  1.00  0.00     0.007 A 
HETATM   20  C16 UNL     1       2.976   1.412  -1.482  1.00  0.00     0.014 A 
ENDBRANCH   9  14
BRANCH  12  21
HETATM   21  C17 UNL     1      -3.250   1.478   0.085  1.00  0.00     0.127 A 
HETATM   22  N3  UNL     1      -3.863   0.594  -0.645  1.00  0.00    -0.215 NA
HETATM   23  C18 UNL     1      -5.189   0.533  -0.542  1.00  0.00     0.169 A 
HETATM   24  C19 UNL     1      -6.056   1.368   0.320  1.00  0.00     0.109 A 
HETATM   25  S1  UNL     1      -4.617   2.383   1.070  1.00  0.00    -0.075 SA
BRANCH  23  26
HETATM   26  O1  UNL     1      -5.762  -0.459  -1.375  1.00  0.00    -0.344 OA
HETATM   27  H17 UNL     1      -6.701  -0.764  -1.271  1.00  0.00     0.219 HD
ENDBRANCH  23  26
ENDBRANCH  12  21
TORSDOF 3
