REMARK  5 active torsions:
REMARK  status: ('A' for Active; 'I' for Inactive)
REMARK    1  A    between atoms: C13_14  and  C14_15 
REMARK    2  A    between atoms: C14_15  and  S1_16 
REMARK    3  A    between atoms: S1_16  and  N1_17 
REMARK    4  A    between atoms: N2_20  and  C17_21 
REMARK    5  A    between atoms: C18_23  and  O2_24 
ROOT
HETATM    1  C1  UNL     1      -2.566   4.289   1.279  1.00  0.00     0.000 C 
HETATM    2  O1  UNL     1      -1.521   3.339   1.306  1.00  0.00     0.000 OA
HETATM    3  C2  UNL     1      -1.726   2.172   0.526  1.00  0.00    -0.035 A 
HETATM    4  C3  UNL     1      -0.631   1.955   1.290  1.00  0.00     0.054 A 
HETATM    5  C4  UNL     1       0.147   0.712   1.255  1.00  0.00    -0.022 C 
HETATM    6  C5  UNL     1       1.212   0.533   2.018  1.00  0.00    -0.005 C 
HETATM    7  C6  UNL     1       2.130  -0.673   2.118  1.00  0.00     0.112 C 
HETATM    8  C7  UNL     1       1.343  -1.915   2.340  1.00  0.00     0.058 C 
HETATM    9  C8  UNL     1       1.974  -2.439   1.113  1.00  0.00     0.112 C 
HETATM   10  C9  UNL     1       1.048  -2.972   0.076  1.00  0.00    -0.005 C 
HETATM   11  C10 UNL     1       0.040  -3.111  -0.816  1.00  0.00    -0.019 C 
HETATM   12  C11 UNL     1      -0.893  -1.907  -0.929  1.00  0.00     0.043 C 
HETATM   13  C12 UNL     1      -2.002  -1.664  -1.699  1.00  0.00    -0.001 C 
HETATM   14  C13 UNL     1      -2.843  -0.464  -1.739  1.00  0.00    -0.002 C 
HETATM   15  C15 UNL     1      -2.394   0.609  -0.822  1.00  0.00     0.064 C 
HETATM   16  C16 UNL     1      -2.804   1.871  -0.494  1.00  0.00    -0.012 C 
HETATM   17  N2  UNL     1       2.558  -1.143   0.837  1.00  0.00    -0.344 N 
ENDROOT
BRANCH  17  18
HETATM   18  C17 UNL     1       3.303  -0.269  -0.110  1.00  0.00     0.172 A 
HETATM   19  N3  UNL     1       4.436  -0.098  -0.239  1.00  0.00    -0.200 NA
HETATM   20  C18 UNL     1       5.048   0.693  -1.101  1.00  0.00     0.171 A 
HETATM   21  C19 UNL     1       4.199   1.404  -1.955  1.00  0.00     0.111 A 
HETATM   22  S2  UNL     1       2.497   0.799  -1.366  1.00  0.00    -0.060 SA
BRANCH  20  23
HETATM   23  O2  UNL     1       6.433   0.791  -1.133  1.00  0.00    -0.344 OA
HETATM   24  H18 UNL     1       7.023   0.908  -0.339  1.00  0.00     0.219 HD
ENDBRANCH  20  23
ENDBRANCH  17  18
BRANCH  14  25
HETATM   25  C14 UNL     1      -3.870  -0.620  -2.605  1.00  0.00    -0.053 C 
BRANCH  25  26
HETATM   26  S1  UNL     1      -5.394  -0.687  -3.194  1.00  0.00     0.047 SA
BRANCH  26  27
HETATM   27  N1  UNL     1      -6.502  -1.032  -2.093  1.00  0.00    -0.256 NA
HETATM   28  H15 UNL     1      -6.407  -1.848  -1.459  1.00  0.00     0.197 HD
ENDBRANCH  26  27
ENDBRANCH  25  26
ENDBRANCH  14  25
TORSDOF 5
