REMARK  4 active torsions:
REMARK  status: ('A' for Active; 'I' for Inactive)
REMARK    1  A    between atoms: O1_2  and  C2_3 
REMARK    2  A    between atoms: N2_16  and  C14_17 
REMARK    3  A    between atoms: C14_17  and  S1_18 
REMARK    4  A    between atoms: S1_18  and  C15_19 
ROOT
HETATM    1  C2  UNL     1      -1.889   1.735  -0.422  1.00  0.00     0.078 A 
HETATM    2  C3  UNL     1      -0.618   2.148  -0.006  1.00  0.00     0.038 A 
HETATM    3  C4  UNL     1       0.431   1.346  -0.402  1.00  0.00     0.012 A 
HETATM    4  C5  UNL     1       0.225   0.222  -1.157  1.00  0.00    -0.033 A 
HETATM    5  C6  UNL     1      -0.981  -0.226  -1.600  1.00  0.00     0.023 A 
HETATM    6  C7  UNL     1      -2.000   0.570  -1.193  1.00  0.00    -0.002 A 
HETATM    7  C8  UNL     1      -3.388   0.232  -1.339  1.00  0.00     0.015 C 
HETATM    8  C9  UNL     1      -3.420  -1.039  -0.893  1.00  0.00     0.007 C 
HETATM    9  C10 UNL     1      -2.623  -2.107  -0.368  1.00  0.00    -0.060 C 
HETATM   10  C11 UNL     1      -3.558  -3.261  -0.089  1.00  0.00     0.048 C 
HETATM   11  C12 UNL     1      -1.405  -2.465  -0.038  1.00  0.00     0.035 C 
HETATM   12  C13 UNL     1      -0.056  -1.871  -0.048  1.00  0.00     0.057 C 
HETATM   13  N1  UNL     1       0.798  -1.193   0.638  1.00  0.00    -0.180 NA
HETATM   14  N2  UNL     1       2.010  -0.982  -0.075  1.00  0.00    -0.286 N 
HETATM   15  C17 UNL     1       1.327  -0.725  -1.393  1.00  0.00     0.144 C 
HETATM   16  C18 UNL     1       0.671  -2.141  -1.362  1.00  0.00     0.093 C 
ENDROOT
BRANCH  14  17
HETATM   17  C14 UNL     1       3.311  -1.087   0.548  1.00  0.00     0.223 C 
BRANCH  17  18
HETATM   18  S1  UNL     1       3.608  -0.010   1.930  1.00  0.00    -0.116 SA
BRANCH  18  19
HETATM   19  C15 UNL     1       3.735   1.718   1.524  1.00  0.00     0.106 C 
HETATM   20  C16 UNL     1       5.032   2.062   1.597  1.00  0.00     0.196 A 
HETATM   21  N3  UNL     1       6.274   1.506   1.883  1.00  0.00    -0.235 N 
HETATM   22  O2  UNL     1       6.233   2.859   1.548  1.00  0.00    -0.215 OA
HETATM   23  H16 UNL     1       7.262   1.212   2.074  1.00  0.00     0.197 HD
ENDBRANCH  18  19
ENDBRANCH  17  18
ENDBRANCH  14  17
BRANCH   1  24
HETATM   24  O1  UNL     1      -2.933   2.538  -0.023  1.00  0.00    -0.355 OA
HETATM   25  C1  UNL     1      -2.794   3.700   0.748  1.00  0.00     0.210 C 
ENDBRANCH   1  24
TORSDOF 4
