REMARK  4 active torsions:
REMARK  status: ('A' for Active; 'I' for Inactive)
REMARK    1  A    between atoms: O1_2  and  C2_3 
REMARK    2  A    between atoms: C4_5  and  C5_6 
REMARK    3  A    between atoms: C5_6  and  C6_7 
REMARK    4  A    between atoms: N2_15  and  C13_16 
ROOT
HETATM    1  C2  UNL     1      -2.187  -1.929   0.344  1.00  0.00     0.082 C 
HETATM    2  C3  UNL     1      -1.099  -1.319  -0.035  1.00  0.00     0.036 C 
HETATM    3  C4  UNL     1      -1.128  -0.037  -0.363  1.00  0.00     0.038 C 
HETATM    4  N2  UNL     1      -2.354   0.462  -0.887  1.00  0.00    -0.302 N 
HETATM    5  C16 UNL     1      -3.531  -0.355  -0.742  1.00  0.00     0.102 C 
HETATM    6  C17 UNL     1      -3.495  -1.554  -0.135  1.00  0.00     0.055 C 
ENDROOT
BRANCH   3   7
HETATM    7  C5  UNL     1      -0.030   0.920  -0.244  1.00  0.00     0.117 C 
BRANCH   7   8
HETATM    8  C6  UNL     1       1.231   0.308   0.308  1.00  0.00     0.034 C 
HETATM    9  N1  UNL     1       1.627   0.845   1.410  1.00  0.00    -0.290 NA
HETATM   10  C7  UNL     1       2.782   0.499   2.189  1.00  0.00     0.177 C 
HETATM   11  C8  UNL     1       3.964   0.105   1.383  1.00  0.00     0.001 C 
HETATM   12  C9  UNL     1       4.188  -0.573   0.251  1.00  0.00    -0.064 C 
HETATM   13  C10 UNL     1       5.563  -0.804  -0.318  1.00  0.00     0.048 C 
HETATM   14  C11 UNL     1       3.065  -1.146  -0.522  1.00  0.00     0.008 C 
HETATM   15  C12 UNL     1       1.769  -0.789  -0.523  1.00  0.00     0.027 C 
ENDBRANCH   7   8
ENDBRANCH   3   7
BRANCH   4  16
HETATM   16  C13 UNL     1      -2.536   1.702  -1.550  1.00  0.00     0.203 A 
HETATM   17  N3  UNL     1      -2.628   2.321  -2.672  1.00  0.00    -0.102 NA
HETATM   18  O2  UNL     1      -2.821   3.650  -2.859  1.00  0.00    -0.223 OA
HETATM   19  C14 UNL     1      -2.953   4.568  -1.830  1.00  0.00     0.177 A 
HETATM   20  C15 UNL     1      -2.915   4.325  -0.531  1.00  0.00     0.080 A 
HETATM   21  S1  UNL     1      -2.669   2.636  -0.004  1.00  0.00    -0.059 SA
ENDBRANCH   4  16
BRANCH   1  22
HETATM   22  O1  UNL     1      -2.028  -2.965   1.236  1.00  0.00    -0.355 OA
HETATM   23  C1  UNL     1      -2.303  -4.307   0.970  1.00  0.00     0.210 C 
ENDBRANCH   1  22
TORSDOF 4
