REMARK  6 active torsions:
REMARK  status: ('A' for Active; 'I' for Inactive)
REMARK    1  A    between atoms: O1_2  and  C2_3 
REMARK    2  A    between atoms: C5_6  and  C6_7 
REMARK    3  A    between atoms: C8_9  and  S1_10 
REMARK    4  A    between atoms: S1_10  and  C9_11 
REMARK    5  A    between atoms: N2_19  and  C16_20 
REMARK    6  A    between atoms: C18_23  and  O2_24 
ROOT
HETATM    1  C6  UNL     1       0.983  -1.030  -0.218  1.00  0.00     0.152 C 
HETATM    2  C7  UNL     1       0.165  -1.640   0.933  1.00  0.00     0.101 C 
HETATM    3  C8  UNL     1      -1.074  -0.842   0.738  1.00  0.00     0.098 C 
HETATM    4  N1  UNL     1      -0.711   0.285   0.240  1.00  0.00    -0.167 NA
HETATM    5  N2  UNL     1       0.691   0.360   0.060  1.00  0.00    -0.236 N 
ENDROOT
BRANCH   1   6
HETATM    6  C5  UNL     1       2.390  -1.403  -0.142  1.00  0.00    -0.033 A 
HETATM    7  C4  UNL     1       3.236  -1.060   0.886  1.00  0.00     0.012 A 
HETATM    8  C3  UNL     1       4.569  -1.427   0.929  1.00  0.00     0.037 A 
HETATM    9  C2  UNL     1       5.020  -2.175  -0.141  1.00  0.00     0.068 A 
HETATM   10  C20 UNL     1       4.225  -2.554  -1.205  1.00  0.00     0.037 A 
HETATM   11  C19 UNL     1       2.909  -2.161  -1.194  1.00  0.00     0.012 A 
BRANCH   9  12
HETATM   12  O1  UNL     1       6.342  -2.598  -0.200  1.00  0.00    -0.356 OA
HETATM   13  C1  UNL     1       6.893  -3.362  -1.250  1.00  0.00     0.210 C 
ENDBRANCH   9  12
ENDBRANCH   1   6
BRANCH   5  14
HETATM   14  C16 UNL     1       1.387   1.595   0.171  1.00  0.00     0.193 A 
HETATM   15  N3  UNL     1       2.147   2.133   1.075  1.00  0.00    -0.214 NA
HETATM   16  C17 UNL     1       2.258   3.249   0.202  1.00  0.00     0.125 A 
HETATM   17  C18 UNL     1       2.938   4.346   0.422  1.00  0.00     0.170 C 
HETATM   18  S2  UNL     1       1.276   2.777  -1.190  1.00  0.00    -0.029 SA
BRANCH  17  19
HETATM   19  O2  UNL     1       3.044   5.433  -0.431  1.00  0.00    -0.370 OA
HETATM   20  H19 UNL     1       3.903   5.708  -0.885  1.00  0.00     0.216 HD
ENDBRANCH  17  19
ENDBRANCH   5  14
BRANCH   3  21
HETATM   21  S1  UNL     1      -2.802  -1.252   1.087  1.00  0.00    -0.078 SA
BRANCH  21  22
HETATM   22  C9  UNL     1      -3.897   0.085   0.653  1.00  0.00    -0.015 C 
HETATM   23  C10 UNL     1      -5.173  -0.194   0.894  1.00  0.00    -0.004 C 
HETATM   24  C11 UNL     1      -6.176   0.869   0.562  1.00  0.00     0.027 C 
HETATM   25  C12 UNL     1      -7.581   0.339   0.606  1.00  0.00     0.018 C 
HETATM   26  C13 UNL     1      -5.924   1.380  -0.834  1.00  0.00    -0.022 C 
HETATM   27  C14 UNL     1      -4.667   1.691  -1.073  1.00  0.00    -0.025 C 
HETATM   28  C15 UNL     1      -3.774   1.473   0.075  1.00  0.00     0.072 C 
ENDBRANCH  21  22
ENDBRANCH   3  21
TORSDOF 6
