REMARK  5 active torsions:
REMARK  status: ('A' for Active; 'I' for Inactive)
REMARK    1  A    between atoms: O1_2  and  C2_3 
REMARK    2  A    between atoms: C5_6  and  C6_7 
REMARK    3  A    between atoms: N2_9  and  C7_10 
REMARK    4  A    between atoms: C8_12  and  O2_13 
REMARK    5  A    between atoms: C10_16  and  P1_17 
ROOT
HETATM    1  C6  UNL     1       0.868  -0.609   0.515  1.00  0.00     0.071 A 
HETATM    2  N1  UNL     1       0.154  -1.676   0.642  1.00  0.00    -0.169 NA
HETATM    3  N2  UNL     1      -1.188  -1.326   0.823  1.00  0.00    -0.211 N 
HETATM    4  C10 UNL     1      -1.270   0.082   0.805  1.00  0.00     0.056 A 
HETATM    5  C16 UNL     1       0.018   0.638   0.554  1.00  0.00     0.122 A 
ENDROOT
BRANCH   1   6
HETATM    6  C5  UNL     1       2.285  -0.536   0.317  1.00  0.00    -0.009 A 
HETATM    7  C4  UNL     1       3.013  -1.700   0.241  1.00  0.00     0.016 A 
HETATM    8  C3  UNL     1       4.382  -1.719   0.062  1.00  0.00     0.037 A 
HETATM    9  C2  UNL     1       5.042  -0.488  -0.045  1.00  0.00     0.068 A 
HETATM   10  C18 UNL     1       4.347   0.697   0.026  1.00  0.00     0.037 A 
HETATM   11  C17 UNL     1       2.981   0.660   0.205  1.00  0.00     0.016 A 
BRANCH   9  12
HETATM   12  O1  UNL     1       6.416  -0.539  -0.223  1.00  0.00    -0.356 OA
HETATM   13  C1  UNL     1       7.132   0.675  -0.334  1.00  0.00     0.210 C 
ENDBRANCH   9  12
ENDBRANCH   1   6
BRANCH   3  14
HETATM   14  C7  UNL     1      -2.463  -1.994   1.007  1.00  0.00     0.196 A 
HETATM   15  N3  UNL     1      -3.119  -2.830   0.343  1.00  0.00    -0.198 NA
HETATM   16  C8  UNL     1      -4.273  -3.251   0.848  1.00  0.00     0.171 A 
HETATM   17  C9  UNL     1      -4.855  -2.785   2.183  1.00  0.00     0.111 A 
HETATM   18  S1  UNL     1      -3.437  -1.622   2.588  1.00  0.00    -0.058 SA
BRANCH  16  19
HETATM   19  O2  UNL     1      -4.769  -4.178  -0.123  1.00  0.00    -0.344 OA
HETATM   20  H6  UNL     1      -5.612  -3.908  -0.626  1.00  0.00     0.219 HD
ENDBRANCH  16  19
ENDBRANCH   3  14
BRANCH   4  21
HETATM   21  P1  UNL     1      -2.416   1.236   0.828  1.00  0.00    -0.021 P 
HETATM   22  C11 UNL     1      -3.594   0.791  -0.318  1.00  0.00     0.016 A 
HETATM   23  C12 UNL     1      -4.291   1.802  -1.109  1.00  0.00     0.001 A 
HETATM   24  C13 UNL     1      -3.986   3.053  -0.919  1.00  0.00     0.000 A 
HETATM   25  C14 UNL     1      -3.053   3.711  -0.047  1.00  0.00     0.001 A 
HETATM   26  C15 UNL     1      -2.255   3.027   0.816  1.00  0.00     0.016 A 
ENDBRANCH   4  21
TORSDOF 5
