REMARK  8 active torsions:
REMARK  status: ('A' for Active; 'I' for Inactive)
REMARK    1  A    between atoms: C2_2  and  C3_3 
REMARK    2  A    between atoms: C4_4  and  C5_5 
REMARK    3  A    between atoms: C6_6  and  C7_7 
REMARK    4  A    between atoms: C7_7  and  C8_8 
REMARK    5  A    between atoms: N1_11  and  C10_12 
REMARK    6  A    between atoms: C11_14  and  O1_15 
REMARK    7  A    between atoms: C13_19  and  C14_20 
REMARK    8  A    between atoms: C17_23  and  O2_24 
ROOT
HETATM    1  C8  UNL     1      -0.045  -0.594   0.682  1.00  0.00     0.076 C 
HETATM    2  C9  UNL     1       0.329  -0.102   2.042  1.00  0.00     0.036 C 
HETATM    3  S1  UNL     1      -0.216  -2.426   0.800  1.00  0.00    -0.009 SA
HETATM    4  N1  UNL     1      -1.744  -2.465  -0.080  1.00  0.00    -0.179 N 
HETATM    5  N3  UNL     1      -2.203  -1.188  -0.087  1.00  0.00    -0.161 NA
HETATM    6  C13 UNL     1      -1.432  -0.258   0.267  1.00  0.00     0.086 C 
ENDROOT
BRANCH   1   7
HETATM    7  C7  UNL     1       0.959  -0.284  -0.398  1.00  0.00     0.055 C 
BRANCH   7   8
HETATM    8  C6  UNL     1       2.288  -0.866  -0.146  1.00  0.00    -0.025 C 
HETATM    9  C5  UNL     1       3.361  -0.100  -0.039  1.00  0.00    -0.004 C 
BRANCH   9  10
HETATM   10  C4  UNL     1       3.658   1.305  -0.101  1.00  0.00    -0.000 C 
HETATM   11  C3  UNL     1       4.763   1.998   0.015  1.00  0.00    -0.001 C 
BRANCH  11  12
HETATM   12  C2  UNL     1       6.046   1.353   0.261  1.00  0.00    -0.010 C 
HETATM   13  C1  UNL     1       7.160   2.053   0.375  1.00  0.00     0.011 C 
ENDBRANCH  11  12
ENDBRANCH   9  10
ENDBRANCH   7   8
ENDBRANCH   1   7
BRANCH   6  14
HETATM   14  C14 UNL     1      -1.981   1.114   0.235  1.00  0.00    -0.008 A 
HETATM   15  C15 UNL     1      -1.217   2.179   0.587  1.00  0.00     0.016 A 
HETATM   16  C16 UNL     1      -1.660   3.485   0.585  1.00  0.00     0.037 A 
HETATM   17  C17 UNL     1      -2.978   3.751   0.199  1.00  0.00     0.065 A 
HETATM   18  C18 UNL     1      -3.792   2.706  -0.167  1.00  0.00     0.037 A 
HETATM   19  C19 UNL     1      -3.267   1.443  -0.135  1.00  0.00     0.016 A 
BRANCH  17  20
HETATM   20  O2  UNL     1      -3.491   5.045   0.174  1.00  0.00    -0.361 OA
HETATM   21  H17 UNL     1      -4.487   5.168   0.323  1.00  0.00     0.217 HD
ENDBRANCH  17  20
ENDBRANCH   6  14
BRANCH   4  22
HETATM   22  C10 UNL     1      -2.421  -3.578  -0.694  1.00  0.00     0.202 A 
HETATM   23  N2  UNL     1      -3.614  -3.666  -1.381  1.00  0.00    -0.198 NA
HETATM   24  C11 UNL     1      -3.861  -4.896  -1.784  1.00  0.00     0.171 A 
HETATM   25  C12 UNL     1      -2.952  -6.189  -1.554  1.00  0.00     0.111 A 
HETATM   26  S2  UNL     1      -1.625  -5.223  -0.602  1.00  0.00    -0.057 SA
BRANCH  24  27
HETATM   27  O1  UNL     1      -5.102  -4.799  -2.458  1.00  0.00    -0.344 OA
HETATM   28  H13 UNL     1      -5.984  -4.797  -1.960  1.00  0.00     0.219 HD
ENDBRANCH  24  27
ENDBRANCH   4  22
TORSDOF 8
