REMARK  6 active torsions:
REMARK  status: ('A' for Active; 'I' for Inactive)
REMARK    1  A    between atoms: O1_2  and  C2_3 
REMARK    2  A    between atoms: C4_5  and  C5_6 
REMARK    3  A    between atoms: C6_7  and  C7_8 
REMARK    4  A    between atoms: N2_10  and  C8_11 
REMARK    5  A    between atoms: C9_13  and  O2_14 
REMARK    6  A    between atoms: C11_17  and  C12_18 
ROOT
HETATM    1  C7  UNL     1       0.246   0.120  -0.617  1.00  0.00     0.110 C 
HETATM    2  N1  UNL     1      -0.428   0.724   0.335  1.00  0.00    -0.165 NA
HETATM    3  N2  UNL     1      -1.720   0.990  -0.121  1.00  0.00    -0.236 N 
HETATM    4  C11 UNL     1      -2.000  -0.029  -1.113  1.00  0.00     0.152 C 
HETATM    5  C18 UNL     1      -0.658  -0.038  -1.813  1.00  0.00     0.103 C 
ENDROOT
BRANCH   1   6
HETATM    6  C6  UNL     1       1.613  -0.286  -0.455  1.00  0.00    -0.045 C 
HETATM    7  C5  UNL     1       2.768  -0.615  -0.335  1.00  0.00    -0.069 C 
BRANCH   7   8
HETATM    8  C4  UNL     1       4.163  -1.004  -0.215  1.00  0.00     0.096 C 
HETATM    9  C2  UNL     1       5.148  -0.140  -0.403  1.00  0.00     0.050 C 
HETATM   10  C3  UNL     1       4.803   1.274  -0.750  1.00  0.00     0.077 C 
BRANCH   9  11
HETATM   11  O1  UNL     1       6.489  -0.390  -0.317  1.00  0.00    -0.360 OA
HETATM   12  C1  UNL     1       7.073  -0.655   0.943  1.00  0.00     0.209 C 
ENDBRANCH   9  11
ENDBRANCH   7   8
ENDBRANCH   1   6
BRANCH   3  13
HETATM   13  C8  UNL     1      -2.667   2.018   0.233  1.00  0.00     0.192 A 
HETATM   14  N3  UNL     1      -3.930   2.359  -0.153  1.00  0.00    -0.198 NA
HETATM   15  C9  UNL     1      -4.381   3.419   0.492  1.00  0.00     0.171 A 
HETATM   16  C10 UNL     1      -3.677   4.190   1.510  1.00  0.00     0.111 A 
HETATM   17  S1  UNL     1      -2.128   3.225   1.527  1.00  0.00    -0.058 SA
BRANCH  15  18
HETATM   18  O2  UNL     1      -5.681   3.621  -0.029  1.00  0.00    -0.344 OA
HETATM   19  H8  UNL     1      -6.515   3.336   0.429  1.00  0.00     0.219 HD
ENDBRANCH  15  18
ENDBRANCH   3  13
BRANCH   4  20
HETATM   20  C12 UNL     1      -2.305  -1.273  -0.398  1.00  0.00    -0.033 A 
HETATM   21  C13 UNL     1      -1.855  -2.553  -0.652  1.00  0.00     0.009 A 
HETATM   22  C14 UNL     1      -2.247  -3.621   0.131  1.00  0.00     0.001 A 
HETATM   23  C15 UNL     1      -3.104  -3.453   1.199  1.00  0.00     0.000 A 
HETATM   24  C16 UNL     1      -3.566  -2.170   1.467  1.00  0.00     0.001 A 
HETATM   25  C17 UNL     1      -3.172  -1.101   0.682  1.00  0.00     0.009 A 
ENDBRANCH   4  20
TORSDOF 6
