REMARK  3 active torsions:
REMARK  status: ('A' for Active; 'I' for Inactive)
REMARK    1  A    between atoms: O1_2  and  C2_3 
REMARK    2  A    between atoms: C5_6  and  C6_7 
REMARK    3  A    between atoms: C9_13  and  O2_14 
ROOT
HETATM    1  C6  UNL     1       1.182   0.160  -0.125  1.00  0.00     0.067 C 
HETATM    2  N1  UNL     1       0.530   1.233  -0.360  1.00  0.00    -0.180 NA
HETATM    3  N2  UNL     1      -0.839   0.988  -0.388  1.00  0.00    -0.287 N 
HETATM    4  C7  UNL     1      -2.178   1.588  -0.243  1.00  0.00     0.223 C 
HETATM    5  S1  UNL     1      -2.975   1.069   1.272  1.00  0.00    -0.116 SA
HETATM    6  C8  UNL     1      -4.742   1.388   1.157  1.00  0.00     0.102 C 
HETATM    7  C9  UNL     1      -5.761   0.795   0.501  1.00  0.00     0.142 C 
HETATM    8  N3  UNL     1      -5.728  -0.359  -0.368  1.00  0.00    -0.367 N 
HETATM    9  C10 UNL     1      -4.846  -1.541  -0.192  1.00  0.00     0.148 C 
HETATM   10  C11 UNL     1      -3.455  -1.147  -0.395  1.00  0.00    -0.009 C 
HETATM   11  C12 UNL     1      -2.207  -0.986  -0.056  1.00  0.00    -0.002 C 
HETATM   12  C13 UNL     1      -0.971  -0.463  -0.680  1.00  0.00     0.133 C 
HETATM   13  C14 UNL     1       0.252  -0.981   0.035  1.00  0.00     0.093 C 
HETATM   14  H10 UNL     1      -6.373  -0.364  -1.188  1.00  0.00     0.161 HD
ENDROOT
BRANCH   1  15
HETATM   15  C5  UNL     1       2.620  -0.042  -0.010  1.00  0.00    -0.010 A 
HETATM   16  C4  UNL     1       3.240  -1.244   0.248  1.00  0.00     0.016 A 
HETATM   17  C3  UNL     1       4.610  -1.373   0.347  1.00  0.00     0.037 A 
HETATM   18  C2  UNL     1       5.417  -0.255   0.183  1.00  0.00     0.068 A 
HETATM   19  C16 UNL     1       4.802   0.950  -0.075  1.00  0.00     0.037 A 
HETATM   20  C15 UNL     1       3.430   1.066  -0.171  1.00  0.00     0.016 A 
BRANCH  18  21
HETATM   21  O1  UNL     1       6.763  -0.524   0.306  1.00  0.00    -0.356 OA
HETATM   22  C1  UNL     1       7.800   0.410   0.185  1.00  0.00     0.210 C 
ENDBRANCH  18  21
ENDBRANCH   1  15
BRANCH   7  23
HETATM   23  O2  UNL     1      -7.068   1.313   0.629  1.00  0.00    -0.346 OA
HETATM   24  H9  UNL     1      -7.794   0.675   0.956  1.00  0.00     0.219 HD
ENDBRANCH   7  23
TORSDOF 3
