REMARK  1 active torsions:
REMARK  status: ('A' for Active; 'I' for Inactive)
REMARK    1  A    between atoms: O1_2  and  N1_3 
ROOT
HETATM    1  N1  UNL     1       0.099  -2.627  -0.902  1.00  0.00    -0.123 NA
HETATM    2  S1  UNL     1      -1.542  -3.016  -1.219  1.00  0.00    -0.022 SA
HETATM    3  C2  UNL     1      -2.599  -2.372   0.097  1.00  0.00     0.116 C 
HETATM    4  C3  UNL     1      -2.430  -1.248   0.780  1.00  0.00     0.157 C 
HETATM    5  N2  UNL     1      -3.507  -0.510   1.332  1.00  0.00    -0.227 NA
HETATM    6  C4  UNL     1      -3.738   0.748   1.076  1.00  0.00     0.085 C 
HETATM    7  C5  UNL     1      -2.789   1.631   1.199  1.00  0.00     0.022 C 
HETATM    8  C6  UNL     1      -1.292   1.534   1.108  1.00  0.00     0.083 C 
HETATM    9  C7  UNL     1      -0.686   2.836   0.972  1.00  0.00     0.012 C 
HETATM   10  C8  UNL     1       0.311   3.691   0.672  1.00  0.00     0.131 C 
HETATM   11  O2  UNL     1       1.677   3.695   0.188  1.00  0.00    -0.363 OA
HETATM   12  C9  UNL     1       1.637   3.631  -1.287  1.00  0.00     0.180 C 
HETATM   13  C10 UNL     1       1.486   2.158  -1.534  1.00  0.00     0.025 C 
HETATM   14  C11 UNL     1       1.461   1.126  -0.723  1.00  0.00     0.029 C 
HETATM   15  C12 UNL     1       1.506   0.292   0.509  1.00  0.00    -0.075 C 
HETATM   16  C13 UNL     1       1.828   0.466   1.981  1.00  0.00     0.044 C 
HETATM   17  C14 UNL     1       1.233  -1.006   0.378  1.00  0.00    -0.060 C 
HETATM   18  C15 UNL     1       1.216  -2.102   1.355  1.00  0.00     0.045 C 
HETATM   19  C16 UNL     1       0.554  -1.281  -0.970  1.00  0.00     0.133 C 
HETATM   20  C17 UNL     1      -0.530  -0.267  -1.148  1.00  0.00     0.083 C 
HETATM   21  C18 UNL     1      -0.934   0.453   0.132  1.00  0.00     0.028 C 
HETATM   22  N3  UNL     1      -1.129  -0.571   1.030  1.00  0.00    -0.237 NA
ENDROOT
BRANCH   1  23
HETATM   23  O1  UNL     1       0.911  -3.395  -1.662  1.00  0.00    -0.297 OA
HETATM   24  C1  UNL     1       0.213  -4.283  -2.469  1.00  0.00     0.231 C 
ENDBRANCH   1  23
TORSDOF 1
