REMARK  5 active torsions:
REMARK  status: ('A' for Active; 'I' for Inactive)
REMARK    1  A    between atoms: O1_2  and  C2_3 
REMARK    2  A    between atoms: C5_6  and  C6_7 
REMARK    3  A    between atoms: N2_9  and  C7_10 
REMARK    4  A    between atoms: C8_12  and  P1_13 
REMARK    5  A    between atoms: C10_16  and  C11_17 
ROOT
HETATM    1  C6  UNL     1       0.791  -0.150  -0.283  1.00  0.00     0.067 C 
HETATM    2  N1  UNL     1       0.119   0.847   0.126  1.00  0.00    -0.173 NA
HETATM    3  N2  UNL     1      -1.287   0.655   0.148  1.00  0.00    -0.236 N 
HETATM    4  C10 UNL     1      -1.258  -0.776   0.430  1.00  0.00     0.151 C 
HETATM    5  C17 UNL     1      -0.229  -1.233  -0.605  1.00  0.00     0.094 C 
ENDROOT
BRANCH   1   6
HETATM    6  C5  UNL     1       2.212  -0.410  -0.470  1.00  0.00    -0.010 A 
HETATM    7  C4  UNL     1       3.040   0.664  -0.120  1.00  0.00     0.016 A 
HETATM    8  C3  UNL     1       4.425   0.543  -0.226  1.00  0.00     0.037 A 
HETATM    9  C2  UNL     1       4.965  -0.656  -0.680  1.00  0.00     0.068 A 
HETATM   10  C19 UNL     1       4.091  -1.670  -1.006  1.00  0.00     0.037 A 
HETATM   11  C18 UNL     1       2.723  -1.582  -0.914  1.00  0.00     0.016 A 
BRANCH   9  12
HETATM   12  O1  UNL     1       6.330  -0.881  -0.820  1.00  0.00    -0.356 OA
HETATM   13  C1  UNL     1       7.192   0.203  -0.469  1.00  0.00     0.210 C 
ENDBRANCH   9  12
ENDBRANCH   1   6
BRANCH   3  14
HETATM   14  C7  UNL     1      -2.063   1.853  -0.109  1.00  0.00     0.190 A 
HETATM   15  N3  UNL     1      -2.158   2.740   0.753  1.00  0.00    -0.223 NA
HETATM   16  C8  UNL     1      -2.880   3.835   0.519  1.00  0.00     0.064 A 
HETATM   17  C9  UNL     1      -3.560   3.960  -0.798  1.00  0.00     0.085 A 
HETATM   18  S1  UNL     1      -2.997   2.328  -1.555  1.00  0.00    -0.060 SA
BRANCH  16  19
HETATM   19  P1  UNL     1      -3.068   5.221   1.738  1.00  0.00    -0.085 P 
HETATM   20  H6  UNL     1      -3.055   4.715   3.091  1.00  0.00     0.061 HD
HETATM   21  H7  UNL     1      -2.061   6.244   1.519  1.00  0.00     0.061 HD
ENDBRANCH  16  19
ENDBRANCH   3  14
BRANCH   4  22
HETATM   22  C11 UNL     1      -2.496  -1.488   0.449  1.00  0.00    -0.033 A 
HETATM   23  C12 UNL     1      -3.621  -1.021   1.090  1.00  0.00     0.012 A 
HETATM   24  C13 UNL     1      -4.790  -1.798   1.075  1.00  0.00     0.043 A 
HETATM   25  C14 UNL     1      -4.849  -3.027   0.432  1.00  0.00     0.116 A 
HETATM   26  F1  UNL     1      -5.951  -3.781   0.415  1.00  0.00    -0.206 F 
HETATM   27  C15 UNL     1      -3.689  -3.455  -0.201  1.00  0.00     0.043 A 
HETATM   28  C16 UNL     1      -2.537  -2.713  -0.197  1.00  0.00     0.012 A 
ENDBRANCH   4  22
TORSDOF 5
