REMARK  7 active torsions:
REMARK  status: ('A' for Active; 'I' for Inactive)
REMARK    1  A    between atoms: C2_2  and  C3_3 
REMARK    2  A    between atoms: C3_3  and  C7_8 
REMARK    3  A    between atoms: C4_4  and  C5_5 
REMARK    4  A    between atoms: C5_5  and  O1_6 
REMARK    5  A    between atoms: N2_10  and  C8_11 
REMARK    6  A    between atoms: C9_13  and  O2_14 
REMARK    7  A    between atoms: C11_17  and  C12_18 
ROOT
HETATM    1  C7  UNL     1       1.004  -0.322  -0.187  1.00  0.00     0.067 C 
HETATM    2  N1  UNL     1       0.355   0.790  -0.202  1.00  0.00    -0.173 NA
HETATM    3  N2  UNL     1      -1.016   0.552  -0.339  1.00  0.00    -0.236 N 
HETATM    4  C11 UNL     1      -1.189  -0.800  -0.728  1.00  0.00     0.151 C 
HETATM    5  C18 UNL     1       0.078  -1.473  -0.301  1.00  0.00     0.094 C 
ENDROOT
BRANCH   1   6
HETATM    6  C3  UNL     1       2.448  -0.440  -0.057  1.00  0.00    -0.015 C 
HETATM    7  C4  UNL     1       3.157   0.671   0.077  1.00  0.00     0.012 C 
BRANCH   6   8
HETATM    8  C2  UNL     1       3.172  -1.708  -0.054  1.00  0.00    -0.013 C 
HETATM    9  C1  UNL     1       2.546  -2.861  -0.189  1.00  0.00     0.032 C 
ENDBRANCH   6   8
BRANCH   7  10
HETATM   10  C5  UNL     1       4.592   0.986   0.241  1.00  0.00     0.195 C 
BRANCH  10  11
HETATM   11  O1  UNL     1       4.990   1.784  -0.824  1.00  0.00    -0.392 OA
HETATM   12  C6  UNL     1       6.333   2.105  -0.669  1.00  0.00     0.201 C 
ENDBRANCH  10  11
ENDBRANCH   7  10
ENDBRANCH   1   6
BRANCH   3  13
HETATM   13  C8  UNL     1      -1.900   1.651  -0.059  1.00  0.00     0.192 A 
HETATM   14  N3  UNL     1      -2.674   2.029   0.688  1.00  0.00    -0.198 NA
HETATM   15  C9  UNL     1      -3.372   3.139   0.739  1.00  0.00     0.171 A 
HETATM   16  C10 UNL     1      -3.147   4.009  -0.271  1.00  0.00     0.111 A 
HETATM   17  S1  UNL     1      -1.873   3.106  -1.276  1.00  0.00    -0.058 SA
BRANCH  15  18
HETATM   18  O2  UNL     1      -4.307   3.537   1.688  1.00  0.00    -0.344 OA
HETATM   19  H10 UNL     1      -4.376   4.427   2.113  1.00  0.00     0.219 HD
ENDBRANCH  15  18
ENDBRANCH   3  13
BRANCH   4  20
HETATM   20  C12 UNL     1      -2.431  -1.423  -0.231  1.00  0.00    -0.033 A 
HETATM   21  C13 UNL     1      -3.589  -0.819  -0.747  1.00  0.00     0.012 A 
HETATM   22  C14 UNL     1      -4.822  -1.265  -0.377  1.00  0.00     0.043 A 
HETATM   23  C15 UNL     1      -4.951  -2.317   0.510  1.00  0.00     0.116 A 
HETATM   24  F1  UNL     1      -6.165  -2.793   0.901  1.00  0.00    -0.206 F 
HETATM   25  C16 UNL     1      -3.852  -2.959   1.057  1.00  0.00     0.043 A 
HETATM   26  C17 UNL     1      -2.638  -2.459   0.644  1.00  0.00     0.012 A 
ENDBRANCH   4  20
TORSDOF 7
