REMARK  6 active torsions:
REMARK  status: ('A' for Active; 'I' for Inactive)
REMARK    1  A    between atoms: C4_4  and  C5_5 
REMARK    2  A    between atoms: C6_6  and  C7_7 
REMARK    3  A    between atoms: C9_9  and  C10_10 
REMARK    4  A    between atoms: C13_13  and  O1_14 
REMARK    5  A    between atoms: N2_19  and  C17_20 
REMARK    6  A    between atoms: C18_22  and  O2_23 
ROOT
HETATM    1  C1  UNL     1      -4.156  -6.967   1.455  1.00  0.00     0.017 C 
HETATM    2  C2  UNL     1      -3.688  -5.888   1.717  1.00  0.00    -0.089 C 
HETATM    3  C3  UNL     1      -3.132  -4.596   2.005  1.00  0.00     0.063 C 
HETATM    4  C4  UNL     1      -2.497  -3.903   1.070  1.00  0.00     0.009 C 
ENDROOT
BRANCH   4   5
HETATM    5  C5  UNL     1      -1.876  -2.580   1.195  1.00  0.00    -0.001 C 
HETATM    6  C6  UNL     1      -1.252  -1.934   0.221  1.00  0.00     0.001 C 
BRANCH   6   7
HETATM    7  C7  UNL     1      -0.674  -0.605   0.498  1.00  0.00     0.141 C 
HETATM    8  C8  UNL     1       0.752  -0.459  -0.034  1.00  0.00     0.093 C 
HETATM    9  C9  UNL     1       0.821   1.041  -0.136  1.00  0.00     0.067 C 
HETATM   10  N1  UNL     1      -0.402   1.510  -0.202  1.00  0.00    -0.173 NA
HETATM   11  N2  UNL     1      -1.314   0.472  -0.155  1.00  0.00    -0.237 N 
BRANCH   9  12
HETATM   12  C10 UNL     1       2.054   1.819  -0.156  1.00  0.00    -0.010 A 
HETATM   13  C11 UNL     1       3.299   1.218  -0.080  1.00  0.00     0.016 A 
HETATM   14  C12 UNL     1       4.440   2.003  -0.103  1.00  0.00     0.037 A 
HETATM   15  C13 UNL     1       4.409   3.367  -0.198  1.00  0.00     0.068 A 
HETATM   16  C15 UNL     1       3.150   3.926  -0.271  1.00  0.00     0.037 A 
HETATM   17  C16 UNL     1       2.013   3.180  -0.251  1.00  0.00     0.016 A 
BRANCH  15  18
HETATM   18  O1  UNL     1       5.528   4.170  -0.223  1.00  0.00    -0.356 OA
HETATM   19  C14 UNL     1       6.826   3.620  -0.150  1.00  0.00     0.210 C 
ENDBRANCH  15  18
ENDBRANCH   9  12
BRANCH  11  20
HETATM   20  C17 UNL     1      -2.690   0.504  -0.693  1.00  0.00     0.192 A 
HETATM   21  N3  UNL     1      -3.544  -0.264  -0.729  1.00  0.00    -0.198 NA
HETATM   22  C18 UNL     1      -4.745  -0.204  -1.211  1.00  0.00     0.171 A 
HETATM   23  C19 UNL     1      -5.015   1.083  -1.801  1.00  0.00     0.111 A 
HETATM   24  S1  UNL     1      -3.343   1.991  -1.505  1.00  0.00    -0.058 SA
BRANCH  22  25
HETATM   25  O2  UNL     1      -5.987  -0.727  -1.488  1.00  0.00    -0.344 OA
HETATM   26  H16 UNL     1      -6.142  -1.392  -2.220  1.00  0.00     0.219 HD
ENDBRANCH  22  25
ENDBRANCH  11  20
ENDBRANCH   6   7
ENDBRANCH   4   5
TORSDOF 6
