REMARK  0 active torsions:
REMARK  status: ('A' for Active; 'I' for Inactive)
ROOT
HETATM    1  F1  UNL     1       4.945   0.739  -2.909  1.00  0.00    -0.211 F 
HETATM    2  C1  UNL     1       3.942   0.571  -2.053  1.00  0.00     0.098 C 
HETATM    3  C2  UNL     1       3.518   1.572  -1.278  1.00  0.00     0.017 C 
HETATM    4  C3  UNL     1       2.580   1.993  -0.254  1.00  0.00     0.026 C 
HETATM    5  C4  UNL     1       1.583   1.672   0.542  1.00  0.00     0.031 C 
HETATM    6  C5  UNL     1       0.476   1.241   1.398  1.00  0.00     0.158 C 
HETATM    7  C6  UNL     1      -0.746   2.053   1.093  1.00  0.00     0.111 C 
HETATM    8  N1  UNL     1      -1.203   1.547   0.010  1.00  0.00    -0.300 NA
HETATM    9  C7  UNL     1      -2.387   2.015  -0.662  1.00  0.00     0.175 C 
HETATM   10  C8  UNL     1      -3.502   1.208  -0.079  1.00  0.00    -0.008 C 
HETATM   11  C9  UNL     1      -4.522   0.402   0.127  1.00  0.00    -0.006 C 
HETATM   12  C10 UNL     1      -5.461  -0.187   1.056  1.00  0.00     0.079 A 
HETATM   13  C11 UNL     1      -5.604  -0.957   2.199  1.00  0.00     0.004 A 
HETATM   14  C12 UNL     1      -4.399  -0.663   1.675  1.00  0.00     0.082 A 
HETATM   15  O1  UNL     1      -3.273  -1.181   2.352  1.00  0.00    -0.304 OA
HETATM   16  C13 UNL     1      -2.043  -0.935   1.701  1.00  0.00     0.280 C 
HETATM   17  N2  UNL     1      -0.966  -0.358   2.149  1.00  0.00    -0.158 NA
HETATM   18  N3  UNL     1       0.194  -0.179   1.385  1.00  0.00    -0.234 N 
HETATM   19  C14 UNL     1       0.756  -1.322   0.853  1.00  0.00     0.192 A 
HETATM   20  N4  UNL     1       1.237  -1.617  -0.413  1.00  0.00    -0.198 NA
HETATM   21  C15 UNL     1       1.713  -2.839  -0.476  1.00  0.00     0.174 A 
HETATM   22  C16 UNL     1       1.799  -3.846   0.512  1.00  0.00     0.111 A 
HETATM   23  S1  UNL     1       1.011  -2.860   1.940  1.00  0.00    -0.058 SA
HETATM   24  O2  UNL     1       2.146  -2.935  -1.810  1.00  0.00    -0.325 OA
HETATM   25  C17 UNL     1       3.090  -2.004  -2.295  1.00  0.00     0.172 C 
HETATM   26  C18 UNL     1       3.749  -0.849  -2.436  1.00  0.00     0.093 C 
ENDROOT
TORSDOF 0
