REMARK  8 active torsions:
REMARK  status: ('A' for Active; 'I' for Inactive)
REMARK    1  A    between atoms: C2_2  and  C3_3 
REMARK    2  A    between atoms: C4_4  and  C5_5 
REMARK    3  A    between atoms: C6_6  and  C7_7 
REMARK    4  A    between atoms: C11_16  and  C12_17 
REMARK    5  A    between atoms: C12_17  and  C13_18 
REMARK    6  A    between atoms: C14_19  and  C15_20 
REMARK    7  A    between atoms: C14_19  and  O2_22 
REMARK    8  A    between atoms: O2_22  and  C17_23 
ROOT
HETATM    1  C7  UNL     1       1.330  -0.410   0.169  1.00  0.00     0.197 C 
HETATM    2  O1  UNL     1       2.214  -1.245   0.866  1.00  0.00    -0.331 OA
HETATM    3  C8  UNL     1       2.344  -2.443   1.476  1.00  0.00     0.357 A 
HETATM    4  C9  UNL     1       3.218  -3.457   2.036  1.00  0.00     0.373 A 
HETATM    5  S1  UNL     1       1.652  -4.577   2.510  1.00  0.00     0.106 SA
HETATM    6  C10 UNL     1       0.385  -3.389   1.840  1.00  0.00     0.299 A 
HETATM    7  N1  UNL     1       1.648  -3.475   1.955  1.00  0.00     0.097 N 
HETATM    8  N2  UNL     1      -0.866  -2.717   1.433  1.00  0.00    -0.249 N 
HETATM    9  N3  UNL     1      -1.048  -1.630   0.562  1.00  0.00    -0.178 NA
HETATM   10  C11 UNL     1      -0.127  -0.695   0.307  1.00  0.00     0.068 C 
HETATM   11  H10 UNL     1      -1.191  -3.438   2.063  1.00  0.00     0.191 HD
ENDROOT
BRANCH  10  12
HETATM   12  C12 UNL     1      -0.879   0.589   0.056  1.00  0.00     0.089 C 
BRANCH  12  13
HETATM   13  C13 UNL     1      -2.335   0.426   0.170  1.00  0.00     0.016 C 
HETATM   14  C14 UNL     1      -3.277   0.633  -0.734  1.00  0.00     0.064 C 
BRANCH  14  15
HETATM   15  C15 UNL     1      -2.968   1.090  -2.083  1.00  0.00     0.026 C 
HETATM   16  C16 UNL     1      -3.916   1.296  -2.986  1.00  0.00     0.014 C 
ENDBRANCH  14  15
BRANCH  14  17
HETATM   17  O2  UNL     1      -4.583   0.410  -0.394  1.00  0.00    -0.352 OA
BRANCH  17  18
HETATM   18  C17 UNL     1      -5.149   0.796   0.840  1.00  0.00     0.171 C 
HETATM   19  C18 UNL     1      -6.595   0.356   0.808  1.00  0.00     0.034 C 
ENDBRANCH  17  18
ENDBRANCH  14  17
ENDBRANCH  12  13
ENDBRANCH  10  12
BRANCH   1  20
HETATM   20  C6  UNL     1       1.742  -0.283  -1.230  1.00  0.00     0.010 C 
HETATM   21  C5  UNL     1       2.869   0.251  -1.630  1.00  0.00    -0.005 C 
BRANCH  21  22
HETATM   22  C4  UNL     1       3.769   0.751  -0.568  1.00  0.00    -0.017 C 
HETATM   23  C3  UNL     1       4.817   1.296  -0.015  1.00  0.00     0.041 C 
BRANCH  23  24
HETATM   24  C2  UNL     1       6.069   1.895  -0.326  1.00  0.00    -0.027 C 
HETATM   25  C1  UNL     1       6.513   2.180   0.907  1.00  0.00     0.007 C 
ENDBRANCH  23  24
ENDBRANCH  21  22
ENDBRANCH   1  20
TORSDOF 8
