REMARK  6 active torsions:
REMARK  status: ('A' for Active; 'I' for Inactive)
REMARK    1  A    between atoms: O1_2  and  C2_3 
REMARK    2  A    between atoms: C2_3  and  C3_5 
REMARK    3  A    between atoms: C12_14  and  O3_15 
REMARK    4  A    between atoms: O3_15  and  C13_16 
REMARK    5  A    between atoms: C13_16  and  C14_17 
REMARK    6  A    between atoms: C19_22  and  O4_23 
ROOT
HETATM    1  C3  UNL     1       0.931   0.211  -0.019  1.00  0.00     0.082 A 
HETATM    2  C4  UNL     1       2.095  -0.326   0.460  1.00  0.00    -0.014 A 
HETATM    3  C5  UNL     1       2.123  -1.610   0.908  1.00  0.00    -0.009 A 
HETATM    4  C6  UNL     1       1.016  -2.466   0.930  1.00  0.00    -0.012 A 
HETATM    5  C7  UNL     1       0.990  -3.763   1.373  1.00  0.00     0.013 A 
HETATM    6  C8  UNL     1      -0.154  -4.530   1.353  1.00  0.00     0.001 A 
HETATM    7  C9  UNL     1      -1.329  -3.996   0.874  1.00  0.00     0.001 A 
HETATM    8  C10 UNL     1      -1.301  -2.695   0.429  1.00  0.00     0.015 A 
HETATM    9  C11 UNL     1      -0.168  -1.931   0.448  1.00  0.00     0.009 A 
HETATM   10  C12 UNL     1      -0.166  -0.621  -0.006  1.00  0.00     0.096 A 
HETATM   11  C20 UNL     1       3.552  -1.708   1.163  1.00  0.00    -0.029 C 
HETATM   12  C21 UNL     1       4.750  -2.123   1.568  1.00  0.00     0.064 C 
HETATM   13  C22 UNL     1       6.003  -1.387   1.290  1.00  0.00     0.183 C 
HETATM   14  O5  UNL     1       7.103  -1.822   1.702  1.00  0.00    -0.288 OA
HETATM   15  C23 UNL     1       5.759  -0.173   0.522  1.00  0.00     0.021 A 
HETATM   16  C24 UNL     1       6.964   0.352   0.063  1.00  0.00     0.016 A 
HETATM   17  C25 UNL     1       6.965   1.393  -0.870  1.00  0.00     0.001 A 
HETATM   18  C26 UNL     1       5.717   1.850  -1.293  1.00  0.00     0.001 A 
HETATM   19  C27 UNL     1       4.510   1.329  -0.834  1.00  0.00     0.009 A 
HETATM   20  C28 UNL     1       4.548   0.310   0.086  1.00  0.00    -0.031 A 
HETATM   21  C29 UNL     1       3.488  -0.281   0.862  1.00  0.00     0.088 C 
ENDROOT
BRANCH  10  22
HETATM   22  O3  UNL     1      -1.391  -0.120  -0.489  1.00  0.00    -0.349 OA
BRANCH  22  23
HETATM   23  C13 UNL     1      -2.225   0.506   0.468  1.00  0.00     0.182 C 
BRANCH  23  24
HETATM   24  C14 UNL     1      -3.519   1.018  -0.129  1.00  0.00     0.039 C 
HETATM   25  C15 UNL     1      -4.306   1.659   0.994  1.00  0.00     0.009 C 
HETATM   26  C16 UNL     1      -5.781   1.690   0.715  1.00  0.00     0.001 C 
HETATM   27  C17 UNL     1      -6.137   1.502  -0.738  1.00  0.00     0.002 C 
HETATM   28  C18 UNL     1      -5.569   0.230  -1.328  1.00  0.00     0.032 C 
HETATM   29  C19 UNL     1      -4.294  -0.187  -0.626  1.00  0.00     0.124 C 
BRANCH  29  30
HETATM   30  O4  UNL     1      -4.578  -0.949   0.506  1.00  0.00    -0.395 OA
HETATM   31  H20 UNL     1      -4.618  -1.912   0.289  1.00  0.00     0.210 HD
ENDBRANCH  29  30
ENDBRANCH  23  24
ENDBRANCH  22  23
ENDBRANCH  10  22
BRANCH   1  32
HETATM   32  C2  UNL     1       0.774   1.562  -0.525  1.00  0.00     0.296 C 
HETATM   33  O2  UNL     1       0.472   2.650   0.029  1.00  0.00    -0.259 OA
BRANCH  32  34
HETATM   34  O1  UNL     1       0.932   1.994  -1.828  1.00  0.00    -0.322 OA
HETATM   35  C1  UNL     1       0.728   3.384  -2.115  1.00  0.00     0.213 C 
ENDBRANCH  32  34
ENDBRANCH   1  32
TORSDOF 6
