REMARK  4 active torsions:
REMARK  status: ('A' for Active; 'I' for Inactive)
REMARK    1  A    between atoms: C4_5  and  C5_6 
REMARK    2  A    between atoms: C6_7  and  C7_8 
REMARK    3  A    between atoms: C7_8  and  O1_9 
REMARK    4  A    between atoms: O1_9  and  C8_10 
ROOT
HETATM    1  C8  UNL     1       2.233  -1.937  -0.422  1.00  0.00     0.168 C 
HETATM    2  C9  UNL     1       2.597  -0.206  -0.668  1.00  0.00     0.053 C 
HETATM    3  C10 UNL     1       3.399   0.082  -1.653  1.00  0.00     0.113 C 
HETATM    4  N1  UNL     1       3.247   1.520  -1.255  1.00  0.00    -0.362 N 
HETATM    5  C11 UNL     1       3.575   1.809   0.161  1.00  0.00     0.248 A 
HETATM    6  C12 UNL     1       4.074   2.996   0.847  1.00  0.00     0.382 A 
HETATM    7  S1  UNL     1       4.003   1.947   2.500  1.00  0.00     0.110 SA
HETATM    8  C13 UNL     1       3.377   0.402   1.815  1.00  0.00     0.278 A 
HETATM    9  N2  UNL     1       3.731   1.627   1.496  1.00  0.00     0.101 N 
HETATM   10  N3  UNL     1       2.916  -0.768   1.672  1.00  0.00    -0.361 NA
HETATM   11  C14 UNL     1       2.459  -1.847   1.240  1.00  0.00     0.292 C 
HETATM   12  H10 UNL     1       2.955   2.502  -1.627  1.00  0.00     0.161 HD
ENDROOT
BRANCH   1  13
HETATM   13  O1  UNL     1       0.963  -1.675  -0.418  1.00  0.00    -0.377 OA
BRANCH  13  14
HETATM   14  C7  UNL     1       0.351  -0.981  -1.439  1.00  0.00     0.196 C 
BRANCH  14  15
HETATM   15  C6  UNL     1      -1.057  -0.732  -0.943  1.00  0.00    -0.000 C 
HETATM   16  C5  UNL     1      -1.841  -0.955   0.108  1.00  0.00     0.009 C 
BRANCH  16  17
HETATM   17  C4  UNL     1      -3.223  -0.493   0.140  1.00  0.00    -0.036 A 
HETATM   18  C3  UNL     1      -3.809  -0.857   1.337  1.00  0.00     0.014 A 
HETATM   19  C2  UNL     1      -5.131  -0.434   1.499  1.00  0.00     0.043 A 
HETATM   20  C1  UNL     1      -5.762   0.306   0.476  1.00  0.00     0.116 A 
HETATM   21  F1  UNL     1      -7.058   0.653   0.743  1.00  0.00    -0.206 F 
HETATM   22  C16 UNL     1      -5.054   0.615  -0.707  1.00  0.00     0.043 A 
HETATM   23  C15 UNL     1      -3.759   0.206  -0.873  1.00  0.00     0.014 A 
ENDBRANCH  16  17
ENDBRANCH  14  15
ENDBRANCH  13  14
ENDBRANCH   1  13
TORSDOF 4
