REMARK  3 active torsions:
REMARK  status: ('A' for Active; 'I' for Inactive)
REMARK    1  A    between atoms: O1_2  and  C2_3 
REMARK    2  A    between atoms: C5_6  and  C6_7 
REMARK    3  A    between atoms: C9_13  and  O2_14 
ROOT
HETATM    1  C6  UNL     1      -0.153  -0.958  -0.034  1.00  0.00     0.042 C 
HETATM    2  N1  UNL     1      -0.226  -2.278   0.214  1.00  0.00    -0.180 NA
HETATM    3  C7  UNL     1      -0.942  -3.255   0.982  1.00  0.00     0.208 A 
HETATM    4  S1  UNL     1      -2.044  -2.526  -0.070  1.00  0.00     0.083 SA
HETATM    5  C8  UNL     1      -3.547  -3.249   0.239  1.00  0.00     0.370 A 
HETATM    6  N2  UNL     1      -3.179  -3.976   1.069  1.00  0.00    -0.210 NA
HETATM    7  C9  UNL     1      -1.883  -4.072   1.534  1.00  0.00     0.177 A 
HETATM    8  N3  UNL     1      -3.409  -2.059  -0.774  1.00  0.00     0.029 N 
HETATM    9  C10 UNL     1      -2.850  -0.916  -1.559  1.00  0.00     0.295 C 
HETATM   10  P1  UNL     1      -1.443  -0.070  -0.892  1.00  0.00    -0.029 P 
HETATM   11  C11 UNL     1      -2.039   1.159   0.025  1.00  0.00     0.015 C 
HETATM   12  C12 UNL     1      -2.095   2.549  -0.405  1.00  0.00     0.025 C 
HETATM   13  C13 UNL     1      -1.493   2.939  -1.508  1.00  0.00     0.034 C 
HETATM   14 CL1  UNL     1      -1.714   4.652  -1.775  1.00  0.00    -0.084 Cl
HETATM   15  C14 UNL     1      -0.789   2.109  -2.464  1.00  0.00     0.025 C 
HETATM   16  C15 UNL     1      -0.699   0.803  -2.296  1.00  0.00     0.015 C 
HETATM   17  H7  UNL     1      -4.472  -2.403  -0.848  1.00  0.00     0.299 HD
ENDROOT
BRANCH   1  18
HETATM   18  C5  UNL     1       1.110  -0.296   0.435  1.00  0.00    -0.013 A 
HETATM   19  C4  UNL     1       2.062  -1.107   0.982  1.00  0.00     0.016 A 
HETATM   20  C3  UNL     1       3.202  -0.542   1.449  1.00  0.00     0.037 A 
HETATM   21  C2  UNL     1       3.401   0.808   1.377  1.00  0.00     0.068 A 
HETATM   22  C17 UNL     1       2.432   1.598   0.824  1.00  0.00     0.037 A 
HETATM   23  C16 UNL     1       1.286   1.016   0.357  1.00  0.00     0.016 A 
BRANCH  21  24
HETATM   24  O1  UNL     1       4.593   1.302   1.877  1.00  0.00    -0.356 OA
HETATM   25  C1  UNL     1       4.814   2.703   1.809  1.00  0.00     0.210 C 
ENDBRANCH  21  24
ENDBRANCH   1  18
BRANCH   7  26
HETATM   26  O2  UNL     1      -0.781  -4.494   2.270  1.00  0.00    -0.346 OA
HETATM   27  H6  UNL     1      -0.874  -4.742   3.250  1.00  0.00     0.219 HD
ENDBRANCH   7  26
TORSDOF 3
