REMARK  8 active torsions:
REMARK  status: ('A' for Active; 'I' for Inactive)
REMARK    1  A    between atoms: C2_2  and  C3_3 
REMARK    2  A    between atoms: C3_3  and  C4_4 
REMARK    3  A    between atoms: C4_4  and  C5_5 
REMARK    4  A    between atoms: C6_6  and  O1_7 
REMARK    5  A    between atoms: C7_8  and  C8_9 
REMARK    6  A    between atoms: C8_9  and  O3_11 
REMARK    7  A    between atoms: C15_20  and  C16_21 
REMARK    8  A    between atoms: C16_21  and  C17_22 
ROOT
HETATM    1  C5  UNL     1       2.014   0.463   0.856  1.00  0.00     0.001 A 
HETATM    2  C6  UNL     1       2.419  -0.679   0.074  1.00  0.00     0.089 A 
HETATM    3  C7  UNL     1       1.354  -1.460   0.144  1.00  0.00     0.065 A 
HETATM    4  C10 UNL     1       0.248  -0.903   0.935  1.00  0.00     0.037 A 
HETATM    5  C11 UNL     1       0.670   0.301   1.372  1.00  0.00    -0.052 A 
HETATM    6  C12 UNL     1      -0.213   1.258   2.150  1.00  0.00     0.040 C 
HETATM    7  O4  UNL     1      -1.220   1.538   1.308  1.00  0.00     0.000 OA
HETATM    8  C13 UNL     1      -2.213   1.865   0.574  1.00  0.00     0.121 A 
HETATM    9  O5  UNL     1      -2.238   2.432   1.680  1.00  0.00    -0.194 OA
HETATM   10  C14 UNL     1      -2.409   1.288  -0.852  1.00  0.00     0.105 C 
HETATM   11  C15 UNL     1      -2.778  -0.152  -0.508  1.00  0.00    -0.066 C 
HETATM   12  C19 UNL     1      -2.160  -1.208   0.339  1.00  0.00     0.010 A 
HETATM   13  O6  UNL     1      -1.217  -0.480   0.379  1.00  0.00     0.000 OA
HETATM   14  C20 UNL     1      -0.997  -1.670   1.122  1.00  0.00     0.037 A 
ENDROOT
BRANCH   1  15
HETATM   15  C4  UNL     1       2.706   1.543   1.087  1.00  0.00     0.014 C 
BRANCH  15  16
HETATM   16  C3  UNL     1       3.999   1.878   0.631  1.00  0.00    -0.003 C 
BRANCH  16  17
HETATM   17  C2  UNL     1       5.041   2.645   0.544  1.00  0.00    -0.031 C 
HETATM   18  C1  UNL     1       4.768   3.866   1.368  1.00  0.00     0.036 C 
ENDBRANCH  16  17
ENDBRANCH  15  16
ENDBRANCH   1  15
BRANCH   2  19
HETATM   19  O1  UNL     1       3.638  -0.928  -0.602  1.00  0.00    -0.359 OA
HETATM   20  H7  UNL     1       3.579  -0.747  -1.602  1.00  0.00     0.217 HD
ENDBRANCH   2  19
BRANCH   3  21
HETATM   21  C8  UNL     1       1.441  -2.758  -0.575  1.00  0.00     0.292 C 
HETATM   22  O2  UNL     1       0.487  -3.598  -0.588  1.00  0.00    -0.259 OA
BRANCH  21  23
HETATM   23  O3  UNL     1       2.530  -3.195  -1.286  1.00  0.00    -0.323 OA
HETATM   24  C9  UNL     1       2.630  -4.405  -1.969  1.00  0.00     0.213 C 
ENDBRANCH  21  23
ENDBRANCH   3  21
BRANCH  11  25
HETATM   25  C16 UNL     1      -3.979  -0.374  -1.039  1.00  0.00    -0.023 C 
BRANCH  25  26
HETATM   26  C17 UNL     1      -5.276  -0.695  -1.583  1.00  0.00     0.023 C 
HETATM   27  C18 UNL     1      -6.353   0.269  -1.039  1.00  0.00     0.009 C 
ENDBRANCH  25  26
ENDBRANCH  11  25
TORSDOF 8
