REMARK  5 active torsions:
REMARK  status: ('A' for Active; 'I' for Inactive)
REMARK    1  A    between atoms: O1_2  and  C2_3 
REMARK    2  A    between atoms: C5_6  and  C6_7 
REMARK    3  A    between atoms: N2_9  and  C7_10 
REMARK    4  A    between atoms: C8_12  and  O2_13 
REMARK    5  A    between atoms: O2_13  and  C9_14 
ROOT
HETATM    1  C6  UNL     1       2.245   0.415  -0.278  1.00  0.00     0.066 C 
HETATM    2  N1  UNL     1       1.201  -0.319  -0.475  1.00  0.00    -0.174 NA
HETATM    3  N2  UNL     1       0.045   0.431  -0.514  1.00  0.00    -0.246 N 
HETATM    4  C16 UNL     1       0.462   1.774  -0.814  1.00  0.00     0.159 C 
HETATM    5  C17 UNL     1       1.829   1.838  -0.159  1.00  0.00     0.084 C 
ENDROOT
BRANCH   3   6
HETATM    6  C7  UNL     1      -1.321   0.101  -0.323  1.00  0.00     0.191 A 
HETATM    7  N3  UNL     1      -2.362   0.690  -0.342  1.00  0.00    -0.198 NA
HETATM    8  C8  UNL     1      -3.542   0.092  -0.116  1.00  0.00     0.178 A 
HETATM    9  C15 UNL     1      -3.530  -1.358   0.165  1.00  0.00     0.111 A 
HETATM   10  S1  UNL     1      -1.692  -1.682   0.058  1.00  0.00    -0.058 SA
BRANCH   8  11
HETATM   11  O2  UNL     1      -4.680   0.885  -0.165  1.00  0.00    -0.291 OA
BRANCH  11  12
HETATM   12  C9  UNL     1      -5.913   0.295   0.064  1.00  0.00     0.078 A 
HETATM   13  C10 UNL     1      -6.354   0.268   1.391  1.00  0.00     0.040 A 
HETATM   14  C11 UNL     1      -7.594  -0.323   1.639  1.00  0.00     0.045 A 
HETATM   15  C12 UNL     1      -8.370  -0.864   0.636  1.00  0.00     0.116 A 
HETATM   16  F1  UNL     1      -9.550  -1.409   0.990  1.00  0.00    -0.206 F 
HETATM   17  C13 UNL     1      -7.884  -0.809  -0.655  1.00  0.00     0.045 A 
HETATM   18  C14 UNL     1      -6.666  -0.241  -0.982  1.00  0.00     0.040 A 
ENDBRANCH  11  12
ENDBRANCH   8  11
ENDBRANCH   3   6
BRANCH   1  19
HETATM   19  C5  UNL     1       3.615  -0.079  -0.186  1.00  0.00    -0.010 A 
HETATM   20  C4  UNL     1       3.893  -1.416  -0.310  1.00  0.00     0.016 A 
HETATM   21  C3  UNL     1       5.185  -1.924  -0.229  1.00  0.00     0.037 A 
HETATM   22  C2  UNL     1       6.231  -1.022  -0.012  1.00  0.00     0.068 A 
HETATM   23  C19 UNL     1       5.952   0.323   0.113  1.00  0.00     0.037 A 
HETATM   24  C18 UNL     1       4.659   0.797   0.027  1.00  0.00     0.016 A 
BRANCH  22  25
HETATM   25  O1  UNL     1       7.477  -1.628   0.053  1.00  0.00    -0.356 OA
HETATM   26  C1  UNL     1       8.605  -0.806   0.270  1.00  0.00     0.210 C 
ENDBRANCH  22  25
ENDBRANCH   1  19
TORSDOF 5
