REMARK  4 active torsions:
REMARK  status: ('A' for Active; 'I' for Inactive)
REMARK    1  A    between atoms: O1_1  and  C1_2 
REMARK    2  A    between atoms: C3_5  and  B1_6 
REMARK    3  A    between atoms: B1_6  and  N1_7 
REMARK    4  A    between atoms: N1_7  and  C4_8 
ROOT
HETATM    1  C4  UNL     1       0.554   0.796   1.096  1.00  0.00     0.068 C 
HETATM    2  C5  UNL     1       0.166  -0.595   1.338  1.00  0.00     0.016 C 
HETATM    3  C6  UNL     1      -1.095  -0.761   0.902  1.00  0.00     0.074 C 
HETATM    4  C7  UNL     1      -2.059  -1.852   0.839  1.00  0.00     0.029 A 
HETATM    5 CL1  UNL     1      -2.871  -3.392   0.964  1.00  0.00    -0.209 Cl
HETATM    6  C8  UNL     1      -3.221  -1.465   0.275  1.00  0.00     0.089 A 
HETATM    7  C9  UNL     1      -2.660  -0.182   0.140  1.00  0.00     0.042 C 
HETATM    8  C10 UNL     1      -3.155   0.992  -0.412  1.00  0.00     0.002 C 
HETATM    9  C11 UNL     1      -4.511   1.104  -1.035  1.00  0.00     0.176 C 
HETATM   10  O2  UNL     1      -4.272   1.499  -2.442  1.00  0.00    -0.351 OA
HETATM   11  C12 UNL     1      -2.889   1.282  -2.792  1.00  0.00     0.068 C 
HETATM   12  C13 UNL     1      -2.903  -0.014  -3.182  1.00  0.00     0.038 C 
HETATM   13  C14 UNL     1      -1.942  -1.139  -3.041  1.00  0.00     0.022 C 
HETATM   14  C15 UNL     1      -0.740  -1.256  -2.437  1.00  0.00     0.117 C 
HETATM   15  N2  UNL     1       0.178  -0.412  -1.735  1.00  0.00    -0.266 NA
HETATM   16  C16 UNL     1       0.209   0.825  -1.409  1.00  0.00     0.035 C 
HETATM   17  C17 UNL     1      -0.526   1.950  -2.060  1.00  0.00     0.030 C 
HETATM   18  C18 UNL     1      -1.659   2.130  -2.785  1.00  0.00     0.039 C 
HETATM   19  C19 UNL     1       1.077   1.103  -0.271  1.00  0.00     0.079 C 
ENDROOT
BRANCH   1  20
HETATM   20  N1  UNL     1       1.569   1.204   2.090  1.00  0.00    -0.301 NA
BRANCH  20  21
HETATM   21  B1  UNL     1       3.046   0.056   2.004  1.00  0.00     0.333 B 
BRANCH  21  22
HETATM   22  C3  UNL     1       4.591  -0.344   2.621  1.00  0.00     0.046 A 
HETATM   23  S1  UNL     1       4.764  -2.228   2.806  1.00  0.00    -0.094 SA
HETATM   24  C2  UNL     1       6.530  -2.152   3.480  1.00  0.00     0.108 A 
HETATM   25  C1  UNL     1       6.647  -0.644   3.431  1.00  0.00     0.168 A 
HETATM   26  N3  UNL     1       5.703   0.181   3.015  1.00  0.00    -0.233 NA
BRANCH  25  27
HETATM   27  O1  UNL     1       7.788   0.084   3.825  1.00  0.00    -0.344 OA
HETATM   28  H1  UNL     1       8.569  -0.418   4.244  1.00  0.00     0.219 HD
ENDBRANCH  25  27
ENDBRANCH  21  22
ENDBRANCH  20  21
ENDBRANCH   1  20
TORSDOF 4
