REMARK  1 active torsions:
REMARK  status: ('A' for Active; 'I' for Inactive)
REMARK    1  A    between atoms: O1_2  and  B1_3 
ROOT
HETATM    1  B1  UNL     1       2.808  -0.194   0.440  1.00  0.00     0.383 B 
HETATM    2  C2  UNL     1       1.841  -1.018   1.394  1.00  0.00    -0.023 C 
HETATM    3  C3  UNL     1       0.968  -1.883   0.865  1.00  0.00     0.072 C 
HETATM    4  N1  UNL     1      -0.078  -2.847   1.030  1.00  0.00    -0.374 N 
HETATM    5  C4  UNL     1      -1.226  -1.996   1.068  1.00  0.00     0.145 A 
HETATM    6  C5  UNL     1      -1.916  -1.690   2.152  1.00  0.00     0.081 A 
HETATM    7  S1  UNL     1      -0.900  -0.216   2.145  1.00  0.00    -0.043 SA
HETATM    8  N2  UNL     1      -1.397   0.691   0.709  1.00  0.00    -0.229 N 
HETATM    9  N3  UNL     1      -0.937   1.953   0.709  1.00  0.00    -0.170 NA
HETATM   10  C6  UNL     1       0.197   2.502   0.669  1.00  0.00     0.050 C 
HETATM   11  C7  UNL     1      -0.305   3.923   0.715  1.00  0.00     0.072 C 
HETATM   12  C8  UNL     1       1.655   2.337   0.594  1.00  0.00     0.016 C 
HETATM   13  C9  UNL     1       2.541   1.365   0.514  1.00  0.00    -0.038 C 
HETATM   14  C10 UNL     1      -2.194  -0.149  -0.105  1.00  0.00     0.106 A 
HETATM   15  C11 UNL     1      -3.590  -0.347   0.467  1.00  0.00     0.051 C 
HETATM   16  C12 UNL     1      -2.387   0.227  -1.516  1.00  0.00     0.053 A 
HETATM   17  C13 UNL     1      -1.958  -0.733  -2.358  1.00  0.00     0.115 A 
HETATM   18  F1  UNL     1      -1.902  -0.903  -3.714  1.00  0.00    -0.206 F 
HETATM   19  C14 UNL     1      -1.397  -1.845  -1.557  1.00  0.00     0.051 A 
HETATM   20  C15 UNL     1      -1.522  -1.490  -0.293  1.00  0.00     0.001 A 
HETATM   21  H6  UNL     1       0.183  -3.877   1.085  1.00  0.00     0.161 HD
ENDROOT
BRANCH   1  22
HETATM   22  O1  UNL     1       3.103  -0.734  -0.899  1.00  0.00    -0.448 OA
HETATM   23  C1  UNL     1       4.474  -0.818  -1.109  1.00  0.00     0.174 C 
ENDBRANCH   1  22
TORSDOF 1
