REMARK  2 active torsions:
REMARK  status: ('A' for Active; 'I' for Inactive)
REMARK    1  A    between atoms: C10_15  and  O2_16 
REMARK    2  A    between atoms: C11_17  and  C12_18 
ROOT
HETATM    1  C1  UNL     1      -4.463  -2.437   0.221  1.00  0.00     0.048 C 
HETATM    2  C2  UNL     1      -3.671  -1.435  -0.501  1.00  0.00    -0.029 C 
HETATM    3  C3  UNL     1      -2.706  -0.868  -1.114  1.00  0.00     0.005 C 
HETATM    4  C4  UNL     1      -1.683  -0.160  -1.810  1.00  0.00     0.012 C 
HETATM    5  C5  UNL     1      -0.445  -0.281  -2.151  1.00  0.00     0.283 A 
HETATM    6  C6  UNL     1       0.721  -1.102  -2.097  1.00  0.00     0.254 A 
HETATM    7  N1  UNL     1       1.059   0.066  -1.553  1.00  0.00     0.046 N 
HETATM    8  N2  UNL     1       0.770   0.023  -0.200  1.00  0.00    -0.172 N 
HETATM    9  C7  UNL     1      -0.252   0.492   0.665  1.00  0.00     0.197 A 
HETATM   10  N3  UNL     1      -1.481   0.272   0.862  1.00  0.00    -0.198 NA
HETATM   11  C8  UNL     1      -2.312   0.803   1.649  1.00  0.00     0.176 A 
HETATM   12  C9  UNL     1      -1.760   1.817   2.447  1.00  0.00     0.111 A 
HETATM   13  S1  UNL     1       0.061   1.784   1.812  1.00  0.00    -0.058 SA
HETATM   14  O1  UNL     1      -3.432   0.063   1.301  1.00  0.00    -0.298 OA
HETATM   15  C10 UNL     1      -4.052  -0.026   0.010  1.00  0.00     0.295 C 
HETATM   16  C11 UNL     1       2.017  -0.667  -0.209  1.00  0.00     0.180 C 
HETATM   17  C18 UNL     1       2.129  -1.203  -1.627  1.00  0.00     0.315 A 
ENDROOT
BRANCH  16  18
HETATM   18  C12 UNL     1       3.133   0.266   0.107  1.00  0.00    -0.032 A 
HETATM   19  C13 UNL     1       4.123  -0.144   1.012  1.00  0.00     0.011 A 
HETATM   20  C14 UNL     1       5.175   0.688   1.336  1.00  0.00     0.024 A 
HETATM   21  C15 UNL     1       5.251   1.937   0.762  1.00  0.00     0.034 A 
HETATM   22 CL1  UNL     1       6.563   3.029   1.132  1.00  0.00    -0.084 Cl
HETATM   23  C16 UNL     1       4.266   2.303  -0.116  1.00  0.00     0.024 A 
HETATM   24  C17 UNL     1       3.186   1.508  -0.479  1.00  0.00     0.011 A 
ENDBRANCH  16  18
BRANCH  15  25
HETATM   25  O2  UNL     1      -5.422  -0.025   0.226  1.00  0.00    -0.367 OA
HETATM   26  H9  UNL     1      -5.626   0.656   0.923  1.00  0.00     0.213 HD
ENDBRANCH  15  25
TORSDOF 2
