REMARK  3 active torsions:
REMARK  status: ('A' for Active; 'I' for Inactive)
REMARK    1  A    between atoms: O1_2  and  C2_3 
REMARK    2  A    between atoms: C5_6  and  C6_7 
REMARK    3  A    between atoms: C10_15  and  C11_16 
ROOT
HETATM    1  C6  UNL     1      -0.204  -0.766  -0.096  1.00  0.00     0.066 C 
HETATM    2  N1  UNL     1      -0.337  -1.501  -1.249  1.00  0.00    -0.177 NA
HETATM    3  N2  UNL     1       0.474  -2.723  -1.308  1.00  0.00    -0.260 N 
HETATM    4  C7  UNL     1       1.668  -3.184  -0.605  1.00  0.00     0.151 A 
HETATM    5  C8  UNL     1       2.632  -4.186  -0.389  1.00  0.00     0.103 A 
HETATM    6  S1  UNL     1       3.592  -3.255   0.987  1.00  0.00    -0.082 SA
HETATM    7  C9  UNL     1       2.636  -1.843   1.023  1.00  0.00     0.086 A 
HETATM    8  N3  UNL     1       1.757  -2.143   0.095  1.00  0.00    -0.226 NA
HETATM    9  C10 UNL     1       2.019  -0.627   1.228  1.00  0.00     0.084 C 
HETATM   10  C17 UNL     1       0.600  -0.258   1.073  1.00  0.00     0.078 C 
HETATM   11  H6  UNL     1       0.391  -3.607  -1.880  1.00  0.00     0.191 HD
ENDROOT
BRANCH   1  12
HETATM   12  C5  UNL     1      -1.559  -0.169   0.076  1.00  0.00    -0.010 A 
HETATM   13  C4  UNL     1      -1.939   0.637   1.117  1.00  0.00     0.016 A 
HETATM   14  C3  UNL     1      -3.183   1.196   1.272  1.00  0.00     0.037 A 
HETATM   15  C2  UNL     1      -4.148   0.950   0.331  1.00  0.00     0.068 A 
HETATM   16  C19 UNL     1      -3.846   0.154  -0.736  1.00  0.00     0.037 A 
HETATM   17  C18 UNL     1      -2.580  -0.367  -0.820  1.00  0.00     0.016 A 
BRANCH  15  18
HETATM   18  O1  UNL     1      -5.404   1.501   0.469  1.00  0.00    -0.356 OA
HETATM   19  C1  UNL     1      -6.388   1.250  -0.490  1.00  0.00     0.210 C 
ENDBRANCH  15  18
ENDBRANCH   1  12
BRANCH   9  20
HETATM   20  C11 UNL     1       2.814   0.474   0.545  1.00  0.00    -0.047 A 
HETATM   21  C12 UNL     1       3.848   1.185   1.157  1.00  0.00     0.009 A 
HETATM   22  C13 UNL     1       4.527   2.162   0.495  1.00  0.00     0.024 A 
HETATM   23  C14 UNL     1       4.220   2.486  -0.806  1.00  0.00     0.034 A 
HETATM   24 CL1  UNL     1       5.137   3.752  -1.590  1.00  0.00    -0.084 Cl
HETATM   25  C15 UNL     1       3.208   1.810  -1.450  1.00  0.00     0.024 A 
HETATM   26  C16 UNL     1       2.538   0.828  -0.757  1.00  0.00     0.009 A 
ENDBRANCH   9  20
TORSDOF 3
