REMARK  6 active torsions:
REMARK  status: ('A' for Active; 'I' for Inactive)
REMARK    1  A    between atoms: O1_2  and  C2_3 
REMARK    2  A    between atoms: C8_9  and  C9_10 
REMARK    3  A    between atoms: C9_10  and  N1_11 
REMARK    4  A    between atoms: N1_11  and  C10_12 
REMARK    5  A    between atoms: C10_12  and  C11_13 
REMARK    6  A    between atoms: C11_13  and  S1_14 
ROOT
HETATM    1  C2  UNL     1       2.912  -1.021  -0.162  1.00  0.00     0.069 A 
HETATM    2  C3  UNL     1       3.509   0.202  -0.002  1.00  0.00     0.037 A 
HETATM    3  C4  UNL     1       2.649   1.263   0.194  1.00  0.00     0.017 A 
HETATM    4  C5  UNL     1       1.293   1.046   0.219  1.00  0.00    -0.001 A 
HETATM    5  C6  UNL     1       0.677  -0.166   0.063  1.00  0.00    -0.010 A 
HETATM    6  C7  UNL     1       1.560  -1.193  -0.130  1.00  0.00     0.050 A 
HETATM    7  C8  UNL     1      -0.757  -0.376   0.106  1.00  0.00    -0.013 C 
HETATM    8  C12 UNL     1      -1.812   0.388  -0.006  1.00  0.00     0.013 C 
HETATM    9  C13 UNL     1      -2.411   1.682  -0.202  1.00  0.00    -0.001 C 
HETATM   10  C14 UNL     1      -1.999   2.922  -0.389  1.00  0.00     0.001 C 
HETATM   11  C15 UNL     1      -0.615   3.456  -0.469  1.00  0.00     0.136 C 
HETATM   12  C16 UNL     1      -0.056   3.468   0.941  1.00  0.00     0.091 C 
HETATM   13  C17 UNL     1       0.578   2.284   0.416  1.00  0.00     0.043 C 
HETATM   14  N2  UNL     1       0.306   2.434  -0.852  1.00  0.00    -0.284 NA
ENDROOT
BRANCH   7  15
HETATM   15  C9  UNL     1      -1.105  -1.792   0.368  1.00  0.00     0.227 C 
BRANCH  15  16
HETATM   16  N1  UNL     1      -1.660  -2.933   0.578  1.00  0.00    -0.292 NA
BRANCH  16  17
HETATM   17  C10 UNL     1      -3.103  -2.924   0.576  1.00  0.00     0.060 C 
BRANCH  17  18
HETATM   18  C11 UNL     1      -4.407  -2.828   0.371  1.00  0.00     0.052 C 
BRANCH  18  19
HETATM   19  S1  UNL     1      -6.004  -3.138   1.108  1.00  0.00    -0.154 SA
HETATM   20  H10 UNL     1      -6.518  -1.952   1.670  1.00  0.00     0.106 HD
ENDBRANCH  18  19
ENDBRANCH  17  18
ENDBRANCH  16  17
ENDBRANCH  15  16
ENDBRANCH   7  15
BRANCH   1  21
HETATM   21  O1  UNL     1       3.717  -2.120  -0.362  1.00  0.00    -0.356 OA
HETATM   22  C1  UNL     1       5.119  -2.011  -0.405  1.00  0.00     0.210 C 
ENDBRANCH   1  21
TORSDOF 6
