REMARK  4 active torsions:
REMARK  status: ('A' for Active; 'I' for Inactive)
REMARK    1  A    between atoms: O1_2  and  C2_3 
REMARK    2  A    between atoms: C5_6  and  C6_7 
REMARK    3  A    between atoms: N1_8  and  N2_9 
REMARK    4  A    between atoms: C10_14  and  O2_15 
ROOT
HETATM    1  N2  UNL     1       1.796  -0.503  -1.363  1.00  0.00    -0.236 N 
HETATM    2  C7  UNL     1       2.758   0.288  -0.612  1.00  0.00     0.035 C 
HETATM    3  C8  UNL     1       3.983   0.554  -1.127  1.00  0.00     0.021 C 
HETATM    4  C9  UNL     1       4.730  -0.580  -0.485  1.00  0.00     0.120 C 
HETATM    5  S1  UNL     1       3.876  -2.099  -1.065  1.00  0.00    -0.100 SA
HETATM    6  C10 UNL     1       2.520  -1.513  -2.162  1.00  0.00     0.308 C 
HETATM    7  C11 UNL     1       4.608  -0.400   0.988  1.00  0.00     0.026 C 
HETATM    8 CL1  UNL     1       5.614  -1.360   2.077  1.00  0.00    -0.088 Cl
HETATM    9  C12 UNL     1       3.761   0.469   1.557  1.00  0.00     0.000 C 
HETATM   10  C13 UNL     1       2.518   0.847   0.778  1.00  0.00     0.087 C 
ENDROOT
BRANCH   1  11
HETATM   11  N1  UNL     1       0.460  -0.089  -1.114  1.00  0.00    -0.181 NA
HETATM   12  C6  UNL     1      -0.199  -0.675  -0.153  1.00  0.00     0.150 C 
BRANCH  12  13
HETATM   13  C5  UNL     1      -1.571  -0.334   0.193  1.00  0.00    -0.017 A 
HETATM   14  C4  UNL     1      -2.259  -0.973   1.226  1.00  0.00     0.015 A 
HETATM   15  C3  UNL     1      -3.562  -0.616   1.518  1.00  0.00     0.037 A 
HETATM   16  C2  UNL     1      -4.214   0.384   0.793  1.00  0.00     0.068 A 
HETATM   17  C15 UNL     1      -3.530   1.011  -0.225  1.00  0.00     0.037 A 
HETATM   18  C14 UNL     1      -2.236   0.642  -0.500  1.00  0.00     0.015 A 
BRANCH  16  19
HETATM   19  O1  UNL     1      -5.511   0.590   1.243  1.00  0.00    -0.356 OA
HETATM   20  C1  UNL     1      -6.335   1.564   0.633  1.00  0.00     0.210 C 
ENDBRANCH  16  19
ENDBRANCH  12  13
ENDBRANCH   1  11
BRANCH   6  21
HETATM   21  O2  UNL     1       1.655  -2.527  -2.503  1.00  0.00    -0.366 OA
HETATM   22  H10 UNL     1       0.721  -2.197  -2.454  1.00  0.00     0.213 HD
ENDBRANCH   6  21
TORSDOF 4
