REMARK  2 active torsions:
REMARK  status: ('A' for Active; 'I' for Inactive)
REMARK    1  A    between atoms: N1_1  and  C1_2 
REMARK    2  A    between atoms: C12_17  and  C13_18 
ROOT
HETATM    1  C1  UNL     1      -1.287  -0.678   0.383  1.00  0.00     0.038 A 
HETATM    2  C2  UNL     1      -1.657  -2.047   0.676  1.00  0.00     0.012 A 
HETATM    3  C3  UNL     1      -1.572  -3.036  -0.632  1.00  0.00     0.114 A 
HETATM    4  C4  UNL     1      -1.218  -2.069  -1.554  1.00  0.00    -0.144 A 
HETATM    5  C5  UNL     1      -0.947  -1.312  -2.244  1.00  0.00    -0.009 A 
HETATM    6  C6  UNL     1      -0.608  -0.346  -3.087  1.00  0.00     0.003 A 
HETATM    7  C7  UNL     1      -0.646   0.367  -1.856  1.00  0.00     0.093 A 
HETATM    8  C8  UNL     1      -0.837   0.550  -0.374  1.00  0.00     0.141 A 
HETATM    9  O1  UNL     1      -1.905   1.461  -0.250  1.00  0.00    -0.325 OA
HETATM   10  C9  UNL     1      -2.074   2.594   0.469  1.00  0.00     0.357 A 
HETATM   11  C10 UNL     1      -2.770   3.800   0.910  1.00  0.00     0.372 A 
HETATM   12  S1  UNL     1      -1.250   4.145   2.119  1.00  0.00     0.104 SA
HETATM   13  C11 UNL     1      -0.241   2.699   1.696  1.00  0.00     0.279 A 
HETATM   14  N2  UNL     1      -1.455   3.313   1.381  1.00  0.00     0.095 N 
HETATM   15  N3  UNL     1       0.619   1.570   1.411  1.00  0.00    -0.351 N 
HETATM   16  C12 UNL     1       0.501   1.017   0.103  1.00  0.00     0.159 C 
HETATM   17  H9  UNL     1       0.893   1.756   2.361  1.00  0.00     0.162 HD
ENDROOT
BRANCH   1  18
HETATM   18  N1  UNL     1      -1.441   0.009   1.695  1.00  0.00    -0.400 N 
HETATM   19  H1  UNL     1      -0.890   0.052   2.603  1.00  0.00     0.156 HD
HETATM   20  H2  UNL     1      -2.240   0.634   1.935  1.00  0.00     0.156 HD
ENDBRANCH   1  18
BRANCH  16  21
HETATM   21  C13 UNL     1       1.567   0.026  -0.124  1.00  0.00    -0.032 A 
HETATM   22  C14 UNL     1       2.302  -0.047  -1.293  1.00  0.00     0.011 A 
HETATM   23  C15 UNL     1       3.253  -1.039  -1.288  1.00  0.00     0.024 A 
HETATM   24  C16 UNL     1       3.482  -1.896  -0.243  1.00  0.00     0.034 A 
HETATM   25 CL1  UNL     1       4.731  -3.098  -0.404  1.00  0.00    -0.084 Cl
HETATM   26  C17 UNL     1       2.732  -1.797   0.908  1.00  0.00     0.024 A 
HETATM   27  C18 UNL     1       1.762  -0.823   0.967  1.00  0.00     0.011 A 
ENDBRANCH  16  21
TORSDOF 2
