REMARK  6 active torsions:
REMARK  status: ('A' for Active; 'I' for Inactive)
REMARK    1  A    between atoms: O1_2  and  C2_3 
REMARK    2  A    between atoms: C2_3  and  C3_5 
REMARK    3  A    between atoms: N1_10  and  C8_11 
REMARK    4  A    between atoms: C8_11  and  C9_12 
REMARK    5  A    between atoms: C9_12  and  O3_13 
REMARK    6  A    between atoms: O3_13  and  C10_14 
ROOT
HETATM    1  C8  UNL     1      -1.082  -0.155  -1.112  1.00  0.00     0.300 C 
ENDROOT
BRANCH   1   2
HETATM    2  N1  UNL     1      -1.434  -0.446   0.229  1.00  0.00     0.104 N 
HETATM    3  C3  UNL     1      -2.699   0.086   0.632  1.00  0.00     0.321 C 
HETATM    4  C4  UNL     1      -3.773  -0.600  -0.194  1.00  0.00     0.046 C 
HETATM    5  C5  UNL     1      -3.737  -2.082   0.097  1.00  0.00     0.004 C 
HETATM    6  C6  UNL     1      -2.384  -2.692  -0.048  1.00  0.00     0.030 C 
HETATM    7  C7  UNL     1      -1.361  -1.814   0.636  1.00  0.00     0.273 C 
BRANCH   3   8
HETATM    8  C2  UNL     1      -2.828   1.543   0.544  1.00  0.00     0.292 C 
HETATM    9  O2  UNL     1      -2.075   2.515   0.193  1.00  0.00    -0.263 OA
BRANCH   8  10
HETATM   10  O1  UNL     1      -4.036   2.113   0.913  1.00  0.00    -0.325 OA
HETATM   11  C1  UNL     1      -4.140   3.541   0.818  1.00  0.00     0.213 C 
ENDBRANCH   8  10
ENDBRANCH   3   8
ENDBRANCH   1   2
BRANCH   1  12
HETATM   12  C9  UNL     1       0.340  -0.326  -1.489  1.00  0.00     0.206 C 
BRANCH  12  13
HETATM   13  O3  UNL     1       1.191   0.515  -0.711  1.00  0.00    -0.349 OA
BRANCH  13  14
HETATM   14  C10 UNL     1       2.538   0.598  -0.867  1.00  0.00     0.069 C 
HETATM   15  C11 UNL     1       3.489   0.691  -1.828  1.00  0.00     0.014 C 
HETATM   16  C12 UNL     1       4.868   0.128  -1.553  1.00  0.00     0.058 C 
HETATM   17  P1  UNL     1       5.521   0.630   0.060  1.00  0.00    -0.129 P 
HETATM   18  C13 UNL     1       4.105   1.729   0.516  1.00  0.00     0.036 C 
HETATM   19  C16 UNL     1       4.906  -0.568   1.395  1.00  0.00     0.033 C 
HETATM   20  H20 UNL     1       6.537   1.219   0.227  1.00  0.00     0.054 HD
HETATM   21  C14 UNL     1       3.180   0.577   0.435  1.00  0.00    -0.031 C 
HETATM   22  C15 UNL     1       3.531   0.069   1.783  1.00  0.00     0.042 C 
ENDBRANCH  13  14
ENDBRANCH  12  13
ENDBRANCH   1  12
TORSDOF 6
