REMARK  3 active torsions:
REMARK  status: ('A' for Active; 'I' for Inactive)
REMARK    1  A    between atoms: O1_2  and  C2_3 
REMARK    2  A    between atoms: C5_6  and  C6_7 
REMARK    3  A    between atoms: C7_10  and  N2_11 
ROOT
HETATM    1  C6  UNL     1       0.204  -0.156   0.352  1.00  0.00     0.078 C 
HETATM    2  N1  UNL     1       0.019  -1.339   0.768  1.00  0.00    -0.130 NA
HETATM    3  O2  UNL     1      -1.160  -1.667   1.405  1.00  0.00    -0.194 OA
HETATM    4  C7  UNL     1      -2.198  -2.195   0.617  1.00  0.00     0.182 C 
HETATM    5  C8  UNL     1      -2.976  -1.453  -0.140  1.00  0.00     0.148 C 
HETATM    6  N3  UNL     1      -3.004  -0.053  -0.368  1.00  0.00    -0.357 N 
HETATM    7  C9  UNL     1      -3.611   0.495  -1.562  1.00  0.00     0.156 C 
HETATM    8  C10 UNL     1      -2.567   1.114   0.340  1.00  0.00     0.040 A 
HETATM    9  C11 UNL     1      -3.694   1.719   0.913  1.00  0.00     0.030 A 
HETATM   10  C12 UNL     1      -3.687   2.881   1.702  1.00  0.00     0.002 A 
HETATM   11  C13 UNL     1      -2.458   3.446   1.907  1.00  0.00     0.001 A 
HETATM   12  C14 UNL     1      -1.369   2.842   1.338  1.00  0.00     0.010 A 
HETATM   13  C15 UNL     1      -1.346   1.703   0.561  1.00  0.00    -0.025 A 
HETATM   14  C16 UNL     1      -0.024   1.277   0.057  1.00  0.00     0.103 C 
ENDROOT
BRANCH   1  15
HETATM   15  C5  UNL     1       1.548  -0.466  -0.184  1.00  0.00     0.009 A 
HETATM   16  C4  UNL     1       1.822  -0.930  -1.461  1.00  0.00     0.017 A 
HETATM   17  C3  UNL     1       3.132  -1.180  -1.850  1.00  0.00     0.038 A 
HETATM   18  C2  UNL     1       4.182  -0.980  -0.997  1.00  0.00     0.069 A 
HETATM   19  C18 UNL     1       3.984  -0.524   0.274  1.00  0.00     0.056 A 
HETATM   20  C17 UNL     1       2.659  -0.279   0.646  1.00  0.00     0.025 A 
HETATM   21 BR1  UNL     1       2.357   0.359   2.422  1.00  0.00    -0.050 Br
BRANCH  18  22
HETATM   22  O1  UNL     1       5.452  -1.246  -1.444  1.00  0.00    -0.356 OA
HETATM   23  C1  UNL     1       6.621  -1.078  -0.654  1.00  0.00     0.210 C 
ENDBRANCH  18  22
ENDBRANCH   1  15
BRANCH   4  24
HETATM   24  N2  UNL     1      -2.394  -3.598   0.658  1.00  0.00    -0.377 N 
HETATM   25  H6  UNL     1      -2.851  -3.963   1.527  1.00  0.00     0.158 HD
HETATM   26  H7  UNL     1      -2.065  -4.147  -0.185  1.00  0.00     0.158 HD
ENDBRANCH   4  24
TORSDOF 3
