REMARK  5 active torsions:
REMARK  status: ('A' for Active; 'I' for Inactive)
REMARK    1  A    between atoms: C2_2  and  O1_3 
REMARK    2  A    between atoms: O1_3  and  C3_4 
REMARK    3  A    between atoms: C5_6  and  N1_7 
REMARK    4  A    between atoms: C8_11  and  O2_12 
REMARK    5  A    between atoms: C9_16  and  C10_17 
ROOT
HETATM    1  N1  UNL     1       0.060  -0.661  -0.556  1.00  0.00    -0.291 N 
HETATM    2  C6  UNL     1      -0.956   0.032   0.241  1.00  0.00     0.170 C 
HETATM    3  S1  UNL     1      -0.774  -0.680   1.922  1.00  0.00    -0.110 SA
HETATM    4  C7  UNL     1      -0.902  -2.461   1.661  1.00  0.00     0.103 C 
HETATM    5  C8  UNL     1      -0.906  -3.262   0.630  1.00  0.00     0.157 C 
HETATM    6  N2  UNL     1      -0.748  -2.828  -0.708  1.00  0.00    -0.295 N 
HETATM    7  N3  UNL     1      -0.496  -1.634  -1.383  1.00  0.00    -0.194 NA
HETATM    8  B1  UNL     1      -1.854  -0.990  -1.711  1.00  0.00     0.307 B 
HETATM    9  C9  UNL     1      -2.280  -0.436  -0.265  1.00  0.00     0.031 C 
HETATM   10  H9  UNL     1      -0.840  -3.595  -1.432  1.00  0.00     0.183 HD
HETATM   11  H10 UNL     1      -2.039  -0.416  -2.731  1.00  0.00    -0.003 HD
ENDROOT
BRANCH   1  12
HETATM   12  C5  UNL     1       1.443  -0.341  -0.461  1.00  0.00     0.061 C 
HETATM   13  C4  UNL     1       2.138   0.772  -0.595  1.00  0.00     0.041 C 
HETATM   14  C3  UNL     1       3.345   0.719  -0.108  1.00  0.00     0.082 C 
HETATM   15  C17 UNL     1       3.593  -0.724   0.060  1.00  0.00     0.040 C 
HETATM   16  C16 UNL     1       2.454  -1.374  -0.151  1.00  0.00     0.034 C 
BRANCH  14  17
HETATM   17  O1  UNL     1       4.355   1.569   0.258  1.00  0.00    -0.351 OA
BRANCH  17  18
HETATM   18  C2  UNL     1       5.688   1.454  -0.204  1.00  0.00     0.171 C 
HETATM   19  C1  UNL     1       6.537   2.554   0.398  1.00  0.00     0.034 C 
ENDBRANCH  17  18
ENDBRANCH  14  17
ENDBRANCH   1  12
BRANCH   9  20
HETATM   20  C10 UNL     1      -3.318   0.591  -0.359  1.00  0.00    -0.059 A 
HETATM   21  C11 UNL     1      -3.224   1.839  -0.945  1.00  0.00     0.008 A 
HETATM   22  C12 UNL     1      -4.270   2.733  -0.977  1.00  0.00     0.024 A 
HETATM   23  C13 UNL     1      -5.483   2.399  -0.407  1.00  0.00     0.034 A 
HETATM   24 CL1  UNL     1      -6.814   3.543  -0.450  1.00  0.00    -0.084 Cl
HETATM   25  C14 UNL     1      -5.628   1.180   0.185  1.00  0.00     0.024 A 
HETATM   26  C15 UNL     1      -4.565   0.298   0.206  1.00  0.00     0.008 A 
ENDBRANCH   9  20
BRANCH   5  27
HETATM   27  O2  UNL     1      -1.075  -4.592   0.896  1.00  0.00    -0.345 OA
HETATM   28  H8  UNL     1      -0.308  -5.225   0.739  1.00  0.00     0.219 HD
ENDBRANCH   5  27
TORSDOF 5
