REMARK  3 active torsions:
REMARK  status: ('A' for Active; 'I' for Inactive)
REMARK    1  A    between atoms: O1_2  and  C2_3 
REMARK    2  A    between atoms: N2_15  and  C12_16 
REMARK    3  A    between atoms: C13_18  and  O2_19 
ROOT
HETATM    1  C2  UNL     1       3.612   0.569   0.399  1.00  0.00     0.064 C 
HETATM    2  C3  UNL     1       3.519   0.003   1.621  1.00  0.00     0.011 C 
HETATM    3  C4  UNL     1       2.885  -0.413   2.892  1.00  0.00     0.049 C 
HETATM    4  C5  UNL     1       1.399  -0.021   2.917  1.00  0.00     0.083 C 
HETATM    5 BR1  UNL     1       0.758  -0.621   4.655  1.00  0.00    -0.087 Br
HETATM    6  C6  UNL     1       0.683  -0.653   1.790  1.00  0.00    -0.015 C 
HETATM    7  C7  UNL     1       0.162  -1.261   0.740  1.00  0.00    -0.027 C 
HETATM    8  C8  UNL     1      -1.162  -1.482   0.140  1.00  0.00     0.054 C 
HETATM    9  C9  UNL     1      -1.325  -0.931  -1.230  1.00  0.00     0.121 C 
HETATM   10  C10 UNL     1      -0.357   0.119  -1.660  1.00  0.00     0.084 C 
HETATM   11  C11 UNL     1      -0.905   1.334  -1.003  1.00  0.00     0.038 C 
HETATM   12  N1  UNL     1      -2.078   1.153  -1.510  1.00  0.00    -0.179 NA
HETATM   13  N2  UNL     1      -2.550  -0.151  -1.286  1.00  0.00    -0.241 N 
HETATM   14  C15 UNL     1       0.127   2.053  -0.169  1.00  0.00     0.083 C 
HETATM   15  C16 UNL     1       1.480   1.835  -0.717  1.00  0.00    -0.018 C 
HETATM   16  C17 UNL     1       2.686   1.309  -0.489  1.00  0.00     0.032 C 
ENDROOT
BRANCH  13  17
HETATM   17  C12 UNL     1      -3.960  -0.437  -1.171  1.00  0.00     0.192 A 
HETATM   18  N3  UNL     1      -4.831  -0.512  -0.429  1.00  0.00    -0.198 NA
HETATM   19  C13 UNL     1      -6.093  -0.818  -0.655  1.00  0.00     0.171 A 
HETATM   20  C14 UNL     1      -6.413  -1.092  -2.012  1.00  0.00     0.111 A 
HETATM   21  S1  UNL     1      -4.742  -0.859  -2.847  1.00  0.00    -0.058 SA
BRANCH  19  22
HETATM   22  O2  UNL     1      -6.922  -0.824   0.481  1.00  0.00    -0.344 OA
HETATM   23  H15 UNL     1      -7.155  -1.629   1.014  1.00  0.00     0.219 HD
ENDBRANCH  19  22
ENDBRANCH  13  17
BRANCH   1  24
HETATM   24  O1  UNL     1       4.895   0.441  -0.198  1.00  0.00    -0.356 OA
HETATM   25  C1  UNL     1       5.160  -0.442  -1.252  1.00  0.00     0.210 C 
ENDBRANCH   1  24
TORSDOF 3
