REMARK  7 active torsions:
REMARK  status: ('A' for Active; 'I' for Inactive)
REMARK    1  A    between atoms: C2_2  and  C3_3 
REMARK    2  A    between atoms: N1_8  and  N2_9 
REMARK    3  A    between atoms: N2_9  and  C8_10 
REMARK    4  A    between atoms: N2_9  and  C15_17 
REMARK    5  A    between atoms: C8_10  and  C9_11 
REMARK    6  A    between atoms: C16_19  and  O1_20 
REMARK    7  A    between atoms: C18_23  and  O2_24 
ROOT
HETATM    1  N2  UNL     1       0.966   0.639  -0.310  1.00  0.00    -0.242 N 
ENDROOT
BRANCH   1   2
HETATM    2  N1  UNL     1       0.179   0.032   0.631  1.00  0.00    -0.176 NA
HETATM    3  C7  UNL     1      -1.065   0.132   0.837  1.00  0.00     0.065 C 
HETATM    4  C6  UNL     1      -1.415  -0.743   1.989  1.00  0.00     0.086 C 
HETATM    5  C18 UNL     1      -2.105   0.931   0.141  1.00  0.00     0.175 C 
HETATM    6  C5  UNL     1      -2.892  -0.836   2.184  1.00  0.00    -0.024 C 
HETATM    7  C4  UNL     1      -3.836  -0.396   1.372  1.00  0.00    -0.023 C 
HETATM    8  C3  UNL     1      -3.440   0.270   0.114  1.00  0.00     0.042 C 
BRANCH   8   9
HETATM    9  C2  UNL     1      -3.602  -0.656  -1.085  1.00  0.00     0.007 C 
HETATM   10  C1  UNL     1      -5.028  -1.107  -1.249  1.00  0.00     0.006 C 
ENDBRANCH   8   9
BRANCH   5  11
HETATM   11  O2  UNL     1      -1.733   1.205  -1.183  1.00  0.00    -0.389 OA
HETATM   12  H23 UNL     1      -2.487   1.735  -1.565  1.00  0.00     0.210 HD
ENDBRANCH   5  11
ENDBRANCH   1   2
BRANCH   1  13
HETATM   13  C8  UNL     1       1.687   0.009  -1.398  1.00  0.00     0.188 C 
BRANCH  13  14
HETATM   14  C9  UNL     1       2.665  -0.971  -0.849  1.00  0.00    -0.056 A 
HETATM   15  C10 UNL     1       3.981  -0.994  -0.981  1.00  0.00     0.011 A 
HETATM   16  C11 UNL     1       4.533  -2.142  -0.271  1.00  0.00    -0.065 A 
HETATM   17  C12 UNL     1       5.927  -2.612  -0.111  1.00  0.00     0.048 C 
HETATM   18  C13 UNL     1       3.539  -2.820   0.295  1.00  0.00    -0.016 A 
HETATM   19  C14 UNL     1       2.255  -2.137  -0.020  1.00  0.00     0.063 A 
ENDBRANCH  13  14
ENDBRANCH   1  13
BRANCH   1  20
HETATM   20  C15 UNL     1       1.024   2.061  -0.120  1.00  0.00     0.192 A 
HETATM   21  N3  UNL     1       0.456   2.847   0.792  1.00  0.00    -0.198 NA
HETATM   22  C16 UNL     1       0.736   4.135   0.658  1.00  0.00     0.171 A 
HETATM   23  C17 UNL     1       1.614   4.744  -0.406  1.00  0.00     0.111 A 
HETATM   24  S1  UNL     1       2.022   3.128  -1.259  1.00  0.00    -0.058 SA
BRANCH  22  25
HETATM   25  O1  UNL     1       0.072   4.844   1.685  1.00  0.00    -0.344 OA
HETATM   26  H20 UNL     1      -0.302   5.770   1.538  1.00  0.00     0.219 HD
ENDBRANCH  22  25
ENDBRANCH   1  20
TORSDOF 7
