REMARK  4 active torsions:
REMARK  status: ('A' for Active; 'I' for Inactive)
REMARK    1  A    between atoms: O1_2  and  C2_3 
REMARK    2  A    between atoms: C5_6  and  C6_7 
REMARK    3  A    between atoms: N2_11  and  C9_12 
REMARK    4  A    between atoms: C10_14  and  O2_15 
ROOT
HETATM    1  C2  UNL     1      -2.044  -2.460  -0.144  1.00  0.00     0.069 A 
HETATM    2  C3  UNL     1      -0.712  -2.879  -0.026  1.00  0.00     0.037 A 
HETATM    3  C4  UNL     1       0.316  -1.936   0.036  1.00  0.00     0.013 A 
HETATM    4  C5  UNL     1       0.035  -0.585  -0.015  1.00  0.00    -0.022 A 
HETATM    5  C12 UNL     1      -1.273  -0.167  -0.133  1.00  0.00    -0.015 A 
HETATM    6  C13 UNL     1      -1.790   1.161  -0.249  1.00  0.00    -0.025 A 
HETATM    7  C14 UNL     1      -1.467   2.111  -1.197  1.00  0.00     0.013 A 
HETATM    8  C15 UNL     1      -1.978   3.400  -1.258  1.00  0.00     0.020 A 
HETATM    9  C16 UNL     1      -2.891   3.766  -0.287  1.00  0.00     0.011 A 
HETATM   10 BR1  UNL     1      -3.588   5.552  -0.350  1.00  0.00    -0.051 Br
HETATM   11  C17 UNL     1      -3.247   2.854   0.679  1.00  0.00     0.020 A 
HETATM   12  C18 UNL     1      -2.720   1.575   0.716  1.00  0.00     0.013 A 
HETATM   13  C19 UNL     1      -2.292  -1.105  -0.194  1.00  0.00     0.049 A 
ENDROOT
BRANCH   4  14
HETATM   14  C6  UNL     1       1.030   0.481   0.057  1.00  0.00     0.151 C 
HETATM   15  C7  UNL     1       0.939   1.241   1.386  1.00  0.00     0.080 C 
HETATM   16  C8  UNL     1       1.481   0.192   2.336  1.00  0.00     0.114 C 
HETATM   17  N1  UNL     1       2.282  -0.535   1.639  1.00  0.00    -0.186 NA
HETATM   18  N2  UNL     1       2.361  -0.103   0.291  1.00  0.00    -0.237 N 
BRANCH  18  19
HETATM   19  C9  UNL     1       3.650  -0.351  -0.321  1.00  0.00     0.192 A 
HETATM   20  N3  UNL     1       4.556   0.454  -0.663  1.00  0.00    -0.198 NA
HETATM   21  C10 UNL     1       5.678  -0.022  -1.172  1.00  0.00     0.171 A 
HETATM   22  C11 UNL     1       5.931  -1.437  -1.361  1.00  0.00     0.111 A 
HETATM   23  S1  UNL     1       4.253  -2.066  -0.680  1.00  0.00    -0.058 SA
BRANCH  21  24
HETATM   24  O2  UNL     1       6.620   0.959  -1.525  1.00  0.00    -0.344 OA
HETATM   25  H10 UNL     1       7.055   1.573  -0.847  1.00  0.00     0.219 HD
ENDBRANCH  21  24
ENDBRANCH  18  19
ENDBRANCH   4  14
BRANCH   1  26
HETATM   26  O1  UNL     1      -2.852  -3.580  -0.182  1.00  0.00    -0.356 OA
HETATM   27  C1  UNL     1      -4.270  -3.542  -0.286  1.00  0.00     0.210 C 
ENDBRANCH   1  26
TORSDOF 4
