REMARK  7 active torsions:
REMARK  status: ('A' for Active; 'I' for Inactive)
REMARK    1  A    between atoms: O1_2  and  C2_3 
REMARK    2  A    between atoms: C2_3  and  C3_4 
REMARK    3  A    between atoms: C5_6  and  C6_7 
REMARK    4  A    between atoms: C6_7  and  C7_8 
REMARK    5  A    between atoms: N2_10  and  C8_11 
REMARK    6  A    between atoms: C8_11  and  S1_12 
REMARK    7  A    between atoms: C12_18  and  C13_19 
ROOT
HETATM    1  C7  UNL     1      -0.056  -1.119   0.345  1.00  0.00     0.065 A 
HETATM    2  N1  UNL     1      -1.182  -1.394   0.955  1.00  0.00    -0.182 NA
HETATM    3  N2  UNL     1      -1.285  -0.040   1.260  1.00  0.00    -0.281 N 
HETATM    4  C12 UNL     1      -0.072   0.349   0.590  1.00  0.00     0.188 A 
ENDROOT
BRANCH   1   5
HETATM    5  C6  UNL     1       0.841  -2.077  -0.350  1.00  0.00     0.097 C 
BRANCH   5   6
HETATM    6  C5  UNL     1       2.216  -2.041   0.211  1.00  0.00    -0.056 A 
HETATM    7  C4  UNL     1       3.092  -0.883   0.247  1.00  0.00     0.012 A 
HETATM    8  C3  UNL     1       4.256  -1.087   0.788  1.00  0.00    -0.052 A 
HETATM    9  C20 UNL     1       4.256  -2.522   1.194  1.00  0.00     0.064 A 
HETATM   10  C19 UNL     1       2.925  -3.002   0.776  1.00  0.00    -0.015 A 
BRANCH   8  11
HETATM   11  C2  UNL     1       5.522  -0.416   1.123  1.00  0.00     0.201 C 
BRANCH  11  12
HETATM   12  O1  UNL     1       5.575   0.904   0.757  1.00  0.00    -0.392 OA
HETATM   13  C1  UNL     1       5.570   1.145  -0.601  1.00  0.00     0.201 C 
ENDBRANCH  11  12
ENDBRANCH   8  11
ENDBRANCH   5   6
ENDBRANCH   1   5
BRANCH   4  14
HETATM   14  C13 UNL     1      -0.336   1.190  -0.593  1.00  0.00    -0.028 A 
HETATM   15  C14 UNL     1       0.401   1.079  -1.779  1.00  0.00     0.011 A 
HETATM   16  C15 UNL     1       0.191   1.829  -2.910  1.00  0.00     0.019 A 
HETATM   17  C16 UNL     1      -0.807   2.773  -2.926  1.00  0.00     0.011 A 
HETATM   18 BR1  UNL     1      -1.132   3.830  -4.464  1.00  0.00    -0.051 Br
HETATM   19  C17 UNL     1      -1.568   2.939  -1.807  1.00  0.00     0.019 A 
HETATM   20  C18 UNL     1      -1.310   2.158  -0.704  1.00  0.00     0.011 A 
ENDBRANCH   4  14
BRANCH   3  21
HETATM   21  C8  UNL     1      -2.426   0.395   2.043  1.00  0.00     0.233 C 
BRANCH  21  22
HETATM   22  S1  UNL     1      -3.891  -0.012   1.064  1.00  0.00    -0.056 SA
HETATM   23  N3  UNL     1      -4.041  -0.732  -0.433  1.00  0.00    -0.025 NA
HETATM   24  O2  UNL     1      -5.404  -0.756  -0.617  1.00  0.00    -0.237 OA
HETATM   25  C9  UNL     1      -6.191  -0.252   0.344  1.00  0.00     0.075 A 
HETATM   26  C10 UNL     1      -7.698  -0.238   0.226  1.00  0.00     0.079 C 
HETATM   27  C11 UNL     1      -5.689   0.257   1.441  1.00  0.00     0.089 A 
ENDBRANCH  21  22
ENDBRANCH   3  21
TORSDOF 7
