REMARK  6 active torsions:
REMARK  status: ('A' for Active; 'I' for Inactive)
REMARK    1  A    between atoms: O1_2  and  C2_3 
REMARK    2  A    between atoms: C2_3  and  C3_4 
REMARK    3  A    between atoms: C3_4  and  C4_5 
REMARK    4  A    between atoms: C4_5  and  C5_6 
REMARK    5  A    between atoms: N2_19  and  C16_20 
REMARK    6  A    between atoms: C17_22  and  O2_23 
ROOT
HETATM    1  C5  UNL     1       1.279  -0.643  -0.001  1.00  0.00     0.004 C 
HETATM    2  C6  UNL     1       1.460  -1.874   0.684  1.00  0.00     0.023 C 
HETATM    3 BR1  UNL     1       3.216  -2.360   1.266  1.00  0.00    -0.050 Br
HETATM    4  C7  UNL     1       0.689  -2.881   1.054  1.00  0.00     0.027 C 
HETATM    5  C8  UNL     1      -0.733  -2.958   0.805  1.00  0.00    -0.053 C 
HETATM    6  C9  UNL     1      -1.719  -3.750   0.322  1.00  0.00     0.008 C 
HETATM    7  C10 UNL     1      -2.628  -2.764  -0.339  1.00  0.00     0.006 C 
HETATM    8  C11 UNL     1      -2.085  -1.536  -0.171  1.00  0.00    -0.051 C 
HETATM    9  C12 UNL     1      -1.493  -1.698   1.195  1.00  0.00     0.075 C 
HETATM   10  C13 UNL     1      -2.092  -0.417  -1.125  1.00  0.00     0.148 C 
HETATM   11  C14 UNL     1      -0.720  -0.332  -1.847  1.00  0.00     0.094 C 
HETATM   12  C15 UNL     1       0.060  -0.083  -0.572  1.00  0.00     0.068 C 
HETATM   13  N1  UNL     1      -0.560   0.863   0.062  1.00  0.00    -0.173 NA
HETATM   14  N2  UNL     1      -1.919   0.822  -0.356  1.00  0.00    -0.237 N 
ENDROOT
BRANCH  14  15
HETATM   15  C16 UNL     1      -2.966   1.771  -0.132  1.00  0.00     0.192 A 
HETATM   16  N3  UNL     1      -3.709   2.123   0.748  1.00  0.00    -0.198 NA
HETATM   17  C17 UNL     1      -4.618   3.090   0.540  1.00  0.00     0.171 A 
HETATM   18  C18 UNL     1      -4.745   3.706  -0.646  1.00  0.00     0.111 A 
HETATM   19  S1  UNL     1      -3.436   2.851  -1.635  1.00  0.00    -0.058 SA
BRANCH  17  20
HETATM   20  O2  UNL     1      -5.432   3.420   1.641  1.00  0.00    -0.344 OA
HETATM   21  H15 UNL     1      -6.380   3.716   1.558  1.00  0.00     0.219 HD
ENDBRANCH  17  20
ENDBRANCH  14  15
BRANCH   1  22
HETATM   22  C4  UNL     1       2.262   0.241  -0.263  1.00  0.00    -0.004 C 
BRANCH  22  23
HETATM   23  C3  UNL     1       3.609   0.056   0.110  1.00  0.00     0.051 C 
BRANCH  23  24
HETATM   24  C2  UNL     1       4.884   0.113   0.344  1.00  0.00     0.158 C 
BRANCH  24  25
HETATM   25  O1  UNL     1       6.195   0.494   0.418  1.00  0.00    -0.387 OA
HETATM   26  C1  UNL     1       6.623   1.718   1.018  1.00  0.00     0.202 C 
ENDBRANCH  24  25
ENDBRANCH  23  24
ENDBRANCH  22  23
ENDBRANCH   1  22
TORSDOF 6
