REMARK  5 active torsions:
REMARK  status: ('A' for Active; 'I' for Inactive)
REMARK    1  A    between atoms: O1_1  and  C1_2 
REMARK    2  A    between atoms: C1_2  and  N1_3 
REMARK    3  A    between atoms: N1_3  and  C2_4 
REMARK    4  A    between atoms: C9_14  and  C10_15 
REMARK    5  A    between atoms: C13_18  and  O2_19 
ROOT
HETATM    1  C2  UNL     1      -2.746   1.024   0.667  1.00  0.00     0.108 C 
HETATM    2  C3  UNL     1      -3.835   1.083   1.658  1.00  0.00     0.137 C 
HETATM    3  S1  UNL     1      -3.568  -0.557   2.580  1.00  0.00    -0.208 SA
HETATM    4  C4  UNL     1      -3.666  -1.811   1.282  1.00  0.00     0.140 C 
HETATM    5  C5  UNL     1      -3.584  -2.690   0.332  1.00  0.00     0.009 C 
HETATM    6  C6  UNL     1      -2.301  -2.937  -0.263  1.00  0.00     0.026 C 
HETATM    7  C7  UNL     1      -1.246  -2.328   0.137  1.00  0.00     0.024 C 
HETATM    8  N2  UNL     1      -0.516  -1.536   0.838  1.00  0.00    -0.350 N 
HETATM    9  C8  UNL     1      -0.726  -0.506  -0.310  1.00  0.00     0.175 A 
HETATM   10  N3  UNL     1       0.544   0.287  -0.058  1.00  0.00    -0.245 NA
HETATM   11  C9  UNL     1       1.699  -0.341  -0.059  1.00  0.00     0.045 C 
HETATM   12  C16 UNL     1       1.421  -1.760  -0.037  1.00  0.00     0.082 C 
HETATM   13  C17 UNL     1      -0.085  -1.963  -0.696  1.00  0.00     0.073 A 
HETATM   14  C18 UNL     1       0.434  -2.134  -1.971  1.00  0.00     0.034 A 
HETATM   15  C19 UNL     1      -0.534  -0.959  -1.660  1.00  0.00     0.132 A 
HETATM   16 BR1  UNL     1      -2.042  -1.245  -2.814  1.00  0.00    -0.084 Br
HETATM   17  N4  UNL     1      -1.755   0.256   0.154  1.00  0.00    -0.336 N 
HETATM   18  H9  UNL     1       0.137  -1.124   1.642  1.00  0.00     0.163 HD
HETATM   19  H19 UNL     1      -1.409   0.499   1.165  1.00  0.00     0.165 HD
ENDROOT
BRANCH  11  20
HETATM   20  C10 UNL     1       3.048   0.131  -0.103  1.00  0.00    -0.012 A 
HETATM   21  C11 UNL     1       3.208   1.509  -0.167  1.00  0.00     0.016 A 
HETATM   22  C12 UNL     1       4.443   2.095  -0.212  1.00  0.00     0.037 A 
HETATM   23  C13 UNL     1       5.491   1.176  -0.183  1.00  0.00     0.065 A 
HETATM   24  C14 UNL     1       5.343  -0.175  -0.122  1.00  0.00     0.037 A 
HETATM   25  C15 UNL     1       4.105  -0.749  -0.078  1.00  0.00     0.016 A 
BRANCH  23  26
HETATM   26  O2  UNL     1       6.812   1.640  -0.223  1.00  0.00    -0.361 OA
HETATM   27  H12 UNL     1       7.240   1.898   0.662  1.00  0.00     0.217 HD
ENDBRANCH  23  26
ENDBRANCH  11  20
BRANCH   1  28
HETATM   28  N1  UNL     1      -2.464   1.931  -0.198  1.00  0.00    -0.251 NA
BRANCH  28  29
HETATM   29  C1  UNL     1      -3.267   3.127  -0.232  1.00  0.00     0.315 C 
BRANCH  29  30
HETATM   30  O1  UNL     1      -2.567   4.212  -0.760  1.00  0.00    -0.380 OA
HETATM   31  H1  UNL     1      -2.970   5.029  -0.369  1.00  0.00     0.211 HD
ENDBRANCH  29  30
ENDBRANCH  28  29
ENDBRANCH   1  28
TORSDOF 5
