REMARK  3 active torsions:
REMARK  status: ('A' for Active; 'I' for Inactive)
REMARK    1  A    between atoms: O1_2  and  C2_3 
REMARK    2  A    between atoms: N2_15  and  C13_16 
REMARK    3  A    between atoms: C14_18  and  O2_19 
ROOT
HETATM    1  C2  UNL     1      -2.487   1.127  -0.571  1.00  0.00     0.043 C 
HETATM    2  C3  UNL     1      -2.830  -0.166  -0.817  1.00  0.00     0.023 C 
HETATM    3  C4  UNL     1      -1.683  -0.881  -0.175  1.00  0.00     0.017 A 
HETATM    4  C5  UNL     1      -1.125  -0.930  -1.422  1.00  0.00    -0.028 A 
HETATM    5  C6  UNL     1      -0.132  -1.121  -0.521  1.00  0.00     0.041 A 
HETATM    6  C7  UNL     1      -0.245  -1.148   0.817  1.00  0.00     0.025 A 
HETATM    7  C8  UNL     1      -0.957  -1.077   1.968  1.00  0.00    -0.015 A 
HETATM    8  C9  UNL     1      -2.017  -0.873   1.124  1.00  0.00    -0.012 A 
HETATM    9  C10 UNL     1       1.169  -0.949   1.324  1.00  0.00     0.132 C 
HETATM   10  C11 UNL     1       1.056   0.480   1.974  1.00  0.00     0.085 C 
HETATM   11  C12 UNL     1       0.508   1.138   0.700  1.00  0.00     0.035 C 
HETATM   12  N1  UNL     1       1.334   0.654  -0.141  1.00  0.00    -0.179 NA
HETATM   13  N2  UNL     1       2.038  -0.471   0.232  1.00  0.00    -0.240 N 
HETATM   14  C16 UNL     1      -0.634   2.000   0.949  1.00  0.00     0.063 C 
HETATM   15  C17 UNL     1      -1.695   2.234  -0.056  1.00  0.00     0.070 C 
ENDROOT
BRANCH  13  16
HETATM   16  C13 UNL     1       3.234  -0.989  -0.293  1.00  0.00     0.192 A 
HETATM   17  N3  UNL     1       4.088  -0.698  -1.218  1.00  0.00    -0.198 NA
HETATM   18  C14 UNL     1       5.123  -1.508  -1.371  1.00  0.00     0.171 A 
HETATM   19  C15 UNL     1       5.349  -2.674  -0.580  1.00  0.00     0.111 A 
HETATM   20  S1  UNL     1       3.868  -2.579   0.525  1.00  0.00    -0.058 SA
BRANCH  18  21
HETATM   21  O2  UNL     1       5.925  -1.011  -2.426  1.00  0.00    -0.344 OA
HETATM   22  H12 UNL     1       6.885  -1.308  -2.543  1.00  0.00     0.219 HD
ENDBRANCH  18  21
ENDBRANCH  13  16
BRANCH   1  23
HETATM   23  O1  UNL     1      -3.586   1.778  -1.204  1.00  0.00    -0.360 OA
HETATM   24  C1  UNL     1      -4.878   1.675  -0.629  1.00  0.00     0.209 C 
ENDBRANCH   1  23
TORSDOF 3
