REMARK  3 active torsions:
REMARK  status: ('A' for Active; 'I' for Inactive)
REMARK    1  A    between atoms: C2_2  and  C3_3 
REMARK    2  A    between atoms: C3_3  and  C4_4 
REMARK    3  A    between atoms: C3_3  and  O1_24 
ROOT
HETATM    1  C4  UNL     1       2.857   0.444  -0.808  1.00  0.00     0.017 C 
HETATM    2  C5  UNL     1       1.685  -0.187  -0.570  1.00  0.00    -0.054 C 
HETATM    3  C6  UNL     1       1.345  -1.543  -1.092  1.00  0.00     0.153 C 
HETATM    4  N1  UNL     1       1.057  -2.506  -0.096  1.00  0.00    -0.394 N 
HETATM    5  C7  UNL     1       0.600  -3.772   0.298  1.00  0.00     0.090 C 
HETATM    6  C8  UNL     1      -0.721  -3.723   0.182  1.00  0.00     0.063 C 
HETATM    7  S1  UNL     1      -2.419  -3.379  -0.063  1.00  0.00    -0.119 SA
HETATM    8  C9  UNL     1      -2.901  -1.763   0.582  1.00  0.00     0.224 C 
HETATM    9  N2  UNL     1      -2.328  -0.650  -0.139  1.00  0.00    -0.278 N 
HETATM   10  N3  UNL     1      -1.096  -0.512  -0.768  1.00  0.00    -0.183 NA
HETATM   11  C10 UNL     1      -0.620   0.654  -0.526  1.00  0.00     0.043 C 
HETATM   12  C11 UNL     1      -1.804   1.289  -1.217  1.00  0.00     0.098 C 
HETATM   13  C12 UNL     1      -2.919   0.656  -0.408  1.00  0.00     0.093 A 
HETATM   14  C13 UNL     1      -3.145   1.469   0.785  1.00  0.00     0.011 A 
HETATM   15  C14 UNL     1      -4.400   1.885   0.829  1.00  0.00     0.017 A 
HETATM   16  C15 UNL     1      -5.048   1.338  -0.372  1.00  0.00     0.009 A 
HETATM   17 BR1  UNL     1      -6.878   1.623  -0.824  1.00  0.00    -0.051 Br
HETATM   18  C16 UNL     1      -4.194   0.613  -1.112  1.00  0.00     0.029 A 
HETATM   19  C17 UNL     1       0.703   0.584   0.231  1.00  0.00     0.061 C 
HETATM   20  C18 UNL     1       0.389  -0.033   1.585  1.00  0.00     0.021 C 
HETATM   21  H8  UNL     1       1.275  -2.300   0.901  1.00  0.00     0.159 HD
ENDROOT
BRANCH   1  22
HETATM   22  C3  UNL     1       3.654   1.650  -0.579  1.00  0.00     0.211 C 
BRANCH  22  23
HETATM   23  C2  UNL     1       4.917   1.356   0.195  1.00  0.00     0.002 C 
HETATM   24  C1  UNL     1       6.262   1.425   0.107  1.00  0.00     0.010 C 
ENDBRANCH  22  23
BRANCH  22  25
HETATM   25  O1  UNL     1       2.975   2.681   0.093  1.00  0.00    -0.186 OA
HETATM   26  F1  UNL     1       2.963   3.809  -0.574  1.00  0.00    -0.047 F 
ENDBRANCH  22  25
ENDBRANCH   1  22
TORSDOF 3
