REMARK  6 active torsions:
REMARK  status: ('A' for Active; 'I' for Inactive)
REMARK    1  A    between atoms: C2_2  and  C3_4 
REMARK    2  A    between atoms: C4_5  and  C5_6 
REMARK    3  A    between atoms: C6_7  and  N1_8 
REMARK    4  A    between atoms: N1_8  and  C7_9 
REMARK    5  A    between atoms: C10_14  and  O1_15 
REMARK    6  A    between atoms: C12_17  and  O2_18 
ROOT
HETATM    1  C7  UNL     1       0.463  -1.907   0.880  1.00  0.00     0.156 A 
HETATM    2  N2  UNL     1       0.402  -2.984   0.090  1.00  0.00    -0.224 NA
HETATM    3  C8  UNL     1      -0.647  -2.894  -0.745  1.00  0.00     0.217 A 
HETATM    4  N3  UNL     1      -1.318  -1.727  -0.519  1.00  0.00    -0.310 N 
HETATM    5  C9  UNL     1      -2.399  -1.208  -1.087  1.00  0.00     0.137 A 
HETATM    6  C10 UNL     1      -2.900   0.029  -0.668  1.00  0.00     0.117 A 
HETATM    7  C12 UNL     1      -2.230   0.676   0.347  1.00  0.00     0.105 A 
HETATM    8  C14 UNL     1      -1.102   0.078   0.903  1.00  0.00     0.073 A 
HETATM    9  C15 UNL     1      -0.615  -1.152   0.476  1.00  0.00     0.088 A 
ENDROOT
BRANCH   1  10
HETATM   10  N1  UNL     1       1.405  -1.599   1.896  1.00  0.00    -0.349 N 
HETATM   11  H7  UNL     1       2.162  -2.269   2.083  1.00  0.00     0.167 HD
BRANCH  10  12
HETATM   12  C6  UNL     1       1.391  -0.421   2.692  1.00  0.00     0.090 C 
HETATM   13  C5  UNL     1       2.236   0.462   2.135  1.00  0.00     0.017 C 
BRANCH  13  14
HETATM   14  C4  UNL     1       2.887  -0.036   0.929  1.00  0.00     0.002 C 
HETATM   15  C3  UNL     1       3.768   0.641   0.189  1.00  0.00     0.015 C 
BRANCH  15  16
HETATM   16  C2  UNL     1       4.477   0.249  -1.026  1.00  0.00    -0.011 C 
HETATM   17  C1  UNL     1       5.324   1.062  -1.631  1.00  0.00     0.051 C 
HETATM   18 BR1  UNL     1       4.080  -1.494  -1.641  1.00  0.00    -0.056 Br
ENDBRANCH  15  16
ENDBRANCH  13  14
ENDBRANCH  10  12
ENDBRANCH   1  10
BRANCH   7  19
HETATM   19  O2  UNL     1      -2.746   1.884   0.734  1.00  0.00    -0.353 OA
HETATM   20  C13 UNL     1      -2.236   2.721   1.743  1.00  0.00     0.210 C 
ENDBRANCH   7  19
BRANCH   6  21
HETATM   21  O1  UNL     1      -4.036   0.582  -1.260  1.00  0.00    -0.352 OA
HETATM   22  C11 UNL     1      -4.663  -0.151  -2.298  1.00  0.00     0.210 C 
ENDBRANCH   6  21
TORSDOF 6
