REMARK  6 active torsions:
REMARK  status: ('A' for Active; 'I' for Inactive)
REMARK    1  A    between atoms: C9_9  and  C10_10 
REMARK    2  A    between atoms: C15_15  and  O1_16 
REMARK    3  A    between atoms: N2_18  and  C16_19 
REMARK    4  A    between atoms: C16_19  and  O2_20 
REMARK    5  A    between atoms: O2_20  and  C17_21 
REMARK    6  A    between atoms: N3_22  and  C18_23 
ROOT
HETATM    1  C1  UNL     1      -1.378  -4.559  -0.998  1.00  0.00     0.048 C 
HETATM    2  C2  UNL     1      -1.203  -3.275  -0.232  1.00  0.00    -0.063 A 
HETATM    3  C3  UNL     1      -0.310  -2.300  -0.124  1.00  0.00     0.016 A 
HETATM    4  C4  UNL     1      -0.765  -1.279   0.855  1.00  0.00     0.089 A 
HETATM    5  C5  UNL     1      -2.063  -1.832   1.287  1.00  0.00     0.010 A 
HETATM    6  C6  UNL     1      -2.318  -2.986   0.660  1.00  0.00     0.005 A 
HETATM    7  C7  UNL     1       0.253  -1.243   1.966  1.00  0.00     0.047 C 
HETATM    8  C8  UNL     1       1.593  -0.937   1.318  1.00  0.00     0.065 C 
HETATM    9  C9  UNL     1       1.507   0.268   0.451  1.00  0.00     0.067 C 
HETATM   10  N1  UNL     1       0.353   0.687   0.008  1.00  0.00    -0.178 NA
HETATM   11  N2  UNL     1      -0.854   0.046   0.311  1.00  0.00    -0.264 N 
ENDROOT
BRANCH   9  12
HETATM   12  C10 UNL     1       2.747   0.975   0.104  1.00  0.00     0.023 A 
HETATM   13  C11 UNL     1       3.976   0.547   0.563  1.00  0.00     0.016 A 
HETATM   14  C12 UNL     1       5.167   1.195   0.252  1.00  0.00     0.001 A 
HETATM   15  C13 UNL     1       5.118   2.330  -0.560  1.00  0.00     0.003 A 
HETATM   16  C14 UNL     1       3.881   2.744  -1.010  1.00  0.00     0.037 A 
HETATM   17  C15 UNL     1       2.691   2.097  -0.700  1.00  0.00     0.077 A 
BRANCH  17  18
HETATM   18  O1  UNL     1       1.477   2.567  -1.187  1.00  0.00    -0.360 OA
HETATM   19  H15 UNL     1       1.184   3.532  -1.197  1.00  0.00     0.217 HD
ENDBRANCH  17  18
ENDBRANCH   9  12
BRANCH  11  20
HETATM   20  C16 UNL     1      -2.086   0.778   0.049  1.00  0.00     0.322 C 
BRANCH  20  21
HETATM   21  O2  UNL     1      -2.224   1.125  -1.322  1.00  0.00    -0.324 OA
BRANCH  21  22
HETATM   22  C17 UNL     1      -3.392   1.832  -1.637  1.00  0.00     0.256 C 
HETATM   23  N3  UNL     1      -3.836   2.650  -0.748  1.00  0.00    -0.210 NA
BRANCH  23  24
HETATM   24  C18 UNL     1      -4.981   3.449  -0.864  1.00  0.00     0.378 C 
HETATM   25  O3  UNL     1      -6.232   3.575  -1.000  1.00  0.00    -0.281 OA
ENDBRANCH  23  24
ENDBRANCH  21  22
ENDBRANCH  20  21
ENDBRANCH  11  20
TORSDOF 6
