REMARK  8 active torsions:
REMARK  status: ('A' for Active; 'I' for Inactive)
REMARK    1  A    between atoms: O1_2  and  C2_3 
REMARK    2  A    between atoms: C4_5  and  C5_6 
REMARK    3  A    between atoms: C6_7  and  C7_8 
REMARK    4  A    between atoms: C7_8  and  C8_9 
REMARK    5  A    between atoms: C10_11  and  C11_12 
REMARK    6  A    between atoms: C14_15  and  O2_16 
REMARK    7  A    between atoms: N2_21  and  C18_22 
REMARK    8  A    between atoms: C19_24  and  O3_25 
ROOT
HETATM    1  C8  UNL     1       1.258  -0.868   0.550  1.00  0.00     0.122 C 
HETATM    2  C9  UNL     1       0.512   0.383   0.144  1.00  0.00     0.089 C 
HETATM    3  C10 UNL     1      -0.901  -0.000   0.396  1.00  0.00     0.067 C 
HETATM    4  N1  UNL     1      -1.003  -1.276   0.556  1.00  0.00    -0.174 NA
HETATM    5  N2  UNL     1       0.263  -1.879   0.438  1.00  0.00    -0.240 N 
ENDROOT
BRANCH   1   6
HETATM    6  C7  UNL     1       2.517  -1.076  -0.206  1.00  0.00     0.055 C 
BRANCH   6   7
HETATM    7  C6  UNL     1       2.401  -1.206  -1.656  1.00  0.00    -0.024 C 
HETATM    8  C5  UNL     1       2.984  -0.404  -2.566  1.00  0.00     0.007 C 
BRANCH   8   9
HETATM    9  C4  UNL     1       3.780   0.659  -2.008  1.00  0.00    -0.005 A 
HETATM   10  C2  UNL     1       4.501   1.621  -1.241  1.00  0.00     0.156 A 
HETATM   11  C3  UNL     1       4.558   1.656  -2.557  1.00  0.00     0.005 A 
BRANCH  10  12
HETATM   12  O1  UNL     1       5.337   2.705  -1.353  1.00  0.00    -0.371 OA
HETATM   13  C1  UNL     1       5.603   3.585  -0.246  1.00  0.00     0.203 C 
ENDBRANCH  10  12
ENDBRANCH   8   9
ENDBRANCH   6   7
ENDBRANCH   1   6
BRANCH   5  14
HETATM   14  C18 UNL     1       0.161  -3.322   0.251  1.00  0.00     0.192 A 
HETATM   15  N3  UNL     1       0.190  -4.242   1.303  1.00  0.00    -0.198 NA
HETATM   16  C19 UNL     1       0.075  -5.478   0.846  1.00  0.00     0.171 A 
HETATM   17  C20 UNL     1      -0.061  -5.919  -0.453  1.00  0.00     0.111 A 
HETATM   18  S1  UNL     1      -0.036  -4.342  -1.341  1.00  0.00    -0.058 SA
BRANCH  16  19
HETATM   19  O3  UNL     1       0.112  -6.356   1.955  1.00  0.00    -0.344 OA
HETATM   20  H18 UNL     1       0.880  -7.037   1.959  1.00  0.00     0.219 HD
ENDBRANCH  16  19
ENDBRANCH   5  14
BRANCH   3  21
HETATM   21  C11 UNL     1      -2.022   0.959   0.452  1.00  0.00    -0.010 A 
HETATM   22  C12 UNL     1      -3.274   0.454   0.690  1.00  0.00     0.016 A 
HETATM   23  C13 UNL     1      -4.396   1.252   0.766  1.00  0.00     0.037 A 
HETATM   24  C14 UNL     1      -4.216   2.623   0.589  1.00  0.00     0.068 A 
HETATM   25  C16 UNL     1      -2.937   3.089   0.352  1.00  0.00     0.037 A 
HETATM   26  C17 UNL     1      -1.807   2.306   0.273  1.00  0.00     0.016 A 
BRANCH  24  27
HETATM   27  O2  UNL     1      -5.316   3.467   0.656  1.00  0.00    -0.356 OA
HETATM   28  C15 UNL     1      -6.576   2.870   0.905  1.00  0.00     0.210 C 
ENDBRANCH  24  27
ENDBRANCH   3  21
TORSDOF 8
