REMARK  7 active torsions:
REMARK  status: ('A' for Active; 'I' for Inactive)
REMARK    1  A    between atoms: C2_2  and  C3_3 
REMARK    2  A    between atoms: C14_16  and  C15_17 
REMARK    3  A    between atoms: C16_18  and  O3_19 
REMARK    4  A    between atoms: C17_20  and  O4_21 
REMARK    5  A    between atoms: O4_21  and  C18_22 
REMARK    6  A    between atoms: C18_22  and  C19_23 
REMARK    7  A    between atoms: C19_23  and  N1_24 
ROOT
HETATM    1  C3  UNL     1       5.643   1.033  -0.670  1.00  0.00     0.005 C 
HETATM    2  C4  UNL     1       4.349   0.958  -0.407  1.00  0.00    -0.043 C 
HETATM    3  C5  UNL     1       3.443   1.691  -1.366  1.00  0.00     0.115 C 
HETATM    4  C6  UNL     1       2.857   2.925  -0.704  1.00  0.00     0.135 C 
HETATM    5  O1  UNL     1       3.141   4.042  -1.109  1.00  0.00    -0.297 OA
HETATM    6  C7  UNL     1       1.889   2.995   0.486  1.00  0.00     0.116 C 
HETATM    7  C8  UNL     1       1.728   1.556   0.834  1.00  0.00    -0.021 C 
HETATM    8  C9  UNL     1       2.591   0.566   1.288  1.00  0.00     0.060 A 
HETATM    9  C10 UNL     1       2.374  -0.526   2.340  1.00  0.00     0.054 A 
HETATM   10  C11 UNL     1       2.161  -0.974   1.053  1.00  0.00     0.112 A 
HETATM   11  O2  UNL     1       3.493  -1.178   0.455  1.00  0.00    -0.363 OA
HETATM   12  C12 UNL     1       4.043   0.198   0.760  1.00  0.00     0.169 C 
HETATM   13  C13 UNL     1       0.892  -1.230   0.280  1.00  0.00     0.014 C 
HETATM   14  C14 UNL     1       0.721  -2.361  -0.291  1.00  0.00     0.015 C 
HETATM   15  C17 UNL     1      -0.121  -0.111   0.207  1.00  0.00     0.111 C 
HETATM   16  C25 UNL     1       0.264   1.202   0.509  1.00  0.00     0.105 C 
HETATM   17  O5  UNL     1      -0.610   2.144   0.522  1.00  0.00    -0.353 OA
HETATM   18  C26 UNL     1      -1.495   3.096   0.535  1.00  0.00     0.210 C 
ENDROOT
BRANCH  15  19
HETATM   19  O4  UNL     1      -1.358  -0.353  -0.134  1.00  0.00    -0.346 OA
BRANCH  19  20
HETATM   20  C18 UNL     1      -1.943  -1.126  -1.086  1.00  0.00     0.195 C 
BRANCH  20  21
HETATM   21  C19 UNL     1      -3.278  -0.582  -1.584  1.00  0.00     0.143 C 
BRANCH  21  22
HETATM   22  N1  UNL     1      -4.291  -0.431  -0.630  1.00  0.00    -0.410 N 
HETATM   23  C20 UNL     1      -4.153   0.568   0.367  1.00  0.00     0.117 C 
HETATM   24  C21 UNL     1      -5.574   0.951   0.809  1.00  0.00     0.019 C 
HETATM   25  C22 UNL     1      -6.578   0.414  -0.222  1.00  0.00     0.003 C 
HETATM   26  C23 UNL     1      -6.550  -1.106  -0.208  1.00  0.00     0.019 C 
HETATM   27  C24 UNL     1      -5.091  -1.552  -0.283  1.00  0.00     0.117 C 
ENDBRANCH  21  22
ENDBRANCH  20  21
ENDBRANCH  19  20
ENDBRANCH  15  19
BRANCH  14  28
HETATM   28  C15 UNL     1       1.725  -3.352  -0.178  1.00  0.00     0.025 C 
HETATM   29  C16 UNL     1       1.675  -4.546  -0.714  1.00  0.00     0.131 C 
BRANCH  29  30
HETATM   30  O3  UNL     1       2.566  -5.562  -0.672  1.00  0.00    -0.373 OA
HETATM   31  H14 UNL     1       2.494  -6.419  -0.155  1.00  0.00     0.216 HD
ENDBRANCH  29  30
ENDBRANCH  14  28
BRANCH   1  32
HETATM   32  C2  UNL     1       6.777   0.446   0.049  1.00  0.00    -0.010 C 
HETATM   33  C1  UNL     1       8.026   0.613  -0.338  1.00  0.00     0.011 C 
ENDBRANCH   1  32
TORSDOF 7
