REMARK  4 active torsions:
REMARK  status: ('A' for Active; 'I' for Inactive)
REMARK    1  A    between atoms: O1_2  and  C2_3 
REMARK    2  A    between atoms: C5_6  and  C6_7 
REMARK    3  A    between atoms: C12_13  and  C13_14 
REMARK    4  A    between atoms: N2_18  and  C16_19 
ROOT
HETATM    1  C6  UNL     1      -0.389   0.863  -0.044  1.00  0.00    -0.017 A 
HETATM    2  C7  UNL     1      -0.637   1.996   0.722  1.00  0.00     0.019 A 
HETATM    3  C8  UNL     1       0.293   2.936   1.069  1.00  0.00    -0.061 A 
HETATM    4  C9  UNL     1      -0.112   4.113   1.901  1.00  0.00     0.048 C 
HETATM    5  C10 UNL     1       1.586   2.750   0.626  1.00  0.00     0.007 A 
HETATM    6  C11 UNL     1       1.898   1.659  -0.129  1.00  0.00     0.011 A 
HETATM    7  C12 UNL     1       0.921   0.741  -0.450  1.00  0.00    -0.017 A 
ENDROOT
BRANCH   7   8
HETATM    8  C13 UNL     1       1.326  -0.438  -1.257  1.00  0.00     0.194 A 
HETATM    9  C14 UNL     1       2.164  -0.011  -2.407  1.00  0.00     0.058 A 
HETATM   10  C15 UNL     1       1.860   0.786  -3.623  1.00  0.00     0.070 C 
HETATM   11  N1  UNL     1       3.206  -0.592  -1.928  1.00  0.00    -0.177 NA
HETATM   12  N2  UNL     1       2.558  -1.066  -0.792  1.00  0.00    -0.247 N 
BRANCH  12  13
HETATM   13  C16 UNL     1       3.046  -1.848   0.307  1.00  0.00     0.108 A 
HETATM   14  C17 UNL     1       3.808  -1.759   1.398  1.00  0.00     0.016 A 
HETATM   15  C18 UNL     1       4.697  -1.050   2.381  1.00  0.00     0.059 C 
HETATM   16  S1  UNL     1       3.138  -3.403   1.188  1.00  0.00    -0.072 SA
ENDBRANCH  12  13
ENDBRANCH   7   8
BRANCH   1  17
HETATM   17  C5  UNL     1      -1.476  -0.051  -0.360  1.00  0.00    -0.025 A 
HETATM   18  C4  UNL     1      -1.924  -0.604  -1.541  1.00  0.00     0.015 A 
HETATM   19  C3  UNL     1      -2.980  -1.458  -1.540  1.00  0.00     0.037 A 
HETATM   20  C2  UNL     1      -3.659  -1.824  -0.403  1.00  0.00     0.068 A 
HETATM   21  C20 UNL     1      -3.232  -1.286   0.786  1.00  0.00     0.037 A 
HETATM   22  C19 UNL     1      -2.146  -0.403   0.819  1.00  0.00     0.015 A 
BRANCH  20  23
HETATM   23  O1  UNL     1      -4.701  -2.698  -0.598  1.00  0.00    -0.356 OA
HETATM   24  C1  UNL     1      -5.464  -3.138   0.496  1.00  0.00     0.210 C 
ENDBRANCH  20  23
ENDBRANCH   1  17
TORSDOF 4
