REMARK  2 active torsions:
REMARK  status: ('A' for Active; 'I' for Inactive)
REMARK    1  A    between atoms: O1_2  and  C2_3 
REMARK    2  A    between atoms: C16_20  and  O2_21 
ROOT
HETATM    1  C2  UNL     1       3.587  -0.913  -0.638  1.00  0.00     0.065 C 
HETATM    2  C3  UNL     1       2.824  -1.845  -0.005  1.00  0.00     0.019 C 
HETATM    3  C4  UNL     1       1.369  -1.451   0.005  1.00  0.00     0.045 C 
HETATM    4  C5  UNL     1       0.335  -2.158   0.570  1.00  0.00    -0.005 C 
HETATM    5  C6  UNL     1      -0.950  -1.446   0.363  1.00  0.00    -0.031 A 
HETATM    6  C7  UNL     1      -2.113  -2.221   0.283  1.00  0.00     0.018 A 
HETATM    7  C8  UNL     1      -3.421  -1.813   0.100  1.00  0.00    -0.061 A 
HETATM    8  C9  UNL     1      -4.552  -2.768   0.035  1.00  0.00     0.048 C 
HETATM    9  C10 UNL     1      -3.589  -0.454  -0.018  1.00  0.00     0.007 A 
HETATM   10  C11 UNL     1      -2.468   0.337   0.057  1.00  0.00     0.010 A 
HETATM   11  C12 UNL     1      -1.139  -0.071   0.241  1.00  0.00    -0.030 A 
HETATM   12  C13 UNL     1      -0.211   1.090   0.231  1.00  0.00     0.143 A 
HETATM   13  C14 UNL     1       0.484   1.032  -1.144  1.00  0.00     0.146 A 
HETATM   14  N1  UNL     1       0.041   1.329  -2.458  1.00  0.00    -0.049 NA
HETATM   15  N2  UNL     1      -0.785   2.619  -2.474  1.00  0.00     0.088 N 
HETATM   16  C15 UNL     1      -1.420   3.672  -1.454  1.00  0.00     0.376 A 
HETATM   17  N3  UNL     1      -1.762   4.186  -0.415  1.00  0.00    -0.211 NA
HETATM   18  C16 UNL     1      -1.507   3.525   0.768  1.00  0.00     0.159 A 
HETATM   19  C17 UNL     1      -0.853   2.267   0.705  1.00  0.00     0.132 A 
HETATM   20  S1  UNL     1      -0.698   2.198  -0.927  1.00  0.00     0.034 SA
HETATM   21  C18 UNL     1       1.888   0.648  -1.185  1.00  0.00     0.017 C 
HETATM   22  C19 UNL     1       3.182   0.357  -1.256  1.00  0.00     0.035 C 
HETATM   23  H14 UNL     1      -1.216   3.312  -3.215  1.00  0.00     0.322 HD
ENDROOT
BRANCH   1  24
HETATM   24  O1  UNL     1       4.970  -1.138  -0.739  1.00  0.00    -0.356 OA
HETATM   25  C1  UNL     1       5.761  -0.501   0.260  1.00  0.00     0.210 C 
ENDBRANCH   1  24
BRANCH  18  26
HETATM   26  O2  UNL     1      -1.536   3.385   2.151  1.00  0.00    -0.347 OA
HETATM   27  H15 UNL     1      -2.370   3.593   2.685  1.00  0.00     0.219 HD
ENDBRANCH  18  26
TORSDOF 2
