REMARK  2 active torsions:
REMARK  status: ('A' for Active; 'I' for Inactive)
REMARK    1  A    between atoms: C2_2  and  C3_3 
REMARK    2  A    between atoms: N2_9  and  C8_10 
ROOT
HETATM    1  C3  UNL     1      -2.532  -0.653  -0.579  1.00  0.00     0.059 C 
HETATM    2  C4  UNL     1      -1.665  -1.305  -1.560  1.00  0.00    -0.012 C 
HETATM    3  C5  UNL     1      -0.576  -1.684  -2.173  1.00  0.00     0.025 C 
HETATM    4  C6  UNL     1       0.785  -1.342  -1.794  1.00  0.00     0.051 C 
HETATM    5  C7  UNL     1       2.036  -1.759  -2.468  1.00  0.00     0.072 C 
HETATM    6  N1  UNL     1       0.888  -0.607  -0.772  1.00  0.00    -0.175 NA
HETATM    7  N2  UNL     1       2.002  -0.109  -0.157  1.00  0.00    -0.243 N 
HETATM    8  C11 UNL     1       1.795  -0.530   1.208  1.00  0.00     0.189 C 
HETATM    9  C12 UNL     1       0.524  -0.015   1.794  1.00  0.00     0.164 C 
HETATM   10  C13 UNL     1      -0.469   0.444   0.780  1.00  0.00     0.010 C 
HETATM   11  C14 UNL     1      -1.719   0.093   0.425  1.00  0.00    -0.067 C 
HETATM   12  C15 UNL     1      -2.800   0.588   1.307  1.00  0.00     0.061 C 
HETATM   13  C16 UNL     1      -2.617   0.361   2.739  1.00  0.00    -0.024 C 
HETATM   14  C17 UNL     1      -1.921  -0.182   3.719  1.00  0.00    -0.005 C 
HETATM   15  C18 UNL     1      -0.539  -0.688   3.713  1.00  0.00     0.196 C 
HETATM   16  O1  UNL     1      -0.057  -1.072   2.489  1.00  0.00    -0.377 OA
ENDROOT
BRANCH   7  17
HETATM   17  C8  UNL     1       3.090   0.645  -0.761  1.00  0.00     0.189 A 
HETATM   18  N3  UNL     1       3.484   1.094  -1.766  1.00  0.00    -0.235 NA
HETATM   19  C9  UNL     1       4.607   1.765  -1.913  1.00  0.00     0.127 A 
HETATM   20  C10 UNL     1       5.394   1.958  -0.785  1.00  0.00     0.072 A 
HETATM   21  S1  UNL     1       4.374   1.094   0.487  1.00  0.00    -0.061 SA
ENDBRANCH   7  17
BRANCH   1  22
HETATM   22  C2  UNL     1      -3.536   0.247  -1.221  1.00  0.00    -0.024 C 
HETATM   23  C1  UNL     1      -3.453   0.397  -2.538  1.00  0.00     0.008 C 
ENDBRANCH   1  22
TORSDOF 2
