REMARK  3 active torsions:
REMARK  status: ('A' for Active; 'I' for Inactive)
REMARK    1  A    between atoms: C5_6  and  C8_9 
REMARK    2  A    between atoms: C8_9  and  C9_10 
REMARK    3  A    between atoms: C14_19  and  O2_20 
ROOT
HETATM    1  C1  UNL     1       1.064   0.021  -1.497  1.00  0.00     0.023 C 
HETATM    2  C2  UNL     1       0.345  -0.333  -0.233  1.00  0.00     0.036 C 
HETATM    3  C3  UNL     1      -0.988  -0.827  -0.572  1.00  0.00     0.183 C 
HETATM    4  O1  UNL     1      -1.837  -0.462  -1.627  1.00  0.00    -0.375 OA
HETATM    5  C4  UNL     1      -2.330   0.869  -1.873  1.00  0.00     0.101 A 
HETATM    6  C5  UNL     1      -2.827   2.220  -1.718  1.00  0.00     0.035 A 
HETATM    7  C6  UNL     1      -2.895   2.512  -0.339  1.00  0.00     0.010 A 
HETATM    8  C7  UNL     1      -2.910   2.663   1.129  1.00  0.00    -0.016 A 
HETATM    9  C8  UNL     1      -2.895   2.526  -0.132  1.00  0.00     0.049 A 
HETATM   10  C9  UNL     1      -2.486   1.334  -0.606  1.00  0.00     0.035 A 
HETATM   11  C10 UNL     1      -1.586   1.821   1.846  1.00  0.00    -0.046 C 
HETATM   12  P1  UNL     1      -0.673   1.168   3.081  1.00  0.00     0.049 P 
HETATM   13  N1  UNL     1       0.811   0.233   2.100  1.00  0.00    -0.208 NA
HETATM   14  N2  UNL     1       0.364  -1.066   1.907  1.00  0.00    -0.224 NA
HETATM   15  C11 UNL     1       1.031  -1.371   0.628  1.00  0.00     0.118 C 
HETATM   16  C12 UNL     1       0.771  -2.784   0.337  1.00  0.00     0.128 C 
HETATM   17  S1  UNL     1       1.543  -3.281  -1.257  1.00  0.00    -0.133 SA
HETATM   18  C13 UNL     1       3.116  -2.366  -1.191  1.00  0.00     0.100 C 
HETATM   19  C14 UNL     1       3.316  -1.472  -0.240  1.00  0.00     0.143 C 
HETATM   20  N3  UNL     1       2.418  -1.112   0.787  1.00  0.00    -0.346 N 
HETATM   21  C15 UNL     1       0.589   0.812   0.799  1.00  0.00     0.098 C 
HETATM   22  C16 UNL     1      -0.703   1.389   0.903  1.00  0.00     0.059 C 
HETATM   23  H10 UNL     1       0.697  -1.706   2.655  1.00  0.00     0.144 HD
HETATM   24  H15 UNL     1       2.982  -0.676   1.553  1.00  0.00     0.163 HD
ENDROOT
BRANCH  19  25
HETATM   25  O2  UNL     1       4.589  -1.110  -0.641  1.00  0.00    -0.346 OA
HETATM   26  H14 UNL     1       4.850  -0.182  -0.930  1.00  0.00     0.219 HD
ENDBRANCH  19  25
TORSDOF 3
