REMARK  3 active torsions:
REMARK  status: ('A' for Active; 'I' for Inactive)
REMARK    1  A    between atoms: O1_2  and  C2_3 
REMARK    2  A    between atoms: C5_6  and  C6_7 
REMARK    3  A    between atoms: C8_12  and  O2_13 
ROOT
HETATM    1  C6  UNL     1       1.521  -1.024   0.336  1.00  0.00     0.090 C 
HETATM    2  N1  UNL     1       1.336   0.254   0.105  1.00  0.00    -0.170 NA
HETATM    3  N2  UNL     1       0.075   0.684   0.322  1.00  0.00    -0.249 N 
HETATM    4  C7  UNL     1      -0.464   1.836  -0.382  1.00  0.00     0.232 C 
HETATM    5  N3  UNL     1      -0.009   3.009  -0.102  1.00  0.00    -0.218 NA
HETATM    6  C8  UNL     1      -0.567   4.113  -0.801  1.00  0.00     0.169 C 
HETATM    7  C9  UNL     1      -1.829   4.341  -0.372  1.00  0.00     0.209 C 
HETATM    8  S1  UNL     1      -3.309   3.983   0.680  1.00  0.00    -0.176 SA
HETATM    9  C10 UNL     1      -3.454   2.179   0.601  1.00  0.00     0.021 A 
HETATM   10  C11 UNL     1      -2.285   1.643   1.083  1.00  0.00     0.029 A 
HETATM   11  C12 UNL     1      -2.138   0.252   0.894  1.00  0.00    -0.028 A 
HETATM   12  C13 UNL     1      -3.119  -0.453   0.289  1.00  0.00     0.012 A 
HETATM   13  C14 UNL     1      -4.280   0.186  -0.159  1.00  0.00     0.039 A 
HETATM   14  C15 UNL     1      -4.494   1.557  -0.017  1.00  0.00     0.083 A 
HETATM   15  O3  UNL     1      -5.512   2.157  -0.405  1.00  0.00    -0.355 OA
HETATM   16  C16 UNL     1      -6.589   2.778  -0.818  1.00  0.00     0.210 C 
HETATM   17  C17 UNL     1      -0.768  -0.056   1.338  1.00  0.00     0.175 C 
HETATM   18  P1  UNL     1      -0.116  -1.722   0.878  1.00  0.00    -0.041 P 
HETATM   19  H16 UNL     1      -0.719  -2.223  -0.314  1.00  0.00     0.066 HD
ENDROOT
BRANCH   6  20
HETATM   20  O2  UNL     1      -0.499   5.127  -1.734  1.00  0.00    -0.344 OA
HETATM   21  H7  UNL     1      -0.813   4.943  -2.688  1.00  0.00     0.219 HD
ENDBRANCH   6  20
BRANCH   1  22
HETATM   22  C5  UNL     1       2.766  -1.765   0.190  1.00  0.00    -0.005 A 
HETATM   23  C4  UNL     1       2.777  -3.114   0.479  1.00  0.00     0.016 A 
HETATM   24  C3  UNL     1       3.965  -3.852   0.353  1.00  0.00     0.037 A 
HETATM   25  C2  UNL     1       5.100  -3.183  -0.066  1.00  0.00     0.068 A 
HETATM   26  C19 UNL     1       5.078  -1.837  -0.353  1.00  0.00     0.037 A 
HETATM   27  C18 UNL     1       3.904  -1.110  -0.227  1.00  0.00     0.016 A 
BRANCH  25  28
HETATM   28  O1  UNL     1       6.354  -3.727  -0.250  1.00  0.00    -0.356 OA
HETATM   29  C1  UNL     1       6.725  -5.057  -0.055  1.00  0.00     0.210 C 
ENDBRANCH  25  28
ENDBRANCH   1  22
TORSDOF 3
