REMARK  7 active torsions:
REMARK  status: ('A' for Active; 'I' for Inactive)
REMARK    1  A    between atoms: O1_2  and  C2_3 
REMARK    2  A    between atoms: C5_6  and  C6_7 
REMARK    3  A    between atoms: C6_7  and  C7_8 
REMARK    4  A    between atoms: C7_8  and  C8_9 
REMARK    5  A    between atoms: C8_9  and  O2_11 
REMARK    6  A    between atoms: O2_11  and  C9_12 
REMARK    7  A    between atoms: C12_15  and  O3_16 
ROOT
HETATM    1  C8  UNL     1       0.782  -1.079   1.137  1.00  0.00     0.200 C 
HETATM    2 BR1  UNL     1       0.507  -2.305   2.621  1.00  0.00    -0.061 Br
ENDROOT
BRANCH   1   3
HETATM    3  C7  UNL     1      -0.542  -0.416   0.755  1.00  0.00     0.048 C 
BRANCH   3   4
HETATM    4  C6  UNL     1      -1.521  -1.488   0.349  1.00  0.00     0.042 C 
BRANCH   4   5
HETATM    5  C5  UNL     1      -2.795  -0.807  -0.016  1.00  0.00    -0.058 A 
HETATM    6  C4  UNL     1      -3.668  -0.639   1.021  1.00  0.00     0.010 A 
HETATM    7  C3  UNL     1      -4.898  -0.024   0.850  1.00  0.00     0.037 A 
HETATM    8  C2  UNL     1      -5.191   0.411  -0.433  1.00  0.00     0.068 A 
HETATM    9  C17 UNL     1      -4.323   0.253  -1.505  1.00  0.00     0.037 A 
HETATM   10  C16 UNL     1      -3.094  -0.372  -1.291  1.00  0.00     0.010 A 
BRANCH   8  11
HETATM   11  O1  UNL     1      -6.406   1.044  -0.712  1.00  0.00    -0.356 OA
HETATM   12  C1  UNL     1      -7.276   1.190   0.416  1.00  0.00     0.210 C 
ENDBRANCH   8  11
ENDBRANCH   4   5
ENDBRANCH   3   4
ENDBRANCH   1   3
BRANCH   1  13
HETATM   13  O2  UNL     1       1.724  -0.131   1.557  1.00  0.00    -0.335 OA
BRANCH  13  14
HETATM   14  C9  UNL     1       2.909   0.021   0.870  1.00  0.00     0.070 A 
HETATM   15  C10 UNL     1       3.647   1.028   1.509  1.00  0.00     0.039 A 
HETATM   16  C11 UNL     1       4.909   1.420   1.045  1.00  0.00     0.039 A 
HETATM   17  C12 UNL     1       5.472   0.807  -0.081  1.00  0.00     0.068 A 
HETATM   18  C14 UNL     1       4.718  -0.179  -0.683  1.00  0.00     0.039 A 
HETATM   19  C15 UNL     1       3.481  -0.566  -0.233  1.00  0.00     0.039 A 
BRANCH  17  20
HETATM   20  O3  UNL     1       6.708   1.176  -0.552  1.00  0.00    -0.356 OA
HETATM   21  C13 UNL     1       7.216   0.514  -1.695  1.00  0.00     0.210 C 
ENDBRANCH  17  20
ENDBRANCH  13  14
ENDBRANCH   1  13
TORSDOF 7
