REMARK  2 active torsions:
REMARK  status: ('A' for Active; 'I' for Inactive)
REMARK    1  A    between atoms: O1_2  and  C2_3 
REMARK    2  A    between atoms: C13_18  and  O2_19 
ROOT
HETATM    1  C2  UNL     1       1.849   0.974  -1.536  1.00  0.00     0.058 C 
HETATM    2  C3  UNL     1       2.134   1.119  -0.201  1.00  0.00     0.007 C 
HETATM    3  C4  UNL     1       2.189   1.182   1.271  1.00  0.00     0.003 C 
HETATM    4  C5  UNL     1       1.452   0.894   2.363  1.00  0.00     0.053 C 
HETATM    5  C6  UNL     1       0.204   0.360   2.906  1.00  0.00     0.117 A 
HETATM    6  C7  UNL     1      -0.592   0.915   3.985  1.00  0.00     0.039 A 
HETATM    7  C8  UNL     1      -2.045   0.456   3.597  1.00  0.00    -0.013 A 
HETATM    8  N1  UNL     1      -0.926   0.130   3.134  1.00  0.00     0.000 N 
HETATM    9  N2  UNL     1      -0.804   0.807   1.932  1.00  0.00    -0.259 N 
HETATM   10  C9  UNL     1      -1.149   1.479   0.686  1.00  0.00     0.188 A 
HETATM   11  N3  UNL     1      -0.197   0.802  -0.274  1.00  0.00    -0.226 NA
HETATM   12  C10 UNL     1      -0.495   1.372  -1.455  1.00  0.00     0.060 A 
HETATM   13  C11 UNL     1      -1.503   2.415  -1.767  1.00  0.00     0.081 A 
HETATM   14  S1  UNL     1      -2.126   2.568   0.073  1.00  0.00    -0.060 SA
HETATM   15  C12 UNL     1       0.543   0.512  -2.078  1.00  0.00     0.151 C 
HETATM   16  C13 UNL     1       0.321  -0.887  -2.220  1.00  0.00     0.056 C 
HETATM   17  C14 UNL     1      -0.678  -1.739  -1.921  1.00  0.00     0.010 C 
HETATM   18  C15 UNL     1      -1.986  -1.600  -1.308  1.00  0.00     0.056 C 
HETATM   19  C16 UNL     1      -2.380  -2.519  -0.238  1.00  0.00    -0.023 C 
HETATM   20  C17 UNL     1      -2.632  -2.798   1.013  1.00  0.00    -0.007 C 
HETATM   21  C18 UNL     1      -2.516  -1.865   2.129  1.00  0.00    -0.021 C 
HETATM   22  C19 UNL     1      -2.231  -0.648   2.581  1.00  0.00     0.027 A 
ENDROOT
BRANCH   1  23
HETATM   23  O1  UNL     1       2.739   1.260  -2.599  1.00  0.00    -0.359 OA
HETATM   24  C1  UNL     1       4.098   0.920  -2.519  1.00  0.00     0.209 C 
ENDBRANCH   1  23
BRANCH  16  25
HETATM   25  O2  UNL     1       1.353  -1.615  -2.814  1.00  0.00    -0.364 OA
HETATM   26  H12 UNL     1       2.230  -1.218  -3.096  1.00  0.00     0.217 HD
ENDBRANCH  16  25
TORSDOF 2
