REMARK  9 active torsions:
REMARK  status: ('A' for Active; 'I' for Inactive)
REMARK    1  A    between atoms: C2_2  and  O1_3 
REMARK    2  A    between atoms: O1_3  and  C3_4 
REMARK    3  A    between atoms: C6_7  and  C7_8 
REMARK    4  A    between atoms: N1_9  and  N2_10 
REMARK    5  A    between atoms: N2_10  and  C8_11 
REMARK    6  A    between atoms: N2_10  and  C15_19 
REMARK    7  A    between atoms: C8_11  and  C9_12 
REMARK    8  A    between atoms: C12_15  and  O2_16 
REMARK    9  A    between atoms: C16_21  and  O3_22 
ROOT
HETATM    1  N2  UNL     1      -1.753  -1.932  -0.676  1.00  0.00    -0.242 N 
ENDROOT
BRANCH   1   2
HETATM    2  N1  UNL     1      -0.590  -1.258  -0.302  1.00  0.00    -0.182 NA
HETATM    3  C7  UNL     1       0.143  -0.792  -1.277  1.00  0.00     0.150 C 
BRANCH   3   4
HETATM    4  C6  UNL     1       1.392  -0.064  -0.979  1.00  0.00    -0.017 A 
HETATM    5  C5  UNL     1       2.219   0.458  -1.968  1.00  0.00     0.015 A 
HETATM    6  C4  UNL     1       3.370   1.126  -1.609  1.00  0.00     0.037 A 
HETATM    7  C3  UNL     1       3.743   1.302  -0.299  1.00  0.00     0.068 A 
HETATM    8  C19 UNL     1       2.920   0.782   0.687  1.00  0.00     0.037 A 
HETATM    9  C18 UNL     1       1.765   0.111   0.346  1.00  0.00     0.015 A 
BRANCH   7  10
HETATM   10  O1  UNL     1       4.917   1.985  -0.004  1.00  0.00    -0.352 OA
BRANCH  10  11
HETATM   11  C2  UNL     1       5.259   2.140   1.374  1.00  0.00     0.171 C 
HETATM   12  C1  UNL     1       6.562   2.909   1.438  1.00  0.00     0.034 C 
ENDBRANCH  10  11
ENDBRANCH   7  10
ENDBRANCH   3   4
ENDBRANCH   1   2
BRANCH   1  13
HETATM   13  C8  UNL     1      -2.912  -1.334  -1.304  1.00  0.00     0.188 C 
BRANCH  13  14
HETATM   14  C9  UNL     1      -3.537  -0.266  -0.470  1.00  0.00    -0.054 A 
HETATM   15  C10 UNL     1      -4.754  -0.178   0.028  1.00  0.00     0.007 A 
HETATM   16  C11 UNL     1      -4.940   1.057   0.793  1.00  0.00     0.033 A 
HETATM   17  C12 UNL     1      -3.789   1.721   0.744  1.00  0.00     0.049 A 
HETATM   18  C14 UNL     1      -2.781   0.947  -0.064  1.00  0.00     0.100 A 
BRANCH  17  19
HETATM   19  O2  UNL     1      -3.583   2.945   1.359  1.00  0.00    -0.360 OA
HETATM   20  C13 UNL     1      -2.959   4.055   0.790  1.00  0.00     0.209 C 
ENDBRANCH  17  19
ENDBRANCH  13  14
ENDBRANCH   1  13
BRANCH   1  21
HETATM   21  C15 UNL     1      -1.609  -3.335  -0.331  1.00  0.00     0.192 A 
HETATM   22  N3  UNL     1      -0.876  -4.059   0.136  1.00  0.00    -0.198 NA
HETATM   23  C16 UNL     1      -1.023  -5.356   0.332  1.00  0.00     0.171 A 
HETATM   24  C17 UNL     1      -2.194  -5.920  -0.067  1.00  0.00     0.111 A 
HETATM   25  S1  UNL     1      -3.102  -4.427  -0.765  1.00  0.00    -0.058 SA
BRANCH  23  26
HETATM   26  O3  UNL     1       0.013  -6.100   0.935  1.00  0.00    -0.344 OA
HETATM   27  H18 UNL     1       0.327  -6.984   0.552  1.00  0.00     0.219 HD
ENDBRANCH  23  26
ENDBRANCH   1  21
TORSDOF 9
