REMARK  8 active torsions:
REMARK  status: ('A' for Active; 'I' for Inactive)
REMARK    1  A    between atoms: O1_2  and  C2_3 
REMARK    2  A    between atoms: C5_6  and  C6_7 
REMARK    3  A    between atoms: N2_9  and  C7_10 
REMARK    4  A    between atoms: C7_10  and  C8_11 
REMARK    5  A    between atoms: C9_13  and  O2_14 
REMARK    6  A    between atoms: C11_17  and  C12_18 
REMARK    7  A    between atoms: C12_18  and  N4_19 
REMARK    8  A    between atoms: N4_19  and  C13_20 
ROOT
HETATM    1  C6  UNL     1      -0.687  -0.605  -0.211  1.00  0.00     0.067 C 
HETATM    2  N1  UNL     1       0.065  -1.271   0.594  1.00  0.00    -0.180 NA
HETATM    3  N2  UNL     1       1.400  -1.186   0.224  1.00  0.00    -0.292 N 
HETATM    4  C11 UNL     1       1.507   0.008  -0.591  1.00  0.00     0.128 C 
HETATM    5  C15 UNL     1       0.150   0.028  -1.266  1.00  0.00     0.090 C 
ENDROOT
BRANCH   1   6
HETATM    6  C5  UNL     1      -2.142  -0.482  -0.114  1.00  0.00    -0.010 A 
HETATM    7  C4  UNL     1      -2.879   0.253  -1.020  1.00  0.00     0.016 A 
HETATM    8  C3  UNL     1      -4.258   0.330  -0.871  1.00  0.00     0.037 A 
HETATM    9  C2  UNL     1      -4.936  -0.305   0.158  1.00  0.00     0.068 A 
HETATM   10  C17 UNL     1      -4.193  -1.039   1.060  1.00  0.00     0.037 A 
HETATM   11  C16 UNL     1      -2.823  -1.112   0.908  1.00  0.00     0.016 A 
BRANCH   9  12
HETATM   12  O1  UNL     1      -6.315  -0.134   0.172  1.00  0.00    -0.356 OA
HETATM   13  C1  UNL     1      -7.186  -0.683   1.114  1.00  0.00     0.210 C 
ENDBRANCH   9  12
ENDBRANCH   1   6
BRANCH   3  14
HETATM   14  C7  UNL     1       2.338  -2.220   0.687  1.00  0.00     0.212 C 
BRANCH  14  15
HETATM   15  C8  UNL     1       3.710  -1.935   0.175  1.00  0.00     0.097 A 
HETATM   16  N3  UNL     1       4.432  -2.142  -0.726  1.00  0.00    -0.220 NA
HETATM   17  C9  UNL     1       5.680  -1.686  -0.848  1.00  0.00     0.169 A 
HETATM   18  C10 UNL     1       6.193  -0.851   0.244  1.00  0.00     0.109 A 
HETATM   19  S1  UNL     1       4.680  -0.840   1.384  1.00  0.00    -0.081 SA
BRANCH  17  20
HETATM   20  O2  UNL     1       6.294  -2.107  -2.045  1.00  0.00    -0.344 OA
HETATM   21  H8  UNL     1       6.791  -3.009  -1.978  1.00  0.00     0.219 HD
ENDBRANCH  17  20
ENDBRANCH  14  15
ENDBRANCH   3  14
BRANCH   4  22
HETATM   22  C12 UNL     1       1.708   1.271   0.193  1.00  0.00     0.146 C 
BRANCH  22  23
HETATM   23  N4  UNL     1       1.790   2.344  -0.808  1.00  0.00    -0.396 N 
HETATM   24  H13 UNL     1       1.757   2.521  -1.854  1.00  0.00     0.158 HD
BRANCH  23  25
HETATM   25  C13 UNL     1       1.979   3.638  -0.305  1.00  0.00     0.090 C 
HETATM   26  C14 UNL     1       0.989   4.496  -0.230  1.00  0.00     0.072 C 
HETATM   27 BR1  UNL     1      -0.798   4.107  -0.783  1.00  0.00    -0.062 Br
ENDBRANCH  23  25
ENDBRANCH  22  23
ENDBRANCH   4  22
TORSDOF 8
