REMARK  3 active torsions:
REMARK  status: ('A' for Active; 'I' for Inactive)
REMARK    1  A    between atoms: O1_2  and  C2_3 
REMARK    2  A    between atoms: N2_8  and  C6_9 
REMARK    3  A    between atoms: C17_22  and  S1_23 
ROOT
HETATM    1  C2  UNL     1       0.994   1.708   1.155  1.00  0.00     0.065 C 
HETATM    2  C3  UNL     1      -0.269   1.977   0.904  1.00  0.00     0.016 C 
HETATM    3  C4  UNL     1      -1.127   2.604  -0.127  1.00  0.00     0.086 C 
HETATM    4  C5  UNL     1      -1.824   1.370  -0.787  1.00  0.00     0.038 C 
HETATM    5  N1  UNL     1      -2.858   0.672  -1.138  1.00  0.00    -0.179 NA
HETATM    6  N2  UNL     1      -2.523  -0.598  -1.624  1.00  0.00    -0.241 N 
HETATM    7  C9  UNL     1      -1.215  -0.861  -1.124  1.00  0.00     0.066 C 
HETATM    8  C10 UNL     1      -0.335  -1.783  -1.934  1.00  0.00     0.063 C 
HETATM    9  C11 UNL     1       0.988  -1.817  -1.191  1.00  0.00     0.008 C 
HETATM   10  C12 UNL     1       1.177  -1.442   0.090  1.00  0.00     0.042 C 
HETATM   11  C13 UNL     1      -0.010  -1.944   0.818  1.00  0.00     0.067 C 
HETATM   12  C14 UNL     1      -1.255  -1.276   0.302  1.00  0.00     0.040 C 
HETATM   13  O2  UNL     1       2.035  -0.806   0.844  1.00  0.00    -0.355 OA
HETATM   14  C15 UNL     1       3.174  -0.786   1.559  1.00  0.00     0.180 C 
HETATM   15  C16 UNL     1       3.165   0.506   2.484  1.00  0.00     0.072 C 
HETATM   16  C17 UNL     1       1.902   0.417   3.241  1.00  0.00    -0.020 C 
HETATM   17  C18 UNL     1       1.144   1.016   2.408  1.00  0.00     0.050 C 
HETATM   18  C19 UNL     1      -0.671   0.572  -1.265  1.00  0.00     0.090 C 
ENDROOT
BRANCH   6  19
HETATM   19  C6  UNL     1      -3.490  -1.253  -2.426  1.00  0.00     0.147 A 
HETATM   20  N3  UNL     1      -4.295  -2.219  -2.060  1.00  0.00    -0.242 NA
HETATM   21  C7  UNL     1      -4.882  -2.298  -3.336  1.00  0.00     0.123 A 
HETATM   22  C8  UNL     1      -4.095  -1.339  -3.733  1.00  0.00     0.071 A 
ENDBRANCH   6  19
BRANCH   1  23
HETATM   23  O1  UNL     1       2.037   2.051   0.305  1.00  0.00    -0.356 OA
HETATM   24  C1  UNL     1       2.080   3.171  -0.537  1.00  0.00     0.210 C 
ENDBRANCH   1  23
BRANCH  16  25
HETATM   25  S1  UNL     1       1.946  -0.392   4.816  1.00  0.00    -0.147 SA
HETATM   26  H20 UNL     1       2.995   0.224   5.559  1.00  0.00     0.107 HD
ENDBRANCH  16  25
TORSDOF 3
