REMARK  3 active torsions:
REMARK  status: ('A' for Active; 'I' for Inactive)
REMARK    1  A    between atoms: O1_2  and  C2_3 
REMARK    2  A    between atoms: C5_6  and  C6_7 
REMARK    3  A    between atoms: C9_12  and  O2_13 
ROOT
HETATM    1  C6  UNL     1       1.287  -0.041  -0.507  1.00  0.00     0.041 C 
HETATM    2  N1  UNL     1       0.792  -0.883  -1.357  1.00  0.00    -0.277 NA
HETATM    3  C7  UNL     1      -0.670  -0.805  -1.375  1.00  0.00     0.182 C 
HETATM    4  S1  UNL     1      -1.272  -1.776  -0.007  1.00  0.00    -0.110 SA
HETATM    5  C8  UNL     1      -2.989  -1.757   0.274  1.00  0.00     0.095 C 
HETATM    6  C9  UNL     1      -4.105  -1.634   0.960  1.00  0.00     0.115 C 
HETATM    7  N2  UNL     1      -5.480  -1.710   0.684  1.00  0.00    -0.259 NA
HETATM    8  C10 UNL     1      -6.094  -0.600   0.269  1.00  0.00     0.406 C 
HETATM    9  O3  UNL     1      -5.811   0.811  -0.032  1.00  0.00    -0.325 OA
HETATM   10  C11 UNL     1      -4.403   0.889  -0.316  1.00  0.00     0.071 A 
HETATM   11  C12 UNL     1      -4.351   0.466  -1.608  1.00  0.00     0.037 A 
HETATM   12  C13 UNL     1      -2.977   0.544  -1.685  1.00  0.00     0.010 A 
HETATM   13  C14 UNL     1      -2.228   0.953  -0.623  1.00  0.00    -0.051 A 
HETATM   14  C15 UNL     1      -2.388   1.374   0.659  1.00  0.00     0.010 A 
HETATM   15  C16 UNL     1      -3.752   1.315   0.795  1.00  0.00     0.037 A 
HETATM   16  C17 UNL     1      -0.821   0.690  -1.023  1.00  0.00     0.059 C 
HETATM   17  C18 UNL     1       0.147   0.708   0.140  1.00  0.00     0.072 C 
ENDROOT
BRANCH   1  18
HETATM   18  C5  UNL     1       2.711   0.140  -0.239  1.00  0.00    -0.012 A 
HETATM   19  C4  UNL     1       3.589  -0.647  -0.945  1.00  0.00     0.016 A 
HETATM   20  C3  UNL     1       4.953  -0.480  -0.694  1.00  0.00     0.037 A 
HETATM   21  C2  UNL     1       5.369   0.453   0.239  1.00  0.00     0.068 A 
HETATM   22  C20 UNL     1       4.460   1.227   0.931  1.00  0.00     0.037 A 
HETATM   23  C19 UNL     1       3.105   1.075   0.695  1.00  0.00     0.016 A 
BRANCH  21  24
HETATM   24  O1  UNL     1       6.712   0.651   0.518  1.00  0.00    -0.356 OA
HETATM   25  C1  UNL     1       7.641  -0.156  -0.204  1.00  0.00     0.210 C 
ENDBRANCH  21  24
ENDBRANCH   1  18
BRANCH   6  26
HETATM   26  O2  UNL     1      -4.418  -1.358   2.296  1.00  0.00    -0.351 OA
HETATM   27  H8  UNL     1      -3.770  -1.706   2.973  1.00  0.00     0.218 HD
ENDBRANCH   6  26
TORSDOF 3
