REMARK  6 active torsions:
REMARK  status: ('A' for Active; 'I' for Inactive)
REMARK    1  A    between atoms: C7_7  and  C8_8 
REMARK    2  A    between atoms: C8_8  and  C9_9 
REMARK    3  A    between atoms: C8_8  and  C10_11 
REMARK    4  A    between atoms: C10_11  and  N1_12 
REMARK    5  A    between atoms: C15_17  and  O2_18 
REMARK    6  A    between atoms: O2_18  and  C16_19 
ROOT
HETATM    1  C8  UNL     1       0.819  -0.664   1.238  1.00  0.00     0.108 C 
ENDROOT
BRANCH   1   2
HETATM    2  C7  UNL     1       1.605   0.437   1.831  1.00  0.00    -0.043 A 
HETATM    3  C2  UNL     1       2.709   1.131   1.189  1.00  0.00    -0.069 A 
HETATM    4  C1  UNL     1       3.070   0.763  -0.024  1.00  0.00     0.039 C 
HETATM    5  C3  UNL     1       3.547   2.239   1.707  1.00  0.00     0.061 A 
HETATM    6  C4  UNL     1       3.080   2.563   3.077  1.00  0.00    -0.022 A 
HETATM    7  C5  UNL     1       2.091   1.968   3.707  1.00  0.00    -0.003 A 
HETATM    8  C6  UNL     1       1.339   0.885   3.070  1.00  0.00     0.008 A 
ENDBRANCH   1   2
BRANCH   1   9
HETATM    9  C9  UNL     1      -0.153  -1.139   2.245  1.00  0.00     0.242 C 
HETATM   10  O1  UNL     1      -1.361  -1.132   2.107  1.00  0.00    -0.306 OA
ENDBRANCH   1   9
BRANCH   1  11
HETATM   11  C10 UNL     1       0.126  -0.166  -0.018  1.00  0.00     0.292 C 
BRANCH  11  12
HETATM   12  N1  UNL     1      -0.638  -1.212  -0.604  1.00  0.00     0.118 N 
HETATM   13  C11 UNL     1       0.117  -2.296  -1.165  1.00  0.00     0.276 C 
HETATM   14  C12 UNL     1       0.127  -2.147  -2.688  1.00  0.00     0.030 C 
HETATM   15  C13 UNL     1      -1.277  -2.501  -3.147  1.00  0.00     0.006 C 
HETATM   16  C14 UNL     1      -2.255  -1.979  -2.144  1.00  0.00     0.064 C 
HETATM   17  C15 UNL     1      -1.654  -0.715  -1.501  1.00  0.00     0.358 C 
BRANCH  17  18
HETATM   18  O2  UNL     1      -2.589  -0.026  -0.785  1.00  0.00    -0.357 OA
BRANCH  18  19
HETATM   19  C16 UNL     1      -2.888   1.242  -1.175  1.00  0.00     0.166 C 
HETATM   20  C17 UNL     1      -3.948   1.771  -0.199  1.00  0.00     0.033 C 
ENDBRANCH  18  19
ENDBRANCH  17  18
ENDBRANCH  11  12
ENDBRANCH   1  11
TORSDOF 6
