REMARK  8 active torsions:
REMARK  status: ('A' for Active; 'I' for Inactive)
REMARK    1  A    between atoms: O1_2  and  C2_3 
REMARK    2  A    between atoms: C2_3  and  C3_4 
REMARK    3  A    between atoms: C3_4  and  O2_5 
REMARK    4  A    between atoms: O2_5  and  C4_6 
REMARK    5  A    between atoms: C5_7  and  O3_8 
REMARK    6  A    between atoms: O3_8  and  C6_9 
REMARK    7  A    between atoms: C6_9  and  C7_10 
REMARK    8  A    between atoms: C7_10  and  O4_11 
ROOT
HETATM    1  C4  UNL     1      -1.355   0.209   0.204  1.00  0.00     0.100 C 
HETATM    2  C5  UNL     1      -1.059  -1.043   0.038  1.00  0.00     0.090 C 
HETATM    3  C9  UNL     1      -0.533  -2.404   0.226  1.00  0.00     0.167 C 
HETATM    4  S1  UNL     1       0.671  -2.858  -1.072  1.00  0.00    -0.021 SA
HETATM    5  N1  UNL     1       2.095  -1.810  -0.893  1.00  0.00    -0.209 NA
HETATM    6  C10 UNL     1       3.071  -2.036  -0.108  1.00  0.00     0.240 C 
HETATM    7  N2  UNL     1       4.288  -1.546   0.329  1.00  0.00    -0.257 NA
HETATM    8  C11 UNL     1       4.675  -0.925   1.339  1.00  0.00     0.095 C 
HETATM    9  C12 UNL     1       5.078  -0.178   2.577  1.00  0.00     0.085 C 
HETATM   10  C13 UNL     1       3.919  -0.052   3.490  1.00  0.00    -0.051 A 
HETATM   11  C14 UNL     1       3.985  -0.130   4.860  1.00  0.00     0.007 A 
HETATM   12  C15 UNL     1       2.875   0.014   5.668  1.00  0.00     0.003 A 
HETATM   13  C16 UNL     1       1.610   0.245   5.168  1.00  0.00     0.029 A 
HETATM   14  C17 UNL     1       1.580   0.315   3.805  1.00  0.00     0.032 A 
HETATM   15  C18 UNL     1       2.660   0.179   2.969  1.00  0.00     0.037 A 
HETATM   16  N3  UNL     1       0.262   0.528   3.225  1.00  0.00    -0.366 N 
HETATM   17  C19 UNL     1      -0.410   0.301   1.924  1.00  0.00     0.091 C 
HETATM   18  C20 UNL     1      -1.062   1.165   1.248  1.00  0.00     0.056 C 
HETATM   19  H25 UNL     1      -0.466   0.989   3.878  1.00  0.00     0.165 HD
ENDROOT
BRANCH   1  20
HETATM   20  O2  UNL     1      -2.058   1.126  -0.537  1.00  0.00    -0.346 OA
BRANCH  20  21
HETATM   21  C3  UNL     1      -1.645   1.796  -1.690  1.00  0.00     0.201 C 
BRANCH  21  22
HETATM   22  C2  UNL     1      -2.656   2.849  -2.029  1.00  0.00     0.193 C 
BRANCH  22  23
HETATM   23  O1  UNL     1      -2.318   3.539  -3.173  1.00  0.00    -0.394 OA
HETATM   24  C1  UNL     1      -3.284   4.495  -3.478  1.00  0.00     0.201 C 
ENDBRANCH  22  23
ENDBRANCH  21  22
ENDBRANCH  20  21
ENDBRANCH   1  20
BRANCH   2  25
HETATM   25  O3  UNL     1      -1.791  -0.870  -1.170  1.00  0.00    -0.350 OA
BRANCH  25  26
HETATM   26  C6  UNL     1      -2.415  -1.956  -1.801  1.00  0.00     0.201 C 
BRANCH  26  27
HETATM   27  C7  UNL     1      -3.352  -1.553  -2.879  1.00  0.00     0.193 C 
BRANCH  27  28
HETATM   28  O4  UNL     1      -2.855  -0.845  -3.931  1.00  0.00    -0.394 OA
HETATM   29  C8  UNL     1      -1.880  -1.466  -4.682  1.00  0.00     0.201 C 
ENDBRANCH  27  28
ENDBRANCH  26  27
ENDBRANCH  25  26
ENDBRANCH   2  25
TORSDOF 8
