REMARK  4 active torsions:
REMARK  status: ('A' for Active; 'I' for Inactive)
REMARK    1  A    between atoms: O1_2  and  C2_3 
REMARK    2  A    between atoms: C2_3  and  C3_4 
REMARK    3  A    between atoms: C13_17  and  N1_18 
REMARK    4  A    between atoms: N1_18  and  C14_19 
ROOT
HETATM    1  C3  UNL     1       2.377   0.727  -0.032  1.00  0.00     0.175 C 
HETATM    2  C4  UNL     1       1.297   0.442  -1.022  1.00  0.00     0.028 C 
HETATM    3  C5  UNL     1       1.153  -0.650  -1.768  1.00  0.00     0.001 C 
HETATM    4  C6  UNL     1       2.048  -1.872  -1.803  1.00  0.00     0.217 C 
HETATM    5  O2  UNL     1       3.060  -1.758  -0.924  1.00  0.00    -0.384 OA
HETATM    6  C7  UNL     1       3.840  -2.806  -0.573  1.00  0.00     0.194 C 
HETATM    7  C8  UNL     1       3.030  -3.928   0.100  1.00  0.00     0.201 C 
HETATM    8  O3  UNL     1       2.425  -3.288   1.286  1.00  0.00    -0.351 OA
HETATM    9  C9  UNL     1       1.335  -2.519   0.886  1.00  0.00     0.069 C 
HETATM   10  C10 UNL     1       1.370  -1.223   0.929  1.00  0.00     0.167 C 
HETATM   11  O4  UNL     1       1.995   0.003   1.192  1.00  0.00    -0.349 OA
HETATM   12  C11 UNL     1       0.088  -3.147   0.350  1.00  0.00     0.036 C 
HETATM   13  C12 UNL     1      -1.084  -2.852  -0.198  1.00  0.00     0.059 C 
HETATM   14  C13 UNL     1      -1.912  -1.701  -0.647  1.00  0.00     0.108 C 
HETATM   15  C21 UNL     1      -1.184  -1.083  -1.829  1.00  0.00     0.255 C 
HETATM   16  N2  UNL     1      -0.107  -0.612  -2.477  1.00  0.00    -0.304 NA
ENDROOT
BRANCH  14  17
HETATM   17  N1  UNL     1      -2.284  -0.828   0.374  1.00  0.00    -0.383 N 
HETATM   18  H18 UNL     1      -1.971  -1.026   1.355  1.00  0.00     0.160 HD
BRANCH  17  19
HETATM   19  C14 UNL     1      -3.068   0.328   0.185  1.00  0.00     0.028 A 
HETATM   20  C15 UNL     1      -3.544   0.696  -1.073  1.00  0.00     0.029 A 
HETATM   21  C16 UNL     1      -4.317   1.825  -1.298  1.00  0.00     0.003 A 
HETATM   22  C17 UNL     1      -4.647   2.644  -0.238  1.00  0.00     0.007 A 
HETATM   23  C18 UNL     1      -4.189   2.308   1.038  1.00  0.00    -0.060 A 
HETATM   24  C19 UNL     1      -4.578   3.229   2.138  1.00  0.00     0.048 C 
HETATM   25  C20 UNL     1      -3.429   1.184   1.205  1.00  0.00     0.036 A 
ENDBRANCH  17  19
ENDBRANCH  14  17
BRANCH   1  26
HETATM   26  C2  UNL     1       2.448   2.165   0.359  1.00  0.00     0.203 C 
BRANCH  26  27
HETATM   27  O1  UNL     1       3.392   2.363   1.364  1.00  0.00    -0.393 OA
HETATM   28  C1  UNL     1       3.394   3.723   1.667  1.00  0.00     0.201 C 
ENDBRANCH  26  27
ENDBRANCH   1  26
TORSDOF 4
