REMARK  3 active torsions:
REMARK  status: ('A' for Active; 'I' for Inactive)
REMARK    1  A    between atoms: N2_3  and  C2_4 
REMARK    2  A    between atoms: C4_8  and  C5_9 
REMARK    3  A    between atoms: C11_15  and  C12_16 
ROOT
HETATM    1  C1  UNL     1      -2.196  -2.283  -0.523  1.00  0.00     0.114 C 
HETATM    2  N1  UNL     1      -0.959  -1.933  -0.633  1.00  0.00    -0.190 NA
HETATM    3  N2  UNL     1      -0.390  -1.522   0.589  1.00  0.00    -0.262 N 
HETATM    4  C11 UNL     1      -1.599  -0.857   1.107  1.00  0.00     0.145 C 
HETATM    5  C18 UNL     1      -2.516  -2.091   0.939  1.00  0.00     0.080 C 
ENDROOT
BRANCH   3   6
HETATM    6  C2  UNL     1       0.973  -1.825   0.939  1.00  0.00     0.297 C 
HETATM    7  O1  UNL     1       1.084  -2.588   2.085  1.00  0.00    -0.339 OA
HETATM    8  C3  UNL     1       1.193  -1.652   3.104  1.00  0.00     0.320 C 
HETATM    9  N3  UNL     1       1.948  -0.585   2.481  1.00  0.00    -0.263 NA
HETATM   10  C4  UNL     1       1.834  -0.668   1.199  1.00  0.00     0.091 C 
BRANCH  10  11
HETATM   11  C5  UNL     1       2.488   0.252   0.289  1.00  0.00    -0.007 A 
HETATM   12  C6  UNL     1       2.379   0.175  -1.092  1.00  0.00     0.013 A 
HETATM   13  C7  UNL     1       2.980   1.023  -1.986  1.00  0.00     0.001 A 
HETATM   14  C8  UNL     1       3.771   2.054  -1.486  1.00  0.00     0.000 A 
HETATM   15  C9  UNL     1       3.918   2.180  -0.120  1.00  0.00     0.001 A 
HETATM   16  C10 UNL     1       3.283   1.290   0.722  1.00  0.00     0.013 A 
ENDBRANCH  10  11
ENDBRANCH   3   6
BRANCH   4  17
HETATM   17  C12 UNL     1      -2.089   0.186   0.178  1.00  0.00    -0.033 A 
HETATM   18  C13 UNL     1      -1.244   1.132  -0.399  1.00  0.00     0.009 A 
HETATM   19  C14 UNL     1      -1.622   2.130  -1.272  1.00  0.00     0.001 A 
HETATM   20  C15 UNL     1      -2.952   2.220  -1.621  1.00  0.00     0.000 A 
HETATM   21  C16 UNL     1      -3.841   1.325  -1.093  1.00  0.00     0.001 A 
HETATM   22  C17 UNL     1      -3.390   0.354  -0.226  1.00  0.00     0.009 A 
ENDBRANCH   4  17
TORSDOF 3
