REMARK  7 active torsions:
REMARK  status: ('A' for Active; 'I' for Inactive)
REMARK    1  A    between atoms: C2_2  and  C3_3 
REMARK    2  A    between atoms: C9_9  and  C10_10 
REMARK    3  A    between atoms: C10_10  and  O1_11 
REMARK    4  A    between atoms: C19_23  and  O3_24 
REMARK    5  A    between atoms: O3_24  and  C20_25 
REMARK    6  A    between atoms: C20_25  and  C21_26 
REMARK    7  A    between atoms: C21_26  and  O4_27 
ROOT
HETATM    1  C3  UNL     1      -3.564  -0.772   0.244  1.00  0.00     0.033 C 
HETATM    2  C4  UNL     1      -3.314   0.438   0.758  1.00  0.00     0.036 C 
HETATM    3  C5  UNL     1      -2.295   1.452   0.754  1.00  0.00    -0.055 C 
HETATM    4  C6  UNL     1      -2.891   2.445   1.753  1.00  0.00     0.048 C 
HETATM    5  C7  UNL     1      -1.116   1.987   0.431  1.00  0.00    -0.047 C 
HETATM    6  C8  UNL     1      -0.745   3.343   0.898  1.00  0.00     0.046 C 
HETATM    7  C9  UNL     1       0.202   1.738  -0.261  1.00  0.00     0.182 C 
HETATM    8  O2  UNL     1       0.426   0.545  -0.894  1.00  0.00    -0.337 OA
HETATM    9  C12 UNL     1       0.673  -0.721  -0.388  1.00  0.00     0.104 A 
HETATM   10  C13 UNL     1      -0.620  -0.818  -0.648  1.00  0.00     0.057 A 
HETATM   11  C14 UNL     1      -0.825  -2.140  -0.202  1.00  0.00     0.042 A 
HETATM   12  C15 UNL     1      -2.052  -2.812  -0.157  1.00  0.00     0.142 A 
HETATM   13  N1  UNL     1      -2.339  -4.011   0.270  1.00  0.00    -0.224 NA
HETATM   14  C16 UNL     1      -1.336  -4.800   0.772  1.00  0.00     0.236 A 
HETATM   15  N2  UNL     1      -0.114  -4.266   0.791  1.00  0.00    -0.241 NA
HETATM   16  C17 UNL     1       0.112  -3.042   0.346  1.00  0.00     0.075 A 
HETATM   17  C18 UNL     1       1.460  -2.664   0.508  1.00  0.00     0.072 A 
HETATM   18  C19 UNL     1       1.756  -1.344   0.085  1.00  0.00     0.104 A 
HETATM   19  N3  UNL     1      -3.014  -1.845  -0.602  1.00  0.00    -0.340 N 
HETATM   20  H27 UNL     1      -3.219  -2.064  -1.571  1.00  0.00     0.167 HD
ENDROOT
BRANCH  18  21
HETATM   21  O3  UNL     1       2.878  -0.702   0.103  1.00  0.00    -0.346 OA
BRANCH  21  22
HETATM   22  C20 UNL     1       4.004  -0.069   0.126  1.00  0.00     0.201 C 
BRANCH  22  23
HETATM   23  C21 UNL     1       5.264  -0.422  -0.589  1.00  0.00     0.193 C 
BRANCH  23  24
HETATM   24  O4  UNL     1       5.843  -1.611  -0.323  1.00  0.00    -0.394 OA
HETATM   25  C22 UNL     1       5.148  -2.720  -0.737  1.00  0.00     0.201 C 
ENDBRANCH  23  24
ENDBRANCH  22  23
ENDBRANCH  21  22
ENDBRANCH  18  21
BRANCH   7  26
HETATM   26  C10 UNL     1       0.606   2.769  -1.258  1.00  0.00     0.204 C 
BRANCH  26  27
HETATM   27  O1  UNL     1       0.670   4.091  -0.929  1.00  0.00    -0.393 OA
HETATM   28  C11 UNL     1       1.102   4.840  -2.055  1.00  0.00     0.201 C 
ENDBRANCH  26  27
ENDBRANCH   7  26
BRANCH   1  29
HETATM   29  C2  UNL     1      -4.849  -1.394   0.616  1.00  0.00     0.019 C 
HETATM   30  C1  UNL     1      -5.237  -2.518   0.114  1.00  0.00     0.013 C 
ENDBRANCH   1  29
TORSDOF 7
