REMARK  1 active torsions:
REMARK  status: ('A' for Active; 'I' for Inactive)
REMARK    1  A    between atoms: N1_1  and  C1_2 
ROOT
HETATM    1  C1  UNL     1      -1.729  -2.199   0.155  1.00  0.00     0.144 C 
HETATM    2  C2  UNL     1      -0.625  -2.642   0.810  1.00  0.00     0.125 C 
HETATM    3  S1  UNL     1       0.177  -1.992   2.289  1.00  0.00    -0.000 SA
HETATM    4  N2  UNL     1       0.900  -0.443   1.869  1.00  0.00    -0.225 N 
HETATM    5  N3  UNL     1       0.499   0.895   1.892  1.00  0.00    -0.165 NA
HETATM    6  C3  UNL     1       0.948   1.535   0.895  1.00  0.00     0.087 C 
HETATM    7  C4  UNL     1       0.618   2.834   0.257  1.00  0.00     0.030 C 
HETATM    8  C5  UNL     1      -0.426   3.440  -0.359  1.00  0.00    -0.019 C 
HETATM    9  C6  UNL     1      -1.539   2.447  -0.354  1.00  0.00     0.044 C 
HETATM   10  C7  UNL     1      -2.813   2.483  -0.831  1.00  0.00    -0.012 C 
HETATM   11  C8  UNL     1      -3.067   1.099  -0.347  1.00  0.00     0.025 C 
HETATM   12  C9  UNL     1      -2.822  -0.071   0.230  1.00  0.00     0.165 C 
HETATM   13  O1  UNL     1      -2.131  -1.084   0.903  1.00  0.00    -0.327 OA
HETATM   14  C10 UNL     1       2.038   0.724   0.292  1.00  0.00     0.013 C 
HETATM   15  C11 UNL     1       2.639   0.886  -0.872  1.00  0.00    -0.002 C 
HETATM   16  C12 UNL     1       2.269   0.011  -1.770  1.00  0.00    -0.013 C 
HETATM   17  C13 UNL     1       2.778  -1.194  -1.752  1.00  0.00     0.013 C 
HETATM   18  C14 UNL     1       2.988  -1.879  -0.472  1.00  0.00    -0.001 C 
HETATM   19  C15 UNL     1       2.785  -1.551   0.800  1.00  0.00     0.006 C 
HETATM   20  C16 UNL     1       2.253  -0.320   1.363  1.00  0.00     0.177 C 
ENDROOT
BRANCH   1  21
HETATM   21  N1  UNL     1      -2.536  -2.542  -1.014  1.00  0.00    -0.380 N 
HETATM   22  H1  UNL     1      -2.817  -3.350  -0.377  1.00  0.00     0.158 HD
HETATM   23  H2  UNL     1      -2.236  -1.723  -1.629  1.00  0.00     0.158 HD
ENDBRANCH   1  21
TORSDOF 1
