REMARK  4 active torsions:
REMARK  status: ('A' for Active; 'I' for Inactive)
REMARK    1  A    between atoms: O1_1  and  C1_2 
REMARK    2  A    between atoms: C3_5  and  N1_6 
REMARK    3  A    between atoms: C4_8  and  C5_9 
REMARK    4  A    between atoms: C12_16  and  C13_17 
ROOT
HETATM    1  N1  UNL     1       0.324   1.011   0.065  1.00  0.00    -0.237 N 
HETATM    2  N2  UNL     1      -1.076   0.937   0.279  1.00  0.00    -0.173 NA
HETATM    3  C4  UNL     1      -1.492  -0.211  -0.118  1.00  0.00     0.067 C 
HETATM    4  C11 UNL     1      -0.394  -1.059  -0.650  1.00  0.00     0.093 C 
HETATM    5  C12 UNL     1       0.772  -0.113  -0.705  1.00  0.00     0.137 C 
ENDROOT
BRANCH   1   6
HETATM    6  C3  UNL     1       1.038   2.142   0.602  1.00  0.00     0.192 A 
HETATM    7  S1  UNL     1       1.785   2.596   2.296  1.00  0.00    -0.058 SA
HETATM    8  C2  UNL     1       2.426   4.296   1.669  1.00  0.00     0.111 A 
HETATM    9  C1  UNL     1       1.936   4.172   0.285  1.00  0.00     0.171 A 
HETATM   10  N3  UNL     1       1.282   3.133  -0.183  1.00  0.00    -0.198 NA
BRANCH   9  11
HETATM   11  O1  UNL     1       2.251   5.305  -0.500  1.00  0.00    -0.344 OA
HETATM   12  H1  UNL     1       1.644   5.558  -1.292  1.00  0.00     0.219 HD
ENDBRANCH   9  11
ENDBRANCH   1   6
BRANCH   5  13
HETATM   13  C13 UNL     1       1.977  -0.779  -0.199  1.00  0.00    -0.083 C 
HETATM   14  C14 UNL     1       3.139  -0.142  -0.216  1.00  0.00    -0.033 C 
HETATM   15  C15 UNL     1       4.236  -0.680  -0.671  1.00  0.00     0.010 C 
HETATM   16  C16 UNL     1       4.633  -2.008  -0.155  1.00  0.00    -0.014 C 
HETATM   17  C17 UNL     1       3.658  -2.773   0.369  1.00  0.00    -0.077 C 
HETATM   18  B1  UNL     1       2.167  -2.233   0.410  1.00  0.00     0.217 B 
HETATM   19  H14 UNL     1       1.336  -3.059   0.116  1.00  0.00    -0.017 HD
ENDBRANCH   5  13
BRANCH   3  20
HETATM   20  C5  UNL     1      -2.882  -0.608  -0.038  1.00  0.00    -0.010 A 
HETATM   21  C6  UNL     1      -3.864   0.211   0.474  1.00  0.00     0.013 A 
HETATM   22  C7  UNL     1      -5.204  -0.088   0.584  1.00  0.00     0.001 A 
HETATM   23  C8  UNL     1      -5.554  -1.351   0.118  1.00  0.00     0.000 A 
HETATM   24  C9  UNL     1      -4.623  -2.220  -0.407  1.00  0.00     0.001 A 
HETATM   25  C10 UNL     1      -3.294  -1.859  -0.489  1.00  0.00     0.013 A 
ENDBRANCH   3  20
TORSDOF 4
