REMARK  4 active torsions:
REMARK  status: ('A' for Active; 'I' for Inactive)
REMARK    1  A    between atoms: O1_1  and  C1_2 
REMARK    2  A    between atoms: C3_5  and  N1_6 
REMARK    3  A    between atoms: C4_8  and  C5_9 
REMARK    4  A    between atoms: C12_16  and  C13_17 
ROOT
HETATM    1  N1  UNL     1      -0.331   1.342   0.202  1.00  0.00    -0.236 N 
HETATM    2  N2  UNL     1       0.867   0.921  -0.381  1.00  0.00    -0.173 NA
HETATM    3  C4  UNL     1       1.381  -0.057   0.296  1.00  0.00     0.067 C 
HETATM    4  C11 UNL     1       0.500  -0.374   1.451  1.00  0.00     0.094 C 
HETATM    5  C12 UNL     1      -0.785   0.272   1.023  1.00  0.00     0.151 C 
ENDROOT
BRANCH   1   6
HETATM    6  C3  UNL     1      -1.045   2.626   0.044  1.00  0.00     0.192 A 
HETATM    7  S1  UNL     1      -0.229   3.831  -1.085  1.00  0.00    -0.058 SA
HETATM    8  C2  UNL     1      -1.624   5.089  -0.781  1.00  0.00     0.111 A 
HETATM    9  C1  UNL     1      -2.401   4.366   0.085  1.00  0.00     0.171 A 
HETATM   10  N3  UNL     1      -2.013   3.133   0.433  1.00  0.00    -0.198 NA
BRANCH   9  11
HETATM   11  O1  UNL     1      -3.604   4.846   0.643  1.00  0.00    -0.344 OA
HETATM   12  H1  UNL     1      -3.645   5.259   1.550  1.00  0.00     0.219 HD
ENDBRANCH   9  11
ENDBRANCH   1   6
BRANCH   5  13
HETATM   13  C13 UNL     1      -1.647  -0.724   0.347  1.00  0.00    -0.033 A 
HETATM   14  C14 UNL     1      -2.818  -1.189   0.956  1.00  0.00     0.009 A 
HETATM   15  C15 UNL     1      -3.687  -2.113   0.413  1.00  0.00     0.001 A 
HETATM   16  C16 UNL     1      -3.357  -2.611  -0.838  1.00  0.00     0.000 A 
HETATM   17  C17 UNL     1      -2.219  -2.192  -1.487  1.00  0.00     0.001 A 
HETATM   18  C18 UNL     1      -1.394  -1.267  -0.890  1.00  0.00     0.009 A 
ENDBRANCH   5  13
BRANCH   3  19
HETATM   19  C5  UNL     1       2.629  -0.733  -0.035  1.00  0.00    -0.010 A 
HETATM   20  C6  UNL     1       3.357  -0.343  -1.139  1.00  0.00     0.013 A 
HETATM   21  C7  UNL     1       4.537  -1.014  -1.414  1.00  0.00     0.001 A 
HETATM   22  C8  UNL     1       5.042  -2.062  -0.648  1.00  0.00     0.000 A 
HETATM   23  C9  UNL     1       4.266  -2.409   0.447  1.00  0.00     0.001 A 
HETATM   24  C10 UNL     1       3.096  -1.765   0.746  1.00  0.00     0.013 A 
ENDBRANCH   3  19
TORSDOF 4
