REMARK  0 active torsions:
REMARK  status: ('A' for Active; 'I' for Inactive)
ROOT
HETATM    1  C1  UNL     1       4.299  -3.650   0.630  1.00  0.00     0.057 C 
HETATM    2  S1  UNL     1       3.058  -2.659   0.384  1.00  0.00    -0.179 SA
HETATM    3  C2  UNL     1       3.382  -1.668  -1.013  1.00  0.00     0.034 C 
HETATM    4  C3  UNL     1       3.799  -0.413  -0.892  1.00  0.00    -0.015 C 
HETATM    5  C4  UNL     1       3.972   0.095   0.499  1.00  0.00     0.083 C 
HETATM    6  C5  UNL     1       3.027   1.265   0.608  1.00  0.00     0.034 C 
HETATM    7  C6  UNL     1       3.413   2.308  -0.409  1.00  0.00     0.068 C 
HETATM    8  N1  UNL     1       1.996   1.524   1.375  1.00  0.00    -0.162 NA
HETATM    9  N2  UNL     1       1.282   2.743   1.244  1.00  0.00    -0.176 N 
HETATM   10  O1  UNL     1       0.701   2.506   0.040  1.00  0.00    -0.193 OA
HETATM   11  C7  UNL     1      -0.559   2.961  -0.212  1.00  0.00     0.238 A 
HETATM   12  N3  UNL     1      -1.464   2.202  -0.488  1.00  0.00    -0.192 NA
HETATM   13  C8  UNL     1      -2.702   2.636  -0.738  1.00  0.00     0.174 A 
HETATM   14  C9  UNL     1      -2.954   4.064  -0.672  1.00  0.00     0.112 A 
HETATM   15  S2  UNL     1      -1.205   4.648  -0.215  1.00  0.00    -0.050 SA
HETATM   16  O2  UNL     1      -3.516   1.521  -1.023  1.00  0.00    -0.329 OA
HETATM   17  C10 UNL     1      -4.083   0.883   0.085  1.00  0.00     0.130 C 
HETATM   18  C11 UNL     1      -5.577   1.256   0.061  1.00  0.00     0.040 C 
HETATM   19  C12 UNL     1      -4.046  -0.599   0.030  1.00  0.00     0.059 C 
HETATM   20  C13 UNL     1      -2.716  -1.220  -0.050  1.00  0.00    -0.024 C 
HETATM   21  C14 UNL     1      -2.055  -2.057   0.710  1.00  0.00    -0.004 C 
HETATM   22  C15 UNL     1      -0.794  -2.745   0.782  1.00  0.00    -0.004 C 
HETATM   23  C16 UNL     1       0.332  -2.885   0.126  1.00  0.00    -0.017 C 
HETATM   24  C17 UNL     1       1.591  -3.631   0.288  1.00  0.00     0.098 C 
HETATM   25  H10 UNL     1       1.664   3.065   2.181  1.00  0.00     0.218 HD
ENDROOT
TORSDOF 0
