REMARK  4 active torsions:
REMARK  status: ('A' for Active; 'I' for Inactive)
REMARK    1  A    between atoms: C7_7  and  C8_8 
REMARK    2  A    between atoms: N2_10  and  C9_11 
REMARK    3  A    between atoms: C10_13  and  O1_14 
REMARK    4  A    between atoms: C12_17  and  C13_18 
ROOT
HETATM    1  C8  UNL     1      -1.363  -0.110   0.480  1.00  0.00     0.068 C 
HETATM    2  N1  UNL     1      -0.705   0.984   0.219  1.00  0.00    -0.173 NA
HETATM    3  N2  UNL     1       0.672   0.769   0.097  1.00  0.00    -0.236 N 
HETATM    4  C12 UNL     1       0.679  -0.534  -0.439  1.00  0.00     0.151 C 
HETATM    5  C19 UNL     1      -0.339  -1.186   0.542  1.00  0.00     0.094 C 
ENDROOT
BRANCH   1   6
HETATM    6  C7  UNL     1      -2.817   0.051   0.617  1.00  0.00    -0.004 A 
HETATM    7  C2  UNL     1      -3.513  -0.242  -0.548  1.00  0.00    -0.050 A 
HETATM    8  C1  UNL     1      -2.848  -0.708  -1.789  1.00  0.00     0.049 C 
HETATM    9  C3  UNL     1      -4.893  -0.072  -0.465  1.00  0.00     0.007 A 
HETATM   10  C4  UNL     1      -5.588   0.342   0.635  1.00  0.00     0.001 A 
HETATM   11  C5  UNL     1      -4.838   0.617   1.762  1.00  0.00     0.001 A 
HETATM   12  C6  UNL     1      -3.462   0.478   1.777  1.00  0.00     0.014 A 
ENDBRANCH   1   6
BRANCH   3  13
HETATM   13  C9  UNL     1       1.468   1.908   0.522  1.00  0.00     0.192 A 
HETATM   14  N3  UNL     1       1.960   2.714   1.396  1.00  0.00    -0.198 NA
HETATM   15  C10 UNL     1       2.750   3.669   0.963  1.00  0.00     0.171 A 
HETATM   16  C11 UNL     1       3.131   3.900  -0.475  1.00  0.00     0.111 A 
HETATM   17  S1  UNL     1       2.121   2.449  -1.173  1.00  0.00    -0.058 SA
BRANCH  15  18
HETATM   18  O1  UNL     1       3.160   4.425   2.075  1.00  0.00    -0.344 OA
HETATM   19  H8  UNL     1       3.769   4.124   2.791  1.00  0.00     0.219 HD
ENDBRANCH  15  18
ENDBRANCH   3  13
BRANCH   4  20
HETATM   20  C13 UNL     1       1.911  -1.301  -0.461  1.00  0.00    -0.033 A 
HETATM   21  C14 UNL     1       2.600  -1.587   0.684  1.00  0.00     0.009 A 
HETATM   22  C15 UNL     1       3.767  -2.340   0.492  1.00  0.00     0.001 A 
HETATM   23  C16 UNL     1       4.239  -2.788  -0.721  1.00  0.00     0.000 A 
HETATM   24  C17 UNL     1       3.502  -2.468  -1.839  1.00  0.00     0.001 A 
HETATM   25  C18 UNL     1       2.343  -1.731  -1.725  1.00  0.00     0.009 A 
ENDBRANCH   4  20
TORSDOF 4
