REMARK  3 active torsions:
REMARK  status: ('A' for Active; 'I' for Inactive)
REMARK    1  A    between atoms: O1_1  and  C1_2 
REMARK    2  A    between atoms: C3_5  and  N1_6 
REMARK    3  A    between atoms: C12_16  and  C13_17 
ROOT
HETATM    1  N1  UNL     1      -0.903  -0.802  -0.638  1.00  0.00    -0.237 N 
HETATM    2  N2  UNL     1      -1.777   0.263  -0.983  1.00  0.00    -0.174 NA
HETATM    3  C4  UNL     1      -1.324   1.389  -0.481  1.00  0.00     0.065 C 
HETATM    4  C5  UNL     1      -2.191   2.535  -0.805  1.00  0.00     0.029 C 
HETATM    5  C6  UNL     1      -2.062   3.826  -0.555  1.00  0.00     0.002 C 
HETATM    6  C7  UNL     1      -1.083   4.697   0.109  1.00  0.00     0.000 C 
HETATM    7  C8  UNL     1       0.212   4.520   0.402  1.00  0.00    -0.000 C 
HETATM    8  C9  UNL     1       1.180   3.441   0.205  1.00  0.00    -0.003 C 
HETATM    9  C10 UNL     1       0.957   2.125   0.167  1.00  0.00    -0.013 C 
HETATM   10  C11 UNL     1      -0.044   1.066   0.254  1.00  0.00     0.090 C 
HETATM   11  C12 UNL     1       0.356  -0.125  -0.605  1.00  0.00     0.143 C 
ENDROOT
BRANCH   1  12
HETATM   12  C3  UNL     1      -1.415  -2.136  -0.426  1.00  0.00     0.192 A 
HETATM   13  S1  UNL     1      -0.217  -3.506   0.085  1.00  0.00    -0.058 SA
HETATM   14  C2  UNL     1      -1.635  -4.746   0.120  1.00  0.00     0.111 A 
HETATM   15  C1  UNL     1      -2.710  -3.914  -0.250  1.00  0.00     0.171 A 
HETATM   16  N3  UNL     1      -2.426  -2.648  -0.484  1.00  0.00    -0.198 NA
BRANCH  15  17
HETATM   17  O1  UNL     1      -4.028  -4.391  -0.368  1.00  0.00    -0.344 OA
HETATM   18  H1  UNL     1      -4.808  -3.990   0.137  1.00  0.00     0.219 HD
ENDBRANCH  15  17
ENDBRANCH   1  12
BRANCH  11  19
HETATM   19  C13 UNL     1       1.507  -0.853  -0.166  1.00  0.00    -0.103 A 
HETATM   20  B1  UNL     1       2.480  -0.333   1.562  1.00  0.00     0.183 B 
HETATM   21  C14 UNL     1       3.773  -1.628   1.487  1.00  0.00    -0.025 A 
HETATM   22  C15 UNL     1       3.333  -2.263   0.229  1.00  0.00    -0.037 A 
HETATM   23  C16 UNL     1       2.348  -1.973  -0.546  1.00  0.00    -0.013 A 
ENDBRANCH  11  19
TORSDOF 3
