REMARK  2 active torsions:
REMARK  status: ('A' for Active; 'I' for Inactive)
REMARK    1  A    between atoms: O1_1  and  C1_2 
REMARK    2  A    between atoms: C3_5  and  N1_6 
ROOT
HETATM    1  N1  UNL     1       1.083  -0.230  -1.643  1.00  0.00    -0.237 N 
HETATM    2  N2  UNL     1       0.779  -1.568  -2.003  1.00  0.00    -0.179 NA
HETATM    3  C4  UNL     1       0.031  -2.186  -1.189  1.00  0.00     0.035 C 
HETATM    4  C5  UNL     1      -0.292  -3.437  -0.380  1.00  0.00     0.057 C 
HETATM    5  C6  UNL     1      -1.292  -3.140   0.724  1.00  0.00    -0.014 C 
HETATM    6  C7  UNL     1      -2.207  -2.787   1.694  1.00  0.00     0.043 C 
HETATM    7  C8  UNL     1      -2.922  -1.498   1.917  1.00  0.00    -0.025 C 
HETATM    8  C9  UNL     1      -3.279  -0.227   1.654  1.00  0.00    -0.026 C 
HETATM    9  C10 UNL     1      -2.767   0.486   0.476  1.00  0.00     0.066 C 
HETATM   10  C11 UNL     1      -1.590   1.312   0.510  1.00  0.00    -0.046 A 
HETATM   11  C12 UNL     1      -1.553   2.293   1.469  1.00  0.00     0.008 A 
HETATM   12  C13 UNL     1      -0.543   3.215   1.645  1.00  0.00     0.001 A 
HETATM   13  C14 UNL     1       0.544   3.151   0.772  1.00  0.00     0.001 A 
HETATM   14  C15 UNL     1       0.525   2.162  -0.207  1.00  0.00     0.010 A 
HETATM   15  C16 UNL     1      -0.483   1.237  -0.385  1.00  0.00    -0.026 A 
HETATM   16  C17 UNL     1      -0.250   0.249  -1.512  1.00  0.00     0.151 C 
HETATM   17  C18 UNL     1      -0.883  -1.017  -1.071  1.00  0.00     0.088 C 
ENDROOT
BRANCH   1  18
HETATM   18  C3  UNL     1       2.526   0.240  -1.539  1.00  0.00     0.192 A 
HETATM   19  S1  UNL     1       3.433   1.010  -3.024  1.00  0.00    -0.058 SA
HETATM   20  C2  UNL     1       4.965   1.197  -1.886  1.00  0.00     0.111 A 
HETATM   21  C1  UNL     1       4.546   0.695  -0.723  1.00  0.00     0.171 A 
HETATM   22  N3  UNL     1       3.321   0.278  -0.755  1.00  0.00    -0.198 NA
BRANCH  21  23
HETATM   23  O1  UNL     1       5.547   0.751   0.239  1.00  0.00    -0.344 OA
HETATM   24  H1  UNL     1       5.787  -0.083   0.785  1.00  0.00     0.219 HD
ENDBRANCH  21  23
ENDBRANCH   1  18
TORSDOF 2
