REMARK  6 active torsions:
REMARK  status: ('A' for Active; 'I' for Inactive)
REMARK    1  A    between atoms: C2_3  and  S1_7 
REMARK    2  A    between atoms: C7_9  and  C8_10 
REMARK    3  A    between atoms: C9_11  and  C10_12 
REMARK    4  A    between atoms: C10_12  and  C11_13 
REMARK    5  A    between atoms: C11_13  and  C12_14 
REMARK    6  A    between atoms: C15_19  and  O1_20 
ROOT
HETATM    1  C12 UNL     1       5.336  -1.981  -2.102  1.00  0.00     0.070 C 
HETATM    2  C13 UNL     1       5.991  -0.984  -2.811  1.00  0.00     0.381 C 
HETATM    3  F1  UNL     1       6.705  -0.065  -3.535  1.00  0.00    -0.433 F 
ENDROOT
BRANCH   1   4
HETATM    4  C11 UNL     1       4.254  -1.146  -1.638  1.00  0.00    -0.015 C 
BRANCH   4   5
HETATM    5  C10 UNL     1       3.211  -1.462  -0.929  1.00  0.00    -0.004 C 
BRANCH   5   6
HETATM    6  C9  UNL     1       2.023  -1.008  -0.289  1.00  0.00    -0.004 C 
HETATM    7  C8  UNL     1       1.209  -1.818   0.285  1.00  0.00    -0.022 C 
BRANCH   7   8
HETATM    8  C7  UNL     1      -0.009  -2.133   1.052  1.00  0.00     0.068 C 
HETATM    9  C6  UNL     1      -0.645  -0.994   1.308  1.00  0.00    -0.041 A 
HETATM   10  S1  UNL     1      -1.124  -0.130   1.517  1.00  0.00    -0.194 SA
HETATM   11  C1  UNL     1      -1.199   0.013   1.551  1.00  0.00     0.049 A 
HETATM   12  C5  UNL     1      -1.863   1.152   1.856  1.00  0.00     0.129 A 
HETATM   13  C14 UNL     1      -2.531   2.314   2.157  1.00  0.00     0.132 A 
HETATM   14  N1  UNL     1      -1.125  -0.562  -0.074  1.00  0.00     0.000 N 
HETATM   15  C4  UNL     1      -0.655   1.962   1.712  1.00  0.00    -0.011 C 
HETATM   16  C3  UNL     1      -0.886   2.461   0.357  1.00  0.00    -0.031 C 
HETATM   17  C2  UNL     1      -1.017   0.933   0.096  1.00  0.00     0.072 A 
HETATM   18  N2  UNL     1      -3.494   1.814   1.702  1.00  0.00    -0.177 NA
HETATM   19  S2  UNL     1      -3.722   3.219   2.172  1.00  0.00    -0.077 SA
HETATM   20  C15 UNL     1      -4.665   1.454   1.241  1.00  0.00     0.135 A 
HETATM   21  C16 UNL     1      -5.277   2.631   1.514  1.00  0.00     0.103 A 
HETATM   22  H1  UNL     1      -1.136  -0.967  -1.113  1.00  0.00     0.000 HD
HETATM   23  H2  UNL     1      -1.792  -1.192  -0.712  1.00  0.00     0.000 HD
BRANCH  20  24
HETATM   24  O1  UNL     1      -5.536   0.463   0.627  1.00  0.00    -0.349 OA
HETATM   25  H14 UNL     1      -5.347  -0.510   0.881  1.00  0.00     0.218 HD
ENDBRANCH  20  24
ENDBRANCH   7   8
ENDBRANCH   5   6
ENDBRANCH   4   5
ENDBRANCH   1   4
TORSDOF 6
