REMARK  6 active torsions:
REMARK  status: ('A' for Active; 'I' for Inactive)
REMARK    1  A    between atoms: O1_1  and  C1_2 
REMARK    2  A    between atoms: C3_5  and  N1_6 
REMARK    3  A    between atoms: C4_7  and  C5_8 
REMARK    4  A    between atoms: C4_7  and  C13_17 
REMARK    5  A    between atoms: C5_8  and  C6_9 
REMARK    6  A    between atoms: C6_9  and  C7_10 
ROOT
HETATM    1  N1  UNL     1      -1.187   0.870  -0.392  1.00  0.00    -0.227 NA
HETATM    2  C4  UNL     1      -0.592  -0.122   0.106  1.00  0.00     0.048 C 
ENDROOT
BRANCH   2   3
HETATM    3  C5  UNL     1       0.889   0.022   0.039  1.00  0.00     0.065 C 
BRANCH   3   4
HETATM    4  C6  UNL     1       1.368   1.282  -0.592  1.00  0.00     0.044 C 
BRANCH   4   5
HETATM    5  C7  UNL     1       2.850   1.252  -0.572  1.00  0.00    -0.058 A 
HETATM    6  C8  UNL     1       3.537   1.777   0.509  1.00  0.00     0.010 A 
HETATM    7  C9  UNL     1       4.900   1.807   0.641  1.00  0.00     0.043 A 
HETATM    8  C10 UNL     1       5.611   1.259  -0.413  1.00  0.00     0.116 A 
HETATM    9  F1  UNL     1       6.958   1.252  -0.355  1.00  0.00    -0.206 F 
HETATM   10  C11 UNL     1       5.000   0.717  -1.523  1.00  0.00     0.043 A 
HETATM   11  C12 UNL     1       3.627   0.714  -1.602  1.00  0.00     0.010 A 
ENDBRANCH   4   5
ENDBRANCH   3   4
ENDBRANCH   2   3
BRANCH   2  12
HETATM   12  C13 UNL     1      -1.040  -1.369   0.730  1.00  0.00    -0.011 A 
HETATM   13  C14 UNL     1      -0.181  -2.334   1.215  1.00  0.00     0.013 A 
HETATM   14  C15 UNL     1      -0.643  -3.492   1.794  1.00  0.00     0.001 A 
HETATM   15  C16 UNL     1      -1.986  -3.762   1.926  1.00  0.00     0.000 A 
HETATM   16  C17 UNL     1      -2.866  -2.821   1.453  1.00  0.00     0.001 A 
HETATM   17  C18 UNL     1      -2.379  -1.667   0.876  1.00  0.00     0.013 A 
ENDBRANCH   2  12
BRANCH   1  18
HETATM   18  C3  UNL     1      -2.561   1.128  -0.526  1.00  0.00     0.195 A 
HETATM   19  S1  UNL     1      -3.511   1.933   0.939  1.00  0.00    -0.058 SA
HETATM   20  C2  UNL     1      -5.035   1.948   0.100  1.00  0.00     0.111 A 
HETATM   21  C1  UNL     1      -4.682   1.338  -1.219  1.00  0.00     0.171 A 
HETATM   22  N2  UNL     1      -3.415   0.984  -1.377  1.00  0.00    -0.198 NA
BRANCH  21  23
HETATM   23  O1  UNL     1      -5.494   1.074  -2.346  1.00  0.00    -0.344 OA
HETATM   24  H1  UNL     1      -6.309   1.591  -2.580  1.00  0.00     0.219 HD
ENDBRANCH  21  23
ENDBRANCH   1  18
TORSDOF 6
