REMARK  3 active torsions:
REMARK  status: ('A' for Active; 'I' for Inactive)
REMARK    1  A    between atoms: O1_1  and  C1_2 
REMARK    2  A    between atoms: C3_7  and  C4_8 
REMARK    3  A    between atoms: C11_15  and  C12_16 
ROOT
HETATM    1  C1  UNL     1      -1.711  -2.086   1.538  1.00  0.00     0.277 C 
HETATM    2  N1  UNL     1      -2.248  -3.075   0.610  1.00  0.00    -0.248 NA
HETATM    3  C2  UNL     1      -1.599  -2.968  -0.501  1.00  0.00     0.227 C 
HETATM    4  N2  UNL     1      -0.602  -1.954  -0.465  1.00  0.00    -0.244 N 
HETATM    5  N3  UNL     1       0.558  -1.398  -1.015  1.00  0.00    -0.174 NA
HETATM    6  C3  UNL     1       1.180  -0.683  -0.110  1.00  0.00     0.068 C 
HETATM    7  C10 UNL     1       0.399  -0.738   1.178  1.00  0.00     0.105 C 
HETATM    8  C11 UNL     1      -0.978  -1.126   0.682  1.00  0.00     0.134 C 
ENDROOT
BRANCH   8   9
HETATM    9  C12 UNL     1      -1.750   0.035   0.227  1.00  0.00    -0.023 A 
HETATM   10  C13 UNL     1      -1.785   0.335  -1.126  1.00  0.00     0.013 A 
HETATM   11  C14 UNL     1      -2.468   1.409  -1.654  1.00  0.00     0.043 A 
HETATM   12  C15 UNL     1      -3.175   2.264  -0.819  1.00  0.00     0.116 A 
HETATM   13  F1  UNL     1      -3.860   3.329  -1.286  1.00  0.00    -0.206 F 
HETATM   14  C16 UNL     1      -3.163   1.994   0.543  1.00  0.00     0.043 A 
HETATM   15  C17 UNL     1      -2.457   0.902   0.999  1.00  0.00     0.013 A 
ENDBRANCH   8   9
BRANCH   1  16
HETATM   16  O1  UNL     1      -2.806  -1.475   2.132  1.00  0.00    -0.372 OA
HETATM   17  H1  UNL     1      -3.680  -1.871   1.881  1.00  0.00     0.212 HD
ENDBRANCH   1  16
BRANCH   6  18
HETATM   18  C4  UNL     1       2.424   0.065  -0.265  1.00  0.00    -0.010 A 
HETATM   19  C5  UNL     1       2.997   0.784   0.741  1.00  0.00     0.013 A 
HETATM   20  C6  UNL     1       4.174   1.461   0.508  1.00  0.00     0.001 A 
HETATM   21  C7  UNL     1       4.808   1.440  -0.728  1.00  0.00     0.000 A 
HETATM   22  C8  UNL     1       4.233   0.709  -1.763  1.00  0.00     0.001 A 
HETATM   23  C9  UNL     1       3.060   0.044  -1.501  1.00  0.00     0.013 A 
ENDBRANCH   6  18
TORSDOF 3
