REMARK  3 active torsions:
REMARK  status: ('A' for Active; 'I' for Inactive)
REMARK    1  A    between atoms: C5_5  and  C6_6 
REMARK    2  A    between atoms: C6_6  and  C7_7 
REMARK    3  A    between atoms: C7_7  and  C8_8 
ROOT
HETATM    1  C8  UNL     1      -1.330  -1.023   0.030  1.00  0.00     0.083 A 
HETATM    2  C9  UNL     1      -1.032  -1.800   1.376  1.00  0.00     0.067 A 
HETATM    3  C10 UNL     1      -1.747  -1.164   2.443  1.00  0.00    -0.024 A 
HETATM    4  C11 UNL     1      -2.618  -0.264   2.837  1.00  0.00    -0.003 A 
HETATM    5  C12 UNL     1      -3.089   0.446   1.624  1.00  0.00     0.008 A 
HETATM    6  C13 UNL     1      -2.450  -0.017   0.576  1.00  0.00    -0.013 A 
HETATM    7  C14 UNL     1      -3.150   0.288  -0.798  1.00  0.00     0.209 C 
HETATM    8  N1  UNL     1      -3.820  -0.975  -1.121  1.00  0.00    -0.269 NA
HETATM    9  C15 UNL     1      -3.053  -1.809  -1.901  1.00  0.00     0.186 C 
HETATM   10  N2  UNL     1      -2.177  -1.748  -0.800  1.00  0.00    -0.202 NA
HETATM   11  S1  UNL     1      -1.658  -0.132  -1.714  1.00  0.00    -0.085 SA
ENDROOT
BRANCH   1  12
HETATM   12  C7  UNL     1      -0.056  -0.393  -0.198  1.00  0.00     0.045 C 
BRANCH  12  13
HETATM   13  C6  UNL     1       0.442   0.479  -1.245  1.00  0.00     0.044 C 
BRANCH  13  14
HETATM   14  C5  UNL     1       1.914   0.863  -0.950  1.00  0.00    -0.019 A 
HETATM   15  C4  UNL     1       2.587   1.756  -1.918  1.00  0.00     0.011 A 
HETATM   16  C3  UNL     1       3.817   1.942  -1.467  1.00  0.00     0.014 A 
HETATM   17  C2  UNL     1       4.017   1.214  -0.229  1.00  0.00    -0.006 A 
HETATM   18  C1  UNL     1       5.076   1.115   0.557  1.00  0.00     0.026 C 
HETATM   19  C16 UNL     1       2.746   0.553   0.023  1.00  0.00     0.132 A 
HETATM   20  F1  UNL     1       2.454  -0.237   1.058  1.00  0.00    -0.205 F 
ENDBRANCH  13  14
ENDBRANCH  12  13
ENDBRANCH   1  12
TORSDOF 3
