REMARK  1 active torsions:
REMARK  status: ('A' for Active; 'I' for Inactive)
REMARK    1  A    between atoms: C4_5  and  C5_6 
ROOT
HETATM    1  C5  UNL     1       2.123  -0.598   0.447  1.00  0.00     0.130 C 
HETATM    2  C6  UNL     1       2.389  -1.684  -0.590  1.00  0.00     0.087 C 
HETATM    3  C7  UNL     1       0.971  -1.501  -0.928  1.00  0.00     0.013 C 
HETATM    4  C8  UNL     1      -0.237  -1.381  -1.351  1.00  0.00     0.005 C 
HETATM    5  C9  UNL     1      -1.657  -1.086  -1.275  1.00  0.00     0.053 C 
HETATM    6  C10 UNL     1      -2.744  -1.079  -2.009  1.00  0.00     0.004 C 
HETATM    7  C11 UNL     1      -3.758  -0.607  -1.033  1.00  0.00    -0.008 C 
HETATM    8  C12 UNL     1      -3.739  -0.248   0.250  1.00  0.00     0.085 C 
HETATM    9  N1  UNL     1      -3.111  -0.020   1.496  1.00  0.00    -0.351 N 
HETATM   10  C13 UNL     1      -2.298  -0.922   2.207  1.00  0.00     0.136 A 
HETATM   11  C14 UNL     1      -2.077  -1.825   3.309  1.00  0.00     0.103 A 
HETATM   12  S1  UNL     1      -0.284  -2.446   2.963  1.00  0.00    -0.060 SA
HETATM   13  C15 UNL     1      -0.256  -1.344   1.424  1.00  0.00     0.175 A 
HETATM   14  N2  UNL     1      -1.259  -0.821   1.373  1.00  0.00    -0.206 NA
HETATM   15  N3  UNL     1       0.791  -1.167   0.463  1.00  0.00    -0.320 N 
HETATM   16  H11 UNL     1      -3.068   0.775   2.145  1.00  0.00     0.166 HD
ENDROOT
BRANCH   1  17
HETATM   17  C4  UNL     1       2.250   0.768  -0.041  1.00  0.00    -0.035 A 
HETATM   18  C3  UNL     1       1.916   1.387  -1.214  1.00  0.00     0.011 A 
HETATM   19  C2  UNL     1       2.061   2.706  -1.537  1.00  0.00     0.024 A 
HETATM   20  C1  UNL     1       2.610   3.557  -0.588  1.00  0.00     0.034 A 
HETATM   21 CL1  UNL     1       2.739   5.221  -1.092  1.00  0.00    -0.084 Cl
HETATM   22  C17 UNL     1       2.991   3.026   0.651  1.00  0.00     0.024 A 
HETATM   23  C16 UNL     1       2.796   1.687   0.859  1.00  0.00     0.011 A 
ENDBRANCH   1  17
TORSDOF 1
