REMARK  2 active torsions:
REMARK  status: ('A' for Active; 'I' for Inactive)
REMARK    1  A    between atoms: N2_17  and  C15_18 
REMARK    2  A    between atoms: C16_20  and  O1_21 
ROOT
HETATM    1  C1  UNL     1       2.848   1.799  -1.210  1.00  0.00     0.070 C 
HETATM    2  C2  UNL     1       1.382   1.664  -1.008  1.00  0.00     0.035 C 
HETATM    3  C3  UNL     1       0.523   2.602  -1.348  1.00  0.00     0.028 C 
HETATM    4  C4  UNL     1      -0.905   2.969  -1.375  1.00  0.00     0.026 C 
HETATM    5  C5  UNL     1      -2.169   2.668  -1.114  1.00  0.00     0.033 C 
HETATM    6 CL1  UNL     1      -3.299   3.968  -1.603  1.00  0.00    -0.084 Cl
HETATM    7  C6  UNL     1      -3.012   1.639  -0.517  1.00  0.00     0.020 C 
HETATM    8  C7  UNL     1      -2.945   0.437   0.101  1.00  0.00    -0.020 C 
HETATM    9  C8  UNL     1      -1.667  -0.188   0.335  1.00  0.00     0.068 C 
HETATM   10  C9  UNL     1      -1.294  -1.461  -0.220  1.00  0.00    -0.028 A 
HETATM   11  C10 UNL     1      -2.145  -2.462  -0.307  1.00  0.00     0.009 A 
HETATM   12  C11 UNL     1      -1.843  -3.776  -0.855  1.00  0.00    -0.003 A 
HETATM   13  C12 UNL     1      -0.598  -3.897  -1.277  1.00  0.00    -0.021 A 
HETATM   14  C13 UNL     1       0.551  -2.959  -1.303  1.00  0.00     0.088 A 
HETATM   15  C14 UNL     1       0.093  -1.669  -0.719  1.00  0.00     0.065 A 
HETATM   16  N1  UNL     1       1.136  -0.950  -0.797  1.00  0.00    -0.169 NA
HETATM   17  N2  UNL     1       1.371   0.357  -0.425  1.00  0.00    -0.213 N 
ENDROOT
BRANCH  17  18
HETATM   18  C15 UNL     1       1.736   0.319   1.027  1.00  0.00     0.196 A 
HETATM   19  N3  UNL     1       1.119   0.425   1.956  1.00  0.00    -0.198 NA
HETATM   20  C16 UNL     1       1.560   0.369   3.217  1.00  0.00     0.171 A 
HETATM   21  C17 UNL     1       2.966   0.149   3.387  1.00  0.00     0.111 A 
HETATM   22  S1  UNL     1       3.523   0.044   1.617  1.00  0.00    -0.058 SA
BRANCH  20  23
HETATM   23  O1  UNL     1       0.634   0.525   4.270  1.00  0.00    -0.344 OA
HETATM   24  H15 UNL     1       0.938   0.633   5.222  1.00  0.00     0.219 HD
ENDBRANCH  20  23
ENDBRANCH  17  18
TORSDOF 2
