REMARK  5 active torsions:
REMARK  status: ('A' for Active; 'I' for Inactive)
REMARK    1  A    between atoms: O1_1  and  C1_2 
REMARK    2  A    between atoms: C3_5  and  N1_6 
REMARK    3  A    between atoms: B1_8  and  C4_9 
REMARK    4  A    between atoms: C11_17  and  C12_18 
REMARK    5  A    between atoms: C12_18  and  C13_19 
ROOT
HETATM    1  N1  UNL     1      -0.814  -0.521  -0.112  1.00  0.00    -0.298 N 
HETATM    2  N2  UNL     1       0.246  -0.284   0.772  1.00  0.00    -0.276 NA
HETATM    3  B1  UNL     1       1.294   0.200  -0.219  1.00  0.00     0.308 B 
HETATM    4  C10 UNL     1       0.456   1.172  -1.182  1.00  0.00     0.003 C 
HETATM    5  C11 UNL     1      -0.933   0.600  -0.992  1.00  0.00     0.100 C 
HETATM    6  H3  UNL     1      -0.036   0.480   1.417  1.00  0.00     0.129 HD
ENDROOT
BRANCH   3   7
HETATM    7  C4  UNL     1       2.650  -0.425  -0.604  1.00  0.00    -0.049 C 
HETATM    8  C5  UNL     1       3.771   0.036  -0.084  1.00  0.00    -0.043 C 
HETATM    9  C6  UNL     1       3.719   1.162   0.874  1.00  0.00     0.005 C 
HETATM   10  C9  UNL     1       5.093  -0.554  -0.443  1.00  0.00     0.307 C 
HETATM   11  C7  UNL     1       4.735   2.038   0.959  1.00  0.00     0.003 C 
HETATM   12  C8  UNL     1       5.818   1.699  -0.001  1.00  0.00     0.297 C 
HETATM   13  N3  UNL     1       6.156   0.301   0.018  1.00  0.00     0.090 N 
HETATM   14  H9  UNL     1       7.074   0.079  -0.369  1.00  0.00     0.316 HD
ENDBRANCH   3   7
BRANCH   1  15
HETATM   15  C3  UNL     1      -1.753  -1.685  -0.245  1.00  0.00     0.185 A 
HETATM   16  S1  UNL     1      -0.791  -2.768  -1.471  1.00  0.00    -0.058 SA
HETATM   17  C2  UNL     1      -2.183  -4.056  -1.405  1.00  0.00     0.111 A 
HETATM   18  C1  UNL     1      -3.066  -3.449  -0.511  1.00  0.00     0.171 A 
HETATM   19  N4  UNL     1      -2.677  -2.284  -0.048  1.00  0.00    -0.199 NA
BRANCH  18  20
HETATM   20  O1  UNL     1      -4.315  -3.900  -0.030  1.00  0.00    -0.344 OA
HETATM   21  H1  UNL     1      -4.379  -4.700   0.573  1.00  0.00     0.219 HD
ENDBRANCH  18  20
ENDBRANCH   1  15
BRANCH   5  22
HETATM   22  C12 UNL     1      -1.764   1.694  -0.366  1.00  0.00     0.063 C 
BRANCH  22  23
HETATM   23  C13 UNL     1      -3.141   1.250  -0.041  1.00  0.00    -0.070 C 
HETATM   24  C14 UNL     1      -3.920   1.483  -1.123  1.00  0.00    -0.072 C 
HETATM   25  B2  UNL     1      -5.563   0.298  -1.000  1.00  0.00     0.227 B 
HETATM   26  C15 UNL     1      -5.913   0.314   0.729  1.00  0.00    -0.035 C 
HETATM   27 CL1  UNL     1      -7.399   0.346   1.600  1.00  0.00    -0.103 Cl
HETATM   28  C16 UNL     1      -4.755   0.305   1.453  1.00  0.00     0.007 C 
HETATM   29  C17 UNL     1      -3.504   0.712   1.145  1.00  0.00     0.006 C 
ENDBRANCH  22  23
ENDBRANCH   5  22
TORSDOF 5
