REMARK  6 active torsions:
REMARK  status: ('A' for Active; 'I' for Inactive)
REMARK    1  A    between atoms: C2_2  and  C3_3 
REMARK    2  A    between atoms: C2_2  and  N1_10 
REMARK    3  A    between atoms: N1_10  and  N2_11 
REMARK    4  A    between atoms: N1_10  and  C16_19 
REMARK    5  A    between atoms: C9_12  and  C10_13 
REMARK    6  A    between atoms: C17_21  and  O1_22 
ROOT
HETATM    1  N1  UNL     1      -0.388   0.489  -0.703  1.00  0.00    -0.238 N 
ENDROOT
BRANCH   1   2
HETATM    2  C2  UNL     1      -1.532  -0.253  -1.178  1.00  0.00     0.141 C 
HETATM    3  C1  UNL     1      -2.485   0.625  -1.979  1.00  0.00     0.040 C 
BRANCH   2   4
HETATM    4  C3  UNL     1      -2.297  -0.870  -0.056  1.00  0.00    -0.034 A 
HETATM    5  C4  UNL     1      -1.680  -1.533   0.980  1.00  0.00     0.011 A 
HETATM    6  C5  UNL     1      -2.405  -2.092   2.001  1.00  0.00     0.024 A 
HETATM    7  C6  UNL     1      -3.791  -2.014   2.035  1.00  0.00     0.034 A 
HETATM    8 CL1  UNL     1      -4.767  -2.711   3.316  1.00  0.00    -0.084 Cl
HETATM    9  C7  UNL     1      -4.439  -1.352   1.002  1.00  0.00     0.024 A 
HETATM   10  C8  UNL     1      -3.678  -0.793  -0.023  1.00  0.00     0.011 A 
ENDBRANCH   2   4
ENDBRANCH   1   2
BRANCH   1  11
HETATM   11  N2  UNL     1       0.767   0.183   0.062  1.00  0.00    -0.181 NA
HETATM   12  C9  UNL     1       1.640  -0.573  -0.469  1.00  0.00     0.150 C 
BRANCH  12  13
HETATM   13  C10 UNL     1       2.890  -0.975   0.209  1.00  0.00    -0.017 A 
HETATM   14  C11 UNL     1       3.873  -1.803  -0.343  1.00  0.00     0.013 A 
HETATM   15  C12 UNL     1       4.989  -2.089   0.417  1.00  0.00     0.001 A 
HETATM   16  C13 UNL     1       5.175  -1.589   1.703  1.00  0.00     0.000 A 
HETATM   17  C14 UNL     1       4.197  -0.768   2.245  1.00  0.00     0.001 A 
HETATM   18  C15 UNL     1       3.078  -0.479   1.490  1.00  0.00     0.013 A 
ENDBRANCH  12  13
ENDBRANCH   1  11
BRANCH   1  19
HETATM   19  C16 UNL     1      -0.313   1.859  -1.027  1.00  0.00     0.192 A 
HETATM   20  N3  UNL     1      -0.667   2.911  -0.550  1.00  0.00    -0.198 NA
HETATM   21  C17 UNL     1      -0.419   4.082  -1.154  1.00  0.00     0.171 A 
HETATM   22  C18 UNL     1       0.282   4.125  -2.398  1.00  0.00     0.111 A 
HETATM   23  S1  UNL     1       0.574   2.326  -2.660  1.00  0.00    -0.058 SA
BRANCH  21  24
HETATM   24  O1  UNL     1      -0.895   5.221  -0.473  1.00  0.00    -0.344 OA
HETATM   25  H15 UNL     1      -0.333   5.595   0.298  1.00  0.00     0.219 HD
ENDBRANCH  21  24
ENDBRANCH   1  19
TORSDOF 6
