REMARK  2 active torsions:
REMARK  status: ('A' for Active; 'I' for Inactive)
REMARK    1  A    between atoms: N2_10  and  C9_11 
REMARK    2  A    between atoms: C10_13  and  O1_14 
ROOT
HETATM    1  C1  UNL     1      -2.756  -0.536   1.954  1.00  0.00     0.016 C 
HETATM    2  C2  UNL     1      -2.137  -0.528   0.800  1.00  0.00    -0.068 C 
HETATM    3  C3  UNL     1      -2.264   0.527  -0.184  1.00  0.00     0.061 C 
HETATM    4  C4  UNL     1      -2.766   1.778   0.438  1.00  0.00    -0.026 C 
HETATM    5  C5  UNL     1      -1.802   2.672   0.429  1.00  0.00    -0.025 C 
HETATM    6  C6  UNL     1      -0.499   3.285   0.211  1.00  0.00     0.083 C 
HETATM    7  C7  UNL     1       0.536   2.282  -0.236  1.00  0.00     0.032 C 
HETATM    8  C8  UNL     1       1.654   2.741  -1.107  1.00  0.00     0.068 C 
HETATM    9  N1  UNL     1       0.340   1.159   0.286  1.00  0.00    -0.179 NA
HETATM   10  N2  UNL     1       0.877  -0.069   0.288  1.00  0.00    -0.245 N 
HETATM   11  C12 UNL     1       0.224  -1.184   0.890  1.00  0.00     0.176 C 
HETATM   12  C13 UNL     1      -1.133  -1.522   0.313  1.00  0.00     0.038 A 
HETATM   13  C14 UNL     1      -1.582  -2.855   0.828  1.00  0.00    -0.005 A 
HETATM   14  C15 UNL     1      -1.830  -3.713  -0.176  1.00  0.00     0.021 A 
HETATM   15  C16 UNL     1      -1.552  -2.971  -1.417  1.00  0.00     0.031 A 
HETATM   16 CL1  UNL     1      -1.777  -3.795  -2.943  1.00  0.00    -0.085 Cl
HETATM   17  C17 UNL     1      -1.158  -1.732  -1.131  1.00  0.00     0.017 A 
ENDROOT
BRANCH  10  18
HETATM   18  C9  UNL     1       2.184  -0.441  -0.312  1.00  0.00     0.191 A 
HETATM   19  N3  UNL     1       3.163  -0.221   0.274  1.00  0.00    -0.198 NA
HETATM   20  C10 UNL     1       4.412  -0.546  -0.180  1.00  0.00     0.171 A 
HETATM   21  C11 UNL     1       4.526  -1.184  -1.426  1.00  0.00     0.111 A 
HETATM   22  S1  UNL     1       2.721  -1.295  -1.924  1.00  0.00    -0.058 SA
BRANCH  20  23
HETATM   23  O1  UNL     1       5.598  -0.278   0.534  1.00  0.00    -0.344 OA
HETATM   24  H12 UNL     1       5.589   0.014   1.494  1.00  0.00     0.219 HD
ENDBRANCH  20  23
ENDBRANCH  10  18
TORSDOF 2
