REMARK  4 active torsions:
REMARK  status: ('A' for Active; 'I' for Inactive)
REMARK    1  A    between atoms: O1_1  and  C1_2 
REMARK    2  A    between atoms: C3_5  and  N1_6 
REMARK    3  A    between atoms: C4_8  and  C5_9 
REMARK    4  A    between atoms: C12_16  and  C13_17 
ROOT
HETATM    1  N1  UNL     1      -0.194   0.925   0.649  1.00  0.00    -0.236 N 
HETATM    2  N2  UNL     1       1.131   0.859   0.202  1.00  0.00    -0.173 NA
HETATM    3  C4  UNL     1       1.576  -0.342   0.258  1.00  0.00     0.067 C 
HETATM    4  C11 UNL     1       0.542  -1.240   0.772  1.00  0.00     0.094 C 
HETATM    5  C12 UNL     1      -0.587  -0.345   1.174  1.00  0.00     0.151 C 
ENDROOT
BRANCH   1   6
HETATM    6  C3  UNL     1      -0.857   2.204   0.492  1.00  0.00     0.192 A 
HETATM    7  S1  UNL     1      -0.699   3.417   1.945  1.00  0.00    -0.058 SA
HETATM    8  C2  UNL     1      -1.663   4.654   1.138  1.00  0.00     0.111 A 
HETATM    9  C1  UNL     1      -2.007   3.991  -0.180  1.00  0.00     0.171 A 
HETATM   10  N3  UNL     1      -1.498   2.765  -0.287  1.00  0.00    -0.198 NA
BRANCH   9  11
HETATM   11  O1  UNL     1      -2.755   4.429  -1.293  1.00  0.00    -0.344 OA
HETATM   12  H1  UNL     1      -3.400   5.207  -1.242  1.00  0.00     0.219 HD
ENDBRANCH   9  11
ENDBRANCH   1   6
BRANCH   5  13
HETATM   13  C13 UNL     1      -1.857  -0.865   0.591  1.00  0.00    -0.033 A 
HETATM   14  C14 UNL     1      -2.808  -1.406   1.451  1.00  0.00     0.011 A 
HETATM   15  C15 UNL     1      -4.000  -1.899   0.953  1.00  0.00     0.019 A 
HETATM   16  C16 UNL     1      -4.246  -1.853  -0.421  1.00  0.00     0.011 A 
HETATM   17 BR1  UNL     1      -5.893  -2.541  -1.053  1.00  0.00    -0.051 Br
HETATM   18  C17 UNL     1      -3.267  -1.304  -1.241  1.00  0.00     0.019 A 
HETATM   19  C18 UNL     1      -2.068  -0.804  -0.771  1.00  0.00     0.011 A 
ENDBRANCH   5  13
BRANCH   3  20
HETATM   20  C5  UNL     1       2.943  -0.724  -0.148  1.00  0.00    -0.010 A 
HETATM   21  C6  UNL     1       3.776   0.279  -0.610  1.00  0.00     0.013 A 
HETATM   22  C7  UNL     1       5.059  -0.075  -0.992  1.00  0.00     0.001 A 
HETATM   23  C8  UNL     1       5.482  -1.390  -0.909  1.00  0.00     0.000 A 
HETATM   24  C9  UNL     1       4.644  -2.370  -0.449  1.00  0.00     0.001 A 
HETATM   25  C10 UNL     1       3.343  -2.046  -0.055  1.00  0.00     0.013 A 
ENDBRANCH   3  20
TORSDOF 4
