REMARK  4 active torsions:
REMARK  status: ('A' for Active; 'I' for Inactive)
REMARK    1  A    between atoms: O1_2  and  C2_3 
REMARK    2  A    between atoms: C2_3  and  C3_5 
REMARK    3  A    between atoms: C14_16  and  P1_17 
REMARK    4  A    between atoms: P1_17  and  O3_18 
ROOT
HETATM    1  C3  UNL     1      -1.807   0.207   0.034  1.00  0.00     0.054 C 
HETATM    2  C4  UNL     1      -2.642  -0.449  -0.812  1.00  0.00    -0.038 C 
HETATM    3  C5  UNL     1      -3.896   0.273  -1.156  1.00  0.00     0.050 C 
HETATM    4  C6  UNL     1      -2.307  -1.685  -1.286  1.00  0.00    -0.036 A 
HETATM    5  C7  UNL     1      -1.791  -2.500  -2.322  1.00  0.00     0.002 A 
HETATM    6  C8  UNL     1      -2.232  -3.093  -1.073  1.00  0.00     0.042 A 
HETATM    7  C9  UNL     1      -2.749  -3.144   0.209  1.00  0.00    -0.007 C 
HETATM    8  C10 UNL     1      -1.929  -2.847   1.279  1.00  0.00    -0.002 C 
HETATM    9  C11 UNL     1      -0.763  -2.132   1.096  1.00  0.00     0.008 C 
HETATM   10  C12 UNL     1       0.035  -0.986   1.079  1.00  0.00    -0.042 C 
HETATM   11  C13 UNL     1      -0.467   0.107   0.360  1.00  0.00    -0.017 C 
HETATM   12  C14 UNL     1       0.194   1.288  -0.173  1.00  0.00     0.147 C 
HETATM   13  C15 UNL     1       1.256   0.949  -1.192  1.00  0.00     0.175 C 
HETATM   14  O4  UNL     1       1.115   1.300  -2.414  1.00  0.00    -0.291 OA
HETATM   15  C16 UNL     1       2.526   0.235  -1.041  1.00  0.00     0.025 A 
HETATM   16  C17 UNL     1       3.308   0.498  -2.142  1.00  0.00     0.016 A 
HETATM   17  C18 UNL     1       4.574  -0.051  -2.267  1.00  0.00     0.001 A 
HETATM   18  C19 UNL     1       5.067  -0.880  -1.273  1.00  0.00     0.001 A 
HETATM   19  C20 UNL     1       4.311  -1.173  -0.144  1.00  0.00     0.016 A 
HETATM   20  C21 UNL     1       3.058  -0.596  -0.077  1.00  0.00     0.024 A 
HETATM   21  C22 UNL     1       2.522  -1.088   1.205  1.00  0.00     0.164 C 
HETATM   22  O5  UNL     1       3.437  -1.471   1.989  1.00  0.00    -0.292 OA
HETATM   23  C23 UNL     1       1.227  -1.271   1.855  1.00  0.00     0.123 C 
ENDROOT
BRANCH   1  24
HETATM   24  C2  UNL     1      -2.141   1.313   0.923  1.00  0.00     0.294 C 
HETATM   25  O2  UNL     1      -2.526   1.036   2.095  1.00  0.00    -0.259 OA
BRANCH  24  26
HETATM   26  O1  UNL     1      -2.124   2.692   0.741  1.00  0.00    -0.322 OA
HETATM   27  C1  UNL     1      -2.500   3.587   1.772  1.00  0.00     0.213 C 
ENDBRANCH  24  26
ENDBRANCH   1  24
BRANCH  12  28
HETATM   28  P1  UNL     1       0.894   2.442   1.092  1.00  0.00     0.025 P 
HETATM   29  H12 UNL     1       2.112   1.878   1.646  1.00  0.00     0.088 HD
BRANCH  28  30
HETATM   30  O3  UNL     1       1.268   3.953   0.314  1.00  0.00    -0.375 OA
HETATM   31  H13 UNL     1       0.635   4.154  -0.431  1.00  0.00     0.214 HD
ENDBRANCH  28  30
ENDBRANCH  12  28
TORSDOF 4
