REMARK  2 active torsions:
REMARK  status: ('A' for Active; 'I' for Inactive)
REMARK    1  A    between atoms: O1_1  and  C1_2 
REMARK    2  A    between atoms: C3_5  and  N1_6 
ROOT
HETATM    1  N1  UNL     1      -2.206   0.409   0.019  1.00  0.00    -0.276 N 
HETATM    2  N2  UNL     1      -1.914   1.649  -0.561  1.00  0.00    -0.184 NA
HETATM    3  C4  UNL     1      -0.662   1.888  -0.605  1.00  0.00     0.038 C 
HETATM    4  C5  UNL     1       0.567   2.764  -0.533  1.00  0.00     0.083 C 
HETATM    5  C6  UNL     1       1.769   1.991  -0.085  1.00  0.00    -0.021 C 
HETATM    6  C7  UNL     1       2.981   1.446  -0.095  1.00  0.00    -0.003 C 
HETATM    7  C8  UNL     1       4.067   0.663   0.474  1.00  0.00     0.011 C 
HETATM    8  C9  UNL     1       4.693  -0.069  -0.361  1.00  0.00    -0.029 C 
HETATM    9  C10 UNL     1       4.055  -0.981  -0.991  1.00  0.00     0.006 C 
HETATM   10  C11 UNL     1       2.620  -0.918  -1.019  1.00  0.00     0.115 A 
HETATM   11  C12 UNL     1       1.710  -1.594  -0.348  1.00  0.00    -0.004 A 
HETATM   12 BR1  UNL     1       3.397  -2.266   0.237  1.00  0.00    -0.118 Br
HETATM   13  C13 UNL     1       0.480  -2.045   0.189  1.00  0.00     0.013 C 
HETATM   14  C14 UNL     1      -0.751  -1.585   0.024  1.00  0.00     0.001 C 
HETATM   15  C15 UNL     1      -1.365  -0.450  -0.752  1.00  0.00     0.134 C 
HETATM   16  C16 UNL     1      -0.207   0.505  -0.883  1.00  0.00     0.087 C 
ENDROOT
BRANCH   1  17
HETATM   17  C3  UNL     1      -3.085  -0.101   1.109  1.00  0.00     0.227 A 
HETATM   18  C1  UNL     1      -4.055  -1.052   0.690  1.00  0.00     0.084 A 
HETATM   19  C2  UNL     1      -5.090  -0.361   0.887  1.00  0.00     0.082 A 
HETATM   20  S1  UNL     1      -4.336   1.082   1.478  1.00  0.00    -0.105 SA
BRANCH  18  21
HETATM   21  O1  UNL     1      -4.275  -2.334   0.192  1.00  0.00    -0.361 OA
HETATM   22  H1  UNL     1      -4.398  -2.557  -0.787  1.00  0.00     0.217 HD
ENDBRANCH  18  21
ENDBRANCH   1  17
TORSDOF 2
