REMARK  4 active torsions:
REMARK  status: ('A' for Active; 'I' for Inactive)
REMARK    1  A    between atoms: O1_1  and  C1_2 
REMARK    2  A    between atoms: C3_5  and  N1_6 
REMARK    3  A    between atoms: C4_8  and  C5_9 
REMARK    4  A    between atoms: C12_16  and  C13_17 
ROOT
HETATM    1  N1  UNL     1      -0.480   1.043  -0.478  1.00  0.00    -0.253 N 
HETATM    2  N2  UNL     1       0.757   1.175   0.159  1.00  0.00    -0.175 NA
HETATM    3  C4  UNL     1       1.507   0.190  -0.106  1.00  0.00     0.067 A 
HETATM    4  C11 UNL     1       0.829  -0.778  -0.994  1.00  0.00     0.094 A 
HETATM    5  C12 UNL     1      -0.554  -0.200  -1.164  1.00  0.00     0.150 A 
ENDROOT
BRANCH   1   6
HETATM    6  C3  UNL     1      -1.399   2.164  -0.341  1.00  0.00     0.097 A 
HETATM    7  S1  UNL     1      -1.572   2.916  -1.901  1.00  0.00    -0.080 SA
HETATM    8  C2  UNL     1      -2.764   4.242  -1.325  1.00  0.00     0.088 A 
HETATM    9  C1  UNL     1      -2.858   3.898   0.050  1.00  0.00     0.074 A 
HETATM   10  C19 UNL     1      -2.143   2.829   0.509  1.00  0.00     0.075 A 
BRANCH   9  11
HETATM   11  O1  UNL     1      -3.659   4.614   0.967  1.00  0.00    -0.360 OA
HETATM   12  H1  UNL     1      -4.508   5.057   0.698  1.00  0.00     0.217 HD
ENDBRANCH   9  11
ENDBRANCH   1   6
BRANCH   5  13
HETATM   13  C13 UNL     1      -1.499  -1.192  -0.629  1.00  0.00    -0.033 A 
HETATM   14  C14 UNL     1      -1.176  -2.535  -0.853  1.00  0.00     0.011 A 
HETATM   15  C15 UNL     1      -1.975  -3.558  -0.387  1.00  0.00     0.019 A 
HETATM   16  C16 UNL     1      -3.144  -3.324   0.330  1.00  0.00     0.011 A 
HETATM   17 BR1  UNL     1      -4.272  -4.710   0.987  1.00  0.00    -0.051 Br
HETATM   18  C17 UNL     1      -3.467  -1.990   0.554  1.00  0.00     0.019 A 
HETATM   19  C18 UNL     1      -2.674  -0.967   0.092  1.00  0.00     0.011 A 
ENDBRANCH   5  13
BRANCH   3  20
HETATM   20  C5  UNL     1       2.893  -0.170   0.297  1.00  0.00    -0.010 A 
HETATM   21  C6  UNL     1       3.599  -1.287  -0.069  1.00  0.00     0.013 A 
HETATM   22  C7  UNL     1       4.886  -1.484   0.393  1.00  0.00     0.001 A 
HETATM   23  C8  UNL     1       5.492  -0.568   1.229  1.00  0.00     0.000 A 
HETATM   24  C9  UNL     1       4.748   0.569   1.591  1.00  0.00     0.001 A 
HETATM   25  C10 UNL     1       3.445   0.757   1.116  1.00  0.00     0.013 A 
ENDBRANCH   3  20
TORSDOF 4
