REMARK  7 active torsions:
REMARK  status: ('A' for Active; 'I' for Inactive)
REMARK    1  A    between atoms: O1_1  and  C1_2 
REMARK    2  A    between atoms: C1_2  and  P1_3 
REMARK    3  A    between atoms: C3_6  and  N1_7 
REMARK    4  A    between atoms: N1_7  and  C4_8 
REMARK    5  A    between atoms: C4_8  and  C5_9 
REMARK    6  A    between atoms: C4_8  and  C13_18 
REMARK    7  A    between atoms: C5_9  and  C6_10 
ROOT
HETATM    1  C4  UNL     1       0.381   0.639   0.053  1.00  0.00     0.122 C 
ENDROOT
BRANCH   1   2
HETATM    2  N1  UNL     1       1.702   0.848  -0.523  1.00  0.00    -0.360 N 
HETATM    3  H4  UNL     1       2.247   1.762  -0.442  1.00  0.00     0.162 HD
BRANCH   2   4
HETATM    4  C3  UNL     1       2.358  -0.208  -1.253  1.00  0.00     0.166 A 
HETATM    5  S1  UNL     1       4.158  -0.382  -1.226  1.00  0.00    -0.062 SA
HETATM    6  C2  UNL     1       4.291  -1.839  -2.299  1.00  0.00     0.083 A 
HETATM    7  P1  UNL     1       2.744  -2.262  -2.749  1.00  0.00     0.048 P 
HETATM    8  N3  UNL     1       1.759  -1.068  -1.945  1.00  0.00    -0.233 NA
BRANCH   7   9
HETATM    9  C1  UNL     1       2.648  -2.637  -4.367  1.00  0.00     0.063 C 
BRANCH   9  10
HETATM   10  O1  UNL     1       3.567  -3.655  -4.777  1.00  0.00     0.000 OA
HETATM   11  H1  UNL     1       4.212  -4.068  -4.058  1.00  0.00     0.000 HD
ENDBRANCH   9  10
ENDBRANCH   7   9
ENDBRANCH   2   4
ENDBRANCH   1   2
BRANCH   1  12
HETATM   12  C5  UNL     1      -0.690   0.324  -0.915  1.00  0.00     0.090 C 
BRANCH  12  13
HETATM   13  C6  UNL     1      -2.023   0.085  -0.247  1.00  0.00     0.050 A 
HETATM   14  N2  UNL     1      -3.289   0.373  -0.073  1.00  0.00    -0.252 NA
HETATM   15  C7  UNL     1      -3.490  -0.622   0.884  1.00  0.00     0.069 A 
HETATM   16  C8  UNL     1      -4.421  -1.201   1.719  1.00  0.00     0.032 A 
HETATM   17  C12 UNL     1      -2.165  -0.974   0.748  1.00  0.00     0.017 A 
HETATM   18  C9  UNL     1      -4.014  -2.243   2.512  1.00  0.00     0.002 A 
HETATM   19  C10 UNL     1      -2.705  -2.667   2.445  1.00  0.00     0.001 A 
HETATM   20  C11 UNL     1      -1.849  -2.029   1.583  1.00  0.00     0.016 A 
ENDBRANCH  12  13
ENDBRANCH   1  12
BRANCH   1  21
HETATM   21  C13 UNL     1       0.066   1.905   0.767  1.00  0.00    -0.035 A 
HETATM   22  C14 UNL     1       1.101   2.160   1.678  1.00  0.00     0.010 A 
HETATM   23  C15 UNL     1       1.113   3.289   2.505  1.00  0.00     0.019 A 
HETATM   24  C16 UNL     1       0.081   4.198   2.439  1.00  0.00     0.011 A 
HETATM   25 BR1  UNL     1      -0.035   5.772   3.500  1.00  0.00    -0.051 Br
HETATM   26  C17 UNL     1      -0.932   3.945   1.544  1.00  0.00     0.019 A 
HETATM   27  C18 UNL     1      -0.946   2.836   0.730  1.00  0.00     0.010 A 
ENDBRANCH   1  21
TORSDOF 7
