REMARK  4 active torsions:
REMARK  status: ('A' for Active; 'I' for Inactive)
REMARK    1  A    between atoms: S1_2  and  C2_3 
REMARK    2  A    between atoms: C3_4  and  O1_5 
REMARK    3  A    between atoms: C3_4  and  N1_6 
REMARK    4  A    between atoms: C4_8  and  C5_9 
ROOT
HETATM    1  N1  UNL     1       1.002   0.247  -0.306  1.00  0.00    -0.213 N 
HETATM    2  N2  UNL     1      -0.315   0.722  -0.290  1.00  0.00    -0.169 NA
HETATM    3  C4  UNL     1      -1.323  -0.113  -0.194  1.00  0.00     0.069 A 
HETATM    4  C11 UNL     1      -1.184  -1.585  -0.098  1.00  0.00     0.098 A 
HETATM    5  C12 UNL     1       0.223  -2.055  -0.119  1.00  0.00    -0.044 A 
HETATM    6  C13 UNL     1       1.211  -1.154  -0.218  1.00  0.00     0.057 A 
HETATM    7  C14 UNL     1       2.531  -1.775  -0.246  1.00  0.00     0.054 A 
HETATM    8  C15 UNL     1       3.529  -2.914   0.116  1.00  0.00     0.024 A 
HETATM    9  P1  UNL     1       2.211  -3.234   0.824  1.00  0.00    -0.115 P 
HETATM   10  C16 UNL     1       0.607  -3.521  -0.048  1.00  0.00     0.066 C 
HETATM   11  H13 UNL     1       2.030  -2.816   2.187  1.00  0.00     0.055 HD
ENDROOT
BRANCH   1  12
HETATM   12  C3  UNL     1       2.064   1.181  -0.418  1.00  0.00     0.169 C 
HETATM   13  C2  UNL     1       3.098   1.040  -1.222  1.00  0.00     0.102 C 
BRANCH  13  14
HETATM   14  S1  UNL     1       4.344   2.308  -1.239  1.00  0.00    -0.142 SA
HETATM   15  C1  UNL     1       5.442   2.242   0.191  1.00  0.00     0.095 C 
ENDBRANCH  13  14
BRANCH  12  16
HETATM   16  O1  UNL     1       2.048   2.333   0.355  1.00  0.00    -0.344 OA
HETATM   17  H5  UNL     1       1.245   2.924   0.433  1.00  0.00     0.219 HD
ENDBRANCH  12  16
ENDBRANCH   1  12
BRANCH   3  18
HETATM   18  C5  UNL     1      -2.681   0.396  -0.178  1.00  0.00    -0.009 A 
HETATM   19  C6  UNL     1      -3.816  -0.388  -0.082  1.00  0.00     0.013 A 
HETATM   20  C7  UNL     1      -5.098   0.121  -0.069  1.00  0.00     0.001 A 
HETATM   21  C8  UNL     1      -5.295   1.486  -0.155  1.00  0.00     0.000 A 
HETATM   22  C9  UNL     1      -4.179   2.299  -0.253  1.00  0.00     0.001 A 
HETATM   23  C10 UNL     1      -2.904   1.771  -0.265  1.00  0.00     0.013 A 
ENDBRANCH   3  18
TORSDOF 4
