REMARK  5 active torsions:
REMARK  status: ('A' for Active; 'I' for Inactive)
REMARK    1  A    between atoms: C9_9  and  N1_10 
REMARK    2  A    between atoms: N1_10  and  C10_11 
REMARK    3  A    between atoms: N1_10  and  C16_17 
REMARK    4  A    between atoms: C10_11  and  C11_12 
REMARK    5  A    between atoms: C17_19  and  O1_20 
ROOT
HETATM    1  N1  UNL     1      -0.927   0.210   0.522  1.00  0.00    -0.347 N 
ENDROOT
BRANCH   1   2
HETATM    2  C9  UNL     1      -0.085  -0.845  -0.010  1.00  0.00     0.124 A 
HETATM    3  C5  UNL     1       1.265  -0.447  -0.399  1.00  0.00    -0.029 A 
HETATM    4  C4  UNL     1       2.115   0.307  -1.195  1.00  0.00     0.010 A 
HETATM    5  C6  UNL     1       1.829  -1.267   0.523  1.00  0.00    -0.047 A 
HETATM    6  C3  UNL     1       3.495   0.225  -1.054  1.00  0.00     0.007 A 
HETATM    7  C2  UNL     1       4.078  -0.606  -0.121  1.00  0.00    -0.061 A 
HETATM    8  C1  UNL     1       5.546  -0.725   0.065  1.00  0.00     0.048 C 
HETATM    9  C7  UNL     1       3.206  -1.347   0.660  1.00  0.00     0.014 A 
HETATM   10  C8  UNL     1       0.540  -1.734   0.989  1.00  0.00     0.069 A 
ENDBRANCH   1   2
BRANCH   1  11
HETATM   11  C10 UNL     1      -2.070  -0.164   1.310  1.00  0.00     0.160 C 
BRANCH  11  12
HETATM   12  C11 UNL     1      -3.132  -0.841   0.544  1.00  0.00    -0.059 A 
HETATM   13  C12 UNL     1      -3.552  -2.055   0.806  1.00  0.00     0.004 A 
HETATM   14  C13 UNL     1      -4.605  -2.508  -0.083  1.00  0.00    -0.003 A 
HETATM   15  C14 UNL     1      -4.808  -1.500  -0.906  1.00  0.00    -0.022 A 
HETATM   16  C15 UNL     1      -3.914  -0.352  -0.607  1.00  0.00     0.063 A 
ENDBRANCH  11  12
ENDBRANCH   1  11
BRANCH   1  17
HETATM   17  C16 UNL     1      -0.512   1.609   0.188  1.00  0.00     0.172 A 
HETATM   18  N2  UNL     1       0.102   2.493   0.504  1.00  0.00    -0.200 NA
HETATM   19  C17 UNL     1       0.247   3.666  -0.077  1.00  0.00     0.171 A 
HETATM   20  C18 UNL     1      -0.451   3.843  -1.239  1.00  0.00     0.111 A 
HETATM   21  S1  UNL     1      -1.330   2.214  -1.443  1.00  0.00    -0.060 SA
BRANCH  19  22
HETATM   22  O1  UNL     1       1.073   4.662   0.478  1.00  0.00    -0.344 OA
HETATM   23  H17 UNL     1       0.802   5.644   0.360  1.00  0.00     0.219 HD
ENDBRANCH  19  22
ENDBRANCH   1  17
TORSDOF 5
