REMARK  1 active torsions:
REMARK  status: ('A' for Active; 'I' for Inactive)
REMARK    1  A    between atoms: C17_20  and  C18_21 
ROOT
HETATM    1  C1  UNL     1       1.972   0.418   2.302  1.00  0.00     0.022 C 
HETATM    2  C2  UNL     1       1.909  -0.048   1.067  1.00  0.00    -0.025 C 
HETATM    3  C3  UNL     1       0.632  -0.141   0.393  1.00  0.00     0.089 C 
HETATM    4  C4  UNL     1       0.478  -0.961  -0.624  1.00  0.00     0.044 C 
HETATM    5  C5  UNL     1      -0.606  -1.327  -1.527  1.00  0.00     0.032 C 
HETATM    6  C6  UNL     1      -1.879  -0.969  -1.484  1.00  0.00    -0.001 C 
HETATM    7  C7  UNL     1      -2.610  -1.568  -2.588  1.00  0.00     0.390 C 
HETATM    8  O1  UNL     1      -3.086  -2.156  -3.584  1.00  0.00    -0.405 OA
HETATM    9  C8  UNL     1      -2.733  -0.161  -0.659  1.00  0.00    -0.020 A 
HETATM   10  C9  UNL     1      -3.984  -0.484  -0.873  1.00  0.00    -0.014 A 
HETATM   11  C10 UNL     1      -5.280  -0.013  -0.333  1.00  0.00     0.032 A 
HETATM   12  C11 UNL     1      -5.029   1.068   0.676  1.00  0.00     0.031 A 
HETATM   13  C12 UNL     1      -3.610   1.376   0.862  1.00  0.00    -0.016 A 
HETATM   14  C13 UNL     1      -2.498   0.891   0.320  1.00  0.00    -0.027 A 
HETATM   15  C14 UNL     1      -1.310   1.547   0.850  1.00  0.00     0.215 C 
HETATM   16  O2  UNL     1      -0.193   0.755   1.062  1.00  0.00    -0.345 OA
HETATM   17  C15 UNL     1       1.644  -1.744  -1.011  1.00  0.00     0.163 C 
HETATM   18  O3  UNL     1       1.515  -2.563  -1.956  1.00  0.00    -0.292 OA
HETATM   19  C16 UNL     1       3.001  -1.690  -0.411  1.00  0.00     0.097 C 
HETATM   20  C17 UNL     1       3.203  -0.465   0.419  1.00  0.00     0.050 C 
ENDROOT
BRANCH  20  21
HETATM   21  C18 UNL     1       3.612   0.659  -0.488  1.00  0.00    -0.021 C 
HETATM   22  C19 UNL     1       4.763   1.327  -0.353  1.00  0.00    -0.034 C 
HETATM   23  C20 UNL     1       5.645   0.898   0.765  1.00  0.00     0.036 C 
ENDBRANCH  20  21
TORSDOF 1
