REMARK  3 active torsions:
REMARK  status: ('A' for Active; 'I' for Inactive)
REMARK    1  A    between atoms: O1_2  and  C2_3 
REMARK    2  A    between atoms: C5_6  and  C6_7 
REMARK    3  A    between atoms: C10_14  and  O2_15 
ROOT
HETATM    1  C6  UNL     1      -0.450   0.015   0.826  1.00  0.00     0.150 C 
HETATM    2  C7  UNL     1       0.453  -0.705  -0.199  1.00  0.00     0.094 C 
HETATM    3  C8  UNL     1      -0.401  -1.573  -0.859  1.00  0.00     0.069 C 
HETATM    4  N1  UNL     1      -1.562  -0.969  -0.650  1.00  0.00    -0.175 NA
HETATM    5  N2  UNL     1      -1.350   0.344  -0.245  1.00  0.00    -0.254 N 
HETATM    6  C9  UNL     1      -1.741   1.649  -0.591  1.00  0.00     0.232 C 
HETATM    7  N3  UNL     1      -1.956   1.451  -1.800  1.00  0.00    -0.218 NA
HETATM    8  C10 UNL     1      -1.904   0.433  -2.683  1.00  0.00     0.169 C 
HETATM    9  C11 UNL     1      -1.603  -0.560  -3.415  1.00  0.00     0.108 C 
HETATM   10  S1  UNL     1      -0.676  -1.891  -4.127  1.00  0.00    -0.097 SA
HETATM   11  C12 UNL     1      -0.233  -3.156  -2.916  1.00  0.00     0.017 A 
HETATM   12  C13 UNL     1       0.053  -4.464  -3.279  1.00  0.00     0.020 A 
HETATM   13  C14 UNL     1       0.404  -5.436  -2.348  1.00  0.00     0.001 A 
HETATM   14  C15 UNL     1       0.473  -5.087  -0.988  1.00  0.00     0.001 A 
HETATM   15  C16 UNL     1       0.190  -3.800  -0.645  1.00  0.00     0.015 A 
HETATM   16  C17 UNL     1      -0.166  -2.809  -1.580  1.00  0.00     0.007 A 
ENDROOT
BRANCH   1  17
HETATM   17  C5  UNL     1       0.193   1.067   1.562  1.00  0.00    -0.033 A 
HETATM   18  C4  UNL     1      -0.412   2.119   2.204  1.00  0.00     0.012 A 
HETATM   19  C3  UNL     1       0.238   3.122   2.888  1.00  0.00     0.037 A 
HETATM   20  C2  UNL     1       1.616   3.063   2.935  1.00  0.00     0.068 A 
HETATM   21  C19 UNL     1       2.298   2.030   2.312  1.00  0.00     0.037 A 
HETATM   22  C18 UNL     1       1.594   1.047   1.636  1.00  0.00     0.012 A 
BRANCH  20  23
HETATM   23  O1  UNL     1       2.442   3.990   3.582  1.00  0.00    -0.356 OA
HETATM   24  C1  UNL     1       1.812   5.067   4.237  1.00  0.00     0.210 C 
ENDBRANCH  20  23
ENDBRANCH   1  17
BRANCH   8  25
HETATM   25  O2  UNL     1      -3.182   0.981  -2.852  1.00  0.00    -0.344 OA
HETATM   26  H10 UNL     1      -3.702   0.869  -3.718  1.00  0.00     0.219 HD
ENDBRANCH   8  25
TORSDOF 3
