REMARK  4 active torsions:
REMARK  status: ('A' for Active; 'I' for Inactive)
REMARK    1  A    between atoms: S1_2  and  C2_3 
REMARK    2  A    between atoms: N1_11  and  N2_12 
REMARK    3  A    between atoms: N2_12  and  C10_13 
REMARK    4  A    between atoms: C11_14  and  O1_15 
ROOT
HETATM    1  C2  UNL     1      -2.635   0.170   0.469  1.00  0.00    -0.009 C 
HETATM    2  C3  UNL     1      -2.875   0.257   1.780  1.00  0.00    -0.000 C 
HETATM    3  C4  UNL     1      -2.074  -0.562   2.422  1.00  0.00    -0.013 C 
HETATM    4  C5  UNL     1      -0.834  -0.455   1.937  1.00  0.00     0.013 C 
HETATM    5  C6  UNL     1      -0.439   0.780   1.261  1.00  0.00    -0.002 C 
HETATM    6  C7  UNL     1       0.000   1.089   0.078  1.00  0.00    -0.015 C 
HETATM    7  C8  UNL     1       0.174   0.004  -0.877  1.00  0.00     0.070 C 
HETATM    8  C9  UNL     1       1.115  -1.085  -0.436  1.00  0.00     0.048 C 
HETATM    9  N1  UNL     1       2.301  -1.023   0.064  1.00  0.00    -0.181 NA
HETATM   10  C12 UNL     1       0.107  -2.091  -0.822  1.00  0.00     0.072 C 
HETATM   11  C13 UNL     1       0.230  -2.727  -2.163  1.00  0.00     0.179 C 
HETATM   12  O2  UNL     1      -1.088  -2.577  -2.657  1.00  0.00    -0.390 OA
HETATM   13  C14 UNL     1      -1.204  -1.176  -2.511  1.00  0.00     0.179 C 
HETATM   14  C15 UNL     1      -0.901  -0.967  -1.012  1.00  0.00     0.009 C 
HETATM   15  C16 UNL     1      -2.036  -1.035  -0.114  1.00  0.00     0.060 C 
ENDROOT
BRANCH   9  16
HETATM   16  N2  UNL     1       2.904   0.221   0.269  1.00  0.00    -0.259 N 
HETATM   17  H8  UNL     1       2.736   0.913  -0.493  1.00  0.00     0.191 HD
BRANCH  16  18
HETATM   18  C10 UNL     1       3.706   0.661   1.364  1.00  0.00     0.175 A 
HETATM   19  C11 UNL     1       4.992   1.097   1.625  1.00  0.00     0.188 A 
HETATM   20  N3  UNL     1       4.100   1.017   2.678  1.00  0.00    -0.315 N 
HETATM   21  H10 UNL     1       3.686   1.063   3.631  1.00  0.00     0.169 HD
BRANCH  19  22
HETATM   22  O1  UNL     1       6.268   1.402   1.170  1.00  0.00    -0.343 OA
HETATM   23  H9  UNL     1       6.447   1.984   0.358  1.00  0.00     0.219 HD
ENDBRANCH  19  22
ENDBRANCH  16  18
ENDBRANCH   9  16
BRANCH   1  24
HETATM   24  S1  UNL     1      -3.044   1.479  -0.644  1.00  0.00    -0.138 SA
HETATM   25  C1  UNL     1      -3.760   2.838   0.315  1.00  0.00     0.095 C 
ENDBRANCH   1  24
TORSDOF 4
