REMARK  2 active torsions:
REMARK  status: ('A' for Active; 'I' for Inactive)
REMARK    1  A    between atoms: C4_4  and  C5_5 
REMARK    2  A    between atoms: C6_9  and  O1_10 
ROOT
HETATM    1  C5  UNL     1      -2.526  -0.480   0.197  1.00  0.00     0.068 C 
HETATM    2  N1  UNL     1      -2.047  -1.592   0.643  1.00  0.00    -0.160 NA
HETATM    3  N2  UNL     1      -0.724  -1.785   0.272  1.00  0.00    -0.204 N 
HETATM    4  N3  UNL     1       0.141  -2.901   0.199  1.00  0.00    -0.261 N 
HETATM    5  C6  UNL     1       1.344  -2.778  -0.588  1.00  0.00     0.162 C 
HETATM    6  C7  UNL     1       2.570  -2.343  -0.335  1.00  0.00     0.103 C 
HETATM    7  S1  UNL     1       2.897  -1.766   1.296  1.00  0.00    -0.124 SA
HETATM    8  C8  UNL     1       2.859   0.046   1.443  1.00  0.00     0.104 A 
HETATM    9  C9  UNL     1       4.201   0.541   1.174  1.00  0.00     0.001 A 
HETATM   10  C10 UNL     1       4.584   1.480   0.323  1.00  0.00    -0.058 A 
HETATM   11  C11 UNL     1       6.030   1.863   0.179  1.00  0.00     0.049 C 
HETATM   12  P1  UNL     1       3.341   2.350  -0.713  1.00  0.00    -0.076 P 
HETATM   13  C12 UNL     1       1.731   1.619  -0.151  1.00  0.00     0.012 A 
HETATM   14  C13 UNL     1       1.746   0.660   0.765  1.00  0.00    -0.059 A 
HETATM   15  C14 UNL     1       0.389   0.159   1.129  1.00  0.00     0.065 C 
HETATM   16  C15 UNL     1      -0.235  -0.476  -0.101  1.00  0.00     0.139 C 
HETATM   17  C16 UNL     1      -1.468   0.221  -0.576  1.00  0.00     0.091 C 
HETATM   18  H5  UNL     1      -0.122  -3.783   0.722  1.00  0.00     0.191 HD
HETATM   19  H13 UNL     1       3.470   1.946  -2.123  1.00  0.00     0.066 HD
ENDROOT
BRANCH   1  20
HETATM   20  C4  UNL     1      -3.881   0.010   0.414  1.00  0.00    -0.009 A 
HETATM   21  C3  UNL     1      -5.068  -0.470   1.109  1.00  0.00     0.020 A 
HETATM   22  C2  UNL     1      -5.753   0.608   0.757  1.00  0.00    -0.060 A 
HETATM   23  C1  UNL     1      -7.096   1.257   0.881  1.00  0.00     0.048 C 
HETATM   24  C17 UNL     1      -4.565   1.088   0.061  1.00  0.00     0.020 A 
ENDBRANCH   1  20
BRANCH   5  25
HETATM   25  O1  UNL     1       0.820  -3.282  -1.772  1.00  0.00    -0.345 OA
HETATM   26  H6  UNL     1       1.012  -4.255  -2.026  1.00  0.00     0.219 HD
ENDBRANCH   5  25
TORSDOF 2
