REMARK  10 active torsions:
REMARK  status: ('A' for Active; 'I' for Inactive)
REMARK    1  A    between atoms: C5_5  and  C6_6 
REMARK    2  A    between atoms: C6_6  and  C7_7 
REMARK    3  A    between atoms: C6_6  and  N1_15 
REMARK    4  A    between atoms: C7_7  and  C8_8 
REMARK    5  A    between atoms: C8_8  and  C9_9 
REMARK    6  A    between atoms: N1_15  and  O1_16 
REMARK    7  A    between atoms: O1_16  and  C15_17 
REMARK    8  A    between atoms: C15_17  and  S1_18 
REMARK    9  A    between atoms: C16_21  and  O2_22 
REMARK   10  A    between atoms: O2_22  and  N3_23 
ROOT
HETATM    1  C6  UNL     1      -0.149   0.548   0.103  1.00  0.00     0.116 C 
ENDROOT
BRANCH   1   2
HETATM    2  C5  UNL     1      -1.189   1.574   0.210  1.00  0.00    -0.038 A 
HETATM    3  C4  UNL     1      -1.532   2.030   1.485  1.00  0.00     0.009 A 
HETATM    4  C3  UNL     1      -2.512   2.996   1.577  1.00  0.00     0.007 A 
HETATM    5  C2  UNL     1      -3.135   3.498   0.453  1.00  0.00    -0.062 A 
HETATM    6  C1  UNL     1      -4.207   4.547   0.474  1.00  0.00     0.048 C 
HETATM    7  C19 UNL     1      -2.805   3.056  -0.810  1.00  0.00     0.007 A 
HETATM    8  C18 UNL     1      -1.827   2.090  -0.914  1.00  0.00     0.009 A 
ENDBRANCH   1   2
BRANCH   1   9
HETATM    9  C7  UNL     1      -0.687  -0.851   0.298  1.00  0.00     0.031 C 
BRANCH   9  10
HETATM   10  C8  UNL     1      -1.732  -1.170  -0.739  1.00  0.00     0.040 C 
BRANCH  10  11
HETATM   11  C9  UNL     1      -2.215  -2.566  -0.484  1.00  0.00    -0.058 A 
HETATM   12  C10 UNL     1      -1.685  -3.714  -1.021  1.00  0.00     0.007 A 
HETATM   13  C11 UNL     1      -2.204  -4.940  -0.721  1.00  0.00     0.001 A 
HETATM   14  C12 UNL     1      -3.289  -5.090   0.139  1.00  0.00     0.000 A 
HETATM   15  C13 UNL     1      -3.867  -3.971   0.711  1.00  0.00     0.001 A 
HETATM   16  C14 UNL     1      -3.301  -2.754   0.373  1.00  0.00     0.007 A 
ENDBRANCH  10  11
ENDBRANCH   9  10
ENDBRANCH   1   9
BRANCH   1  17
HETATM   17  N1  UNL     1       1.020   0.782   0.919  1.00  0.00    -0.196 NA
HETATM   18  H16 UNL     1       0.686   0.754   1.912  1.00  0.00     0.154 HD
BRANCH  17  19
HETATM   19  O1  UNL     1       1.647   1.920   0.628  1.00  0.00    -0.295 OA
BRANCH  19  20
HETATM   20  C15 UNL     1       2.631   1.739  -0.371  1.00  0.00     0.277 C 
BRANCH  20  21
HETATM   21  S1  UNL     1       3.872   0.665  -0.036  1.00  0.00    -0.097 SA
HETATM   22  N2  UNL     1       4.018  -0.114   1.232  1.00  0.00    -0.243 NA
HETATM   23  B1  UNL     1       5.308  -0.967   1.084  1.00  0.00     0.340 B 
HETATM   24  C16 UNL     1       5.832  -0.577  -0.363  1.00  0.00     0.049 A 
HETATM   25  H19 UNL     1       5.426  -2.065   1.554  1.00  0.00     0.003 HD
HETATM   26  C17 UNL     1       5.132   0.320  -1.102  1.00  0.00     0.075 A 
BRANCH  24  27
HETATM   27  O2  UNL     1       7.026  -1.207  -0.801  1.00  0.00    -0.281 OA
BRANCH  27  28
HETATM   28  N3  UNL     1       8.195  -0.571  -0.518  1.00  0.00    -0.210 NA
HETATM   29  H20 UNL     1       8.451  -0.791   0.470  1.00  0.00     0.150 HD
HETATM   30  H21 UNL     1       8.069   0.469  -0.577  1.00  0.00     0.150 HD
ENDBRANCH  27  28
ENDBRANCH  24  27
ENDBRANCH  20  21
ENDBRANCH  19  20
ENDBRANCH  17  19
ENDBRANCH   1  17
TORSDOF 10
