REMARK  6 active torsions:
REMARK  status: ('A' for Active; 'I' for Inactive)
REMARK    1  A    between atoms: C5_5  and  C6_6 
REMARK    2  A    between atoms: C8_8  and  C9_9 
REMARK    3  A    between atoms: N2_16  and  C15_17 
REMARK    4  A    between atoms: C15_17  and  S1_18 
REMARK    5  A    between atoms: S1_18  and  C16_19 
REMARK    6  A    between atoms: C17_20  and  O1_21 
ROOT
HETATM    1  C6  UNL     1      -0.629  -0.077   1.234  1.00  0.00     0.144 C 
HETATM    2  C7  UNL     1      -0.777  -1.476   0.671  1.00  0.00     0.093 C 
HETATM    3  C8  UNL     1       0.648  -1.846   0.463  1.00  0.00     0.067 C 
HETATM    4  N1  UNL     1       1.359  -0.794   0.439  1.00  0.00    -0.179 NA
HETATM    5  N2  UNL     1       0.585   0.358   0.614  1.00  0.00    -0.286 N 
ENDROOT
BRANCH   1   6
HETATM    6  C5  UNL     1      -1.811   0.756   0.819  1.00  0.00    -0.033 A 
HETATM    7  C4  UNL     1      -1.892   1.023  -0.552  1.00  0.00     0.010 A 
HETATM    8  C3  UNL     1      -2.937   1.780  -1.052  1.00  0.00     0.007 A 
HETATM    9  C2  UNL     1      -3.890   2.265  -0.192  1.00  0.00    -0.062 A 
HETATM   10  C1  UNL     1      -5.051   3.084  -0.614  1.00  0.00     0.048 C 
HETATM   11  C19 UNL     1      -3.816   2.002   1.179  1.00  0.00     0.007 A 
HETATM   12  C18 UNL     1      -2.775   1.247   1.679  1.00  0.00     0.010 A 
ENDBRANCH   1   6
BRANCH   5  13
HETATM   13  C15 UNL     1       1.142   1.621   0.164  1.00  0.00     0.223 C 
BRANCH  13  14
HETATM   14  S1  UNL     1       2.707   1.959   1.057  1.00  0.00    -0.115 SA
BRANCH  14  15
HETATM   15  C16 UNL     1       3.341   3.518   0.464  1.00  0.00     0.115 C 
HETATM   16  C17 UNL     1       4.441   3.580  -0.306  1.00  0.00     0.229 C 
HETATM   17  F1  UNL     1       5.253   2.601  -0.774  1.00  0.00    -0.178 F 
BRANCH  16  18
HETATM   18  O1  UNL     1       5.305   4.429  -0.990  1.00  0.00    -0.337 OA
HETATM   19  H17 UNL     1       5.914   5.093  -0.497  1.00  0.00     0.220 HD
ENDBRANCH  16  18
ENDBRANCH  14  15
ENDBRANCH  13  14
ENDBRANCH   5  13
BRANCH   3  20
HETATM   20  C9  UNL     1       1.106  -3.238   0.314  1.00  0.00    -0.010 A 
HETATM   21  C10 UNL     1       0.239  -4.307   0.357  1.00  0.00     0.013 A 
HETATM   22  C11 UNL     1       0.767  -5.588   0.205  1.00  0.00     0.001 A 
HETATM   23  C12 UNL     1       2.119  -5.826   0.015  1.00  0.00     0.000 A 
HETATM   24  C13 UNL     1       2.992  -4.747  -0.028  1.00  0.00     0.001 A 
HETATM   25  C14 UNL     1       2.451  -3.488   0.123  1.00  0.00     0.013 A 
ENDBRANCH   3  20
TORSDOF 6
