REMARK  1 active torsions:
REMARK  status: ('A' for Active; 'I' for Inactive)
REMARK    1  A    between atoms: N2_13  and  C12_14 
ROOT
HETATM    1  C1  UNL     1      -4.784   1.569   0.401  1.00  0.00     0.048 C 
HETATM    2  C2  UNL     1      -3.375   1.188   0.093  1.00  0.00    -0.065 C 
HETATM    3  C3  UNL     1      -2.424   2.142   0.019  1.00  0.00    -0.014 C 
HETATM    4  C4  UNL     1      -1.126   1.586  -0.294  1.00  0.00     0.023 C 
HETATM    5  C5  UNL     1       0.162   1.499  -0.550  1.00  0.00     0.026 C 
HETATM    6  C6  UNL     1       0.722   0.143  -0.819  1.00  0.00     0.122 C 
HETATM    7  C7  UNL     1      -0.221  -0.833  -1.391  1.00  0.00     0.066 C 
HETATM    8  C8  UNL     1      -1.098  -1.575  -0.490  1.00  0.00    -0.059 C 
HETATM    9  C9  UNL     1      -0.805  -2.662   0.259  1.00  0.00    -0.014 C 
HETATM   10  C10 UNL     1       0.461  -3.440   0.548  1.00  0.00     0.076 C 
HETATM   11  C11 UNL     1       1.275  -2.478   1.352  1.00  0.00     0.115 C 
HETATM   12  N1  UNL     1       1.697  -1.301   1.160  1.00  0.00    -0.186 NA
HETATM   13  N2  UNL     1       1.532  -0.280   0.257  1.00  0.00    -0.242 N 
HETATM   14  C15 UNL     1      -2.496  -1.264  -0.246  1.00  0.00     0.007 C 
HETATM   15  C16 UNL     1      -3.340  -0.274  -0.033  1.00  0.00     0.007 C 
ENDROOT
BRANCH  13  16
HETATM   16  C12 UNL     1       2.679   0.567   0.700  1.00  0.00     0.186 A 
HETATM   17  N3  UNL     1       3.754   0.574  -0.227  1.00  0.00    -0.225 NA
HETATM   18  C13 UNL     1       4.845   1.199   0.028  1.00  0.00     0.079 A 
HETATM   19  O1  UNL     1       6.056   1.897   0.317  1.00  0.00     0.000 OA
HETATM   20  C14 UNL     1       4.819   1.895   1.384  1.00  0.00     0.129 A 
HETATM   21  H14 UNL     1       6.915   1.572  -0.129  1.00  0.00     0.000 HD
HETATM   22  S1  UNL     1       3.109   1.474   2.061  1.00  0.00    -0.078 SA
ENDBRANCH  13  16
TORSDOF 1
