REMARK  4 active torsions:
REMARK  status: ('A' for Active; 'I' for Inactive)
REMARK    1  A    between atoms: O1_2  and  C1_3 
REMARK    2  A    between atoms: C3_6  and  N1_7 
REMARK    3  A    between atoms: C4_9  and  C5_10 
REMARK    4  A    between atoms: C11_16  and  C12_17 
ROOT
HETATM    1  N1  UNL     1      -0.748   1.088  -0.141  1.00  0.00    -0.236 N 
HETATM    2  N2  UNL     1       0.480   0.985  -0.779  1.00  0.00    -0.174 NA
HETATM    3  C4  UNL     1       1.438   0.654   0.027  1.00  0.00     0.064 C 
HETATM    4  C10 UNL     1       0.869   0.489   1.395  1.00  0.00     0.094 C 
HETATM    5  C11 UNL     1      -0.575   0.229   1.047  1.00  0.00     0.151 C 
ENDROOT
BRANCH   1   6
HETATM    6  C3  UNL     1      -1.975   1.785  -0.397  1.00  0.00     0.192 A 
HETATM    7  S1  UNL     1      -1.853   2.783  -2.008  1.00  0.00    -0.058 SA
HETATM    8  C2  UNL     1      -3.613   3.416  -1.806  1.00  0.00     0.114 A 
HETATM    9  C1  UNL     1      -3.947   2.753  -0.569  1.00  0.00     0.214 A 
HETATM   10  N3  UNL     1      -3.028   1.992  -0.014  1.00  0.00    -0.195 NA
BRANCH   9  11
HETATM   11  O1  UNL     1      -5.242   2.992  -0.074  1.00  0.00    -0.135 OA
HETATM   12  F1  UNL     1      -5.699   2.449   1.060  1.00  0.00    -0.040 F 
ENDBRANCH   9  11
ENDBRANCH   1   6
BRANCH   5  13
HETATM   13  C12 UNL     1      -0.912  -1.166   0.793  1.00  0.00    -0.033 A 
HETATM   14  C13 UNL     1      -0.188  -2.276   1.195  1.00  0.00     0.009 A 
HETATM   15  C14 UNL     1      -0.541  -3.583   0.932  1.00  0.00     0.001 A 
HETATM   16  C15 UNL     1      -1.692  -3.839   0.219  1.00  0.00     0.000 A 
HETATM   17  C16 UNL     1      -2.453  -2.760  -0.208  1.00  0.00     0.001 A 
HETATM   18  C17 UNL     1      -2.054  -1.473   0.083  1.00  0.00     0.009 A 
ENDBRANCH   5  13
BRANCH   3  19
HETATM   19  C5  UNL     1       2.830   0.475  -0.370  1.00  0.00    -0.028 A 
HETATM   20  C6  UNL     1       3.273   0.631  -1.597  1.00  0.00     0.009 A 
HETATM   21  C7  UNL     1       4.695   0.376  -1.629  1.00  0.00    -0.003 A 
HETATM   22  C8  UNL     1       5.120   0.064  -0.416  1.00  0.00    -0.022 A 
HETATM   23  C9  UNL     1       3.954   0.096   0.527  1.00  0.00     0.067 A 
ENDBRANCH   3  19
TORSDOF 4
