REMARK  4 active torsions:
REMARK  status: ('A' for Active; 'I' for Inactive)
REMARK    1  A    between atoms: O1_1  and  C1_2 
REMARK    2  A    between atoms: C3_5  and  N1_6 
REMARK    3  A    between atoms: C4_8  and  C5_9 
REMARK    4  A    between atoms: C12_17  and  C13_18 
ROOT
HETATM    1  N1  UNL     1       0.886   0.922  -0.335  1.00  0.00    -0.236 N 
HETATM    2  N2  UNL     1      -0.396   1.239   0.106  1.00  0.00    -0.173 NA
HETATM    3  C4  UNL     1      -1.272   0.503  -0.534  1.00  0.00     0.067 C 
HETATM    4  C11 UNL     1      -0.612  -0.397  -1.491  1.00  0.00     0.094 C 
HETATM    5  C12 UNL     1       0.842  -0.312  -1.088  1.00  0.00     0.151 C 
ENDROOT
BRANCH   1   6
HETATM    6  C3  UNL     1       2.106   1.621  -0.136  1.00  0.00     0.192 A 
HETATM    7  S1  UNL     1       1.928   3.213   0.885  1.00  0.00    -0.058 SA
HETATM    8  C2  UNL     1       3.731   3.635   0.800  1.00  0.00     0.111 A 
HETATM    9  C1  UNL     1       4.161   2.451  -0.016  1.00  0.00     0.171 A 
HETATM   10  N3  UNL     1       3.336   1.502  -0.446  1.00  0.00    -0.198 NA
BRANCH   9  11
HETATM   11  O1  UNL     1       5.482   2.188  -0.433  1.00  0.00    -0.344 OA
HETATM   12  H1  UNL     1       6.162   2.948  -0.549  1.00  0.00     0.219 HD
ENDBRANCH   9  11
ENDBRANCH   1   6
BRANCH   5  13
HETATM   13  C13 UNL     1       1.251  -1.480  -0.264  1.00  0.00    -0.033 A 
HETATM   14  C14 UNL     1       2.105  -2.512  -0.602  1.00  0.00     0.009 A 
HETATM   15  C15 UNL     1       2.360  -3.514   0.312  1.00  0.00     0.001 A 
HETATM   16  C16 UNL     1       1.791  -3.530   1.569  1.00  0.00     0.000 A 
HETATM   17  C17 UNL     1       0.932  -2.483   1.895  1.00  0.00     0.001 A 
HETATM   18  C18 UNL     1       0.668  -1.475   0.992  1.00  0.00     0.009 A 
ENDBRANCH   5  13
BRANCH   3  19
HETATM   19  C5  UNL     1      -2.716   0.563  -0.331  1.00  0.00    -0.010 A 
HETATM   20  C6  UNL     1      -3.595  -0.237  -1.035  1.00  0.00     0.016 A 
HETATM   21  C7  UNL     1      -4.948  -0.149  -0.813  1.00  0.00     0.043 A 
HETATM   22  C8  UNL     1      -5.489   0.727   0.108  1.00  0.00     0.116 A 
HETATM   23  F1  UNL     1      -6.828   0.793   0.306  1.00  0.00    -0.206 F 
HETATM   24  C9  UNL     1      -4.638   1.552   0.838  1.00  0.00     0.043 A 
HETATM   25  C10 UNL     1      -3.282   1.443   0.596  1.00  0.00     0.016 A 
ENDBRANCH   3  19
TORSDOF 4
