REMARK  4 active torsions:
REMARK  status: ('A' for Active; 'I' for Inactive)
REMARK    1  A    between atoms: O1_1  and  C1_2 
REMARK    2  A    between atoms: C3_6  and  C4_7 
REMARK    3  A    between atoms: C15_18  and  S1_19 
REMARK    4  A    between atoms: C16_21  and  O2_22 
ROOT
HETATM    1  C1  UNL     1       2.317  -2.034   0.109  1.00  0.00     0.180 C 
HETATM    2  C2  UNL     1       1.038  -2.252  -0.089  1.00  0.00     0.171 C 
HETATM    3  N1  UNL     1       0.013  -1.310  -0.214  1.00  0.00    -0.260 N 
HETATM    4  N2  UNL     1      -1.301  -1.493  -0.663  1.00  0.00    -0.180 NA
HETATM    5  C3  UNL     1      -2.124  -0.657  -0.070  1.00  0.00     0.047 C 
HETATM    6  C9  UNL     1      -1.289   0.185   0.872  1.00  0.00     0.097 C 
HETATM    7  C10 UNL     1       0.004   0.072   0.086  1.00  0.00     0.104 C 
HETATM    8  C11 UNL     1      -0.101   0.998  -1.095  1.00  0.00     0.006 C 
HETATM    9  C12 UNL     1       1.072   1.691  -1.197  1.00  0.00    -0.020 C 
HETATM   10  C13 UNL     1       2.002   0.759  -0.537  1.00  0.00     0.046 C 
HETATM   11  C14 UNL     1       3.416   1.050  -0.368  1.00  0.00     0.077 C 
HETATM   12  C15 UNL     1       3.986  -0.275   0.115  1.00  0.00     0.071 C 
HETATM   13  N3  UNL     1       3.610  -1.492   0.319  1.00  0.00    -0.221 NA
HETATM   14  C16 UNL     1       1.211   0.607   0.731  1.00  0.00     0.160 C 
ENDROOT
BRANCH   5  15
HETATM   15  C4  UNL     1      -3.574  -0.521  -0.254  1.00  0.00     0.080 A 
HETATM   16  C5  UNL     1      -4.250  -0.765   1.055  1.00  0.00    -0.012 A 
HETATM   17  C6  UNL     1      -4.915   0.324   1.403  1.00  0.00    -0.003 A 
HETATM   18  C7  UNL     1      -4.754   1.375   0.387  1.00  0.00    -0.003 A 
HETATM   19  C8  UNL     1      -3.977   0.880  -0.568  1.00  0.00    -0.012 A 
ENDBRANCH   5  15
BRANCH  14  20
HETATM   20  O2  UNL     1       0.931   1.897   1.211  1.00  0.00    -0.392 OA
HETATM   21  H17 UNL     1       1.685   2.244   1.760  1.00  0.00     0.210 HD
ENDBRANCH  14  20
BRANCH   1  22
HETATM   22  O1  UNL     1       3.269  -3.038   0.221  1.00  0.00    -0.344 OA
HETATM   23  H1  UNL     1       2.944  -4.016   0.210  1.00  0.00     0.219 HD
ENDBRANCH   1  22
BRANCH  12  24
HETATM   24  S1  UNL     1       5.717  -0.344   0.570  1.00  0.00    -0.128 SA
HETATM   25  H15 UNL     1       6.419   0.468  -0.367  1.00  0.00     0.108 HD
ENDBRANCH  12  24
TORSDOF 4
