REMARK  2 active torsions:
REMARK  status: ('A' for Active; 'I' for Inactive)
REMARK    1  A    between atoms: O1_2  and  C2_3 
REMARK    2  A    between atoms: C2_3  and  C3_5 
ROOT
HETATM    1  C3  UNL     1       1.342   0.200  -0.743  1.00  0.00     0.088 C 
HETATM    2  C4  UNL     1       1.649  -0.079  -2.187  1.00  0.00     0.032 C 
HETATM    3  C5  UNL     1       1.753   1.592  -0.401  1.00  0.00    -0.005 A 
HETATM    4  C6  UNL     1       3.033   1.609   0.152  1.00  0.00     0.011 A 
HETATM    5  C7  UNL     1       3.652   2.765   0.569  1.00  0.00     0.001 A 
HETATM    6  C8  UNL     1       3.030   3.990   0.460  1.00  0.00     0.003 A 
HETATM    7  C9  UNL     1       1.778   4.048  -0.071  1.00  0.00     0.038 A 
HETATM    8  C10 UNL     1       1.160   2.869  -0.491  1.00  0.00     0.086 A 
HETATM    9  O3  UNL     1      -0.145   3.054  -1.031  1.00  0.00    -0.288 OA
HETATM   10  C11 UNL     1      -1.205   2.189  -0.834  1.00  0.00     0.182 C 
HETATM   11  C12 UNL     1      -0.796   0.996  -1.377  1.00  0.00     0.051 C 
HETATM   12  C13 UNL     1      -0.128   0.040  -0.435  1.00  0.00     0.110 C 
HETATM   13  C14 UNL     1      -0.700  -1.282  -0.608  1.00  0.00     0.165 C 
HETATM   14  O4  UNL     1      -0.589  -2.258  -1.390  1.00  0.00    -0.292 OA
HETATM   15  C15 UNL     1      -1.743  -1.732   0.374  1.00  0.00    -0.004 A 
HETATM   16  C16 UNL     1      -1.533  -2.603   1.377  1.00  0.00     0.011 A 
HETATM   17  C17 UNL     1      -2.729  -2.872   2.205  1.00  0.00    -0.003 A 
HETATM   18  C18 UNL     1      -3.644  -2.112   1.630  1.00  0.00    -0.017 A 
HETATM   19  C19 UNL     1      -3.223  -1.335   0.476  1.00  0.00     0.047 A 
HETATM   20  C20 UNL     1      -3.250   0.154   0.803  1.00  0.00     0.040 C 
HETATM   21  C21 UNL     1      -3.165   0.927  -0.523  1.00  0.00     0.178 C 
HETATM   22  O5  UNL     1      -2.521   2.155  -0.267  1.00  0.00    -0.331 OA
ENDROOT
BRANCH   1  23
HETATM   23  C2  UNL     1       2.064  -0.769   0.098  1.00  0.00     0.272 C 
HETATM   24  O2  UNL     1       2.796  -1.336   0.927  1.00  0.00    -0.264 OA
BRANCH  23  25
HETATM   25  O1  UNL     1       1.732  -2.075  -0.182  1.00  0.00    -0.326 OA
HETATM   26  C1  UNL     1       2.239  -3.217   0.439  1.00  0.00     0.213 C 
ENDBRANCH  23  25
ENDBRANCH   1  23
TORSDOF 2
