REMARK  7 active torsions:
REMARK  status: ('A' for Active; 'I' for Inactive)
REMARK    1  A    between atoms: C3_3  and  C4_4 
REMARK    2  A    between atoms: C6_6  and  N1_7 
REMARK    3  A    between atoms: N1_7  and  N2_8 
REMARK    4  A    between atoms: N2_8  and  C7_9 
REMARK    5  A    between atoms: N2_8  and  C10_15 
REMARK    6  A    between atoms: C8_11  and  O1_12 
REMARK    7  A    between atoms: C10_15  and  C12_17 
ROOT
HETATM    1  N2  UNL     1      -0.560  -0.187   0.395  1.00  0.00    -0.260 N 
ENDROOT
BRANCH   1   2
HETATM    2  N1  UNL     1      -0.146   0.593  -0.685  1.00  0.00    -0.294 N 
HETATM    3  H6  UNL     1      -0.702   1.397  -1.096  1.00  0.00     0.187 HD
BRANCH   2   4
HETATM    4  C6  UNL     1       1.092   0.382  -1.356  1.00  0.00     0.071 A 
HETATM    5  C4  UNL     1       2.535   0.442  -1.517  1.00  0.00     0.006 A 
HETATM    6  C5  UNL     1       1.846  -0.091  -2.465  1.00  0.00     0.019 A 
BRANCH   5   7
HETATM    7  C3  UNL     1       3.843   0.818  -1.011  1.00  0.00     0.010 C 
HETATM    8  C2  UNL     1       4.978   0.601  -1.676  1.00  0.00    -0.030 C 
HETATM    9  C1  UNL     1       6.305   0.985  -1.156  1.00  0.00     0.036 C 
ENDBRANCH   5   7
ENDBRANCH   2   4
ENDBRANCH   1   2
BRANCH   1  10
HETATM   10  C7  UNL     1      -0.180  -0.142   1.783  1.00  0.00     0.190 A 
HETATM   11  N3  UNL     1      -0.345  -0.623   2.822  1.00  0.00    -0.198 NA
HETATM   12  C8  UNL     1       0.244  -0.271   3.963  1.00  0.00     0.171 A 
HETATM   13  C9  UNL     1       1.177   0.812   3.912  1.00  0.00     0.111 A 
HETATM   14  S1  UNL     1       1.090   1.233   2.067  1.00  0.00    -0.058 SA
BRANCH  12  15
HETATM   15  O1  UNL     1      -0.180  -1.064   5.053  1.00  0.00    -0.344 OA
HETATM   16  H7  UNL     1       0.429  -1.220   5.844  1.00  0.00     0.219 HD
ENDBRANCH  12  15
ENDBRANCH   1  10
BRANCH   1  17
HETATM   17  C10 UNL     1      -1.523  -1.156  -0.081  1.00  0.00     0.139 C 
HETATM   18  C11 UNL     1      -0.928  -2.062  -1.139  1.00  0.00     0.039 C 
BRANCH  17  19
HETATM   19  C12 UNL     1      -2.779  -0.534  -0.527  1.00  0.00    -0.034 A 
HETATM   20  C13 UNL     1      -3.444  -0.858  -1.692  1.00  0.00     0.009 A 
HETATM   21  C14 UNL     1      -4.615  -0.190  -1.984  1.00  0.00     0.001 A 
HETATM   22  C15 UNL     1      -5.097   0.774  -1.123  1.00  0.00     0.000 A 
HETATM   23  C16 UNL     1      -4.450   1.122   0.058  1.00  0.00     0.001 A 
HETATM   24  C17 UNL     1      -3.269   0.442   0.342  1.00  0.00     0.009 A 
ENDBRANCH  17  19
ENDBRANCH   1  17
TORSDOF 7
