REMARK  5 active torsions:
REMARK  status: ('A' for Active; 'I' for Inactive)
REMARK    1  A    between atoms: O1_2  and  C2_3 
REMARK    2  A    between atoms: C5_6  and  C6_7 
REMARK    3  A    between atoms: C8_9  and  C9_10 
REMARK    4  A    between atoms: N2_17  and  C15_18 
REMARK    5  A    between atoms: C16_20  and  P1_21 
ROOT
HETATM    1  C6  UNL     1       0.191   0.348  -1.101  1.00  0.00     0.151 A 
HETATM    2  C7  UNL     1      -0.427  -1.026  -1.056  1.00  0.00     0.094 A 
HETATM    3  C8  UNL     1      -1.755  -0.807  -0.458  1.00  0.00     0.067 A 
HETATM    4  N1  UNL     1      -1.930   0.439  -0.133  1.00  0.00    -0.173 NA
HETATM    5  N2  UNL     1      -0.791   1.163  -0.461  1.00  0.00    -0.236 N 
ENDROOT
BRANCH   1   6
HETATM    6  C5  UNL     1       1.503   0.299  -0.378  1.00  0.00    -0.033 A 
HETATM    7  C4  UNL     1       2.235  -0.746  -0.959  1.00  0.00     0.012 A 
HETATM    8  C3  UNL     1       3.521  -1.068  -0.501  1.00  0.00     0.037 A 
HETATM    9  C2  UNL     1       4.092  -0.363   0.533  1.00  0.00     0.068 A 
HETATM   10  C19 UNL     1       3.327   0.668   1.081  1.00  0.00     0.037 A 
HETATM   11  C18 UNL     1       2.062   1.012   0.656  1.00  0.00     0.012 A 
BRANCH   9  12
HETATM   12  O1  UNL     1       5.325  -0.514   1.125  1.00  0.00    -0.356 OA
HETATM   13  C1  UNL     1       6.260  -1.488   0.717  1.00  0.00     0.210 C 
ENDBRANCH   9  12
ENDBRANCH   1   6
BRANCH   5  14
HETATM   14  C15 UNL     1      -0.982   2.534  -0.058  1.00  0.00     0.190 A 
HETATM   15  N3  UNL     1      -1.043   3.429   0.909  1.00  0.00    -0.223 NA
HETATM   16  C16 UNL     1      -1.275   4.666   0.452  1.00  0.00     0.064 A 
HETATM   17  C17 UNL     1      -1.469   5.141  -1.039  1.00  0.00     0.085 A 
HETATM   18  S1  UNL     1      -1.251   3.395  -1.735  1.00  0.00    -0.060 SA
BRANCH  16  19
HETATM   19  P1  UNL     1      -1.357   5.813   1.915  1.00  0.00    -0.085 P 
HETATM   20  H14 UNL     1      -2.636   5.584   2.578  1.00  0.00     0.061 HD
HETATM   21  H15 UNL     1      -1.241   7.197   1.473  1.00  0.00     0.061 HD
ENDBRANCH  16  19
ENDBRANCH   5  14
BRANCH   3  22
HETATM   22  C9  UNL     1      -2.678  -1.951  -0.280  1.00  0.00    -0.010 A 
HETATM   23  C10 UNL     1      -2.420  -3.246  -0.671  1.00  0.00     0.013 A 
HETATM   24  C11 UNL     1      -3.383  -4.215  -0.418  1.00  0.00     0.001 A 
HETATM   25  C12 UNL     1      -4.586  -3.882   0.220  1.00  0.00     0.000 A 
HETATM   26  C13 UNL     1      -4.852  -2.585   0.615  1.00  0.00     0.001 A 
HETATM   27  C14 UNL     1      -3.879  -1.639   0.352  1.00  0.00     0.013 A 
ENDBRANCH   3  22
TORSDOF 5
