REMARK  5 active torsions:
REMARK  status: ('A' for Active; 'I' for Inactive)
REMARK    1  A    between atoms: O1_2  and  C2_3 
REMARK    2  A    between atoms: C5_6  and  C6_7 
REMARK    3  A    between atoms: C8_9  and  C9_10 
REMARK    4  A    between atoms: N2_17  and  C15_18 
REMARK    5  A    between atoms: C16_20  and  O2_21 
ROOT
HETATM    1  C6  UNL     1      -0.851   0.236  -0.826  1.00  0.00     0.129 A 
HETATM    2  C7  UNL     1       0.016  -0.981  -0.691  1.00  0.00     0.090 A 
HETATM    3  C8  UNL     1       1.353  -0.477  -0.348  1.00  0.00     0.067 A 
HETATM    4  N1  UNL     1       1.385   0.812  -0.300  1.00  0.00    -0.174 NA
HETATM    5  N2  UNL     1       0.111   1.326  -0.597  1.00  0.00    -0.240 N 
ENDROOT
BRANCH   5   6
HETATM    6  C15 UNL     1      -0.002   2.751  -0.608  1.00  0.00     0.192 A 
HETATM    7  N3  UNL     1      -0.787   3.665   0.220  1.00  0.00    -0.198 NA
HETATM    8  C16 UNL     1      -0.502   4.894  -0.214  1.00  0.00     0.171 A 
HETATM    9  C17 UNL     1       0.369   5.443  -1.266  1.00  0.00     0.111 A 
HETATM   10  S1  UNL     1       0.993   3.746  -1.841  1.00  0.00    -0.058 SA
BRANCH   8  11
HETATM   11  O2  UNL     1      -1.309   5.671   0.652  1.00  0.00    -0.344 OA
HETATM   12  H16 UNL     1      -0.824   6.056   1.463  1.00  0.00     0.219 HD
ENDBRANCH   8  11
ENDBRANCH   5   6
BRANCH   1  13
HETATM   13  C5  UNL     1      -1.931   0.308   0.239  1.00  0.00     0.071 A 
HETATM   14  C2  UNL     1      -2.828  -0.827   0.304  1.00  0.00     0.048 A 
HETATM   15  C3  UNL     1      -2.498  -1.131   1.509  1.00  0.00     0.007 A 
HETATM   16  C4  UNL     1      -1.547  -0.036   1.630  1.00  0.00     0.043 A 
BRANCH  14  17
HETATM   17  O1  UNL     1      -3.662  -1.226  -0.753  1.00  0.00    -0.360 OA
HETATM   18  C1  UNL     1      -4.866  -1.914  -0.558  1.00  0.00     0.209 C 
ENDBRANCH  14  17
ENDBRANCH   1  13
BRANCH   3  19
HETATM   19  C9  UNL     1       2.487  -1.359  -0.111  1.00  0.00    -0.010 A 
HETATM   20  C10 UNL     1       2.383  -2.754  -0.172  1.00  0.00     0.013 A 
HETATM   21  C11 UNL     1       3.525  -3.491   0.061  1.00  0.00     0.001 A 
HETATM   22  C12 UNL     1       4.747  -2.940   0.347  1.00  0.00     0.000 A 
HETATM   23  C13 UNL     1       4.887  -1.567   0.416  1.00  0.00     0.001 A 
HETATM   24  C14 UNL     1       3.734  -0.851   0.180  1.00  0.00     0.013 A 
ENDBRANCH   3  19
TORSDOF 5
