REMARK  4 active torsions:
REMARK  status: ('A' for Active; 'I' for Inactive)
REMARK    1  A    between atoms: C5_5  and  C6_6 
REMARK    2  A    between atoms: N2_8  and  C7_9 
REMARK    3  A    between atoms: C8_11  and  O1_12 
REMARK    4  A    between atoms: C10_15  and  C11_16 
ROOT
HETATM    1  C6  UNL     1       1.264   0.127  -0.075  1.00  0.00     0.067 C 
HETATM    2  N1  UNL     1       0.597   1.207  -0.090  1.00  0.00    -0.173 NA
HETATM    3  N2  UNL     1      -0.762   0.976  -0.394  1.00  0.00    -0.236 N 
HETATM    4  C10 UNL     1      -0.911  -0.332  -0.933  1.00  0.00     0.151 C 
HETATM    5  C17 UNL     1       0.339  -1.014  -0.393  1.00  0.00     0.094 C 
ENDROOT
BRANCH   3   6
HETATM    6  C7  UNL     1      -1.657   2.082  -0.099  1.00  0.00     0.192 A 
HETATM    7  N3  UNL     1      -2.125   3.033  -0.546  1.00  0.00    -0.198 NA
HETATM    8  C8  UNL     1      -2.956   3.894   0.001  1.00  0.00     0.171 A 
HETATM    9  C9  UNL     1      -3.325   3.600   1.333  1.00  0.00     0.111 A 
HETATM   10  S1  UNL     1      -2.393   2.058   1.654  1.00  0.00    -0.058 SA
BRANCH   8  11
HETATM   11  O1  UNL     1      -3.357   4.975  -0.812  1.00  0.00    -0.344 OA
HETATM   12  H7  UNL     1      -2.730   5.666  -1.170  1.00  0.00     0.219 HD
ENDBRANCH   8  11
ENDBRANCH   3   6
BRANCH   4  13
HETATM   13  C11 UNL     1      -2.078  -1.090  -0.475  1.00  0.00    -0.033 A 
HETATM   14  C12 UNL     1      -2.033  -2.417  -0.089  1.00  0.00     0.009 A 
HETATM   15  C13 UNL     1      -3.117  -3.158   0.347  1.00  0.00     0.001 A 
HETATM   16  C14 UNL     1      -4.342  -2.547   0.407  1.00  0.00     0.000 A 
HETATM   17  C15 UNL     1      -4.442  -1.237   0.036  1.00  0.00     0.001 A 
HETATM   18  C16 UNL     1      -3.336  -0.506  -0.401  1.00  0.00     0.009 A 
ENDBRANCH   4  13
BRANCH   1  19
HETATM   19  C5  UNL     1       2.690  -0.023   0.200  1.00  0.00    -0.013 A 
HETATM   20  C4  UNL     1       3.577   1.111   0.510  1.00  0.00     0.010 A 
HETATM   21  C3  UNL     1       4.789   0.627   0.704  1.00  0.00    -0.018 A 
HETATM   22  C2  UNL     1       4.814  -0.852   0.542  1.00  0.00     0.027 A 
HETATM   23  C1  UNL     1       5.685  -1.270  -0.621  1.00  0.00     0.018 C 
HETATM   24  C18 UNL     1       3.391  -1.142   0.217  1.00  0.00    -0.005 A 
ENDBRANCH   1  19
TORSDOF 4
