REMARK  2 active torsions:
REMARK  status: ('A' for Active; 'I' for Inactive)
REMARK    1  A    between atoms: C2_2  and  C3_3 
REMARK    2  A    between atoms: C14_18  and  C15_19 
ROOT
HETATM    1  C3  UNL     1      -2.833  -0.440   0.351  1.00  0.00    -0.029 C 
HETATM    2  C4  UNL     1      -2.870   0.886   0.400  1.00  0.00     0.011 C 
HETATM    3  C5  UNL     1      -2.093   2.073   0.379  1.00  0.00     0.020 C 
HETATM    4  C6  UNL     1      -0.810   2.443   0.280  1.00  0.00     0.117 C 
HETATM    5  N1  UNL     1       0.481   1.831   0.139  1.00  0.00    -0.261 N 
HETATM    6  C7  UNL     1       1.026   1.704  -1.231  1.00  0.00     0.226 C 
HETATM    7  N2  UNL     1       0.971   0.910  -2.166  1.00  0.00    -0.271 NA
HETATM    8  C8  UNL     1       0.530  -0.246  -2.733  1.00  0.00     0.254 C 
HETATM    9  S1  UNL     1      -0.243  -1.599  -1.921  1.00  0.00     0.011 SA
HETATM   10  O1  UNL     1      -1.752  -1.464  -1.262  1.00  0.00    -0.308 OA
HETATM   11  C9  UNL     1      -1.778  -1.459   0.214  1.00  0.00     0.171 C 
HETATM   12  C10 UNL     1      -0.549  -0.723   0.653  1.00  0.00     0.048 C 
HETATM   13  C11 UNL     1       0.721  -1.192   1.071  1.00  0.00     0.036 C 
HETATM   14  C12 UNL     1       1.550  -2.223   0.454  1.00  0.00     0.016 C 
HETATM   15  C13 UNL     1       1.505   0.159   1.049  1.00  0.00     0.030 C 
HETATM   16  C14 UNL     1       2.765   0.455   0.661  1.00  0.00     0.029 C 
HETATM   17  N3  UNL     1       1.023   1.434   1.371  1.00  0.00    -0.297 N 
HETATM   18  H20 UNL     1       0.968   2.088   2.183  1.00  0.00     0.187 HD
ENDROOT
BRANCH  16  19
HETATM   19  C15 UNL     1       3.615   1.660   0.588  1.00  0.00     0.031 C 
HETATM   20  C16 UNL     1       4.842   1.528   0.130  1.00  0.00     0.188 C 
HETATM   21  F1  UNL     1       5.092   0.224  -0.205  1.00  0.00    -0.219 F 
ENDBRANCH  16  19
BRANCH   1  22
HETATM   22  C2  UNL     1      -4.119  -1.147   0.420  1.00  0.00    -0.001 C 
HETATM   23  C1  UNL     1      -4.323  -2.427   0.391  1.00  0.00     0.012 C 
ENDBRANCH   1  22
TORSDOF 2
