REMARK  4 active torsions:
REMARK  status: ('A' for Active; 'I' for Inactive)
REMARK    1  A    between atoms: N1_1  and  C1_2 
REMARK    2  A    between atoms: C1_2  and  O1_3 
REMARK    3  A    between atoms: C2_4  and  S1_5 
REMARK    4  A    between atoms: S1_5  and  N2_6 
ROOT
HETATM    1  N2  UNL     1       2.376  -0.206  -0.698  1.00  0.00    -0.225 N 
HETATM    2  N3  UNL     1       2.101   1.144  -0.755  1.00  0.00    -0.171 NA
HETATM    3  C3  UNL     1       0.891   1.437  -0.543  1.00  0.00     0.043 C 
HETATM    4  C4  UNL     1      -0.127   2.560  -0.557  1.00  0.00     0.087 C 
HETATM    5  C5  UNL     1      -1.488   1.914  -0.661  1.00  0.00     0.021 C 
HETATM    6  C6  UNL     1      -2.009   1.965   0.521  1.00  0.00     0.112 C 
HETATM    7  F1  UNL     1      -1.423   2.514   1.583  1.00  0.00    -0.206 F 
HETATM    8  C7  UNL     1      -2.985   1.486   1.470  1.00  0.00     0.038 C 
HETATM    9  C8  UNL     1      -3.767   0.495   0.990  1.00  0.00    -0.020 C 
HETATM   10  C9  UNL     1      -4.880  -0.500   1.177  1.00  0.00     0.054 C 
HETATM   11  C10 UNL     1      -4.323  -1.888   0.956  1.00  0.00    -0.023 C 
HETATM   12  C11 UNL     1      -3.068  -2.108   0.623  1.00  0.00    -0.004 C 
HETATM   13  C12 UNL     1      -1.812  -2.735   0.267  1.00  0.00    -0.000 C 
HETATM   14  C13 UNL     1      -0.563  -2.897  -0.065  1.00  0.00     0.002 C 
HETATM   15  C14 UNL     1       0.542  -2.011  -0.308  1.00  0.00     0.028 C 
HETATM   16  C15 UNL     1       1.153  -0.850  -0.408  1.00  0.00     0.047 C 
HETATM   17  C16 UNL     1       0.175   0.190  -0.071  1.00  0.00     0.116 C 
ENDROOT
BRANCH   1  18
HETATM   18  S1  UNL     1       3.819  -1.186  -0.895  1.00  0.00    -0.100 SA
BRANCH  18  19
HETATM   19  C2  UNL     1       5.307  -0.319  -0.419  1.00  0.00     0.251 C 
HETATM   20  C1  UNL     1       5.670   0.918  -0.118  1.00  0.00     0.141 C 
BRANCH  20  21
HETATM   21  N1  UNL     1       4.671   1.930  -0.148  1.00  0.00    -0.380 N 
HETATM   22  H1  UNL     1       4.342   1.758   0.846  1.00  0.00     0.158 HD
HETATM   23  H2  UNL     1       4.932   2.169  -1.139  1.00  0.00     0.158 HD
ENDBRANCH  20  21
BRANCH  20  24
HETATM   24  O1  UNL     1       6.959   0.382   0.061  1.00  0.00    -0.346 OA
HETATM   25  H3  UNL     1       7.807   0.855  -0.137  1.00  0.00     0.219 HD
ENDBRANCH  20  24
ENDBRANCH  18  19
ENDBRANCH   1  18
TORSDOF 4
