REMARK  8 active torsions:
REMARK  status: ('A' for Active; 'I' for Inactive)
REMARK    1  A    between atoms: B1_2  and  C2_3 
REMARK    2  A    between atoms: C2_3  and  C3_5 
REMARK    3  A    between atoms: C4_6  and  C5_7 
REMARK    4  A    between atoms: C5_7  and  C6_8 
REMARK    5  A    between atoms: C11_13  and  C12_14 
REMARK    6  A    between atoms: C12_14  and  C13_16 
REMARK    7  A    between atoms: C13_16  and  O3_17 
REMARK    8  A    between atoms: C21_25  and  O4_26 
ROOT
HETATM    1  C3  UNL     1      -0.968  -0.050  -0.301  1.00  0.00     0.038 A 
HETATM    2  C4  UNL     1      -0.042   0.731  -0.919  1.00  0.00    -0.037 A 
HETATM    3  C14 UNL     1      -0.499   2.066  -0.977  1.00  0.00     0.020 A 
HETATM    4  C15 UNL     1      -1.701   2.571  -0.495  1.00  0.00    -0.023 A 
HETATM    5  C16 UNL     1      -2.052   3.882  -0.599  1.00  0.00     0.012 A 
HETATM    6  C17 UNL     1      -3.259   4.324  -0.101  1.00  0.00     0.001 A 
HETATM    7  C18 UNL     1      -4.119   3.438   0.508  1.00  0.00     0.001 A 
HETATM    8  C19 UNL     1      -3.767   2.102   0.617  1.00  0.00     0.015 A 
HETATM    9  C20 UNL     1      -2.559   1.683   0.113  1.00  0.00     0.008 A 
HETATM   10  C21 UNL     1      -2.175   0.362   0.203  1.00  0.00     0.092 A 
ENDROOT
BRANCH   2  11
HETATM   11  C5  UNL     1       1.283   0.566  -1.505  1.00  0.00     0.079 C 
BRANCH  11  12
HETATM   12  C6  UNL     1       2.419   0.490  -0.602  1.00  0.00    -0.040 A 
HETATM   13  C7  UNL     1       2.748   1.826  -0.275  1.00  0.00     0.008 A 
HETATM   14  C8  UNL     1       3.730   2.164   0.669  1.00  0.00     0.001 A 
HETATM   15  C9  UNL     1       4.421   1.170   1.323  1.00  0.00     0.001 A 
HETATM   16  C10 UNL     1       4.102  -0.121   1.002  1.00  0.00     0.016 A 
HETATM   17  C11 UNL     1       3.143  -0.444   0.077  1.00  0.00     0.018 A 
BRANCH  17  18
HETATM   18  C12 UNL     1       2.889  -1.796  -0.347  1.00  0.00     0.183 C 
HETATM   19  O2  UNL     1       2.146  -2.180  -1.269  1.00  0.00    -0.290 OA
BRANCH  18  20
HETATM   20  C13 UNL     1       3.340  -3.136   0.073  1.00  0.00     0.247 C 
BRANCH  20  21
HETATM   21  O3  UNL     1       4.269  -3.041   1.137  1.00  0.00    -0.393 OA
HETATM   22  H13 UNL     1       5.199  -3.076   0.781  1.00  0.00     0.209 HD
ENDBRANCH  20  21
ENDBRANCH  18  20
ENDBRANCH  17  18
ENDBRANCH  11  12
ENDBRANCH   2  11
BRANCH   1  23
HETATM   23  C2  UNL     1      -0.724  -1.461  -0.161  1.00  0.00     0.108 C 
HETATM   24  O1  UNL     1      -0.089  -1.680   0.921  1.00  0.00    -0.307 OA
BRANCH  23  25
HETATM   25  B1  UNL     1      -1.000  -2.804  -0.923  1.00  0.00     0.244 B 
HETATM   26  C1  UNL     1      -1.666  -4.042  -0.187  1.00  0.00    -0.050 C 
HETATM   27  H4  UNL     1      -0.621  -2.879  -2.033  1.00  0.00    -0.018 HD
ENDBRANCH  23  25
ENDBRANCH   1  23
BRANCH  10  28
HETATM   28  O4  UNL     1      -3.053  -0.514   0.819  1.00  0.00    -0.354 OA
HETATM   29  C22 UNL     1      -4.012  -1.170   0.009  1.00  0.00     0.210 C 
ENDBRANCH  10  28
TORSDOF 8
