REMARK  4 active torsions:
REMARK  status: ('A' for Active; 'I' for Inactive)
REMARK    1  A    between atoms: C3_3  and  C4_4 
REMARK    2  A    between atoms: C5_5  and  C6_6 
REMARK    3  A    between atoms: C6_6  and  C7_7 
REMARK    4  A    between atoms: C9_10  and  O1_11 
ROOT
HETATM    1  C7  UNL     1      -1.629  -0.307   0.202  1.00  0.00     0.119 C 
HETATM    2  C8  UNL     1      -1.487   0.201   1.593  1.00  0.00     0.128 C 
HETATM    3  N1  UNL     1      -1.595  -0.418   2.693  1.00  0.00    -0.238 NA
HETATM    4  C9  UNL     1      -1.874  -1.745   3.013  1.00  0.00     0.169 C 
HETATM    5  C10 UNL     1      -2.472  -2.683   2.290  1.00  0.00     0.127 C 
HETATM    6  S1  UNL     1      -3.153  -2.636   0.642  1.00  0.00    -0.000 SA
HETATM    7  N2  UNL     1      -2.932  -0.961   0.077  1.00  0.00    -0.222 N 
HETATM    8  N3  UNL     1      -3.837  -0.066  -0.495  1.00  0.00    -0.180 NA
HETATM    9  C11 UNL     1      -3.198   0.945  -0.977  1.00  0.00     0.133 C 
HETATM   10  C12 UNL     1      -1.759   0.802  -0.759  1.00  0.00     0.067 A 
HETATM   11  C13 UNL     1      -1.087   2.055  -0.383  1.00  0.00    -0.002 A 
HETATM   12  C14 UNL     1      -0.253   2.460  -1.332  1.00  0.00     0.039 A 
HETATM   13  C15 UNL     1      -0.283   1.512  -2.444  1.00  0.00     0.113 A 
HETATM   14  F1  UNL     1       0.336   1.408  -3.645  1.00  0.00    -0.206 F 
HETATM   15  C16 UNL     1      -1.159   0.551  -2.104  1.00  0.00     0.037 A 
ENDROOT
BRANCH   1  16
HETATM   16  C6  UNL     1      -0.546  -1.319  -0.121  1.00  0.00     0.068 C 
BRANCH  16  17
HETATM   17  C5  UNL     1       0.773  -0.715   0.018  1.00  0.00    -0.024 C 
HETATM   18  C4  UNL     1       1.828  -0.485  -0.742  1.00  0.00    -0.004 C 
BRANCH  18  19
HETATM   19  C3  UNL     1       3.033   0.171  -0.256  1.00  0.00    -0.005 C 
HETATM   20  C2  UNL     1       4.017   0.341  -1.120  1.00  0.00    -0.031 C 
HETATM   21  C1  UNL     1       5.244   0.999  -0.656  1.00  0.00     0.036 C 
ENDBRANCH  18  19
ENDBRANCH  16  17
ENDBRANCH   1  16
BRANCH   4  22
HETATM   22  O1  UNL     1      -1.523  -2.303   4.259  1.00  0.00    -0.344 OA
HETATM   23  H11 UNL     1      -1.826  -1.910   5.120  1.00  0.00     0.219 HD
ENDBRANCH   4  22
TORSDOF 4
