REMARK  6 active torsions:
REMARK  status: ('A' for Active; 'I' for Inactive)
REMARK    1  A    between atoms: O1_1  and  C1_2 
REMARK    2  A    between atoms: C3_5  and  N1_6 
REMARK    3  A    between atoms: C4_8  and  C5_9 
REMARK    4  A    between atoms: C10_16  and  C11_17 
REMARK    5  A    between atoms: C11_17  and  C12_18 
REMARK    6  A    between atoms: C13_19  and  C14_20 
ROOT
HETATM    1  N1  UNL     1      -0.595  -0.892  -0.476  1.00  0.00    -0.241 N 
HETATM    2  N2  UNL     1      -1.792  -0.177  -0.339  1.00  0.00    -0.176 NA
HETATM    3  C4  UNL     1      -1.606   1.051  -0.690  1.00  0.00     0.063 C 
HETATM    4  C9  UNL     1      -0.199   1.282  -1.103  1.00  0.00     0.086 C 
HETATM    5  C10 UNL     1       0.496   0.029  -0.728  1.00  0.00     0.121 C 
ENDROOT
BRANCH   1   6
HETATM    6  C3  UNL     1      -0.673  -2.375  -0.334  1.00  0.00     0.192 A 
HETATM    7  S1  UNL     1       0.117  -3.460  -1.677  1.00  0.00    -0.058 SA
HETATM    8  C2  UNL     1      -0.414  -4.990  -0.736  1.00  0.00     0.111 A 
HETATM    9  C1  UNL     1      -1.058  -4.422   0.364  1.00  0.00     0.171 A 
HETATM   10  N4  UNL     1      -1.118  -3.099   0.446  1.00  0.00    -0.198 NA
BRANCH   9  11
HETATM   11  O1  UNL     1      -1.632  -5.224   1.371  1.00  0.00    -0.344 OA
HETATM   12  H1  UNL     1      -2.654  -5.358   1.347  1.00  0.00     0.219 HD
ENDBRANCH   9  11
ENDBRANCH   1   6
BRANCH   5  13
HETATM   13  C11 UNL     1       1.407   0.156   0.463  1.00  0.00     0.054 C 
BRANCH  13  14
HETATM   14  C12 UNL     1       2.489   1.108   0.153  1.00  0.00    -0.026 C 
HETATM   15  C13 UNL     1       3.796   0.968   0.117  1.00  0.00     0.000 C 
BRANCH  15  16
HETATM   16  C14 UNL     1       4.747  -0.140   0.356  1.00  0.00     0.249 C 
HETATM   17  F2  UNL     1       5.587   0.201   1.387  1.00  0.00    -0.251 F 
ENDBRANCH  15  16
ENDBRANCH  13  14
ENDBRANCH   5  13
BRANCH   3  18
HETATM   18  C5  UNL     1      -2.551   2.230  -0.735  1.00  0.00     0.183 A 
HETATM   19  C6  UNL     1      -2.061   3.301   0.135  1.00  0.00     0.011 A 
HETATM   20  C7  UNL     1      -2.866   3.421   1.182  1.00  0.00     0.061 A 
HETATM   21  C8  UNL     1      -3.901   2.431   1.019  1.00  0.00     0.205 A 
HETATM   22  F1  UNL     1      -4.858   2.352   1.982  1.00  0.00    -0.185 F 
HETATM   23  N3  UNL     1      -3.747   1.747  -0.054  1.00  0.00    -0.247 NA
ENDBRANCH   3  18
TORSDOF 6
