REMARK  7 active torsions:
REMARK  status: ('A' for Active; 'I' for Inactive)
REMARK    1  A    between atoms: C2_2  and  C3_3 
REMARK    2  A    between atoms: C2_2  and  N1_9 
REMARK    3  A    between atoms: N1_9  and  B1_10 
REMARK    4  A    between atoms: N1_9  and  C16_20 
REMARK    5  A    between atoms: B1_10  and  N2_11 
REMARK    6  A    between atoms: C9_12  and  C10_13 
REMARK    7  A    between atoms: C17_22  and  O1_23 
ROOT
HETATM    1  N1  UNL     1      -0.887   0.751   0.210  1.00  0.00    -0.384 N 
ENDROOT
BRANCH   1   2
HETATM    2  C2  UNL     1      -1.871   0.026   0.965  1.00  0.00     0.101 C 
HETATM    3  C1  UNL     1      -3.100   0.896   1.294  1.00  0.00     0.036 C 
BRANCH   2   4
HETATM    4  C3  UNL     1      -2.313  -1.248   0.359  1.00  0.00    -0.037 A 
HETATM    5  C4  UNL     1      -2.382  -2.337   1.248  1.00  0.00     0.009 A 
HETATM    6  C5  UNL     1      -2.801  -3.542   0.729  1.00  0.00     0.001 A 
HETATM    7  C6  UNL     1      -3.141  -3.680  -0.617  1.00  0.00     0.000 A 
HETATM    8  C7  UNL     1      -3.053  -2.563  -1.453  1.00  0.00     0.001 A 
HETATM    9  C8  UNL     1      -2.634  -1.315  -0.974  1.00  0.00     0.009 A 
ENDBRANCH   2   4
ENDBRANCH   1   2
BRANCH   1  10
HETATM   10  B1  UNL     1       0.466   0.311  -0.399  1.00  0.00     0.414 B 
HETATM   11  H10 UNL     1       0.774   0.769  -1.476  1.00  0.00     0.029 HD
BRANCH  10  12
HETATM   12  N2  UNL     1       0.909  -1.157  -0.262  1.00  0.00    -0.341 NA
HETATM   13  C9  UNL     1       2.155  -1.437  -0.169  1.00  0.00     0.102 C 
BRANCH  13  14
HETATM   14  C10 UNL     1       3.527  -0.969  -0.125  1.00  0.00    -0.021 A 
HETATM   15  C11 UNL     1       4.513  -1.919   0.012  1.00  0.00     0.016 A 
HETATM   16  C12 UNL     1       5.796  -1.417   0.053  1.00  0.00     0.043 A 
HETATM   17  C13 UNL     1       6.036  -0.042  -0.042  1.00  0.00     0.116 A 
HETATM   18  F1  UNL     1       7.341   0.320   0.012  1.00  0.00    -0.206 F 
HETATM   19  C14 UNL     1       4.998   0.883  -0.181  1.00  0.00     0.043 A 
HETATM   20  C15 UNL     1       3.711   0.393  -0.222  1.00  0.00     0.016 A 
ENDBRANCH  13  14
ENDBRANCH  10  12
ENDBRANCH   1  10
BRANCH   1  21
HETATM   21  C16 UNL     1      -1.185   2.151  -0.051  1.00  0.00     0.159 A 
HETATM   22  N3  UNL     1      -1.221   3.212   0.759  1.00  0.00    -0.201 NA
HETATM   23  C17 UNL     1      -1.518   4.351   0.132  1.00  0.00     0.171 A 
HETATM   24  C18 UNL     1      -1.770   4.430  -1.269  1.00  0.00     0.111 A 
HETATM   25  S1  UNL     1      -1.531   2.583  -1.652  1.00  0.00    -0.061 SA
BRANCH  23  26
HETATM   26  O1  UNL     1      -1.522   5.372   1.117  1.00  0.00    -0.344 OA
HETATM   27  H16 UNL     1      -2.372   5.505   1.689  1.00  0.00     0.219 HD
ENDBRANCH  23  26
ENDBRANCH   1  21
TORSDOF 7
