REMARK  3 active torsions:
REMARK  status: ('A' for Active; 'I' for Inactive)
REMARK    1  A    between atoms: O1_1  and  N1_2 
REMARK    2  A    between atoms: C1_4  and  C2_5 
REMARK    3  A    between atoms: C9_13  and  C10_14 
ROOT
HETATM    1  N1  UNL     1      -0.650  -0.995  -1.467  1.00  0.00    -0.169 N 
HETATM    2  N2  UNL     1       0.759  -0.856  -1.498  1.00  0.00    -0.154 NA
HETATM    3  C1  UNL     1       1.192  -0.364  -0.386  1.00  0.00     0.069 C 
HETATM    4  C8  UNL     1       0.034  -0.116   0.544  1.00  0.00     0.096 C 
HETATM    5  C9  UNL     1      -1.096  -0.893  -0.088  1.00  0.00     0.174 C 
ENDROOT
BRANCH   3   6
HETATM    6  C2  UNL     1       2.578  -0.074  -0.031  1.00  0.00    -0.009 A 
HETATM    7  C3  UNL     1       2.930   0.452   1.186  1.00  0.00     0.016 A 
HETATM    8  C4  UNL     1       4.262   0.704   1.460  1.00  0.00     0.043 A 
HETATM    9  C5  UNL     1       5.248   0.437   0.529  1.00  0.00     0.116 A 
HETATM   10  F1  UNL     1       6.553   0.677   0.781  1.00  0.00    -0.206 F 
HETATM   11  C6  UNL     1       4.917  -0.098  -0.716  1.00  0.00     0.043 A 
HETATM   12  C7  UNL     1       3.579  -0.338  -0.957  1.00  0.00     0.016 A 
ENDBRANCH   3   6
BRANCH   1  13
HETATM   13  O1  UNL     1      -1.328  -1.186  -2.624  1.00  0.00    -0.270 OA
HETATM   14  H1  UNL     1      -0.840  -1.773  -3.252  1.00  0.00     0.246 HD
ENDBRANCH   1  13
BRANCH   5  15
HETATM   15  C10 UNL     1      -2.405  -0.259   0.078  1.00  0.00    -0.031 A 
HETATM   16  C11 UNL     1      -2.602   0.700   1.061  1.00  0.00     0.012 A 
HETATM   17  C12 UNL     1      -3.822   1.316   1.242  1.00  0.00     0.043 A 
HETATM   18  C13 UNL     1      -4.906   0.987   0.434  1.00  0.00     0.116 A 
HETATM   19  F2  UNL     1      -6.140   1.543   0.544  1.00  0.00    -0.206 F 
HETATM   20  C14 UNL     1      -4.666   0.032  -0.527  1.00  0.00     0.043 A 
HETATM   21  C15 UNL     1      -3.454  -0.609  -0.740  1.00  0.00     0.012 A 
ENDBRANCH   5  15
TORSDOF 3
