REMARK  9 active torsions:
REMARK  status: ('A' for Active; 'I' for Inactive)
REMARK    1  A    between atoms: C4_4  and  C5_5 
REMARK    2  A    between atoms: C5_5  and  C6_6 
REMARK    3  A    between atoms: C7_7  and  C8_8 
REMARK    4  A    between atoms: C8_8  and  C9_9 
REMARK    5  A    between atoms: C9_9  and  C10_10 
REMARK    6  A    between atoms: C10_10  and  C11_12 
REMARK    7  A    between atoms: C11_12  and  C12_13 
REMARK    8  A    between atoms: N2_16  and  C14_17 
REMARK    9  A    between atoms: C15_19  and  O1_20 
ROOT
HETATM    1  C6  UNL     1      -0.856   1.028  -0.885  1.00  0.00     0.171 A 
HETATM    2  C7  UNL     1       0.015  -0.113  -1.262  1.00  0.00     0.087 A 
HETATM    3  N1  UNL     1       1.117   0.593  -1.196  1.00  0.00    -0.172 NA
HETATM    4  N2  UNL     1       0.398   1.716  -0.838  1.00  0.00    -0.235 N 
ENDROOT
BRANCH   1   5
HETATM    5  C5  UNL     1      -1.574   0.906   0.430  1.00  0.00     0.073 C 
BRANCH   5   6
HETATM    6  C4  UNL     1      -2.478  -0.243   0.506  1.00  0.00    -0.016 A 
HETATM    7  C3  UNL     1      -2.895  -1.255  -0.236  1.00  0.00     0.044 A 
HETATM    8  C2  UNL     1      -3.853  -2.084   0.472  1.00  0.00     0.063 A 
HETATM    9  C1  UNL     1      -4.439  -3.154  -0.002  1.00  0.00     0.051 C 
HETATM   10  O2  UNL     1      -4.010  -1.523   1.711  1.00  0.00    -0.313 OA
HETATM   11  C17 UNL     1      -3.200  -0.383   1.815  1.00  0.00     0.343 A 
HETATM   12  F2  UNL     1      -4.039   0.716   1.940  1.00  0.00    -0.214 F 
ENDBRANCH   5   6
ENDBRANCH   1   5
BRANCH   2  13
HETATM   13  C8  UNL     1       0.372  -1.458  -1.639  1.00  0.00     0.089 C 
BRANCH  13  14
HETATM   14  C9  UNL     1       0.713  -2.350  -0.722  1.00  0.00    -0.085 C 
BRANCH  14  15
HETATM   15  C10 UNL     1       1.150  -2.935   0.383  1.00  0.00     0.161 C 
HETATM   16  F1  UNL     1       0.155  -3.557   1.002  1.00  0.00    -0.197 F 
BRANCH  15  17
HETATM   17  C11 UNL     1       2.555  -2.791   0.692  1.00  0.00     0.046 C 
BRANCH  17  18
HETATM   18  C12 UNL     1       3.475  -2.238   1.466  1.00  0.00    -0.027 C 
HETATM   19  C13 UNL     1       4.942  -2.365   1.442  1.00  0.00     0.036 C 
ENDBRANCH  17  18
ENDBRANCH  15  17
ENDBRANCH  14  15
ENDBRANCH  13  14
ENDBRANCH   2  13
BRANCH   4  20
HETATM   20  C14 UNL     1       0.729   3.066  -0.533  1.00  0.00     0.192 A 
HETATM   21  N3  UNL     1       0.829   4.166  -1.187  1.00  0.00    -0.198 NA
HETATM   22  C15 UNL     1       1.178   5.253  -0.521  1.00  0.00     0.171 A 
HETATM   23  C16 UNL     1       1.446   5.238   0.912  1.00  0.00     0.111 A 
HETATM   24  S1  UNL     1       1.139   3.442   1.228  1.00  0.00    -0.058 SA
BRANCH  22  25
HETATM   25  O1  UNL     1       1.239   6.362  -1.391  1.00  0.00    -0.344 OA
HETATM   26  H13 UNL     1       0.405   6.748  -1.837  1.00  0.00     0.219 HD
ENDBRANCH  22  25
ENDBRANCH   4  20
TORSDOF 9
