REMARK  3 active torsions:
REMARK  status: ('A' for Active; 'I' for Inactive)
REMARK    1  A    between atoms: O1_1  and  C1_2 
REMARK    2  A    between atoms: C3_5  and  N1_6 
REMARK    3  A    between atoms: C4_8  and  C5_9 
ROOT
HETATM    1  N1  UNL     1      -0.974   0.545  -0.499  1.00  0.00    -0.235 N 
HETATM    2  N2  UNL     1       0.315   1.030  -0.690  1.00  0.00    -0.173 NA
HETATM    3  C4  UNL     1       1.144   0.540   0.145  1.00  0.00     0.067 C 
HETATM    4  C11 UNL     1       0.411  -0.394   1.040  1.00  0.00     0.095 C 
HETATM    5  C12 UNL     1      -0.795  -0.699   0.172  1.00  0.00     0.067 C 
HETATM    6  C13 UNL     1      -1.979  -1.138   0.980  1.00  0.00     0.063 C 
HETATM    7  C14 UNL     1      -2.195  -2.592   1.018  1.00  0.00     0.013 C 
HETATM    8  C15 UNL     1      -1.395  -3.475   0.477  1.00  0.00     0.090 C 
HETATM    9  F2  UNL     1      -1.643  -4.824   0.540  1.00  0.00    -0.211 F 
HETATM   10  C16 UNL     1      -0.167  -3.085  -0.241  1.00  0.00     0.072 C 
HETATM   11  C17 UNL     1      -0.350  -1.721  -0.856  1.00  0.00     0.041 C 
ENDROOT
BRANCH   1  12
HETATM   12  C3  UNL     1      -2.074   1.442  -1.035  1.00  0.00     0.192 A 
HETATM   13  S1  UNL     1      -2.104   3.034  -1.885  1.00  0.00    -0.058 SA
HETATM   14  C2  UNL     1      -4.026   2.966  -1.950  1.00  0.00     0.111 A 
HETATM   15  C1  UNL     1      -4.284   1.740  -1.311  1.00  0.00     0.171 A 
HETATM   16  N3  UNL     1      -3.188   1.150  -0.938  1.00  0.00    -0.198 NA
BRANCH  15  17
HETATM   17  O1  UNL     1      -5.661   1.806  -1.419  1.00  0.00    -0.344 OA
HETATM   18  H1  UNL     1      -6.306   2.064  -0.698  1.00  0.00     0.219 HD
ENDBRANCH  15  17
ENDBRANCH   1  12
BRANCH   3  19
HETATM   19  C5  UNL     1       2.575   0.832   0.229  1.00  0.00    -0.010 A 
HETATM   20  C6  UNL     1       3.373   0.244   1.172  1.00  0.00     0.016 A 
HETATM   21  C7  UNL     1       4.715   0.547   1.215  1.00  0.00     0.043 A 
HETATM   22  C8  UNL     1       5.295   1.441   0.322  1.00  0.00     0.116 A 
HETATM   23  F1  UNL     1       6.637   1.702   0.415  1.00  0.00    -0.206 F 
HETATM   24  C9  UNL     1       4.486   2.029  -0.624  1.00  0.00     0.043 A 
HETATM   25  C10 UNL     1       3.141   1.725  -0.667  1.00  0.00     0.016 A 
ENDBRANCH   3  19
TORSDOF 3
