REMARK  2 active torsions:
REMARK  status: ('A' for Active; 'I' for Inactive)
REMARK    1  A    between atoms: C2_3  and  O2_4 
REMARK    2  A    between atoms: C3_5  and  C4_6 
ROOT
HETATM    1  O1  UNL     1       3.339  -2.154  -1.914  1.00  0.00    -0.284 OA
HETATM    2  C1  UNL     1       2.696  -1.312  -1.243  1.00  0.00     0.216 A 
HETATM    3  C2  UNL     1       1.318  -0.982  -1.572  1.00  0.00     0.128 A 
HETATM    4  C3  UNL     1       0.510  -0.106  -0.944  1.00  0.00     0.039 A 
HETATM    5  C14 UNL     1       1.170   0.543   0.181  1.00  0.00     0.193 A 
HETATM    6  O5  UNL     1       0.576   1.378   0.867  1.00  0.00    -0.287 OA
HETATM    7  C15 UNL     1       2.544   0.277   0.586  1.00  0.00     0.029 A 
HETATM    8  C16 UNL     1       3.133   0.903   1.647  1.00  0.00     0.016 A 
HETATM    9  C17 UNL     1       4.434   0.629   2.004  1.00  0.00     0.001 A 
HETATM   10  C18 UNL     1       5.189  -0.289   1.300  1.00  0.00     0.001 A 
HETATM   11  C19 UNL     1       4.606  -0.941   0.209  1.00  0.00     0.016 A 
HETATM   12  C20 UNL     1       3.301  -0.632  -0.107  1.00  0.00     0.031 A 
ENDROOT
BRANCH   4  13
HETATM   13  C4  UNL     1      -0.886   0.142  -1.385  1.00  0.00     0.066 C 
HETATM   14  C5  UNL     1      -0.969   1.484  -2.010  1.00  0.00    -0.031 C 
HETATM   15  C6  UNL     1      -1.602   2.538  -1.570  1.00  0.00    -0.086 C 
HETATM   16  B1  UNL     1      -2.367   2.369  -0.219  1.00  0.00     0.189 B 
HETATM   17  C7  UNL     1      -2.779   0.896   0.148  1.00  0.00    -0.009 C 
HETATM   18  H5  UNL     1      -2.598   3.300   0.475  1.00  0.00    -0.021 HD
HETATM   19  C8  UNL     1      -2.856   0.841   1.672  1.00  0.00     0.165 C 
HETATM   20  C12 UNL     1      -1.940  -0.180  -0.411  1.00  0.00     0.050 C 
HETATM   21  O3  UNL     1      -3.327  -0.393   2.105  1.00  0.00    -0.375 OA
HETATM   22  C9  UNL     1      -2.776  -1.445   1.378  1.00  0.00     0.214 C 
HETATM   23  C10 UNL     1      -3.590  -1.546   0.118  1.00  0.00     0.010 C 
HETATM   24  C13 UNL     1      -1.461  -1.020   0.763  1.00  0.00     0.172 C 
HETATM   25  C11 UNL     1      -2.917  -1.200  -1.001  1.00  0.00    -0.010 C 
HETATM   26  O4  UNL     1      -0.463  -1.441   1.338  1.00  0.00    -0.294 OA
ENDBRANCH   4  13
BRANCH   3  27
HETATM   27  O2  UNL     1       0.780  -1.657  -2.669  1.00  0.00    -0.356 OA
HETATM   28  H1  UNL     1       1.026  -2.615  -2.836  1.00  0.00     0.218 HD
ENDBRANCH   3  27
TORSDOF 2
