REMARK  4 active torsions:
REMARK  status: ('A' for Active; 'I' for Inactive)
REMARK    1  A    between atoms: O1_1  and  C1_2 
REMARK    2  A    between atoms: C3_5  and  N1_6 
REMARK    3  A    between atoms: C4_8  and  C5_9 
REMARK    4  A    between atoms: C11_16  and  C12_17 
ROOT
HETATM    1  N1  UNL     1      -1.133  -0.689   0.918  1.00  0.00    -0.231 N 
HETATM    2  N2  UNL     1      -0.154  -0.358   1.842  1.00  0.00    -0.171 NA
HETATM    3  C4  UNL     1       0.757  -0.631   1.017  1.00  0.00     0.094 C 
HETATM    4  C11 UNL     1      -0.200  -0.600  -0.149  1.00  0.00     0.200 C 
ENDROOT
BRANCH   1   5
HETATM    5  C3  UNL     1      -2.509  -1.012   0.876  1.00  0.00     0.192 A 
HETATM    6  S1  UNL     1      -3.586  -0.812   2.411  1.00  0.00    -0.058 SA
HETATM    7  C2  UNL     1      -5.151  -1.427   1.615  1.00  0.00     0.111 A 
HETATM    8  C1  UNL     1      -4.582  -1.669   0.348  1.00  0.00     0.171 A 
HETATM    9  N3  UNL     1      -3.326  -1.485  -0.049  1.00  0.00    -0.198 NA
BRANCH   8  10
HETATM   10  O1  UNL     1      -5.337  -2.176  -0.737  1.00  0.00    -0.344 OA
HETATM   11  H1  UNL     1      -5.711  -3.092  -0.787  1.00  0.00     0.219 HD
ENDBRANCH   8  10
ENDBRANCH   1   5
BRANCH   4  12
HETATM   12  C12 UNL     1      -0.191   0.764  -0.804  1.00  0.00    -0.027 A 
HETATM   13  C13 UNL     1      -1.489   1.255  -0.976  1.00  0.00     0.013 A 
HETATM   14  C14 UNL     1      -1.669   2.513  -1.563  1.00  0.00     0.043 A 
HETATM   15  C15 UNL     1      -0.658   3.320  -1.991  1.00  0.00     0.116 A 
HETATM   16  F2  UNL     1      -0.706   4.529  -2.562  1.00  0.00    -0.206 F 
HETATM   17  C16 UNL     1       0.650   2.833  -1.821  1.00  0.00     0.043 A 
HETATM   18  C17 UNL     1       0.802   1.597  -1.243  1.00  0.00     0.013 A 
ENDBRANCH   4  12
BRANCH   3  19
HETATM   19  C5  UNL     1       2.194  -0.742   0.678  1.00  0.00    -0.007 A 
HETATM   20  C6  UNL     1       2.881  -0.326   1.827  1.00  0.00     0.016 A 
HETATM   21  C7  UNL     1       4.274  -0.336   1.889  1.00  0.00     0.043 A 
HETATM   22  C8  UNL     1       4.964  -0.776   0.760  1.00  0.00     0.116 A 
HETATM   23  F1  UNL     1       6.322  -0.849   0.643  1.00  0.00    -0.206 F 
HETATM   24  C9  UNL     1       4.279  -1.183  -0.370  1.00  0.00     0.043 A 
HETATM   25  C10 UNL     1       2.907  -1.164  -0.401  1.00  0.00     0.016 A 
ENDBRANCH   3  19
TORSDOF 4
