REMARK  4 active torsions:
REMARK  status: ('A' for Active; 'I' for Inactive)
REMARK    1  A    between atoms: O1_1  and  C1_2 
REMARK    2  A    between atoms: C3_5  and  N1_6 
REMARK    3  A    between atoms: C4_8  and  C5_9 
REMARK    4  A    between atoms: C12_17  and  C13_18 
ROOT
HETATM    1  N1  UNL     1      -0.505   0.510  -0.699  1.00  0.00    -0.236 N 
HETATM    2  N2  UNL     1       0.810   0.984  -0.752  1.00  0.00    -0.173 NA
HETATM    3  C4  UNL     1       1.625   0.279  -0.094  1.00  0.00     0.067 C 
HETATM    4  C11 UNL     1       0.855  -0.825   0.521  1.00  0.00     0.094 C 
HETATM    5  C12 UNL     1      -0.313  -0.897  -0.454  1.00  0.00     0.151 C 
ENDROOT
BRANCH   1   6
HETATM    6  C3  UNL     1      -1.564   1.405  -0.879  1.00  0.00     0.192 A 
HETATM    7  S1  UNL     1      -3.253   0.613  -0.845  1.00  0.00    -0.058 SA
HETATM    8  C2  UNL     1      -4.147   2.255  -1.126  1.00  0.00     0.111 A 
HETATM    9  C1  UNL     1      -2.930   3.142  -1.198  1.00  0.00     0.171 A 
HETATM   10  N3  UNL     1      -1.736   2.577  -1.058  1.00  0.00    -0.198 NA
BRANCH   9  11
HETATM   11  O1  UNL     1      -2.867   4.539  -1.398  1.00  0.00    -0.344 OA
HETATM   12  H1  UNL     1      -3.122   4.916  -2.284  1.00  0.00     0.219 HD
ENDBRANCH   9  11
ENDBRANCH   1   6
BRANCH   5  13
HETATM   13  C13 UNL     1      -1.477  -1.576   0.163  1.00  0.00    -0.033 A 
HETATM   14  C14 UNL     1      -2.175  -1.127   1.255  1.00  0.00     0.011 A 
HETATM   15  C15 UNL     1      -3.260  -1.851   1.752  1.00  0.00     0.024 A 
HETATM   16  C16 UNL     1      -3.680  -3.034   1.180  1.00  0.00     0.034 A 
HETATM   17 CL1  UNL     1      -5.037  -3.947   1.794  1.00  0.00    -0.084 Cl
HETATM   18  C17 UNL     1      -2.987  -3.498   0.080  1.00  0.00     0.024 A 
HETATM   19  C18 UNL     1      -1.917  -2.774  -0.401  1.00  0.00     0.011 A 
ENDBRANCH   5  13
BRANCH   3  20
HETATM   20  C5  UNL     1       3.082   0.484   0.067  1.00  0.00    -0.010 A 
HETATM   21  C6  UNL     1       3.829  -0.384   0.823  1.00  0.00     0.016 A 
HETATM   22  C7  UNL     1       5.202  -0.135   0.936  1.00  0.00     0.043 A 
HETATM   23  C8  UNL     1       5.779   0.955   0.302  1.00  0.00     0.116 A 
HETATM   24  F1  UNL     1       7.112   1.136   0.454  1.00  0.00    -0.206 F 
HETATM   25  C9  UNL     1       5.023   1.821  -0.455  1.00  0.00     0.043 A 
HETATM   26  C10 UNL     1       3.662   1.580  -0.571  1.00  0.00     0.016 A 
ENDBRANCH   3  20
TORSDOF 4
