REMARK  4 active torsions:
REMARK  status: ('A' for Active; 'I' for Inactive)
REMARK    1  A    between atoms: O1_1  and  C1_2 
REMARK    2  A    between atoms: C3_5  and  N1_6 
REMARK    3  A    between atoms: C4_8  and  C5_9 
REMARK    4  A    between atoms: C12_17  and  C13_18 
ROOT
HETATM    1  N1  UNL     1       0.049   1.328   0.497  1.00  0.00    -0.236 N 
HETATM    2  N2  UNL     1       1.215   0.974  -0.138  1.00  0.00    -0.173 NA
HETATM    3  C4  UNL     1       1.657  -0.166   0.277  1.00  0.00     0.067 C 
HETATM    4  C11 UNL     1       0.737  -0.703   1.312  1.00  0.00     0.094 C 
HETATM    5  C12 UNL     1      -0.490   0.150   1.099  1.00  0.00     0.151 C 
ENDROOT
BRANCH   5   6
HETATM    6  C13 UNL     1      -1.449  -0.593   0.229  1.00  0.00    -0.035 A 
HETATM    7  C14 UNL     1      -2.666  -0.902   0.644  1.00  0.00     0.005 A 
HETATM    8  C15 UNL     1      -3.691  -1.620  -0.105  1.00  0.00    -0.086 A 
HETATM    9  C16 UNL     1      -4.883  -1.880   0.406  1.00  0.00     0.079 C 
HETATM   10  B1  UNL     1      -3.291  -2.062  -1.545  1.00  0.00     0.219 B 
HETATM   11 CL1  UNL     1      -5.184  -1.312   2.054  1.00  0.00    -0.097 Cl
HETATM   12  C17 UNL     1      -1.831  -1.668  -1.986  1.00  0.00    -0.076 A 
HETATM   13  H12 UNL     1      -4.085  -2.526  -2.278  1.00  0.00    -0.016 HD
HETATM   14  C18 UNL     1      -1.074  -1.004  -1.113  1.00  0.00    -0.006 A 
ENDBRANCH   5   6
BRANCH   1  15
HETATM   15  C3  UNL     1      -0.603   2.663   0.591  1.00  0.00     0.192 A 
HETATM   16  S1  UNL     1       0.302   4.000  -0.273  1.00  0.00    -0.058 SA
HETATM   17  C2  UNL     1      -1.016   5.256   0.249  1.00  0.00     0.111 A 
HETATM   18  C1  UNL     1      -1.899   4.407   0.987  1.00  0.00     0.171 A 
HETATM   19  N3  UNL     1      -1.550   3.140   1.063  1.00  0.00    -0.198 NA
BRANCH  18  20
HETATM   20  O1  UNL     1      -3.102   4.714   1.656  1.00  0.00    -0.344 OA
HETATM   21  H1  UNL     1      -3.147   4.808   2.644  1.00  0.00     0.219 HD
ENDBRANCH  18  20
ENDBRANCH   1  15
BRANCH   3  22
HETATM   22  C5  UNL     1       2.881  -0.760  -0.245  1.00  0.00    -0.010 A 
HETATM   23  C6  UNL     1       3.602  -0.101  -1.209  1.00  0.00     0.016 A 
HETATM   24  C7  UNL     1       4.776  -0.675  -1.708  1.00  0.00     0.043 A 
HETATM   25  C8  UNL     1       5.207  -1.903  -1.229  1.00  0.00     0.116 A 
HETATM   26  F1  UNL     1       6.333  -2.414  -1.732  1.00  0.00    -0.206 F 
HETATM   27  C9  UNL     1       4.501  -2.603  -0.250  1.00  0.00     0.043 A 
HETATM   28  C10 UNL     1       3.351  -1.977   0.197  1.00  0.00     0.016 A 
ENDBRANCH   3  22
TORSDOF 4
