REMARK  2 active torsions:
REMARK  status: ('A' for Active; 'I' for Inactive)
REMARK    1  A    between atoms: O1_1  and  C1_2 
REMARK    2  A    between atoms: C3_5  and  N1_6 
ROOT
HETATM    1  N1  UNL     1       1.253  -0.019   1.855  1.00  0.00    -0.229 N 
HETATM    2  N2  UNL     1       0.050  -0.887   2.233  1.00  0.00    -0.173 NA
HETATM    3  C4  UNL     1      -0.764  -0.781   1.243  1.00  0.00     0.068 C 
HETATM    4  C5  UNL     1      -0.658   0.645   1.296  1.00  0.00     0.102 C 
HETATM    5  C6  UNL     1       0.805   0.399   0.646  1.00  0.00     0.197 C 
HETATM    6  C7  UNL     1       0.765   1.091  -0.472  1.00  0.00    -0.078 C 
HETATM    7  C8  UNL     1       0.718   1.671  -1.444  1.00  0.00    -0.099 C 
HETATM    8  C9  UNL     1       0.649   2.356  -2.636  1.00  0.00     0.141 C 
HETATM    9  C10 UNL     1      -0.575   1.864  -3.477  1.00  0.00     0.003 A 
HETATM   10 CL1  UNL     1      -1.530   1.755  -4.932  1.00  0.00    -0.179 Cl
HETATM   11  C11 UNL     1      -1.640   1.056  -3.116  1.00  0.00     0.115 A 
HETATM   12  C12 UNL     1      -2.855   0.180  -2.839  1.00  0.00     0.066 C 
HETATM   13  C13 UNL     1      -2.585  -1.028  -2.073  1.00  0.00    -0.017 A 
HETATM   14  C14 UNL     1      -1.999  -0.610  -0.856  1.00  0.00     0.023 A 
HETATM   15  C15 UNL     1      -1.534  -1.360   0.176  1.00  0.00    -0.009 A 
HETATM   16  C16 UNL     1      -1.594  -2.714   0.165  1.00  0.00     0.016 A 
HETATM   17  C17 UNL     1      -2.167  -3.180  -1.008  1.00  0.00     0.044 A 
HETATM   18  C18 UNL     1      -2.630  -2.406  -2.055  1.00  0.00     0.122 A 
HETATM   19  F1  UNL     1      -3.187  -2.769  -3.208  1.00  0.00    -0.206 F 
ENDROOT
BRANCH   1  20
HETATM   20  C3  UNL     1       2.373   0.129   2.705  1.00  0.00     0.193 A 
HETATM   21  S1  UNL     1       3.762   1.243   2.056  1.00  0.00    -0.058 SA
HETATM   22  C2  UNL     1       4.777   0.941   3.630  1.00  0.00     0.111 A 
HETATM   23  C1  UNL     1       3.870   0.047   4.358  1.00  0.00     0.171 A 
HETATM   24  N3  UNL     1       2.734  -0.235   3.735  1.00  0.00    -0.198 NA
BRANCH  23  25
HETATM   25  O1  UNL     1       4.115  -0.501   5.611  1.00  0.00    -0.344 OA
HETATM   26  H1  UNL     1       4.637   0.030   6.294  1.00  0.00     0.219 HD
ENDBRANCH  23  25
ENDBRANCH   1  20
TORSDOF 2
