REMARK  6 active torsions:
REMARK  status: ('A' for Active; 'I' for Inactive)
REMARK    1  A    between atoms: C2_2  and  C3_3 
REMARK    2  A    between atoms: C3_3  and  C4_5 
REMARK    3  A    between atoms: C5_6  and  C6_7 
REMARK    4  A    between atoms: C6_7  and  C7_8 
REMARK    5  A    between atoms: C8_10  and  O1_11 
REMARK    6  A    between atoms: C14_18  and  C15_19 
ROOT
HETATM    1  C6  UNL     1      -0.040   0.956  -0.788  1.00  0.00     0.100 C 
HETATM    2  C10 UNL     1      -1.081   0.538  -1.798  1.00  0.00     0.047 C 
HETATM    3  C11 UNL     1      -1.321  -0.952  -1.796  1.00  0.00     0.039 C 
HETATM    4  C12 UNL     1      -1.688  -1.446  -0.438  1.00  0.00    -0.057 C 
HETATM    5  C13 UNL     1      -2.719  -2.470  -0.263  1.00  0.00     0.046 C 
HETATM    6  C14 UNL     1      -1.024  -0.898   0.565  1.00  0.00     0.033 C 
HETATM    7  N2  UNL     1      -0.037   0.088   0.375  1.00  0.00    -0.371 N 
HETATM    8  H18 UNL     1       0.695   0.177   1.095  1.00  0.00     0.161 HD
ENDROOT
BRANCH   1   9
HETATM    9  C5  UNL     1       1.298   1.080  -1.417  1.00  0.00     0.009 C 
HETATM   10  C4  UNL     1       2.281   0.218  -1.423  1.00  0.00    -0.004 C 
BRANCH  10  11
HETATM   11  C3  UNL     1       2.557  -1.120  -0.901  1.00  0.00     0.126 C 
HETATM   12 CL1  UNL     1       2.963  -2.251  -2.214  1.00  0.00    -0.117 Cl
BRANCH  11  13
HETATM   13  C2  UNL     1       3.712  -1.121   0.068  1.00  0.00    -0.013 C 
HETATM   14  C1  UNL     1       4.021  -2.238   0.713  1.00  0.00     0.008 C 
ENDBRANCH  11  13
ENDBRANCH  10  11
ENDBRANCH   1   9
BRANCH   1  15
HETATM   15  C7  UNL     1      -0.409   2.321  -0.210  1.00  0.00     0.110 A 
HETATM   16  N1  UNL     1       0.252   3.097   0.442  1.00  0.00    -0.219 NA
HETATM   17  C8  UNL     1      -0.241   4.261   0.869  1.00  0.00     0.169 A 
HETATM   18  C9  UNL     1      -1.581   4.622   0.560  1.00  0.00     0.109 A 
HETATM   19  S1  UNL     1      -2.069   3.145  -0.395  1.00  0.00    -0.079 SA
BRANCH  17  20
HETATM   20  O1  UNL     1       0.633   5.074   1.621  1.00  0.00    -0.344 OA
HETATM   21  H7  UNL     1       0.717   4.945   2.623  1.00  0.00     0.219 HD
ENDBRANCH  17  20
ENDBRANCH   1  15
BRANCH   6  22
HETATM   22  C15 UNL     1      -1.299  -1.301   1.919  1.00  0.00     0.058 C 
HETATM   23  C16 UNL     1      -2.113  -2.152   2.491  1.00  0.00     0.190 C 
HETATM   24  F1  UNL     1      -2.414  -2.570   3.741  1.00  0.00    -0.219 F 
ENDBRANCH   6  22
TORSDOF 6
