REMARK  3 active torsions:
REMARK  status: ('A' for Active; 'I' for Inactive)
REMARK    1  A    between atoms: O1_1  and  C1_2 
REMARK    2  A    between atoms: C3_5  and  N1_6 
REMARK    3  A    between atoms: C4_8  and  C5_9 
ROOT
HETATM    1  N1  UNL     1       1.286  -0.422   0.634  1.00  0.00    -0.240 N 
HETATM    2  N2  UNL     1       0.082  -1.245   0.734  1.00  0.00    -0.169 NA
HETATM    3  C4  UNL     1      -1.044  -0.537   0.704  1.00  0.00     0.093 C 
HETATM    4  C11 UNL     1      -0.599   0.847   0.813  1.00  0.00    -0.025 C 
HETATM    5  C12 UNL     1      -1.027   1.675  -0.193  1.00  0.00     0.011 C 
HETATM    6  C13 UNL     1      -0.307   2.939  -0.608  1.00  0.00     0.020 C 
HETATM    7  C14 UNL     1       1.050   2.993  -0.378  1.00  0.00     0.013 C 
HETATM    8 CL1  UNL     1       1.506   4.683  -0.685  1.00  0.00    -0.089 Cl
HETATM    9  C15 UNL     1       2.019   1.901   0.038  1.00  0.00     0.079 C 
HETATM   10  C16 UNL     1       1.659   0.955   1.069  1.00  0.00     0.122 C 
HETATM   11  C17 UNL     1       0.400   1.330   1.887  1.00  0.00     0.068 C 
ENDROOT
BRANCH   1  12
HETATM   12  C3  UNL     1       2.347  -1.179  -0.063  1.00  0.00     0.192 A 
HETATM   13  S1  UNL     1       2.325  -2.783  -0.687  1.00  0.00    -0.058 SA
HETATM   14  C2  UNL     1       4.002  -2.857  -1.350  1.00  0.00     0.111 A 
HETATM   15  C1  UNL     1       4.370  -1.522  -0.963  1.00  0.00     0.171 A 
HETATM   16  N3  UNL     1       3.667  -0.580  -0.326  1.00  0.00    -0.198 NA
BRANCH  15  17
HETATM   17  O1  UNL     1       5.618  -0.891  -1.187  1.00  0.00    -0.344 OA
HETATM   18  H1  UNL     1       6.467  -1.397  -0.908  1.00  0.00     0.219 HD
ENDBRANCH  15  17
ENDBRANCH   1  12
BRANCH   3  19
HETATM   19  C5  UNL     1      -2.435  -0.647   0.513  1.00  0.00    -0.005 A 
HETATM   20  C6  UNL     1      -2.724  -1.963   0.109  1.00  0.00     0.017 A 
HETATM   21  C7  UNL     1      -4.026  -2.429  -0.110  1.00  0.00     0.043 A 
HETATM   22  C8  UNL     1      -5.084  -1.572   0.073  1.00  0.00     0.116 A 
HETATM   23  F1  UNL     1      -6.405  -1.829  -0.087  1.00  0.00    -0.206 F 
HETATM   24  C9  UNL     1      -4.762  -0.291   0.470  1.00  0.00     0.043 A 
HETATM   25  C10 UNL     1      -3.491   0.177   0.689  1.00  0.00     0.017 A 
ENDBRANCH   3  19
TORSDOF 3
