REMARK  8 active torsions:
REMARK  status: ('A' for Active; 'I' for Inactive)
REMARK    1  A    between atoms: O1_1  and  C1_2 
REMARK    2  A    between atoms: C3_5  and  N1_6 
REMARK    3  A    between atoms: C4_8  and  C5_9 
REMARK    4  A    between atoms: C12_17  and  C13_18 
REMARK    5  A    between atoms: C13_18  and  C14_19 
REMARK    6  A    between atoms: C15_20  and  C16_21 
REMARK    7  A    between atoms: C16_21  and  B1_22 
REMARK    8  A    between atoms: B1_22  and  C17_23 
ROOT
HETATM    1  N1  UNL     1      -0.834   0.986   0.245  1.00  0.00    -0.240 N 
HETATM    2  N2  UNL     1      -1.953   0.199   0.399  1.00  0.00    -0.174 NA
HETATM    3  C4  UNL     1      -1.894  -0.934  -0.192  1.00  0.00     0.067 C 
HETATM    4  C11 UNL     1      -0.556  -0.982  -0.884  1.00  0.00     0.089 C 
HETATM    5  C12 UNL     1       0.186   0.018   0.018  1.00  0.00     0.122 C 
ENDROOT
BRANCH   1   6
HETATM    6  C3  UNL     1      -1.060   2.401   0.376  1.00  0.00     0.192 A 
HETATM    7  S1  UNL     1      -1.792   3.573  -0.932  1.00  0.00    -0.058 SA
HETATM    8  C2  UNL     1      -1.619   4.990   0.217  1.00  0.00     0.111 A 
HETATM    9  C1  UNL     1      -1.050   4.398   1.394  1.00  0.00     0.171 A 
HETATM   10  N3  UNL     1      -0.855   3.108   1.259  1.00  0.00    -0.198 NA
BRANCH   9  11
HETATM   11  O1  UNL     1      -0.745   5.141   2.540  1.00  0.00    -0.344 OA
HETATM   12  H1  UNL     1      -0.667   4.743   3.448  1.00  0.00     0.219 HD
ENDBRANCH   9  11
ENDBRANCH   1   6
BRANCH   5  13
HETATM   13  C13 UNL     1       1.406   0.459  -0.695  1.00  0.00     0.055 C 
BRANCH  13  14
HETATM   14  C14 UNL     1       2.139   1.546  -0.020  1.00  0.00    -0.026 C 
HETATM   15  C15 UNL     1       3.356   1.429   0.420  1.00  0.00    -0.020 C 
BRANCH  15  16
HETATM   16  C16 UNL     1       4.110   0.189   0.285  1.00  0.00    -0.087 C 
BRANCH  16  17
HETATM   17  B1  UNL     1       5.751  -0.185  -0.296  1.00  0.00     0.181 B 
BRANCH  17  18
HETATM   18  C17 UNL     1       7.250  -0.939  -0.777  1.00  0.00     0.030 C 
HETATM   19 BR1  UNL     1       8.184  -1.484   0.839  1.00  0.00    -0.107 Br
ENDBRANCH  17  18
ENDBRANCH  16  17
ENDBRANCH  15  16
ENDBRANCH  13  14
ENDBRANCH   5  13
BRANCH   3  20
HETATM   20  C5  UNL     1      -2.888  -2.015  -0.243  1.00  0.00    -0.010 A 
HETATM   21  C6  UNL     1      -2.658  -3.186  -0.935  1.00  0.00     0.016 A 
HETATM   22  C7  UNL     1      -3.654  -4.151  -0.924  1.00  0.00     0.043 A 
HETATM   23  C8  UNL     1      -4.813  -3.888  -0.225  1.00  0.00     0.116 A 
HETATM   24  F1  UNL     1      -5.793  -4.823  -0.216  1.00  0.00    -0.206 F 
HETATM   25  C9  UNL     1      -5.058  -2.729   0.468  1.00  0.00     0.043 A 
HETATM   26  C10 UNL     1      -4.058  -1.777   0.448  1.00  0.00     0.016 A 
ENDBRANCH   3  20
TORSDOF 8
