REMARK  4 active torsions:
REMARK  status: ('A' for Active; 'I' for Inactive)
REMARK    1  A    between atoms: O1_1  and  C1_2 
REMARK    2  A    between atoms: C3_5  and  N1_6 
REMARK    3  A    between atoms: C4_8  and  C5_9 
REMARK    4  A    between atoms: C12_17  and  C13_18 
ROOT
HETATM    1  N1  UNL     1      -0.596  -0.790   0.089  1.00  0.00    -0.236 N 
HETATM    2  N2  UNL     1       0.668  -1.162  -0.333  1.00  0.00    -0.173 NA
HETATM    3  C4  UNL     1       1.521  -0.192  -0.106  1.00  0.00     0.067 C 
HETATM    4  C11 UNL     1       0.816   0.956   0.524  1.00  0.00     0.094 C 
HETATM    5  C12 UNL     1      -0.440   0.293   1.020  1.00  0.00     0.151 C 
ENDROOT
BRANCH   1   6
HETATM    6  C3  UNL     1      -1.899  -1.276  -0.233  1.00  0.00     0.192 A 
HETATM    7  S1  UNL     1      -1.877  -2.708  -1.481  1.00  0.00    -0.058 SA
HETATM    8  C2  UNL     1      -3.676  -2.833  -1.450  1.00  0.00     0.111 A 
HETATM    9  C1  UNL     1      -4.051  -1.799  -0.520  1.00  0.00     0.171 A 
HETATM   10  N3  UNL     1      -3.006  -1.156  -0.042  1.00  0.00    -0.198 NA
BRANCH   9  11
HETATM   11  O1  UNL     1      -5.314  -1.374  -0.052  1.00  0.00    -0.344 OA
HETATM   12  H1  UNL     1      -5.835  -2.070   0.486  1.00  0.00     0.219 HD
ENDBRANCH   9  11
ENDBRANCH   1   6
BRANCH   5  13
HETATM   13  C13 UNL     1      -1.601   1.205   1.049  1.00  0.00    -0.032 C 
HETATM   14  C14 UNL     1      -2.354   1.576   2.098  1.00  0.00     0.010 C 
HETATM   15  C15 UNL     1      -3.453   2.501   1.841  1.00  0.00     0.014 C 
HETATM   16  C16 UNL     1      -3.518   3.094   0.678  1.00  0.00    -0.014 C 
HETATM   17  C17 UNL     1      -3.029   2.516  -0.352  1.00  0.00    -0.013 C 
HETATM   18  C18 UNL     1      -1.950   1.761  -0.254  1.00  0.00     0.022 C 
ENDBRANCH   5  13
BRANCH   3  19
HETATM   19  C5  UNL     1       2.937  -0.241  -0.424  1.00  0.00    -0.010 A 
HETATM   20  C6  UNL     1       3.789   0.811  -0.163  1.00  0.00     0.016 A 
HETATM   21  C7  UNL     1       5.133   0.752  -0.470  1.00  0.00     0.043 A 
HETATM   22  C8  UNL     1       5.664  -0.378  -1.056  1.00  0.00     0.116 A 
HETATM   23  F1  UNL     1       6.997  -0.383  -1.339  1.00  0.00    -0.206 F 
HETATM   24  C9  UNL     1       4.825  -1.450  -1.329  1.00  0.00     0.043 A 
HETATM   25  C10 UNL     1       3.491  -1.360  -1.010  1.00  0.00     0.016 A 
ENDBRANCH   3  19
TORSDOF 4
