REMARK  3 active torsions:
REMARK  status: ('A' for Active; 'I' for Inactive)
REMARK    1  A    between atoms: O1_1  and  C1_2 
REMARK    2  A    between atoms: C8_10  and  C9_11 
REMARK    3  A    between atoms: N2_19  and  C15_20 
ROOT
HETATM    1  C1  UNL     1      -2.335  -0.381   0.615  1.00  0.00     0.193 A 
HETATM    2  C2  UNL     1      -3.430  -1.011  -0.161  1.00  0.00     0.020 A 
HETATM    3 BR1  UNL     1      -5.036  -1.066   0.884  1.00  0.00    -0.053 Br
HETATM    4  C3  UNL     1      -3.506  -1.518  -1.378  1.00  0.00     0.017 A 
HETATM    5  C4  UNL     1      -2.279  -1.468  -2.157  1.00  0.00    -0.000 A 
HETATM    6  C5  UNL     1      -1.246  -0.921  -1.546  1.00  0.00     0.010 A 
HETATM    7  C6  UNL     1      -1.066  -0.327  -0.192  1.00  0.00     0.112 A 
HETATM    8  C7  UNL     1       0.050  -1.113   0.456  1.00  0.00     0.102 C 
HETATM    9  C8  UNL     1       1.219  -0.219   0.312  1.00  0.00     0.068 C 
HETATM   10  N1  UNL     1       0.879   0.947  -0.120  1.00  0.00    -0.173 NA
HETATM   11  N2  UNL     1      -0.508   0.978  -0.311  1.00  0.00    -0.229 N 
ENDROOT
BRANCH   1  12
HETATM   12  O1  UNL     1      -2.151  -1.214   1.745  1.00  0.00    -0.387 OA
HETATM   13  H1  UNL     1      -2.641  -0.894   2.527  1.00  0.00     0.210 HD
ENDBRANCH   1  12
BRANCH  11  14
HETATM   14  C15 UNL     1      -1.074   2.270  -0.585  1.00  0.00     0.190 A 
HETATM   15  N3  UNL     1      -0.760   3.401  -0.711  1.00  0.00    -0.235 NA
HETATM   16  C16 UNL     1      -1.607   4.385  -0.982  1.00  0.00     0.127 A 
HETATM   17  C17 UNL     1      -2.988   4.124  -1.142  1.00  0.00     0.072 A 
HETATM   18  S1  UNL     1      -2.951   2.262  -0.855  1.00  0.00    -0.061 SA
ENDBRANCH  11  14
BRANCH   9  19
HETATM   19  C9  UNL     1       2.604  -0.620   0.625  1.00  0.00    -0.010 A 
HETATM   20  C10 UNL     1       3.612   0.278   0.459  1.00  0.00     0.016 A 
HETATM   21  C11 UNL     1       4.944  -0.023   0.732  1.00  0.00     0.043 A 
HETATM   22  C12 UNL     1       5.234  -1.291   1.191  1.00  0.00     0.116 A 
HETATM   23  F1  UNL     1       6.512  -1.650   1.477  1.00  0.00    -0.206 F 
HETATM   24  C13 UNL     1       4.225  -2.193   1.359  1.00  0.00     0.043 A 
HETATM   25  C14 UNL     1       2.908  -1.867   1.079  1.00  0.00     0.016 A 
ENDBRANCH   9  19
TORSDOF 3
