REMARK  4 active torsions:
REMARK  status: ('A' for Active; 'I' for Inactive)
REMARK    1  A    between atoms: O1_2  and  C2_3 
REMARK    2  A    between atoms: C2_3  and  C3_4 
REMARK    3  A    between atoms: C3_4  and  C4_5 
REMARK    4  A    between atoms: C4_5  and  C5_6 
ROOT
HETATM    1  C5  UNL     1      -0.898  -0.819   1.042  1.00  0.00     0.083 A 
HETATM    2  C6  UNL     1      -1.671  -2.107   1.061  1.00  0.00    -0.019 A 
HETATM    3  C7  UNL     1      -2.862  -2.203   1.776  1.00  0.00     0.010 A 
HETATM    4  C8  UNL     1      -3.650  -3.332   1.864  1.00  0.00     0.001 A 
HETATM    5  C9  UNL     1      -3.220  -4.455   1.186  1.00  0.00     0.002 A 
HETATM    6  C10 UNL     1      -2.046  -4.408   0.464  1.00  0.00     0.030 A 
HETATM    7  C11 UNL     1      -1.306  -3.262   0.413  1.00  0.00     0.041 A 
HETATM    8  N1  UNL     1      -0.098  -3.246  -0.336  1.00  0.00    -0.336 N 
HETATM    9  C12 UNL     1       0.760  -2.118  -0.461  1.00  0.00     0.159 A 
HETATM   10  O2  UNL     1       1.892  -1.839  -1.065  1.00  0.00    -0.286 OA
HETATM   11  C13 UNL     1       2.236  -0.590  -0.825  1.00  0.00     0.163 A 
HETATM   12  C14 UNL     1       3.398  -0.040  -1.350  1.00  0.00     0.219 C 
HETATM   13  O3  UNL     1       3.932  -0.584  -2.328  1.00  0.00    -0.284 OA
HETATM   14  C15 UNL     1       4.032   1.097  -0.863  1.00  0.00     0.033 A 
HETATM   15  C16 UNL     1       5.330   1.196  -1.282  1.00  0.00     0.016 A 
HETATM   16  C17 UNL     1       6.096   2.275  -0.881  1.00  0.00     0.001 A 
HETATM   17  C18 UNL     1       5.561   3.266  -0.053  1.00  0.00     0.001 A 
HETATM   18  C19 UNL     1       4.239   3.149   0.363  1.00  0.00     0.018 A 
HETATM   19  C20 UNL     1       3.486   2.067  -0.045  1.00  0.00     0.054 A 
HETATM   20  C21 UNL     1       2.210   2.132   0.470  1.00  0.00     0.299 C 
HETATM   21  O4  UNL     1       1.851   3.179   1.058  1.00  0.00    -0.259 OA
HETATM   22  O5  UNL     1       1.269   1.218   0.435  1.00  0.00    -0.271 OA
HETATM   23  C22 UNL     1       1.257  -0.016  -0.006  1.00  0.00     0.129 A 
HETATM   24  C23 UNL     1       0.310  -1.008   0.223  1.00  0.00     0.042 A 
HETATM   25  H13 UNL     1       0.179  -4.133  -0.831  1.00  0.00     0.168 HD
ENDROOT
BRANCH   1  26
HETATM   26  C4  UNL     1      -1.804   0.204   0.410  1.00  0.00    -0.014 C 
BRANCH  26  27
HETATM   27  C3  UNL     1      -2.952   0.512  -0.124  1.00  0.00    -0.004 C 
BRANCH  27  28
HETATM   28  C2  UNL     1      -4.124   1.140  -0.754  1.00  0.00     0.194 C 
BRANCH  28  29
HETATM   29  O1  UNL     1      -3.876   2.465  -1.010  1.00  0.00    -0.392 OA
HETATM   30  C1  UNL     1      -3.648   3.160   0.160  1.00  0.00     0.201 C 
ENDBRANCH  28  29
ENDBRANCH  27  28
ENDBRANCH  26  27
ENDBRANCH   1  26
TORSDOF 4
