REMARK  4 active torsions:
REMARK  status: ('A' for Active; 'I' for Inactive)
REMARK    1  A    between atoms: O1_1  and  C1_2 
REMARK    2  A    between atoms: C3_5  and  N1_6 
REMARK    3  A    between atoms: C4_8  and  C5_9 
REMARK    4  A    between atoms: C5_9  and  C6_10 
ROOT
HETATM    1  N1  UNL     1      -1.435  -0.566  -0.129  1.00  0.00    -0.207 N 
HETATM    2  N2  UNL     1      -0.116  -1.066  -0.321  1.00  0.00    -0.172 NA
HETATM    3  C4  UNL     1       0.863  -0.387  -0.905  1.00  0.00     0.055 C 
HETATM    4  C12 UNL     1       1.068   0.929  -1.511  1.00  0.00     0.176 C 
HETATM    5  N3  UNL     1      -0.064   1.811  -1.537  1.00  0.00    -0.383 N 
HETATM    6  C13 UNL     1      -1.205   1.868  -0.673  1.00  0.00     0.057 A 
HETATM    7  C14 UNL     1      -1.696   3.161  -0.496  1.00  0.00     0.033 A 
HETATM    8  C15 UNL     1      -2.801   3.310   0.354  1.00  0.00     0.021 A 
HETATM    9  C16 UNL     1      -3.355   2.202   0.975  1.00  0.00     0.013 A 
HETATM   10 BR1  UNL     1      -4.851   2.469   2.117  1.00  0.00    -0.051 Br
HETATM   11  C17 UNL     1      -2.871   0.923   0.801  1.00  0.00     0.053 A 
HETATM   12  C18 UNL     1      -1.799   0.801  -0.029  1.00  0.00     0.088 A 
HETATM   13  H11 UNL     1      -0.099   2.558  -2.296  1.00  0.00     0.160 HD
ENDROOT
BRANCH   3  14
HETATM   14  C5  UNL     1       2.132  -1.159  -0.969  1.00  0.00     0.096 C 
BRANCH  14  15
HETATM   15  C6  UNL     1       3.245  -0.531  -0.230  1.00  0.00    -0.052 A 
HETATM   16  C7  UNL     1       4.185   0.366  -0.660  1.00  0.00     0.010 A 
HETATM   17  C8  UNL     1       5.128   0.818   0.211  1.00  0.00     0.043 A 
HETATM   18  C9  UNL     1       5.210   0.426   1.535  1.00  0.00     0.116 A 
HETATM   19  F1  UNL     1       6.161   0.893   2.383  1.00  0.00    -0.206 F 
HETATM   20  C10 UNL     1       4.266  -0.485   1.993  1.00  0.00     0.043 A 
HETATM   21  C11 UNL     1       3.329  -0.918   1.090  1.00  0.00     0.010 A 
ENDBRANCH  14  15
ENDBRANCH   3  14
BRANCH   1  22
HETATM   22  C3  UNL     1      -2.476  -1.578  -0.038  1.00  0.00     0.196 A 
HETATM   23  S1  UNL     1      -1.944  -3.249   0.037  1.00  0.00    -0.058 SA
HETATM   24  C2  UNL     1      -3.641  -4.066   0.096  1.00  0.00     0.111 A 
HETATM   25  C1  UNL     1      -4.310  -2.850   0.045  1.00  0.00     0.171 A 
HETATM   26  N4  UNL     1      -3.865  -1.597  -0.021  1.00  0.00    -0.198 NA
BRANCH  25  27
HETATM   27  O1  UNL     1      -5.717  -2.717   0.055  1.00  0.00    -0.344 OA
HETATM   28  H1  UNL     1      -6.220  -3.447  -0.427  1.00  0.00     0.219 HD
ENDBRANCH  25  27
ENDBRANCH   1  22
TORSDOF 4
