REMARK  8 active torsions:
REMARK  status: ('A' for Active; 'I' for Inactive)
REMARK    1  A    between atoms: N1_1  and  C1_2 
REMARK    2  A    between atoms: C1_2  and  C2_4 
REMARK    3  A    between atoms: C2_4  and  C3_5 
REMARK    4  A    between atoms: C3_5  and  C4_6 
REMARK    5  A    between atoms: C4_6  and  C5_7 
REMARK    6  A    between atoms: C10_13  and  C11_14 
REMARK    7  A    between atoms: N2_17  and  C14_18 
REMARK    8  A    between atoms: C15_20  and  O1_21 
ROOT
HETATM    1  C5  UNL     1      -1.663   0.633  -0.617  1.00  0.00    -0.020 A 
HETATM    2  C6  UNL     1      -2.659   1.566  -0.439  1.00  0.00     0.031 A 
HETATM    3  C7  UNL     1      -2.397   2.853  -0.054  1.00  0.00     0.011 A 
HETATM    4 BR1  UNL     1      -3.798   4.121   0.180  1.00  0.00    -0.051 Br
HETATM    5  C8  UNL     1      -1.092   3.213   0.158  1.00  0.00     0.020 A 
HETATM    6  C9  UNL     1      -0.118   2.251  -0.029  1.00  0.00     0.011 A 
HETATM    7  C10 UNL     1      -0.336   0.946  -0.415  1.00  0.00    -0.028 A 
ENDROOT
BRANCH   7   8
HETATM    8  C11 UNL     1       0.793  -0.010  -0.624  1.00  0.00     0.112 C 
HETATM    9  C12 UNL     1       0.640  -1.272   0.203  1.00  0.00     0.047 C 
HETATM   10  C13 UNL     1       1.972  -1.548   0.838  1.00  0.00     0.147 C 
HETATM   11  N2  UNL     1       2.807  -0.452   0.394  1.00  0.00    -0.290 N 
HETATM   12  N4  UNL     1       1.955   0.601   0.036  1.00  0.00    -0.227 NA
HETATM   13  H16 UNL     1       1.589   0.956   0.978  1.00  0.00     0.147 HD
BRANCH  11  14
HETATM   14  C14 UNL     1       4.199  -0.398   0.299  1.00  0.00     0.185 A 
HETATM   15  N3  UNL     1       5.196  -1.160  -0.162  1.00  0.00    -0.199 NA
HETATM   16  C15 UNL     1       6.406  -0.624   0.035  1.00  0.00     0.171 A 
HETATM   17  C16 UNL     1       6.706   0.653   0.677  1.00  0.00     0.111 A 
HETATM   18  S1  UNL     1       4.968   1.167   1.059  1.00  0.00    -0.058 SA
BRANCH  16  19
HETATM   19  O1  UNL     1       7.350  -1.524  -0.496  1.00  0.00    -0.344 OA
HETATM   20  H14 UNL     1       7.589  -2.402  -0.070  1.00  0.00     0.219 HD
ENDBRANCH  16  19
ENDBRANCH  11  14
ENDBRANCH   7   8
BRANCH   1  21
HETATM   21  C4  UNL     1      -2.038  -0.717  -1.008  1.00  0.00     0.063 C 
BRANCH  21  22
HETATM   22  C3  UNL     1      -3.009  -1.212  -0.266  1.00  0.00    -0.144 C 
BRANCH  22  23
HETATM   23  C2  UNL     1      -4.092  -1.562   0.398  1.00  0.00     0.140 C 
BRANCH  23  24
HETATM   24  C1  UNL     1      -5.387  -1.163  -0.115  1.00  0.00     0.416 C 
HETATM   25  F1  UNL     1      -5.313  -0.688  -1.394  1.00  0.00    -0.215 F 
BRANCH  24  26
HETATM   26  N1  UNL     1      -6.127  -0.228   0.701  1.00  0.00     0.113 N 
HETATM   27  H1  UNL     1      -6.460  -0.613   1.602  1.00  0.00     0.316 HD
HETATM   28  H2  UNL     1      -5.709   0.709   0.749  1.00  0.00     0.316 HD
ENDBRANCH  24  26
ENDBRANCH  23  24
ENDBRANCH  22  23
ENDBRANCH  21  22
ENDBRANCH   1  21
TORSDOF 8
