REMARK  6 active torsions:
REMARK  status: ('A' for Active; 'I' for Inactive)
REMARK    1  A    between atoms: C5_5  and  C6_6 
REMARK    2  A    between atoms: C6_6  and  C7_7 
REMARK    3  A    between atoms: C7_7  and  C8_8 
REMARK    4  A    between atoms: C8_8  and  C11_16 
REMARK    5  A    between atoms: N1_9  and  N2_10 
REMARK    6  A    between atoms: C9_12  and  O1_13 
ROOT
HETATM    1  C8  UNL     1      -1.098   0.319  -0.141  1.00  0.00     0.068 C 
HETATM    2  N1  UNL     1      -1.638   1.299  -0.713  1.00  0.00    -0.149 NA
ENDROOT
BRANCH   1   3
HETATM    3  C7  UNL     1       0.378   0.521  -0.049  1.00  0.00     0.067 C 
BRANCH   3   4
HETATM    4  C6  UNL     1       1.155  -0.406  -0.944  1.00  0.00     0.044 C 
BRANCH   4   5
HETATM    5  C5  UNL     1       2.614  -0.094  -0.730  1.00  0.00    -0.058 A 
HETATM    6  C4  UNL     1       3.239  -0.813   0.269  1.00  0.00     0.007 A 
HETATM    7  C3  UNL     1       4.575  -0.548   0.486  1.00  0.00     0.007 A 
HETATM    8  C2  UNL     1       5.298   0.379  -0.228  1.00  0.00    -0.062 A 
HETATM    9  C1  UNL     1       6.741   0.639   0.036  1.00  0.00     0.048 C 
HETATM   10  C18 UNL     1       4.604   1.052  -1.203  1.00  0.00     0.007 A 
HETATM   11  C17 UNL     1       3.264   0.849  -1.489  1.00  0.00     0.007 A 
ENDBRANCH   4   5
ENDBRANCH   3   4
ENDBRANCH   1   3
BRANCH   1  12
HETATM   12  C11 UNL     1      -1.682  -0.913   0.346  1.00  0.00    -0.010 A 
HETATM   13  C12 UNL     1      -2.988  -1.272   0.212  1.00  0.00     0.016 A 
HETATM   14  C13 UNL     1      -3.562  -2.414   0.693  1.00  0.00     0.043 A 
HETATM   15  C14 UNL     1      -2.781  -3.317   1.388  1.00  0.00     0.116 A 
HETATM   16  F1  UNL     1      -3.319  -4.458   1.878  1.00  0.00    -0.206 F 
HETATM   17  C15 UNL     1      -1.438  -2.994   1.552  1.00  0.00     0.043 A 
HETATM   18  C16 UNL     1      -0.937  -1.818   1.034  1.00  0.00     0.016 A 
ENDBRANCH   1  12
BRANCH   2  19
HETATM   19  N2  UNL     1      -2.957   1.559  -1.021  1.00  0.00    -0.138 N 
HETATM   20  N3  UNL     1      -3.966   2.112  -0.203  1.00  0.00    -0.250 N 
HETATM   21  C9  UNL     1      -5.225   2.272  -0.790  1.00  0.00     0.164 A 
HETATM   22  H10 UNL     1      -3.727   2.369   0.780  1.00  0.00     0.192 HD
HETATM   23  C10 UNL     1      -5.354   1.892  -2.052  1.00  0.00     0.128 A 
HETATM   24  S1  UNL     1      -3.746   1.259  -2.603  1.00  0.00     0.024 SA
BRANCH  21  25
HETATM   25  O1  UNL     1      -6.332   2.798  -0.136  1.00  0.00    -0.345 OA
HETATM   26  H11 UNL     1      -6.228   3.765   0.183  1.00  0.00     0.219 HD
ENDBRANCH  21  25
ENDBRANCH   2  19
TORSDOF 6
