REMARK  2 active torsions:
REMARK  status: ('A' for Active; 'I' for Inactive)
REMARK    1  A    between atoms: C5_6  and  C6_7 
REMARK    2  A    between atoms: C17_22  and  S1_23 
ROOT
HETATM    1  C1  UNL     1      -6.121   0.046   1.515  1.00  0.00     0.050 C 
HETATM    2  C2  UNL     1      -4.783   0.048   0.927  1.00  0.00    -0.040 C 
HETATM    3  C3  UNL     1      -4.649  -0.832  -0.112  1.00  0.00     0.148 C 
HETATM    4  O1  UNL     1      -3.628  -0.940  -1.134  1.00  0.00    -0.326 OA
HETATM    5  C4  UNL     1      -2.473  -0.110  -1.221  1.00  0.00     0.063 C 
HETATM    6  C5  UNL     1      -1.311  -0.731  -1.288  1.00  0.00     0.019 C 
HETATM    7  C7  UNL     1      -0.161  -0.063  -0.637  1.00  0.00     0.023 A 
HETATM    8  C8  UNL     1      -0.376   1.143  -0.006  1.00  0.00     0.073 A 
HETATM    9  O3  UNL     1       0.830   1.434   0.420  1.00  0.00    -0.312 OA
HETATM   10  C9  UNL     1       1.721   0.536   0.110  1.00  0.00     0.118 A 
HETATM   11  C10 UNL     1       1.133  -0.497  -0.600  1.00  0.00     0.062 A 
HETATM   12  C11 UNL     1       2.046  -1.546  -1.006  1.00  0.00     0.196 A 
HETATM   13  O4  UNL     1       1.849  -2.601  -1.644  1.00  0.00    -0.287 OA
HETATM   14  C12 UNL     1       3.324  -1.078  -0.478  1.00  0.00     0.044 A 
HETATM   15  C13 UNL     1       4.486  -1.699  -0.616  1.00  0.00     0.015 C 
HETATM   16  C14 UNL     1       5.812  -1.297  -0.119  1.00  0.00    -0.001 C 
HETATM   17  C15 UNL     1       6.065  -0.018   0.216  1.00  0.00    -0.001 C 
HETATM   18  C16 UNL     1       5.252   1.216   0.206  1.00  0.00     0.198 C 
HETATM   19  O5  UNL     1       4.012   1.105  -0.367  1.00  0.00    -0.355 OA
HETATM   20  C17 UNL     1       3.164   0.231   0.256  1.00  0.00     0.188 A 
HETATM   21  C18 UNL     1      -1.743   1.781   0.058  1.00  0.00     0.072 C 
HETATM   22  C19 UNL     1      -2.516   1.423   1.240  1.00  0.00    -0.014 C 
HETATM   23  C20 UNL     1      -3.756   0.958   1.495  1.00  0.00     0.005 C 
HETATM   24  C21 UNL     1      -2.427   1.407  -1.241  1.00  0.00     0.081 C 
ENDROOT
BRANCH   6  25
HETATM   25  C6  UNL     1      -1.417  -2.000  -1.963  1.00  0.00     0.433 C 
HETATM   26  O2  UNL     1      -1.070  -3.094  -2.449  1.00  0.00    -0.426 OA
ENDBRANCH   6  25
BRANCH  20  27
HETATM   27  S1  UNL     1       3.510   0.026   2.016  1.00  0.00    -0.132 SA
HETATM   28  H11 UNL     1       2.745   0.981   2.712  1.00  0.00     0.105 HD
ENDBRANCH  20  27
TORSDOF 2
