REMARK  2 active torsions:
REMARK  status: ('A' for Active; 'I' for Inactive)
REMARK    1  A    between atoms: O1_1  and  C1_2 
REMARK    2  A    between atoms: C3_5  and  N1_6 
ROOT
HETATM    1  N1  UNL     1       1.804  -0.683  -0.645  1.00  0.00    -0.289 N 
HETATM    2  C4  UNL     1       1.030  -1.907  -0.745  1.00  0.00     0.148 C 
HETATM    3  C5  UNL     1      -0.209  -1.596   0.095  1.00  0.00     0.053 C 
HETATM    4  C6  UNL     1      -0.256  -0.085   0.133  1.00  0.00     0.062 C 
HETATM    5  C7  UNL     1      -0.036   0.429   1.518  1.00  0.00     0.062 C 
HETATM    6  C8  UNL     1      -0.798  -0.311   2.553  1.00  0.00     0.018 C 
HETATM    7  C9  UNL     1      -2.068  -0.453   2.901  1.00  0.00     0.112 C 
HETATM    8  F1  UNL     1      -2.370  -1.264   3.967  1.00  0.00    -0.206 F 
HETATM    9  C10 UNL     1      -3.297   0.134   2.323  1.00  0.00     0.043 C 
HETATM   10  C11 UNL     1      -3.586   0.554   1.081  1.00  0.00     0.015 C 
HETATM   11  C12 UNL     1      -2.860   0.618  -0.186  1.00  0.00    -0.026 A 
HETATM   12  C13 UNL     1      -3.795   1.021  -1.091  1.00  0.00     0.031 A 
HETATM   13  C14 UNL     1      -3.436   1.186  -2.418  1.00  0.00     0.011 A 
HETATM   14 BR1  UNL     1      -4.799   1.749  -3.610  1.00  0.00    -0.051 Br
HETATM   15  C15 UNL     1      -2.129   0.933  -2.778  1.00  0.00     0.020 A 
HETATM   16  C16 UNL     1      -1.209   0.526  -1.836  1.00  0.00     0.011 A 
HETATM   17  C17 UNL     1      -1.527   0.347  -0.490  1.00  0.00    -0.023 A 
HETATM   18  N2  UNL     1       0.832   0.332  -0.735  1.00  0.00    -0.222 NA
HETATM   19  H15 UNL     1       1.182   1.247  -0.360  1.00  0.00     0.148 HD
ENDROOT
BRANCH   1  20
HETATM   20  C3  UNL     1       3.208  -0.374  -0.489  1.00  0.00     0.185 A 
HETATM   21  S1  UNL     1       4.029  -0.205  -2.134  1.00  0.00    -0.058 SA
HETATM   22  C2  UNL     1       5.699   0.167  -1.321  1.00  0.00     0.111 A 
HETATM   23  C1  UNL     1       5.313   0.092   0.080  1.00  0.00     0.171 A 
HETATM   24  N3  UNL     1       4.050  -0.183   0.327  1.00  0.00    -0.199 NA
BRANCH  23  25
HETATM   25  O1  UNL     1       6.066   0.265   1.259  1.00  0.00    -0.344 OA
HETATM   26  H1  UNL     1       6.196   1.234   1.586  1.00  0.00     0.219 HD
ENDBRANCH  23  25
ENDBRANCH   1  20
TORSDOF 2
