REMARK  4 active torsions:
REMARK  status: ('A' for Active; 'I' for Inactive)
REMARK    1  A    between atoms: O1_1  and  C1_2 
REMARK    2  A    between atoms: C3_5  and  N1_6 
REMARK    3  A    between atoms: C4_8  and  C5_9 
REMARK    4  A    between atoms: C12_17  and  C13_18 
ROOT
HETATM    1  N1  UNL     1       0.224   1.389   0.510  1.00  0.00    -0.236 N 
HETATM    2  N2  UNL     1      -0.682   0.739  -0.308  1.00  0.00    -0.173 NA
HETATM    3  C4  UNL     1      -1.240  -0.275   0.272  1.00  0.00     0.067 C 
HETATM    4  C11 UNL     1      -0.646  -0.321   1.651  1.00  0.00     0.094 C 
HETATM    5  C12 UNL     1       0.704   0.277   1.313  1.00  0.00     0.151 C 
ENDROOT
BRANCH   1   6
HETATM    6  C3  UNL     1       0.676   2.791   0.641  1.00  0.00     0.192 A 
HETATM    7  S1  UNL     1      -0.152   3.907  -0.566  1.00  0.00    -0.058 SA
HETATM    8  C2  UNL     1       0.807   5.388   0.104  1.00  0.00     0.111 A 
HETATM    9  C1  UNL     1       1.569   4.756   1.111  1.00  0.00     0.171 A 
HETATM   10  N3  UNL     1       1.385   3.462   1.247  1.00  0.00    -0.198 NA
BRANCH   9  11
HETATM   11  O1  UNL     1       2.516   5.289   2.016  1.00  0.00    -0.344 OA
HETATM   12  H1  UNL     1       2.417   6.248   2.324  1.00  0.00     0.219 HD
ENDBRANCH   9  11
ENDBRANCH   1   6
BRANCH   5  13
HETATM   13  C13 UNL     1       1.491  -0.685   0.558  1.00  0.00    -0.033 A 
HETATM   14  C14 UNL     1       2.377  -0.028  -0.279  1.00  0.00     0.011 A 
HETATM   15  C15 UNL     1       3.263  -0.681  -1.123  1.00  0.00     0.019 A 
HETATM   16  C16 UNL     1       3.284  -2.081  -1.153  1.00  0.00     0.011 A 
HETATM   17 BR1  UNL     1       4.428  -3.125  -2.244  1.00  0.00    -0.051 Br
HETATM   18  C17 UNL     1       2.394  -2.751  -0.312  1.00  0.00     0.019 A 
HETATM   19  C18 UNL     1       1.541  -2.060   0.501  1.00  0.00     0.011 A 
ENDBRANCH   5  13
BRANCH   3  20
HETATM   20  C5  UNL     1      -2.235  -1.161  -0.324  1.00  0.00    -0.010 A 
HETATM   21  C6  UNL     1      -2.612  -0.889  -1.622  1.00  0.00     0.016 A 
HETATM   22  C7  UNL     1      -3.534  -1.667  -2.251  1.00  0.00     0.043 A 
HETATM   23  C8  UNL     1      -4.091  -2.738  -1.570  1.00  0.00     0.116 A 
HETATM   24  F1  UNL     1      -5.005  -3.515  -2.182  1.00  0.00    -0.206 F 
HETATM   25  C9  UNL     1      -3.679  -2.960  -0.284  1.00  0.00     0.043 A 
HETATM   26  C10 UNL     1      -2.746  -2.206   0.410  1.00  0.00     0.016 A 
ENDBRANCH   3  20
TORSDOF 4
