REMARK  6 active torsions:
REMARK  status: ('A' for Active; 'I' for Inactive)
REMARK    1  A    between atoms: C4_5  and  C5_6 
REMARK    2  A    between atoms: C6_7  and  C7_8 
REMARK    3  A    between atoms: N2_10  and  C8_11 
REMARK    4  A    between atoms: C9_13  and  O1_14 
REMARK    5  A    between atoms: C10_15  and  S1_16 
REMARK    6  A    between atoms: C11_17  and  C12_18 
ROOT
HETATM    1  C1  UNL     1       3.639  -2.826   3.315  1.00  0.00     0.020 C 
HETATM    2  C2  UNL     1       4.442  -1.900   3.295  1.00  0.00    -0.047 C 
HETATM    3  C3  UNL     1       5.373  -0.817   3.251  1.00  0.00     0.168 C 
HETATM    4  F1  UNL     1       6.569  -0.851   3.885  1.00  0.00    -0.196 F 
HETATM    5  C4  UNL     1       4.962   0.236   2.528  1.00  0.00     0.052 C 
ENDROOT
BRANCH   5   6
HETATM    6  C5  UNL     1       3.674   0.173   1.893  1.00  0.00     0.006 C 
HETATM    7  C6  UNL     1       3.262   1.212   1.176  1.00  0.00     0.029 C 
BRANCH   7   8
HETATM    8  C7  UNL     1       1.943   1.171   0.515  1.00  0.00     0.057 C 
HETATM    9  N1  UNL     1       1.417   2.078  -0.198  1.00  0.00    -0.178 NA
HETATM   10  N2  UNL     1       0.153   1.751  -0.691  1.00  0.00    -0.243 N 
HETATM   11  C11 UNL     1      -0.321   0.795   0.281  1.00  0.00     0.147 C 
HETATM   12  C19 UNL     1       0.983   0.037   0.567  1.00  0.00     0.093 C 
BRANCH  10  13
HETATM   13  C8  UNL     1      -0.616   2.159  -1.834  1.00  0.00     0.369 A 
HETATM   14  N3  UNL     1      -0.696   2.902  -2.920  1.00  0.00     0.084 N 
HETATM   15  C9  UNL     1      -1.899   2.695  -3.542  1.00  0.00     0.349 A 
HETATM   16  C10 UNL     1      -1.105   3.618  -4.217  1.00  0.00     0.364 A 
HETATM   17  S1  UNL     1       0.280   3.429  -2.910  1.00  0.00     0.088 SA
BRANCH  15  18
HETATM   18  O1  UNL     1      -3.173   2.391  -4.085  1.00  0.00    -0.357 OA
HETATM   19  H5  UNL     1      -3.935   2.991  -3.789  1.00  0.00     0.213 HD
ENDBRANCH  15  18
ENDBRANCH  10  13
BRANCH  11  20
HETATM   20  C12 UNL     1      -1.378  -0.101  -0.174  1.00  0.00    -0.033 A 
HETATM   21  C13 UNL     1      -2.536   0.187  -0.836  1.00  0.00     0.010 A 
HETATM   22  C14 UNL     1      -3.445  -0.763  -1.213  1.00  0.00     0.007 A 
HETATM   23  C15 UNL     1      -3.225  -2.110  -0.931  1.00  0.00    -0.062 A 
HETATM   24  C16 UNL     1      -4.233  -3.116  -1.354  1.00  0.00     0.048 C 
HETATM   25  C17 UNL     1      -2.059  -2.470  -0.256  1.00  0.00     0.007 A 
HETATM   26  C18 UNL     1      -1.189  -1.460   0.093  1.00  0.00     0.010 A 
ENDBRANCH  11  20
ENDBRANCH   7   8
ENDBRANCH   5   6
TORSDOF 6
