REMARK  4 active torsions:
REMARK  status: ('A' for Active; 'I' for Inactive)
REMARK    1  A    between atoms: C5_5  and  C6_6 
REMARK    2  A    between atoms: C8_8  and  C9_9 
REMARK    3  A    between atoms: N2_16  and  C14_17 
REMARK    4  A    between atoms: C15_19  and  O1_20 
ROOT
HETATM    1  C6  UNL     1      -0.032  -0.332   0.375  1.00  0.00     0.151 C 
HETATM    2  C7  UNL     1      -0.718  -1.264  -0.627  1.00  0.00     0.094 C 
HETATM    3  C8  UNL     1      -2.136  -0.933  -0.197  1.00  0.00     0.064 C 
HETATM    4  N1  UNL     1      -2.106   0.283   0.275  1.00  0.00    -0.174 NA
HETATM    5  N2  UNL     1      -0.817   0.836   0.217  1.00  0.00    -0.236 N 
ENDROOT
BRANCH   1   6
HETATM    6  C5  UNL     1       1.403  -0.247   0.232  1.00  0.00    -0.033 A 
HETATM    7  C4  UNL     1       2.003  -1.104  -0.700  1.00  0.00     0.010 A 
HETATM    8  C3  UNL     1       3.364  -1.139  -0.926  1.00  0.00     0.007 A 
HETATM    9  C2  UNL     1       4.196  -0.303  -0.216  1.00  0.00    -0.062 A 
HETATM   10  C1  UNL     1       5.671  -0.278  -0.399  1.00  0.00     0.048 C 
HETATM   11  C18 UNL     1       3.648   0.556   0.711  1.00  0.00     0.007 A 
HETATM   12  C17 UNL     1       2.283   0.560   0.907  1.00  0.00     0.010 A 
ENDBRANCH   1   6
BRANCH   5  13
HETATM   13  C14 UNL     1      -0.512   2.235   0.032  1.00  0.00     0.192 A 
HETATM   14  N3  UNL     1       0.648   2.938  -0.101  1.00  0.00    -0.198 NA
HETATM   15  C15 UNL     1       0.435   4.238  -0.251  1.00  0.00     0.171 A 
HETATM   16  C16 UNL     1      -0.817   4.992  -0.291  1.00  0.00     0.111 A 
HETATM   17  S1  UNL     1      -1.907   3.467  -0.061  1.00  0.00    -0.058 SA
BRANCH  15  18
HETATM   18  O1  UNL     1       1.713   4.826  -0.375  1.00  0.00    -0.344 OA
HETATM   19  H13 UNL     1       1.916   5.734   0.017  1.00  0.00     0.219 HD
ENDBRANCH  15  18
ENDBRANCH   5  13
BRANCH   3  20
HETATM   20  C9  UNL     1      -3.289  -1.818  -0.301  1.00  0.00    -0.025 A 
HETATM   21  C10 UNL     1      -3.291  -3.051  -0.786  1.00  0.00     0.012 A 
HETATM   22  C11 UNL     1      -4.660  -3.541  -0.689  1.00  0.00     0.038 A 
HETATM   23  C12 UNL     1      -5.475  -2.656  -0.169  1.00  0.00     0.098 A 
HETATM   24  F1  UNL     1      -6.784  -2.565   0.144  1.00  0.00    -0.210 F 
HETATM   25  C13 UNL     1      -4.657  -1.459   0.129  1.00  0.00     0.110 A 
ENDBRANCH   3  20
TORSDOF 4
