REMARK  2 active torsions:
REMARK  status: ('A' for Active; 'I' for Inactive)
REMARK    1  A    between atoms: C8_11  and  C9_12 
REMARK    2  A    between atoms: C11_14  and  C12_15 
ROOT
HETATM    1  C1  UNL     1      -4.071  -2.651  -1.218  1.00  0.00     0.048 C 
HETATM    2  C2  UNL     1      -2.985  -1.764  -0.652  1.00  0.00    -0.064 C 
HETATM    3  C3  UNL     1      -3.337  -1.676   0.610  1.00  0.00     0.006 C 
HETATM    4  C4  UNL     1      -2.561  -0.930   1.609  1.00  0.00     0.205 C 
HETATM    5  O1  UNL     1      -3.181   0.158   2.218  1.00  0.00    -0.330 OA
HETATM    6  C5  UNL     1      -3.437   1.258   1.328  1.00  0.00     0.172 A 
HETATM    7  C6  UNL     1      -4.295   2.371   1.026  1.00  0.00     0.109 A 
HETATM    8  S1  UNL     1      -3.393   3.010  -0.526  1.00  0.00    -0.081 SA
HETATM    9  C7  UNL     1      -2.134   1.757  -0.478  1.00  0.00     0.087 A 
HETATM   10  N1  UNL     1      -2.431   1.103   0.494  1.00  0.00    -0.221 NA
HETATM   11  C8  UNL     1      -0.885   1.184  -1.197  1.00  0.00     0.092 C 
HETATM   12  C18 UNL     1      -1.397  -0.006  -1.856  1.00  0.00    -0.013 C 
HETATM   13  C19 UNL     1      -2.172  -1.108  -1.692  1.00  0.00     0.003 C 
ENDROOT
BRANCH  11  14
HETATM   14  C9  UNL     1       0.271   1.177  -0.354  1.00  0.00     0.121 C 
HETATM   15  C10 UNL     1       1.551   0.621  -0.973  1.00  0.00     0.089 C 
HETATM   16  C11 UNL     1       2.473   1.045   0.118  1.00  0.00     0.066 C 
HETATM   17  N2  UNL     1       1.999   2.143   0.607  1.00  0.00    -0.183 NA
HETATM   18  N3  UNL     1       0.808   2.527  -0.060  1.00  0.00    -0.307 N 
HETATM   19  H16 UNL     1       0.500   3.521  -0.236  1.00  0.00     0.182 HD
BRANCH  16  20
HETATM   20  C12 UNL     1       3.680   0.351   0.552  1.00  0.00    -0.010 A 
HETATM   21  C13 UNL     1       4.439   0.860   1.584  1.00  0.00     0.016 A 
HETATM   22  C14 UNL     1       5.583   0.208   1.999  1.00  0.00     0.043 A 
HETATM   23  C15 UNL     1       5.972  -0.974   1.369  1.00  0.00     0.116 A 
HETATM   24  F1  UNL     1       7.066  -1.693   1.689  1.00  0.00    -0.206 F 
HETATM   25  C16 UNL     1       5.196  -1.463   0.340  1.00  0.00     0.043 A 
HETATM   26  C17 UNL     1       4.050  -0.825  -0.088  1.00  0.00     0.016 A 
ENDBRANCH  16  20
ENDBRANCH  11  14
TORSDOF 2
