REMARK  7 active torsions:
REMARK  status: ('A' for Active; 'I' for Inactive)
REMARK    1  A    between atoms: C16_17  and  O2_18 
REMARK    2  A    between atoms: O2_18  and  C17_19 
REMARK    3  A    between atoms: C17_19  and  C18_20 
REMARK    4  A    between atoms: C18_20  and  N1_21 
REMARK    5  A    between atoms: N1_21  and  C19_22 
REMARK    6  A    between atoms: N1_21  and  C21_24 
REMARK    7  A    between atoms: C23_26  and  C24_27 
ROOT
HETATM    1  C1  UNL     1      -2.428   0.064   4.338  1.00  0.00     0.021 C 
HETATM    2  C2  UNL     1      -3.205  -0.563   3.522  1.00  0.00    -0.041 C 
HETATM    3  C3  UNL     1      -4.094  -1.662   3.185  1.00  0.00     0.023 C 
HETATM    4  C4  UNL     1      -5.338  -1.242   3.814  1.00  0.00     0.016 C 
HETATM    5  C5  UNL     1      -5.659   0.121   3.067  1.00  0.00    -0.002 C 
HETATM    6  C6  UNL     1      -4.685   0.404   2.086  1.00  0.00    -0.013 C 
HETATM    7  C7  UNL     1      -3.290  -0.138   2.122  1.00  0.00     0.074 C 
HETATM    8  C8  UNL     1      -2.921  -1.293   1.214  1.00  0.00    -0.015 C 
HETATM    9  C9  UNL     1      -3.756  -2.418   1.094  1.00  0.00     0.131 C 
HETATM   10  O1  UNL     1      -3.683  -3.116  -0.099  1.00  0.00    -0.310 OA
HETATM   11  C10 UNL     1      -2.741  -2.450  -0.853  1.00  0.00     0.063 C 
HETATM   12  C11 UNL     1      -2.776  -2.615  -2.158  1.00  0.00     0.013 C 
HETATM   13  C12 UNL     1      -2.275  -2.341  -3.475  1.00  0.00     0.046 C 
HETATM   14  C13 UNL     1      -1.388  -1.600  -4.019  1.00  0.00    -0.015 C 
HETATM   15  C14 UNL     1      -0.251  -0.562  -4.136  1.00  0.00     0.003 C 
HETATM   16  C15 UNL     1      -0.244  -0.372  -2.825  1.00  0.00     0.038 C 
HETATM   17  C16 UNL     1      -0.344  -0.260  -1.348  1.00  0.00     0.073 C 
HETATM   18  C23 UNL     1      -1.020  -0.793  -0.332  1.00  0.00     0.002 C 
HETATM   19  C26 UNL     1      -1.967  -1.751   0.209  1.00  0.00     0.112 C 
HETATM   20  C27 UNL     1      -4.597  -2.703   2.297  1.00  0.00     0.216 C 
HETATM   21  O5  UNL     1      -5.459  -3.553   2.508  1.00  0.00    -0.284 OA
ENDROOT
BRANCH  17  22
HETATM   22  O2  UNL     1       0.670   0.769  -1.248  1.00  0.00    -0.349 OA
BRANCH  22  23
HETATM   23  C17 UNL     1       2.024   0.270  -1.293  1.00  0.00     0.195 C 
BRANCH  23  24
HETATM   24  C18 UNL     1       3.055   1.362  -1.194  1.00  0.00     0.143 C 
BRANCH  24  25
HETATM   25  N1  UNL     1       4.387   0.878  -1.242  1.00  0.00    -0.411 N 
BRANCH  25  26
HETATM   26  C19 UNL     1       4.842   0.321  -2.464  1.00  0.00     0.112 C 
HETATM   27  C20 UNL     1       4.965   1.444  -3.500  1.00  0.00     0.026 C 
ENDBRANCH  25  26
BRANCH  25  28
HETATM   28  C21 UNL     1       5.009   0.464  -0.046  1.00  0.00     0.112 C 
HETATM   29  C22 UNL     1       5.286   1.668   0.833  1.00  0.00     0.026 C 
ENDBRANCH  25  28
ENDBRANCH  24  25
ENDBRANCH  23  24
ENDBRANCH  22  23
ENDBRANCH  17  22
BRANCH  18  30
HETATM   30  C24 UNL     1      -0.294   0.070   0.570  1.00  0.00    -0.002 A 
HETATM   31  O3  UNL     1       0.264   0.750   1.354  1.00  0.00     0.000 OA
HETATM   32  C25 UNL     1       0.475   1.179   2.686  1.00  0.00     0.000 A 
HETATM   33  O4  UNL     1       0.431   0.903   1.336  1.00  0.00     0.000 OA
ENDBRANCH  18  30
TORSDOF 7
