REMARK  2 active torsions:
REMARK  status: ('A' for Active; 'I' for Inactive)
REMARK    1  A    between atoms: C7_9  and  O1_10 
REMARK    2  A    between atoms: C11_14  and  O2_15 
ROOT
HETATM    1  C1  UNL     1      -3.057   2.062   4.129  1.00  0.00     0.131 C 
HETATM    2  N1  UNL     1      -2.118   1.694   3.077  1.00  0.00    -0.220 NA
HETATM    3  C2  UNL     1      -2.650   1.009   2.111  1.00  0.00     0.054 A 
HETATM    4  C3  UNL     1      -3.567   0.285   1.247  1.00  0.00     0.090 C 
HETATM    5  C4  UNL     1      -3.642  -1.148   1.572  1.00  0.00     0.017 C 
HETATM    6  C5  UNL     1      -3.040  -1.905   0.665  1.00  0.00     0.098 C 
HETATM    7  F1  UNL     1      -3.155  -3.235   1.029  1.00  0.00    -0.211 F 
HETATM    8  C6  UNL     1      -2.160  -2.137  -0.507  1.00  0.00     0.166 C 
HETATM    9  C7  UNL     1      -1.419  -1.313  -1.259  1.00  0.00     0.055 C 
HETATM   10  C8  UNL     1      -0.760  -0.054  -1.822  1.00  0.00     0.068 C 
HETATM   11  C9  UNL     1       0.694  -0.087  -1.517  1.00  0.00    -0.063 C 
HETATM   12  C10 UNL     1       1.466  -1.106  -1.873  1.00  0.00     0.012 C 
HETATM   13  C11 UNL     1       2.926  -1.112  -1.551  1.00  0.00     0.166 C 
HETATM   14  C13 UNL     1       3.547   0.209  -1.663  1.00  0.00     0.006 C 
HETATM   15  C14 UNL     1       2.753   1.239  -1.291  1.00  0.00    -0.011 C 
HETATM   16  C15 UNL     1       1.353   0.988  -0.812  1.00  0.00     0.038 C 
HETATM   17  C16 UNL     1       0.667   2.363  -0.913  1.00  0.00     0.067 C 
HETATM   18  C17 UNL     1       1.559   3.069   0.099  1.00  0.00     0.086 C 
HETATM   19  N2  UNL     1       1.913   2.214   1.000  1.00  0.00    -0.287 NA
HETATM   20  C18 UNL     1       1.331   0.904   0.712  1.00  0.00     0.202 C 
HETATM   21  C19 UNL     1       0.003   0.932   1.172  1.00  0.00    -0.073 C 
HETATM   22  S1  UNL     1      -1.187   0.966   1.605  1.00  0.00    -0.031 SA
ENDROOT
BRANCH   9  23
HETATM   23  O1  UNL     1      -1.129  -2.546  -1.896  1.00  0.00    -0.394 OA
HETATM   24  H8  UNL     1      -1.244  -2.618  -2.905  1.00  0.00     0.210 HD
ENDBRANCH   9  23
BRANCH  13  25
HETATM   25  O2  UNL     1       3.566  -2.026  -2.353  1.00  0.00    -0.383 OA
HETATM   26  C12 UNL     1       4.188  -3.029  -1.616  1.00  0.00     0.202 C 
ENDBRANCH  13  25
TORSDOF 2
