REMARK  4 active torsions:
REMARK  status: ('A' for Active; 'I' for Inactive)
REMARK    1  A    between atoms: O1_2  and  C2_3 
REMARK    2  A    between atoms: C5_6  and  C6_7 
REMARK    3  A    between atoms: N1_9  and  C8_10 
REMARK    4  A    between atoms: C13_16  and  O2_17 
ROOT
HETATM    1  C6  UNL     1       0.839  -0.277   1.733  1.00  0.00     0.112 A 
HETATM    2  C7  UNL     1      -0.501   0.030   1.333  1.00  0.00     0.222 A 
HETATM    3  N1  UNL     1      -1.476  -0.857   0.659  1.00  0.00    -0.189 N 
HETATM    4  N2  UNL     1      -1.078  -2.287   0.605  1.00  0.00     0.085 N 
HETATM    5  C14 UNL     1       0.058  -3.295   1.087  1.00  0.00     0.363 A 
HETATM    6  N3  UNL     1       1.065  -3.681   1.569  1.00  0.00    -0.259 NA
HETATM    7  C15 UNL     1       1.959  -2.768   2.100  1.00  0.00     0.189 A 
HETATM    8  C16 UNL     1       1.681  -1.374   2.074  1.00  0.00     0.078 A 
HETATM    9  S1  UNL     1       0.316  -1.671   1.351  1.00  0.00    -0.025 SA
HETATM   10  H13 UNL     1      -1.560  -3.158   0.144  1.00  0.00     0.326 HD
ENDROOT
BRANCH   3  11
HETATM   11  C8  UNL     1      -2.788  -0.725   0.000  1.00  0.00     0.092 A 
HETATM   12  C9  UNL     1      -2.844  -1.095  -1.323  1.00  0.00     0.037 A 
HETATM   13  C10 UNL     1      -4.094  -0.936  -1.877  1.00  0.00     0.045 A 
HETATM   14  C11 UNL     1      -5.125  -0.446  -1.101  1.00  0.00     0.119 A 
HETATM   15  F1  UNL     1      -6.384  -0.275  -1.626  1.00  0.00    -0.206 F 
HETATM   16  C12 UNL     1      -5.001  -0.094   0.219  1.00  0.00     0.081 A 
HETATM   17  C13 UNL     1      -3.771  -0.237   0.812  1.00  0.00     0.097 A 
BRANCH  17  18
HETATM   18  O2  UNL     1      -3.557   0.095   2.141  1.00  0.00    -0.358 OA
HETATM   19  H12 UNL     1      -3.557   1.105   2.329  1.00  0.00     0.217 HD
ENDBRANCH  17  18
ENDBRANCH   3  11
BRANCH   1  20
HETATM   20  C5  UNL     1       1.794   0.604   0.870  1.00  0.00    -0.043 A 
HETATM   21  C4  UNL     1       2.687   1.575   1.264  1.00  0.00     0.011 A 
HETATM   22  C3  UNL     1       3.409   2.206   0.288  1.00  0.00     0.037 A 
HETATM   23  C2  UNL     1       3.284   1.918  -1.044  1.00  0.00     0.068 A 
HETATM   24  C18 UNL     1       2.383   0.942  -1.409  1.00  0.00     0.037 A 
HETATM   25  C17 UNL     1       1.628   0.273  -0.466  1.00  0.00     0.011 A 
BRANCH  23  26
HETATM   26  O1  UNL     1       4.106   2.674  -1.848  1.00  0.00    -0.356 OA
HETATM   27  C1  UNL     1       4.086   2.486  -3.240  1.00  0.00     0.210 C 
ENDBRANCH  23  26
ENDBRANCH   1  20
TORSDOF 4
