REMARK  2 active torsions:
REMARK  status: ('A' for Active; 'I' for Inactive)
REMARK    1  A    between atoms: C2_2  and  C3_3 
REMARK    2  A    between atoms: C6_9  and  O1_10 
ROOT
HETATM    1  C3  UNL     1       3.564  -0.555  -0.183  1.00  0.00     0.034 C 
HETATM    2  N1  UNL     1       2.993  -1.443   0.520  1.00  0.00    -0.185 NA
HETATM    3  N2  UNL     1       1.637  -1.643   0.165  1.00  0.00    -0.293 N 
HETATM    4  C4  UNL     1       0.857  -2.846   0.376  1.00  0.00     0.167 C 
HETATM    5  P1  UNL     1      -0.537  -2.972  -0.868  1.00  0.00    -0.128 P 
HETATM    6  C5  UNL     1      -2.174  -3.078  -0.063  1.00  0.00     0.157 C 
HETATM    7  C6  UNL     1      -3.077  -2.095   0.072  1.00  0.00     0.125 C 
HETATM    8  N3  UNL     1      -3.996  -0.980   0.175  1.00  0.00    -0.338 N 
HETATM    9  C7  UNL     1      -5.365  -1.134  -0.234  1.00  0.00     0.154 C 
HETATM   10  C8  UNL     1      -3.300   0.158   0.703  1.00  0.00     0.276 C 
HETATM   11  F1  UNL     1      -4.197   1.080   1.219  1.00  0.00    -0.226 F 
HETATM   12  C9  UNL     1      -2.431   0.764  -0.353  1.00  0.00     0.097 C 
HETATM   13  C10 UNL     1      -1.568   1.846   0.154  1.00  0.00    -0.053 C 
HETATM   14  C11 UNL     1      -0.837   1.259   1.106  1.00  0.00     0.016 C 
HETATM   15  P2  UNL     1       0.931   0.977   0.743  1.00  0.00    -0.067 P 
HETATM   16  C12 UNL     1       1.579   2.574  -0.005  1.00  0.00     0.044 C 
HETATM   17  C13 UNL     1       0.816   3.779   0.525  1.00  0.00     0.032 C 
HETATM   18  C14 UNL     1      -0.478   3.998  -0.165  1.00  0.00    -0.026 C 
HETATM   19  C15 UNL     1      -1.528   3.206  -0.308  1.00  0.00     0.003 C 
HETATM   20  C16 UNL     1       1.247  -0.382  -0.437  1.00  0.00     0.141 C 
HETATM   21  C17 UNL     1       2.562  -0.038  -1.156  1.00  0.00     0.088 C 
HETATM   22  H8  UNL     1      -0.369  -4.199  -1.672  1.00  0.00     0.050 HD
ENDROOT
BRANCH   1  23
HETATM   23  C2  UNL     1       4.981  -0.122  -0.050  1.00  0.00     0.052 C 
HETATM   24  C1  UNL     1       5.713  -0.856   1.045  1.00  0.00     0.011 C 
ENDBRANCH   1  23
BRANCH   7  25
HETATM   25  O1  UNL     1      -3.765  -3.155   0.712  1.00  0.00    -0.349 OA
HETATM   26  H10 UNL     1      -4.647  -3.497   0.361  1.00  0.00     0.219 HD
ENDBRANCH   7  25
TORSDOF 2
