REMARK  5 active torsions:
REMARK  status: ('A' for Active; 'I' for Inactive)
REMARK    1  A    between atoms: O1_2  and  C2_3 
REMARK    2  A    between atoms: C5_6  and  C6_7 
REMARK    3  A    between atoms: C8_9  and  C9_10 
REMARK    4  A    between atoms: N2_18  and  C15_19 
REMARK    5  A    between atoms: C16_21  and  O2_22 
ROOT
HETATM    1  C6  UNL     1       0.099   1.405  -0.658  1.00  0.00     0.151 C 
HETATM    2  C7  UNL     1      -0.892   0.747  -1.631  1.00  0.00     0.094 C 
HETATM    3  C8  UNL     1      -1.756  -0.026  -0.674  1.00  0.00     0.067 C 
HETATM    4  N1  UNL     1      -1.631   0.532   0.499  1.00  0.00    -0.173 NA
HETATM    5  N2  UNL     1      -0.777   1.615   0.484  1.00  0.00    -0.236 N 
ENDROOT
BRANCH   1   6
HETATM    6  C5  UNL     1       1.233   0.532  -0.327  1.00  0.00    -0.033 A 
HETATM    7  C4  UNL     1       1.837   0.774   0.911  1.00  0.00     0.012 A 
HETATM    8  C3  UNL     1       2.927   0.023   1.351  1.00  0.00     0.037 A 
HETATM    9  C2  UNL     1       3.457  -0.998   0.573  1.00  0.00     0.068 A 
HETATM   10  C19 UNL     1       2.874  -1.248  -0.650  1.00  0.00     0.037 A 
HETATM   11  C18 UNL     1       1.800  -0.484  -1.046  1.00  0.00     0.012 A 
BRANCH   9  12
HETATM   12  O1  UNL     1       4.529  -1.767   0.960  1.00  0.00    -0.356 OA
HETATM   13  C1  UNL     1       5.070  -2.807   0.167  1.00  0.00     0.210 C 
ENDBRANCH   9  12
ENDBRANCH   1   6
BRANCH   5  14
HETATM   14  C15 UNL     1      -0.636   2.785   1.316  1.00  0.00     0.192 A 
HETATM   15  N3  UNL     1      -0.049   3.744   1.474  1.00  0.00    -0.198 NA
HETATM   16  C16 UNL     1      -0.190   4.658   2.403  1.00  0.00     0.171 A 
HETATM   17  C17 UNL     1      -1.151   4.474   3.313  1.00  0.00     0.111 A 
HETATM   18  S1  UNL     1      -1.858   2.862   2.737  1.00  0.00    -0.058 SA
BRANCH  16  19
HETATM   19  O2  UNL     1       0.619   5.801   2.471  1.00  0.00    -0.344 OA
HETATM   20  H13 UNL     1       0.975   6.304   1.694  1.00  0.00     0.219 HD
ENDBRANCH  16  19
ENDBRANCH   5  14
BRANCH   3  21
HETATM   21  C9  UNL     1      -2.570  -1.180  -1.016  1.00  0.00    -0.010 A 
HETATM   22  C10 UNL     1      -2.630  -1.685  -2.277  1.00  0.00     0.016 A 
HETATM   23  C11 UNL     1      -3.422  -2.783  -2.538  1.00  0.00     0.043 A 
HETATM   24  C12 UNL     1      -4.181  -3.413  -1.547  1.00  0.00     0.116 A 
HETATM   25  F1  UNL     1      -4.965  -4.492  -1.784  1.00  0.00    -0.206 F 
HETATM   26  C13 UNL     1      -4.111  -2.885  -0.259  1.00  0.00     0.043 A 
HETATM   27  C14 UNL     1      -3.312  -1.787  -0.025  1.00  0.00     0.016 A 
ENDBRANCH   3  21
TORSDOF 5
