REMARK  6 active torsions:
REMARK  status: ('A' for Active; 'I' for Inactive)
REMARK    1  A    between atoms: C4_5  and  C5_6 
REMARK    2  A    between atoms: C5_6  and  C6_7 
REMARK    3  A    between atoms: N2_9  and  C7_10 
REMARK    4  A    between atoms: C8_12  and  O1_13 
REMARK    5  A    between atoms: C10_16  and  C11_17 
REMARK    6  A    between atoms: C14_20  and  O2_21 
ROOT
HETATM    1  C1  UNL     1      -3.677  -4.807   2.132  1.00  0.00     0.020 C 
HETATM    2  C2  UNL     1      -3.979  -3.889   1.429  1.00  0.00    -0.048 C 
HETATM    3  C3  UNL     1      -4.323  -2.781   0.565  1.00  0.00     0.165 C 
HETATM    4  F1  UNL     1      -5.503  -2.150   0.728  1.00  0.00    -0.197 F 
HETATM    5  C4  UNL     1      -3.486  -2.374  -0.393  1.00  0.00     0.031 C 
ENDROOT
BRANCH   5   6
HETATM    6  C5  UNL     1      -3.503  -1.323  -1.419  1.00  0.00     0.087 C 
BRANCH   6   7
HETATM    7  C6  UNL     1      -2.351  -0.420  -1.184  1.00  0.00     0.038 C 
HETATM    8  N1  UNL     1      -2.354   0.830  -0.938  1.00  0.00    -0.178 NA
HETATM    9  N2  UNL     1      -1.043   1.333  -0.775  1.00  0.00    -0.237 N 
HETATM   10  C10 UNL     1      -0.198   0.385  -1.436  1.00  0.00     0.151 C 
HETATM   11  C18 UNL     1      -0.948  -0.911  -1.212  1.00  0.00     0.089 C 
BRANCH   9  12
HETATM   12  C7  UNL     1      -0.871   2.558  -0.055  1.00  0.00     0.192 A 
HETATM   13  N3  UNL     1      -0.837   3.671  -0.182  1.00  0.00    -0.198 NA
HETATM   14  C8  UNL     1      -0.658   4.673   0.637  1.00  0.00     0.171 A 
HETATM   15  C9  UNL     1      -0.477   4.273   1.897  1.00  0.00     0.111 A 
HETATM   16  S1  UNL     1      -0.582   2.380   1.816  1.00  0.00    -0.058 SA
BRANCH  14  17
HETATM   17  O1  UNL     1      -0.666   5.987   0.186  1.00  0.00    -0.344 OA
HETATM   18  H5  UNL     1      -1.546   6.409  -0.088  1.00  0.00     0.219 HD
ENDBRANCH  14  17
ENDBRANCH   9  12
BRANCH  10  19
HETATM   19  C11 UNL     1       1.152   0.282  -0.861  1.00  0.00    -0.033 A 
HETATM   20  C12 UNL     1       1.968   1.334  -0.501  1.00  0.00     0.012 A 
HETATM   21  C13 UNL     1       3.234   1.153   0.039  1.00  0.00     0.037 A 
HETATM   22  C14 UNL     1       3.727  -0.139   0.238  1.00  0.00     0.068 A 
HETATM   23  C16 UNL     1       2.920  -1.189  -0.119  1.00  0.00     0.037 A 
HETATM   24  C17 UNL     1       1.682  -0.982  -0.646  1.00  0.00     0.012 A 
BRANCH  22  25
HETATM   25  O2  UNL     1       5.002  -0.107   0.783  1.00  0.00    -0.356 OA
HETATM   26  C15 UNL     1       5.661  -1.321   1.054  1.00  0.00     0.210 C 
ENDBRANCH  22  25
ENDBRANCH  10  19
ENDBRANCH   6   7
ENDBRANCH   5   6
TORSDOF 6
