REMARK  2 active torsions:
REMARK  status: ('A' for Active; 'I' for Inactive)
REMARK    1  A    between atoms: C2_2  and  N1_3 
REMARK    2  A    between atoms: C6_8  and  C7_9 
ROOT
HETATM    1  N1  UNL     1      -2.743  -0.187   0.395  1.00  0.00     0.090 N 
HETATM    2  C3  UNL     1      -3.927   0.666   0.609  1.00  0.00     0.299 C 
HETATM    3  C4  UNL     1      -3.438   2.123   0.800  1.00  0.00     0.205 C 
HETATM    4  O1  UNL     1      -2.119   2.231   0.204  1.00  0.00    -0.353 OA
HETATM    5  C5  UNL     1      -1.489   1.471  -0.809  1.00  0.00     0.055 C 
HETATM    6  C6  UNL     1      -0.210   1.267  -0.480  1.00  0.00    -0.003 C 
HETATM    7  C9  UNL     1       0.471   0.026  -0.823  1.00  0.00     0.021 A 
HETATM    8  C10 UNL     1      -0.366  -0.870  -1.504  1.00  0.00     0.072 A 
HETATM    9  O4  UNL     1       0.383  -1.934  -1.743  1.00  0.00    -0.309 OA
HETATM   10  C11 UNL     1       1.594  -1.762  -1.269  1.00  0.00     0.141 A 
HETATM   11  C12 UNL     1       1.717  -0.520  -0.664  1.00  0.00     0.066 A 
HETATM   12  C13 UNL     1       2.868   0.045  -0.032  1.00  0.00     0.197 A 
HETATM   13  O5  UNL     1       2.929   1.157   0.494  1.00  0.00    -0.286 OA
HETATM   14  C14 UNL     1       4.075  -0.768  -0.007  1.00  0.00     0.029 A 
HETATM   15  C15 UNL     1       5.238  -0.325   0.573  1.00  0.00     0.016 A 
HETATM   16  C16 UNL     1       6.351  -1.170   0.553  1.00  0.00     0.001 A 
HETATM   17  C17 UNL     1       6.305  -2.418  -0.030  1.00  0.00     0.001 A 
HETATM   18  C18 UNL     1       5.152  -2.883  -0.618  1.00  0.00     0.016 A 
HETATM   19  C19 UNL     1       4.062  -2.041  -0.590  1.00  0.00     0.031 A 
HETATM   20  C20 UNL     1       2.837  -2.564  -1.228  1.00  0.00     0.217 A 
HETATM   21  O6  UNL     1       2.813  -3.717  -1.760  1.00  0.00    -0.284 OA
HETATM   22  C21 UNL     1      -1.789  -0.617  -1.855  1.00  0.00     0.078 C 
HETATM   23  C22 UNL     1      -1.993   0.885  -2.116  1.00  0.00     0.078 C 
HETATM   24  C23 UNL     1      -2.776  -0.970  -0.789  1.00  0.00     0.284 C 
ENDROOT
BRANCH   6  25
HETATM   25  C7  UNL     1       0.436   2.305   0.249  1.00  0.00     0.033 A 
HETATM   26  O2  UNL     1       0.805   3.304   0.866  1.00  0.00     0.000 OA
HETATM   27  C8  UNL     1       0.164   4.554   1.279  1.00  0.00     0.000 A 
HETATM   28  O3  UNL     1       0.866   3.405   0.936  1.00  0.00     0.000 OA
ENDBRANCH   6  25
BRANCH   1  29
HETATM   29  C2  UNL     1      -2.714  -1.144   1.513  1.00  0.00     0.268 C 
HETATM   30  C1  UNL     1      -3.875  -2.105   1.402  1.00  0.00     0.037 C 
ENDBRANCH   1  29
TORSDOF 2
