REMARK  4 active torsions:
REMARK  status: ('A' for Active; 'I' for Inactive)
REMARK    1  A    between atoms: C2_2  and  C3_3 
REMARK    2  A    between atoms: C3_3  and  C4_4 
REMARK    3  A    between atoms: N1_8  and  C8_9 
REMARK    4  A    between atoms: C9_11  and  O1_12 
ROOT
HETATM    1  C4  UNL     1      -1.435   0.846   0.548  1.00  0.00     0.037 C 
HETATM    2  C5  UNL     1      -0.313   1.197  -0.376  1.00  0.00     0.037 C 
HETATM    3  C6  UNL     1       1.060   0.915   0.172  1.00  0.00     0.109 C 
HETATM    4  C7  UNL     1       1.963   2.043  -0.253  1.00  0.00     0.034 C 
HETATM    5  N1  UNL     1       1.541  -0.378  -0.276  1.00  0.00    -0.242 N 
HETATM    6  N3  UNL     1       0.990  -1.463  -0.957  1.00  0.00    -0.182 NA
HETATM    7  C11 UNL     1      -0.219  -1.947  -1.035  1.00  0.00     0.150 C 
HETATM    8  C12 UNL     1      -1.542  -1.608  -0.471  1.00  0.00    -0.010 A 
HETATM    9  C13 UNL     1      -2.258  -2.735  -0.727  1.00  0.00     0.015 A 
HETATM   10  C14 UNL     1      -3.565  -2.762  -0.323  1.00  0.00     0.024 A 
HETATM   11  C15 UNL     1      -4.091  -1.659   0.317  1.00  0.00     0.034 A 
HETATM   12 CL1  UNL     1      -5.765  -1.614   0.868  1.00  0.00    -0.084 Cl
HETATM   13  C16 UNL     1      -3.344  -0.528   0.565  1.00  0.00     0.032 A 
HETATM   14  C17 UNL     1      -2.028  -0.485   0.165  1.00  0.00    -0.039 A 
ENDROOT
BRANCH   5  15
HETATM   15  C8  UNL     1       2.903  -0.652   0.034  1.00  0.00     0.192 A 
HETATM   16  N2  UNL     1       3.666  -1.681  -0.208  1.00  0.00    -0.198 NA
HETATM   17  C9  UNL     1       4.917  -1.598   0.237  1.00  0.00     0.171 A 
HETATM   18  C10 UNL     1       5.401  -0.470   0.930  1.00  0.00     0.111 A 
HETATM   19  S1  UNL     1       3.906   0.548   0.930  1.00  0.00    -0.058 SA
BRANCH  17  20
HETATM   20  O1  UNL     1       5.620  -2.779  -0.097  1.00  0.00    -0.344 OA
HETATM   21  H11 UNL     1       5.453  -3.647   0.398  1.00  0.00     0.219 HD
ENDBRANCH  17  20
ENDBRANCH   5  15
BRANCH   1  22
HETATM   22  C3  UNL     1      -2.502   1.834   0.437  1.00  0.00     0.076 C 
BRANCH  22  23
HETATM   23  C2  UNL     1      -2.507   2.901   1.223  1.00  0.00    -0.175 C 
HETATM   24  C1  UNL     1      -2.235   3.908   2.038  1.00  0.00     0.091 C 
ENDBRANCH  22  23
ENDBRANCH   1  22
TORSDOF 4
