REMARK  7 active torsions:
REMARK  status: ('A' for Active; 'I' for Inactive)
REMARK    1  A    between atoms: C5_5  and  C6_6 
REMARK    2  A    between atoms: C7_7  and  C8_8 
REMARK    3  A    between atoms: N2_10  and  C9_11 
REMARK    4  A    between atoms: C9_11  and  S1_12 
REMARK    5  A    between atoms: S1_12  and  C10_13 
REMARK    6  A    between atoms: C11_14  and  O1_15 
REMARK    7  A    between atoms: C12_17  and  C13_18 
ROOT
HETATM    1  C1  UNL     1      -7.749   1.898   0.004  1.00  0.00     0.017 C 
HETATM    2  C2  UNL     1      -6.655   1.403   0.157  1.00  0.00    -0.083 C 
HETATM    3  C3  UNL     1      -5.333   0.830   0.349  1.00  0.00    -0.009 C 
HETATM    4  C4  UNL     1      -5.208  -0.574   0.831  1.00  0.00     0.058 C 
HETATM    5  C5  UNL     1      -4.240   1.536   0.102  1.00  0.00     0.016 C 
ENDROOT
BRANCH   5   6
HETATM    6  C6  UNL     1      -2.921   0.952   0.298  1.00  0.00     0.003 C 
HETATM    7  C7  UNL     1      -1.862   1.672   0.046  1.00  0.00     0.029 C 
BRANCH   7   8
HETATM    8  C8  UNL     1      -0.504   1.115   0.232  1.00  0.00     0.056 C 
HETATM    9  N1  UNL     1       0.604   1.723   0.018  1.00  0.00    -0.181 NA
HETATM   10  N2  UNL     1       1.703   0.907   0.295  1.00  0.00    -0.288 N 
HETATM   11  C12 UNL     1       1.243  -0.299   0.911  1.00  0.00     0.144 C 
HETATM   12  C18 UNL     1      -0.240  -0.271   0.710  1.00  0.00     0.090 C 
BRANCH  10  13
HETATM   13  C9  UNL     1       2.969   1.524  -0.123  1.00  0.00     0.226 C 
BRANCH  13  14
HETATM   14  S1  UNL     1       4.325   0.426   0.273  1.00  0.00    -0.086 SA
BRANCH  14  15
HETATM   15  C10 UNL     1       5.832   1.258  -0.279  1.00  0.00     0.125 A 
HETATM   16  C11 UNL     1       6.874   1.986  -0.735  1.00  0.00     0.175 A 
HETATM   17  N3  UNL     1       7.167   0.726  -0.154  1.00  0.00    -0.326 N 
HETATM   18  H11 UNL     1       8.139   0.335  -0.060  1.00  0.00     0.168 HD
BRANCH  16  19
HETATM   19  O1  UNL     1       6.656   3.240  -1.321  1.00  0.00    -0.344 OA
HETATM   20  H10 UNL     1       6.722   4.116  -0.821  1.00  0.00     0.219 HD
ENDBRANCH  16  19
ENDBRANCH  14  15
ENDBRANCH  13  14
ENDBRANCH  10  13
BRANCH  11  21
HETATM   21  C13 UNL     1       1.759  -1.566   0.274  1.00  0.00     0.175 A 
HETATM   22  C14 UNL     1       1.130  -2.693   1.053  1.00  0.00     0.007 A 
HETATM   23  C15 UNL     1       0.368  -3.676   0.609  1.00  0.00     0.000 A 
HETATM   24  C16 UNL     1       0.111  -3.653  -0.822  1.00  0.00     0.024 A 
HETATM   25  C17 UNL     1       0.614  -2.714  -1.577  1.00  0.00     0.135 A 
HETATM   26  O2  UNL     1       1.404  -1.704  -1.079  1.00  0.00    -0.352 OA
ENDBRANCH  11  21
ENDBRANCH   7   8
ENDBRANCH   5   6
TORSDOF 7
