REMARK  1 active torsions:
REMARK  status: ('A' for Active; 'I' for Inactive)
REMARK    1  A    between atoms: O1_1  and  C1_2 
ROOT
HETATM    1  C1  UNL     1      -3.031  -0.102  -0.713  1.00  0.00     0.146 C 
HETATM    2  C2  UNL     1      -2.877  -1.579  -0.593  1.00  0.00     0.001 C 
HETATM    3  C3  UNL     1      -2.028  -2.640  -0.465  1.00  0.00    -0.022 C 
HETATM    4  C4  UNL     1      -0.544  -2.326  -0.409  1.00  0.00     0.022 C 
HETATM    5  C5  UNL     1       0.604  -3.078  -0.282  1.00  0.00     0.025 C 
HETATM    6  C6  UNL     1       1.952  -2.569  -0.255  1.00  0.00     0.176 C 
HETATM    7  O2  UNL     1       2.216  -1.245  -0.362  1.00  0.00    -0.362 OA
HETATM    8  C7  UNL     1       1.730  -0.509   0.648  1.00  0.00     0.270 C 
HETATM    9  N1  UNL     1       2.113  -0.905   2.003  1.00  0.00    -0.249 NA
HETATM   10  C8  UNL     1       2.107   0.179   2.756  1.00  0.00     0.226 C 
HETATM   11  N2  UNL     1       1.726   1.311   1.931  1.00  0.00    -0.254 N 
HETATM   12  N3  UNL     1       1.108   2.559   1.641  1.00  0.00    -0.176 NA
HETATM   13  C9  UNL     1       0.977   2.734   0.378  1.00  0.00     0.058 C 
HETATM   14  C10 UNL     1       0.341   3.511  -0.690  1.00  0.00     0.049 C 
HETATM   15  C11 UNL     1      -0.718   2.850  -1.096  1.00  0.00     0.019 C 
HETATM   16 CL1  UNL     1      -1.429   3.812  -2.365  1.00  0.00    -0.088 Cl
HETATM   17  C12 UNL     1      -1.652   1.759  -1.025  1.00  0.00     0.047 C 
HETATM   18  C13 UNL     1      -1.841   0.660  -0.254  1.00  0.00     0.036 C 
HETATM   19  C14 UNL     1       1.803   1.766  -0.392  1.00  0.00     0.093 C 
HETATM   20  C15 UNL     1       2.358   0.909   0.683  1.00  0.00     0.167 C 
ENDROOT
BRANCH   1  21
HETATM   21  O1  UNL     1      -4.069   0.303   0.158  1.00  0.00    -0.391 OA
HETATM   22  H1  UNL     1      -4.667   0.964  -0.275  1.00  0.00     0.210 HD
ENDBRANCH   1  21
TORSDOF 1
