REMARK  9 active torsions:
REMARK  status: ('A' for Active; 'I' for Inactive)
REMARK    1  A    between atoms: C2_2  and  C3_3 
REMARK    2  A    between atoms: C3_3  and  C4_4 
REMARK    3  A    between atoms: C4_4  and  C8_9 
REMARK    4  A    between atoms: C5_5  and  C6_6 
REMARK    5  A    between atoms: C8_9  and  C9_10 
REMARK    6  A    between atoms: C8_9  and  N1_16 
REMARK    7  A    between atoms: N1_16  and  O1_17 
REMARK    8  A    between atoms: N1_16  and  C15_18 
REMARK    9  A    between atoms: C16_20  and  O2_21 
ROOT
HETATM    1  C8  UNL     1       0.254   0.137  -0.301  1.00  0.00     0.183 C 
ENDROOT
BRANCH   1   2
HETATM    2  C4  UNL     1      -0.767  -0.791   0.247  1.00  0.00    -0.029 C 
HETATM    3  C5  UNL     1      -0.635  -1.063   1.562  1.00  0.00     0.007 C 
BRANCH   2   4
HETATM    4  C3  UNL     1      -1.924  -1.488  -0.363  1.00  0.00     0.005 C 
BRANCH   4   5
HETATM    5  C2  UNL     1      -2.289  -1.440  -1.614  1.00  0.00    -0.030 C 
HETATM    6  C1  UNL     1      -2.334  -1.113  -3.056  1.00  0.00     0.036 C 
ENDBRANCH   4   5
ENDBRANCH   2   4
BRANCH   3   7
HETATM    7  C6  UNL     1      -1.584  -1.969   2.205  1.00  0.00    -0.004 C 
HETATM    8  C7  UNL     1      -1.765  -2.443   3.422  1.00  0.00     0.259 C 
HETATM    9 CL1  UNL     1      -0.939  -2.227   4.972  1.00  0.00    -0.251 Cl
ENDBRANCH   3   7
ENDBRANCH   1   2
BRANCH   1  10
HETATM   10  C9  UNL     1      -0.353   1.408  -0.817  1.00  0.00    -0.029 A 
HETATM   11  C10 UNL     1      -0.436   1.879  -2.110  1.00  0.00     0.009 A 
HETATM   12  C11 UNL     1      -1.070   3.096  -2.304  1.00  0.00     0.001 A 
HETATM   13  C12 UNL     1      -1.609   3.841  -1.283  1.00  0.00     0.000 A 
HETATM   14  C13 UNL     1      -1.516   3.354   0.011  1.00  0.00     0.001 A 
HETATM   15  C14 UNL     1      -0.890   2.140   0.245  1.00  0.00     0.009 A 
ENDBRANCH   1  10
BRANCH   1  16
HETATM   16  N1  UNL     1       1.222   0.453   0.751  1.00  0.00    -0.223 N 
BRANCH  16  17
HETATM   17  O1  UNL     1       1.251   1.080   1.925  1.00  0.00    -0.284 OA
HETATM   18  H15 UNL     1       1.854   1.854   1.946  1.00  0.00     0.245 HD
ENDBRANCH  16  17
BRANCH  16  19
HETATM   19  C15 UNL     1       2.589  -0.004   0.600  1.00  0.00     0.196 A 
HETATM   20  N2  UNL     1       3.056  -1.063   0.987  1.00  0.00    -0.198 NA
HETATM   21  C16 UNL     1       4.322  -1.397   0.794  1.00  0.00     0.171 A 
HETATM   22  C17 UNL     1       5.214  -0.557   0.132  1.00  0.00     0.111 A 
HETATM   23  S1  UNL     1       4.074   0.863  -0.242  1.00  0.00    -0.058 SA
BRANCH  21  24
HETATM   24  O2  UNL     1       4.762  -2.647   1.283  1.00  0.00    -0.344 OA
HETATM   25  H16 UNL     1       4.470  -3.523   0.872  1.00  0.00     0.219 HD
ENDBRANCH  21  24
ENDBRANCH  16  19
ENDBRANCH   1  16
TORSDOF 9
