REMARK  7 active torsions:
REMARK  status: ('A' for Active; 'I' for Inactive)
REMARK    1  A    between atoms: C2_2  and  N1_3 
REMARK    2  A    between atoms: N1_3  and  C4_5 
REMARK    3  A    between atoms: C4_5  and  C5_6 
REMARK    4  A    between atoms: C5_6  and  O1_7 
REMARK    5  A    between atoms: O1_7  and  C6_8 
REMARK    6  A    between atoms: C6_8  and  C7_9 
REMARK    7  A    between atoms: C7_9  and  C8_10 
ROOT
HETATM    1  C8  UNL     1      -1.009   0.666  -0.902  1.00  0.00     0.148 C 
HETATM    2  C9  UNL     1      -1.475  -0.504  -0.148  1.00  0.00     0.011 C 
HETATM    3  C10 UNL     1      -2.613  -0.172   0.478  1.00  0.00    -0.041 C 
HETATM    4  C11 UNL     1      -3.647  -0.780   1.393  1.00  0.00     0.076 C 
HETATM    5  C12 UNL     1      -4.990  -0.636   0.771  1.00  0.00    -0.040 A 
HETATM    6  C13 UNL     1      -6.011  -1.589   0.846  1.00  0.00     0.008 A 
HETATM    7  C14 UNL     1      -7.245  -1.401   0.250  1.00  0.00     0.001 A 
HETATM    8  C15 UNL     1      -7.514  -0.241  -0.453  1.00  0.00     0.001 A 
HETATM    9  C16 UNL     1      -6.543   0.753  -0.567  1.00  0.00     0.016 A 
HETATM   10  C17 UNL     1      -5.350   0.490   0.050  1.00  0.00     0.019 A 
HETATM   11  C18 UNL     1      -4.311   1.519  -0.059  1.00  0.00     0.193 C 
HETATM   12  O2  UNL     1      -4.566   2.712  -0.305  1.00  0.00    -0.289 OA
HETATM   13  C19 UNL     1      -2.847   1.233   0.113  1.00  0.00     0.226 C 
HETATM   14  O3  UNL     1      -2.159   1.430  -1.074  1.00  0.00    -0.364 OA
ENDROOT
BRANCH   1  15
HETATM   15  C7  UNL     1      -0.034   1.453  -0.066  1.00  0.00     0.062 C 
BRANCH  15  16
HETATM   16  C6  UNL     1       1.182   0.588   0.308  1.00  0.00     0.170 C 
BRANCH  16  17
HETATM   17  O1  UNL     1       1.783   0.172  -0.843  1.00  0.00    -0.389 OA
BRANCH  17  18
HETATM   18  C5  UNL     1       2.886  -0.639  -0.730  1.00  0.00     0.187 C 
BRANCH  18  19
HETATM   19  C4  UNL     1       3.979   0.060   0.012  1.00  0.00     0.142 C 
BRANCH  19  20
HETATM   20  N1  UNL     1       5.163  -0.707   0.170  1.00  0.00    -0.415 N 
HETATM   21  C3  UNL     1       5.860  -0.582   1.400  1.00  0.00     0.143 C 
BRANCH  20  22
HETATM   22  C2  UNL     1       5.923  -0.993  -0.989  1.00  0.00     0.112 C 
HETATM   23  C1  UNL     1       6.794   0.198  -1.331  1.00  0.00     0.026 C 
ENDBRANCH  20  22
ENDBRANCH  19  20
ENDBRANCH  18  19
ENDBRANCH  17  18
ENDBRANCH  16  17
ENDBRANCH  15  16
ENDBRANCH   1  15
TORSDOF 7
