REMARK  3 active torsions:
REMARK  status: ('A' for Active; 'I' for Inactive)
REMARK    1  A    between atoms: O1_1  and  C1_2 
REMARK    2  A    between atoms: C3_5  and  N1_6 
REMARK    3  A    between atoms: C4_8  and  C5_9 
ROOT
HETATM    1  N1  UNL     1      -1.074   0.188   0.019  1.00  0.00    -0.228 N 
HETATM    2  N2  UNL     1      -0.096  -0.708  -0.424  1.00  0.00    -0.173 NA
HETATM    3  C4  UNL     1       1.051  -0.311   0.069  1.00  0.00     0.068 C 
HETATM    4  C11 UNL     1       0.895   0.918   0.899  1.00  0.00     0.103 C 
HETATM    5  C12 UNL     1      -0.496   1.380   0.528  1.00  0.00     0.099 A 
HETATM    6  C13 UNL     1      -0.413   2.475  -0.469  1.00  0.00     0.011 A 
HETATM    7  C14 UNL     1      -0.989   3.574   0.005  1.00  0.00    -0.001 A 
HETATM    8  C15 UNL     1      -1.498   3.291   1.351  1.00  0.00    -0.001 A 
HETATM    9  C16 UNL     1      -1.211   2.021   1.649  1.00  0.00     0.011 A 
ENDROOT
BRANCH   1  10
HETATM   10  C3  UNL     1      -2.448  -0.216  -0.103  1.00  0.00     0.193 A 
HETATM   11  S1  UNL     1      -3.722   1.007   0.500  1.00  0.00    -0.058 SA
HETATM   12  C2  UNL     1      -5.112  -0.047   0.089  1.00  0.00     0.111 A 
HETATM   13  C1  UNL     1      -4.410  -1.216  -0.465  1.00  0.00     0.171 A 
HETATM   14  N3  UNL     1      -3.093  -1.152  -0.494  1.00  0.00    -0.198 NA
BRANCH  13  15
HETATM   15  O1  UNL     1      -4.935  -2.422  -0.983  1.00  0.00    -0.344 OA
HETATM   16  H1  UNL     1      -5.193  -3.136  -0.290  1.00  0.00     0.219 HD
ENDBRANCH  13  15
ENDBRANCH   1  10
BRANCH   3  17
HETATM   17  C5  UNL     1       2.316  -1.027  -0.195  1.00  0.00    -0.010 A 
HETATM   18  C6  UNL     1       2.257  -2.154  -0.994  1.00  0.00     0.015 A 
HETATM   19  C7  UNL     1       3.443  -2.844  -1.254  1.00  0.00     0.024 A 
HETATM   20  C8  UNL     1       4.640  -2.382  -0.707  1.00  0.00     0.034 A 
HETATM   21 CL1  UNL     1       6.167  -3.212  -1.000  1.00  0.00    -0.084 Cl
HETATM   22  C9  UNL     1       4.639  -1.240   0.092  1.00  0.00     0.024 A 
HETATM   23  C10 UNL     1       3.483  -0.544   0.362  1.00  0.00     0.015 A 
ENDBRANCH   3  17
TORSDOF 3
