REMARK  5 active torsions:
REMARK  status: ('A' for Active; 'I' for Inactive)
REMARK    1  A    between atoms: N1_1  and  O1_2 
REMARK    2  A    between atoms: O1_2  and  C1_3 
REMARK    3  A    between atoms: C9_13  and  C10_14 
REMARK    4  A    between atoms: C10_14  and  C11_15 
REMARK    5  A    between atoms: C11_15  and  C12_17 
ROOT
HETATM    1  C1  UNL     1       2.494  -2.122   0.289  1.00  0.00     0.211 C 
HETATM    2  C2  UNL     1       2.576  -1.556  -0.902  1.00  0.00     0.111 C 
HETATM    3  S1  UNL     1       2.485   0.067  -1.596  1.00  0.00    -0.097 SA
HETATM    4  C3  UNL     1       2.082   1.323  -0.393  1.00  0.00     0.016 A 
HETATM    5  C4  UNL     1       2.625   2.511  -0.861  1.00  0.00     0.061 A 
HETATM    6  C5  UNL     1       2.484   3.679  -0.149  1.00  0.00     0.117 A 
HETATM    7  F1  UNL     1       3.000   4.864  -0.573  1.00  0.00    -0.206 F 
HETATM    8  C6  UNL     1       1.791   3.704   1.065  1.00  0.00     0.043 A 
HETATM    9  C7  UNL     1       1.271   2.489   1.482  1.00  0.00     0.014 A 
HETATM   10  C8  UNL     1       1.389   1.294   0.800  1.00  0.00    -0.014 A 
HETATM   11  C9  UNL     1       0.701   0.273   1.587  1.00  0.00     0.171 C 
HETATM   12  N3  UNL     1       1.584  -0.744   2.109  1.00  0.00    -0.180 NA
HETATM   13  N4  UNL     1       2.286  -1.679   1.623  1.00  0.00    -0.127 NA
ENDROOT
BRANCH  11  14
HETATM   14  C10 UNL     1      -0.428  -0.406   0.894  1.00  0.00     0.093 C 
BRANCH  14  15
HETATM   15  C11 UNL     1      -1.524   0.487   0.462  1.00  0.00     0.038 C 
HETATM   16  N2  UNL     1      -1.348   1.734   0.746  1.00  0.00    -0.304 NA
HETATM   17  H10 UNL     1      -2.099   2.398   0.458  1.00  0.00     0.186 HD
BRANCH  15  18
HETATM   18  C12 UNL     1      -2.663  -0.110  -0.224  1.00  0.00    -0.012 A 
HETATM   19  C13 UNL     1      -2.741  -1.469  -0.475  1.00  0.00     0.015 A 
HETATM   20  C14 UNL     1      -3.837  -1.988  -1.125  1.00  0.00     0.024 A 
HETATM   21  C15 UNL     1      -4.895  -1.214  -1.557  1.00  0.00     0.034 A 
HETATM   22 CL1  UNL     1      -6.200  -2.053  -2.366  1.00  0.00    -0.084 Cl
HETATM   23  C16 UNL     1      -4.832   0.137  -1.315  1.00  0.00     0.024 A 
HETATM   24  C17 UNL     1      -3.728   0.645  -0.662  1.00  0.00     0.015 A 
ENDBRANCH  15  18
ENDBRANCH  14  15
ENDBRANCH  11  14
BRANCH   1  25
HETATM   25  O1  UNL     1       2.673  -3.493   0.023  1.00  0.00    -0.244 OA
BRANCH  25  26
HETATM   26  N1  UNL     1       3.893  -4.065   0.226  1.00  0.00    -0.207 NA
HETATM   27  H1  UNL     1       4.635  -3.354   0.367  1.00  0.00     0.151 HD
HETATM   28  H2  UNL     1       3.852  -4.754   1.005  1.00  0.00     0.151 HD
ENDBRANCH  25  26
ENDBRANCH   1  25
TORSDOF 5
