REMARK  2 active torsions:
REMARK  status: ('A' for Active; 'I' for Inactive)
REMARK    1  A    between atoms: N2_9  and  C8_10 
REMARK    2  A    between atoms: C9_12  and  O1_13 
ROOT
HETATM    1  C1  UNL     1      -3.360   3.055  -0.225  1.00  0.00     0.022 C 
HETATM    2  C2  UNL     1      -2.442   2.148  -0.177  1.00  0.00    -0.023 C 
HETATM    3  C3  UNL     1      -0.924   2.427  -0.045  1.00  0.00     0.008 C 
HETATM    4  C4  UNL     1       0.224   1.645   0.064  1.00  0.00     0.001 C 
HETATM    5  C5  UNL     1       0.656   0.322   0.116  1.00  0.00     0.141 C 
HETATM    6  C6  UNL     1       0.735  -0.377   1.514  1.00  0.00     0.092 C 
HETATM    7  C7  UNL     1       0.580  -1.719   0.813  1.00  0.00     0.057 C 
HETATM    8  N1  UNL     1       1.706  -1.552   0.205  1.00  0.00    -0.174 NA
HETATM    9  N2  UNL     1       1.907  -0.205  -0.271  1.00  0.00    -0.237 N 
HETATM   10  C11 UNL     1      -0.511  -2.661   0.890  1.00  0.00     0.025 C 
HETATM   11  C12 UNL     1      -1.681  -3.179   0.833  1.00  0.00    -0.015 C 
HETATM   12  C13 UNL     1      -3.085  -2.925   0.515  1.00  0.00     0.123 A 
HETATM   13  C14 UNL     1      -4.322  -2.499   0.178  1.00  0.00     0.051 A 
HETATM   14 CL1  UNL     1      -5.594  -1.462  -0.337  1.00  0.00    -0.190 Cl
HETATM   15  C15 UNL     1      -3.603  -1.330   0.005  1.00  0.00     0.102 A 
HETATM   16  C16 UNL     1      -3.001  -0.388  -0.128  1.00  0.00    -0.115 C 
HETATM   17  C17 UNL     1      -2.240   0.754  -0.284  1.00  0.00     0.271 C 
HETATM   18  F1  UNL     1      -1.652   0.531  -1.596  1.00  0.00    -0.232 F 
ENDROOT
BRANCH   9  19
HETATM   19  C8  UNL     1       3.107   0.217  -0.915  1.00  0.00     0.192 A 
HETATM   20  N3  UNL     1       4.188  -0.244  -1.249  1.00  0.00    -0.198 NA
HETATM   21  C9  UNL     1       5.092   0.504  -1.864  1.00  0.00     0.171 A 
HETATM   22  C10 UNL     1       4.773   1.896  -2.138  1.00  0.00     0.111 A 
HETATM   23  S1  UNL     1       3.081   1.965  -1.422  1.00  0.00    -0.058 SA
BRANCH  21  24
HETATM   24  O1  UNL     1       6.272  -0.213  -2.165  1.00  0.00    -0.344 OA
HETATM   25  H8  UNL     1       6.884   0.080  -2.917  1.00  0.00     0.219 HD
ENDBRANCH  21  24
ENDBRANCH   9  19
TORSDOF 2
