REMARK  4 active torsions:
REMARK  status: ('A' for Active; 'I' for Inactive)
REMARK    1  A    between atoms: N1_1  and  C1_2 
REMARK    2  A    between atoms: C3_5  and  N2_6 
REMARK    3  A    between atoms: C4_8  and  C5_9 
REMARK    4  A    between atoms: C12_17  and  C13_18 
ROOT
HETATM    1  N2  UNL     1      -0.354   0.432   0.598  1.00  0.00    -0.236 N 
HETATM    2  N3  UNL     1       1.028   0.496   0.762  1.00  0.00    -0.173 NA
HETATM    3  C4  UNL     1       1.684  -0.375   0.076  1.00  0.00     0.067 C 
HETATM    4  C11 UNL     1       0.629  -1.159  -0.639  1.00  0.00     0.094 C 
HETATM    5  C12 UNL     1      -0.521  -0.981   0.368  1.00  0.00     0.151 C 
ENDROOT
BRANCH   1   6
HETATM    6  C3  UNL     1      -1.143   1.657   0.678  1.00  0.00     0.192 A 
HETATM    7  S1  UNL     1      -2.116   2.363   2.136  1.00  0.00    -0.059 SA
HETATM    8  C2  UNL     1      -2.616   3.829   1.044  1.00  0.00     0.103 A 
HETATM    9  C1  UNL     1      -2.003   3.561  -0.167  1.00  0.00     0.130 A 
HETATM   10  N4  UNL     1      -1.354   2.445  -0.064  1.00  0.00    -0.205 NA
BRANCH   9  11
HETATM   11  N1  UNL     1      -2.157   4.480  -1.249  1.00  0.00    -0.384 N 
HETATM   12  H1  UNL     1      -3.064   4.458  -1.761  1.00  0.00     0.157 HD
HETATM   13  H2  UNL     1      -1.294   5.090  -1.401  1.00  0.00     0.157 HD
ENDBRANCH   9  11
ENDBRANCH   1   6
BRANCH   5  14
HETATM   14  C13 UNL     1      -1.777  -1.430  -0.173  1.00  0.00    -0.033 A 
HETATM   15  C14 UNL     1      -2.101  -2.165  -1.325  1.00  0.00     0.009 A 
HETATM   16  C15 UNL     1      -3.429  -2.440  -1.484  1.00  0.00     0.001 A 
HETATM   17  C16 UNL     1      -4.489  -2.101  -0.681  1.00  0.00     0.000 A 
HETATM   18  C17 UNL     1      -4.153  -1.374   0.454  1.00  0.00     0.001 A 
HETATM   19  C18 UNL     1      -2.809  -1.048   0.694  1.00  0.00     0.009 A 
ENDBRANCH   5  14
BRANCH   3  20
HETATM   20  C5  UNL     1       3.160  -0.446   0.132  1.00  0.00    -0.010 A 
HETATM   21  C6  UNL     1       3.717  -1.422  -0.653  1.00  0.00     0.015 A 
HETATM   22  C7  UNL     1       5.107  -1.594  -0.679  1.00  0.00     0.024 A 
HETATM   23  C8  UNL     1       5.827  -0.731   0.120  1.00  0.00     0.034 A 
HETATM   24 CL1  UNL     1       7.569  -0.830   0.195  1.00  0.00    -0.084 Cl
HETATM   25  C9  UNL     1       5.286   0.248   0.907  1.00  0.00     0.024 A 
HETATM   26  C10 UNL     1       3.894   0.407   0.923  1.00  0.00     0.015 A 
ENDBRANCH   3  20
TORSDOF 4
