REMARK  2 active torsions:
REMARK  status: ('A' for Active; 'I' for Inactive)
REMARK    1  A    between atoms: C8_8  and  C9_9 
REMARK    2  A    between atoms: C15_19  and  O1_20 
ROOT
HETATM    1  C1  UNL     1      -1.290  -2.792   1.315  1.00  0.00     0.044 C 
HETATM    2  C2  UNL     1      -0.875  -1.653   0.453  1.00  0.00    -0.074 C 
HETATM    3  C3  UNL     1      -1.203  -1.850  -0.836  1.00  0.00     0.003 C 
HETATM    4  C4  UNL     1      -1.277  -0.730  -1.798  1.00  0.00    -0.002 C 
HETATM    5  C5  UNL     1      -1.313   0.611  -1.689  1.00  0.00     0.002 C 
HETATM    6  C6  UNL     1      -1.142   1.197  -0.341  1.00  0.00     0.152 C 
HETATM    7  C7  UNL     1       0.123   0.620   0.341  1.00  0.00     0.082 C 
HETATM    8  C8  UNL     1       0.933   0.730  -0.835  1.00  0.00     0.069 C 
HETATM    9  N1  UNL     1       0.557   1.905  -1.331  1.00  0.00    -0.169 NA
HETATM   10  N2  UNL     1      -0.462   2.472  -0.498  1.00  0.00    -0.229 N 
HETATM   11  S1  UNL     1      -1.339   3.745   0.425  1.00  0.00    -0.001 SA
HETATM   12  C14 UNL     1      -1.656   3.133   2.109  1.00  0.00     0.127 C 
HETATM   13  C15 UNL     1      -1.697   2.286   3.137  1.00  0.00     0.169 C 
HETATM   14  N3  UNL     1      -1.155   1.296   2.416  1.00  0.00    -0.240 NA
HETATM   15  C16 UNL     1      -1.102   0.088   2.194  1.00  0.00     0.102 C 
HETATM   16  C17 UNL     1      -0.194  -0.530   1.126  1.00  0.00     0.067 C 
ENDROOT
BRANCH   8  17
HETATM   17  C9  UNL     1       1.938  -0.120  -1.456  1.00  0.00    -0.026 A 
HETATM   18  C10 UNL     1       2.343  -1.276  -1.013  1.00  0.00     0.011 A 
HETATM   19  C11 UNL     1       3.363  -1.835  -1.903  1.00  0.00     0.020 A 
HETATM   20  C12 UNL     1       3.574  -0.999  -2.900  1.00  0.00     0.016 A 
HETATM   21 CL1  UNL     1       4.600  -0.944  -4.320  1.00  0.00    -0.089 Cl
HETATM   22  C13 UNL     1       2.692   0.158  -2.707  1.00  0.00     0.091 A 
ENDBRANCH   8  17
BRANCH  13  23
HETATM   23  O1  UNL     1      -2.019   2.006   4.485  1.00  0.00    -0.344 OA
HETATM   24  H14 UNL     1      -1.456   2.543   5.165  1.00  0.00     0.219 HD
ENDBRANCH  13  23
TORSDOF 2
