REMARK  3 active torsions:
REMARK  status: ('A' for Active; 'I' for Inactive)
REMARK    1  A    between atoms: C5_5  and  O1_6 
REMARK    2  A    between atoms: C7_8  and  N1_9 
REMARK    3  A    between atoms: C15_20  and  N4_21 
ROOT
HETATM    1  N1  UNL     1       0.872  -0.071   0.119  1.00  0.00    -0.261 N 
HETATM    2  C8  UNL     1       0.036  -1.067  -0.223  1.00  0.00     0.261 A 
HETATM    3  O2  UNL     1       0.465  -2.171  -0.646  1.00  0.00    -0.267 OA
HETATM    4  C9  UNL     1      -1.320  -0.865  -0.105  1.00  0.00     0.020 A 
HETATM    5  C10 UNL     1      -1.925   0.294   0.343  1.00  0.00     0.002 A 
HETATM    6  C11 UNL     1      -1.014   1.275   0.678  1.00  0.00     0.037 A 
HETATM    7  C12 UNL     1      -1.343   2.526   1.155  1.00  0.00     0.134 A 
HETATM    8  N2  UNL     1      -0.425   3.455   1.472  1.00  0.00    -0.253 NA
HETATM    9  C13 UNL     1       0.891   3.208   1.338  1.00  0.00     0.234 A 
HETATM   10  N3  UNL     1       1.286   2.007   0.878  1.00  0.00    -0.223 NA
HETATM   11  C14 UNL     1       0.351   1.086   0.564  1.00  0.00     0.151 A 
HETATM   12  C15 UNL     1      -3.341   0.614   0.502  1.00  0.00     0.252 C 
HETATM   13  C16 UNL     1      -4.167  -0.546   0.001  1.00  0.00     0.041 C 
HETATM   14  C17 UNL     1      -3.551  -1.884   0.233  1.00  0.00     0.007 C 
HETATM   15  C18 UNL     1      -2.219  -1.996  -0.485  1.00  0.00     0.045 C 
ENDROOT
BRANCH   1  16
HETATM   16  C7  UNL     1       2.259  -0.339  -0.025  1.00  0.00     0.053 A 
HETATM   17  C2  UNL     1       2.899  -0.560  -1.228  1.00  0.00    -0.034 A 
HETATM   18  C1  UNL     1       2.098  -0.518  -2.464  1.00  0.00     0.050 C 
HETATM   19  C3  UNL     1       4.254  -0.815  -1.278  1.00  0.00     0.012 A 
HETATM   20  C4  UNL     1       4.953  -0.843  -0.090  1.00  0.00     0.037 A 
HETATM   21  C5  UNL     1       4.325  -0.622   1.137  1.00  0.00     0.067 A 
HETATM   22  C6  UNL     1       2.961  -0.367   1.172  1.00  0.00     0.067 A 
BRANCH  21  23
HETATM   23  O1  UNL     1       5.027  -0.649   2.343  1.00  0.00    -0.361 OA
HETATM   24  H6  UNL     1       5.575   0.197   2.557  1.00  0.00     0.217 HD
ENDBRANCH  21  23
ENDBRANCH   1  16
BRANCH  12  25
HETATM   25  N4  UNL     1      -3.759   1.749  -0.310  1.00  0.00     0.087 N 
HETATM   26  H11 UNL     1      -3.800   1.485  -1.306  1.00  0.00     0.313 HD
HETATM   27  H12 UNL     1      -4.684   2.054   0.094  1.00  0.00     0.313 HD
ENDBRANCH  12  25
TORSDOF 3
