REMARK  7 active torsions:
REMARK  status: ('A' for Active; 'I' for Inactive)
REMARK       I    between atoms: N1_2  and  C2_3 
REMARK    1  A    between atoms: C2_3  and  C3_5 
REMARK    2  A    between atoms: C10_13  and  S1_14 
REMARK    3  A    between atoms: S1_14  and  N3_17 
REMARK    4  A    between atoms: N3_17  and  C11_18 
REMARK    5  A    between atoms: C12_19  and  C13_20 
REMARK    6  A    between atoms: C14_21  and  C15_22 
REMARK    7  A    between atoms: C17_26  and  N5_27 
ROOT
HETATM    1  C3  UNL     1      -2.257   0.396  -0.282  1.00  0.00     0.158 C 
HETATM    2  N2  UNL     1      -2.449  -0.152  -1.432  1.00  0.00    -0.280 NA
HETATM    3  C4  UNL     1      -1.930  -1.488  -1.810  1.00  0.00     0.166 C 
HETATM    4  C5  UNL     1      -1.051  -1.867  -0.641  1.00  0.00     0.029 A 
HETATM    5  C6  UNL     1      -1.819  -2.661   0.109  1.00  0.00     0.035 A 
HETATM    6  C7  UNL     1      -1.660  -2.909   1.434  1.00  0.00    -0.034 A 
HETATM    7  C8  UNL     1      -0.671  -2.052   1.076  1.00  0.00     0.011 A 
HETATM    8  C9  UNL     1       0.112  -1.246   0.314  1.00  0.00     0.059 A 
HETATM    9  C10 UNL     1      -0.067  -1.023  -1.002  1.00  0.00     0.053 A 
HETATM   10  C16 UNL     1      -0.274  -1.268   2.315  1.00  0.00     0.165 C 
HETATM   11  N4  UNL     1      -1.024   0.011   2.188  1.00  0.00    -0.275 NA
HETATM   12  C17 UNL     1      -1.648   0.304   1.067  1.00  0.00     0.129 C 
ENDROOT
BRANCH   9  13
HETATM   13  S1  UNL     1       0.535  -0.216  -2.408  1.00  0.00     0.256 S 
HETATM   14  O2  UNL     1      -0.473   0.698  -3.030  1.00  0.00    -0.201 OA
HETATM   15  O3  UNL     1       0.928  -1.206  -3.483  1.00  0.00    -0.201 OA
BRANCH  13  16
HETATM   16  N3  UNL     1       1.937   0.734  -1.995  1.00  0.00    -0.292 N 
HETATM   17  H10 UNL     1       1.917   1.793  -2.129  1.00  0.00     0.178 HD
BRANCH  16  18
HETATM   18  C11 UNL     1       3.106   0.119  -1.482  1.00  0.00     0.100 C 
HETATM   19  C12 UNL     1       3.919  -0.228  -0.525  1.00  0.00     0.017 C 
BRANCH  19  20
HETATM   20  C13 UNL     1       3.768   0.047   0.880  1.00  0.00    -0.000 C 
HETATM   21  C14 UNL     1       4.529  -0.262   1.914  1.00  0.00     0.004 C 
BRANCH  21  22
HETATM   22  C15 UNL     1       5.807  -0.992   2.077  1.00  0.00     0.249 C 
HETATM   23  F1  UNL     1       6.245  -1.409   0.826  1.00  0.00    -0.251 F 
ENDBRANCH  21  22
ENDBRANCH  19  20
ENDBRANCH  16  18
ENDBRANCH  13  16
ENDBRANCH   9  13
BRANCH   1  24
HETATM   24  C2  UNL     1      -3.003   1.556  -0.682  1.00  0.00     0.272 C 
HETATM   25  N1  UNL     1      -3.375   2.796  -0.124  1.00  0.00    -0.360 N 
HETATM   26  C1  UNL     1      -4.142   3.913  -0.594  1.00  0.00     0.149 C 
HETATM   27  H4  UNL     1      -3.030   2.979   0.819  1.00  0.00     0.162 HD
HETATM   28  O1  UNL     1      -3.614   1.837  -1.772  1.00  0.00    -0.266 OA
ENDBRANCH   1  24
BRANCH  12  29
HETATM   29  N5  UNL     1      -1.977   1.354   2.006  1.00  0.00    -0.285 NA
HETATM   30  H19 UNL     1      -2.420   1.958   2.769  1.00  0.00     0.125 HD
HETATM   31  H20 UNL     1      -2.564   1.806   2.784  1.00  0.00     0.125 HD
ENDBRANCH  12  29
TORSDOF 7
