REMARK  0 active torsions:
REMARK  status: ('A' for Active; 'I' for Inactive)
ROOT
HETATM    1  F1  UNL     1      -4.348   2.422   2.202  1.00  0.00    -0.206 F 
HETATM    2  C1  UNL     1      -3.244   1.879   1.655  1.00  0.00     0.117 A 
HETATM    3  C2  UNL     1      -1.973   2.197   2.070  1.00  0.00     0.043 A 
HETATM    4  C3  UNL     1      -0.881   1.607   1.470  1.00  0.00     0.013 A 
HETATM    5  C4  UNL     1      -1.027   0.674   0.431  1.00  0.00    -0.014 A 
HETATM    6  C5  UNL     1      -2.390   0.425   0.084  1.00  0.00    -0.016 A 
HETATM    7  C6  UNL     1      -3.517   1.005   0.672  1.00  0.00     0.054 A 
HETATM    8  C7  UNL     1      -2.930  -0.489  -1.002  1.00  0.00    -0.015 C 
HETATM    9  C8  UNL     1      -2.493  -0.668  -2.278  1.00  0.00     0.065 C 
HETATM   10  S1  UNL     1      -1.348  -1.986  -1.608  1.00  0.00    -0.049 SA
HETATM   11  N1  UNL     1      -1.753  -1.957   0.026  1.00  0.00    -0.030 NA
HETATM   12  O1  UNL     1      -3.130  -2.357   0.133  1.00  0.00    -0.271 OA
HETATM   13  C9  UNL     1      -4.030  -1.157  -0.199  1.00  0.00     0.236 C 
HETATM   14  C10 UNL     1       0.478  -1.659  -1.330  1.00  0.00     0.361 C 
HETATM   15  N2  UNL     1       0.863  -0.377  -0.891  1.00  0.00     0.116 NA
HETATM   16  C11 UNL     1       2.246  -0.618  -0.429  1.00  0.00     0.259 A 
HETATM   17  C12 UNL     1       3.277  -0.516  -1.475  1.00  0.00     0.091 A 
HETATM   18  C13 UNL     1       4.370   0.374  -0.986  1.00  0.00     0.014 A 
HETATM   19 CL1  UNL     1       5.693   0.533  -2.146  1.00  0.00    -0.089 Cl
HETATM   20  C14 UNL     1       4.511   1.045   0.135  1.00  0.00     0.020 A 
HETATM   21  C15 UNL     1       3.468   0.957   1.132  1.00  0.00     0.006 A 
HETATM   22  C16 UNL     1       2.465   0.179   0.795  1.00  0.00    -0.044 A 
HETATM   23  C17 UNL     1       1.124  -0.262   1.332  1.00  0.00     0.077 C 
HETATM   24  C18 UNL     1       0.320   0.329   0.142  1.00  0.00     0.262 C 
ENDROOT
TORSDOF 0
