REMARK  2 active torsions:
REMARK  status: ('A' for Active; 'I' for Inactive)
REMARK    1  A    between atoms: O1_1  and  C1_2 
REMARK    2  A    between atoms: C3_5  and  N1_6 
ROOT
HETATM    1  N1  UNL     1       1.610   0.192  -0.563  1.00  0.00    -0.236 N 
HETATM    2  N2  UNL     1       1.558   1.625  -0.626  1.00  0.00    -0.174 NA
HETATM    3  C4  UNL     1       0.607   2.204  -0.014  1.00  0.00     0.057 C 
HETATM    4  C5  UNL     1      -0.470   3.063   0.557  1.00  0.00     0.030 C 
HETATM    5  C6  UNL     1      -1.752   2.958   0.643  1.00  0.00     0.025 C 
HETATM    6  C7  UNL     1      -3.086   2.426   0.503  1.00  0.00     0.030 C 
HETATM    7 CL1  UNL     1      -4.482   3.264   1.193  1.00  0.00    -0.085 Cl
HETATM    8  C8  UNL     1      -3.509   1.301  -0.115  1.00  0.00     0.002 C 
HETATM    9  C9  UNL     1      -2.471   0.519  -0.754  1.00  0.00     0.068 C 
HETATM   10  C10 UNL     1      -1.954  -0.719  -0.181  1.00  0.00    -0.043 A 
HETATM   11  C11 UNL     1      -2.906  -1.669   0.112  1.00  0.00     0.050 A 
HETATM   12  C12 UNL     1      -2.541  -2.891   0.641  1.00  0.00     0.117 A 
HETATM   13  F1  UNL     1      -3.494  -3.818   0.922  1.00  0.00    -0.206 F 
HETATM   14  C13 UNL     1      -1.236  -3.242   0.909  1.00  0.00     0.043 A 
HETATM   15  C14 UNL     1      -0.330  -2.252   0.596  1.00  0.00     0.013 A 
HETATM   16  C15 UNL     1      -0.566  -1.003   0.068  1.00  0.00    -0.026 A 
HETATM   17  C16 UNL     1       0.265   0.079  -0.261  1.00  0.00     0.152 C 
HETATM   18  C17 UNL     1       0.373   1.089   0.923  1.00  0.00     0.093 C 
ENDROOT
BRANCH   1  19
HETATM   19  C3  UNL     1       2.907  -0.357  -0.827  1.00  0.00     0.192 A 
HETATM   20  S1  UNL     1       3.055  -2.144  -0.847  1.00  0.00    -0.058 SA
HETATM   21  C2  UNL     1       4.908  -2.097  -1.228  1.00  0.00     0.111 A 
HETATM   22  C1  UNL     1       5.062  -0.669  -1.268  1.00  0.00     0.171 A 
HETATM   23  N3  UNL     1       4.022   0.095  -1.059  1.00  0.00    -0.198 NA
BRANCH  22  24
HETATM   24  O1  UNL     1       6.275   0.004  -1.521  1.00  0.00    -0.344 OA
HETATM   25  H1  UNL     1       6.839   0.368  -0.770  1.00  0.00     0.219 HD
ENDBRANCH  22  24
ENDBRANCH   1  19
TORSDOF 2
