REMARK  1 active torsions:
REMARK  status: ('A' for Active; 'I' for Inactive)
REMARK    1  A    between atoms: C3_4  and  C4_5 
ROOT
HETATM    1  C4  UNL     1      -0.379  -0.853  -0.184  1.00  0.00     0.124 C 
HETATM    2  C5  UNL     1      -0.078  -1.029  -1.611  1.00  0.00     0.087 C 
HETATM    3  C6  UNL     1       1.240  -0.656  -2.126  1.00  0.00     0.043 C 
HETATM    4  N1  UNL     1       1.628   0.482  -2.660  1.00  0.00    -0.136 NA
HETATM    5  O1  UNL     1       1.247   1.787  -2.325  1.00  0.00    -0.203 OA
HETATM    6  C7  UNL     1       0.877   2.356  -0.997  1.00  0.00     0.173 A 
HETATM    7  S1  UNL     1       1.036   3.943  -0.740  1.00  0.00    -0.148 SA
HETATM    8  C8  UNL     1       0.394   3.875   1.089  1.00  0.00     0.218 A 
HETATM    9  N2  UNL     1       0.161   2.504   1.145  1.00  0.00    -0.260 NA
HETATM   10  C9  UNL     1       0.364   1.727   0.202  1.00  0.00     0.165 A 
HETATM   11  N3  UNL     1       0.043   0.335   0.487  1.00  0.00    -0.349 N 
HETATM   12  C10 UNL     1       0.231   0.215   1.948  1.00  0.00     0.176 C 
HETATM   13  C11 UNL     1       1.367  -0.676   2.203  1.00  0.00     0.029 C 
HETATM   14 CL2  UNL     1       1.372  -0.632   3.996  1.00  0.00    -0.087 Cl
HETATM   15  C12 UNL     1       2.385  -1.486   1.996  1.00  0.00     0.017 C 
HETATM   16  C13 UNL     1       2.856  -1.896   0.648  1.00  0.00    -0.020 C 
HETATM   17  C14 UNL     1       2.755  -1.850  -0.682  1.00  0.00     0.021 C 
HETATM   18  C15 UNL     1       2.415  -1.615  -2.105  1.00  0.00     0.066 C 
HETATM   19  H5  UNL     1       1.513   4.868  -1.515  1.00  0.00     0.100 HD
ENDROOT
BRANCH   1  20
HETATM   20  C3  UNL     1      -1.901  -0.860  -0.067  1.00  0.00    -0.037 A 
HETATM   21  C2  UNL     1      -2.687   0.128  -0.762  1.00  0.00     0.028 A 
HETATM   22  C1  UNL     1      -3.969  -0.043  -0.537  1.00  0.00     0.015 A 
HETATM   23 CL1  UNL     1      -5.422   0.773  -1.051  1.00  0.00    -0.089 Cl
HETATM   24  C17 UNL     1      -4.110  -1.207   0.360  1.00  0.00     0.079 A 
HETATM   25  C16 UNL     1      -2.732  -1.658   0.602  1.00  0.00    -0.012 A 
ENDBRANCH   1  20
TORSDOF 1
