REMARK  7 active torsions:
REMARK  status: ('A' for Active; 'I' for Inactive)
REMARK    1  A    between atoms: C3_3  and  C4_5 
REMARK    2  A    between atoms: C4_5  and  C5_6 
REMARK    3  A    between atoms: C5_6  and  N1_7 
REMARK    4  A    between atoms: N1_7  and  C6_8 
REMARK    5  A    between atoms: N3_10  and  C7_11 
REMARK    6  A    between atoms: C8_13  and  O1_14 
REMARK    7  A    between atoms: C10_17  and  C11_18 
ROOT
HETATM    1  C1  UNL     1       7.390   0.978   0.938  1.00  0.00     0.098 C 
HETATM    2  C2  UNL     1       6.324   1.264   0.228  1.00  0.00    -0.131 C 
HETATM    3  C3  UNL     1       5.328   1.748  -0.481  1.00  0.00     0.076 C 
HETATM    4 CL1  UNL     1       5.312   3.431  -0.871  1.00  0.00    -0.075 Cl
ENDROOT
BRANCH   3   5
HETATM    5  C4  UNL     1       4.400   0.693  -0.802  1.00  0.00     0.049 C 
BRANCH   5   6
HETATM    6  C5  UNL     1       3.782   0.033   0.136  1.00  0.00     0.092 C 
BRANCH   6   7
HETATM    7  N1  UNL     1       2.841  -1.017   0.321  1.00  0.00    -0.353 N 
HETATM    8  H5  UNL     1       3.077  -1.995   0.615  1.00  0.00     0.166 HD
BRANCH   7   9
HETATM    9  C6  UNL     1       1.432  -0.797   0.105  1.00  0.00     0.126 C 
HETATM   10  N2  UNL     1       0.981   0.314  -0.379  1.00  0.00    -0.156 NA
HETATM   11  N3  UNL     1      -0.411   0.269  -0.487  1.00  0.00    -0.235 N 
HETATM   12  C10 UNL     1      -0.766  -1.132  -0.523  1.00  0.00     0.152 C 
HETATM   13  C17 UNL     1       0.301  -1.725   0.374  1.00  0.00     0.112 C 
BRANCH  11  14
HETATM   14  C7  UNL     1      -1.417   1.236  -0.560  1.00  0.00     0.192 A 
HETATM   15  N4  UNL     1      -2.659   1.328  -0.656  1.00  0.00    -0.198 NA
HETATM   16  C8  UNL     1      -3.240   2.513  -0.694  1.00  0.00     0.171 A 
HETATM   17  C9  UNL     1      -2.509   3.751  -0.629  1.00  0.00     0.111 A 
HETATM   18  S1  UNL     1      -0.795   3.028  -0.499  1.00  0.00    -0.058 SA
BRANCH  16  19
HETATM   19  O1  UNL     1      -4.644   2.442  -0.804  1.00  0.00    -0.344 OA
HETATM   20  H6  UNL     1      -5.092   2.074  -1.631  1.00  0.00     0.219 HD
ENDBRANCH  16  19
ENDBRANCH  11  14
BRANCH  12  21
HETATM   21  C11 UNL     1      -2.129  -1.413  -0.018  1.00  0.00    -0.033 A 
HETATM   22  C12 UNL     1      -2.558  -0.823   1.139  1.00  0.00     0.011 A 
HETATM   23  C13 UNL     1      -3.862  -1.165   1.516  1.00  0.00     0.024 A 
HETATM   24  C14 UNL     1      -4.681  -2.023   0.806  1.00  0.00     0.034 A 
HETATM   25 CL2  UNL     1      -6.285  -2.404   1.329  1.00  0.00    -0.084 Cl
HETATM   26  C15 UNL     1      -4.193  -2.585  -0.348  1.00  0.00     0.024 A 
HETATM   27  C16 UNL     1      -2.930  -2.274  -0.743  1.00  0.00     0.011 A 
ENDBRANCH  12  21
ENDBRANCH   7   9
ENDBRANCH   6   7
ENDBRANCH   5   6
ENDBRANCH   3   5
TORSDOF 7
