REMARK  4 active torsions:
REMARK  status: ('A' for Active; 'I' for Inactive)
REMARK    1  A    between atoms: C14_17  and  O4_18 
REMARK    2  A    between atoms: O4_18  and  C15_19 
REMARK    3  A    between atoms: C15_19  and  C16_20 
REMARK    4  A    between atoms: C16_20  and  N1_21 
ROOT
HETATM    1  O1  UNL     1       3.994   3.752  -1.364  1.00  0.00    -0.293 OA
HETATM    2  C1  UNL     1       3.093   3.326  -0.605  1.00  0.00     0.158 C 
HETATM    3  C2  UNL     1       1.983   4.293  -0.726  1.00  0.00     0.110 C 
HETATM    4  C3  UNL     1       1.036   3.873   0.354  1.00  0.00     0.187 C 
HETATM    5  O2  UNL     1       0.594   2.655   0.484  1.00  0.00    -0.317 OA
HETATM    6  C4  UNL     1      -0.155   1.718   1.024  1.00  0.00     0.296 C 
HETATM    7  O3  UNL     1      -0.919   2.100   1.897  1.00  0.00    -0.259 OA
HETATM    8  C5  UNL     1       0.078   0.340   0.476  1.00  0.00     0.076 A 
HETATM    9  C6  UNL     1       1.102   0.204  -0.449  1.00  0.00     0.058 A 
HETATM   10  C7  UNL     1       1.502  -1.046  -0.835  1.00  0.00     0.081 A 
HETATM   11  C8  UNL     1       0.853  -2.122  -0.280  1.00  0.00     0.010 A 
HETATM   12  C9  UNL     1       1.415  -3.261  -0.783  1.00  0.00     0.015 A 
HETATM   13  C10 UNL     1       0.821  -4.408  -0.238  1.00  0.00     0.001 A 
HETATM   14  C11 UNL     1      -0.210  -4.314   0.696  1.00  0.00     0.001 A 
HETATM   15  C12 UNL     1      -0.695  -3.081   1.126  1.00  0.00     0.015 A 
HETATM   16  C13 UNL     1      -0.160  -1.908   0.633  1.00  0.00     0.011 A 
HETATM   17  C14 UNL     1      -0.617  -0.680   1.071  1.00  0.00     0.096 A 
HETATM   18  O5  UNL     1       2.473  -0.619  -1.686  1.00  0.00    -0.350 OA
HETATM   19  C21 UNL     1       3.731  -0.173  -1.402  1.00  0.00     0.185 C 
HETATM   20  C22 UNL     1       4.267   0.870  -0.609  1.00  0.00     0.050 A 
HETATM   21  C23 UNL     1       5.010   0.174   0.567  1.00  0.00     0.038 A 
HETATM   22  C24 UNL     1       5.220   0.905   1.766  1.00  0.00    -0.026 A 
HETATM   23  C25 UNL     1       4.874   2.108   2.182  1.00  0.00    -0.003 A 
HETATM   24  C26 UNL     1       4.118   2.688   1.049  1.00  0.00     0.011 A 
HETATM   25  C27 UNL     1       3.842   2.134  -0.140  1.00  0.00    -0.006 A 
ENDROOT
BRANCH  17  26
HETATM   26  O4  UNL     1      -1.623  -0.460   1.972  1.00  0.00    -0.347 OA
BRANCH  26  27
HETATM   27  C15 UNL     1      -2.934  -0.224   1.515  1.00  0.00     0.206 C 
BRANCH  27  28
HETATM   28  C16 UNL     1      -3.464  -1.382   0.711  1.00  0.00     0.299 C 
BRANCH  28  29
HETATM   29  N1  UNL     1      -4.818  -0.991   0.294  1.00  0.00     0.090 N 
HETATM   30  C17 UNL     1      -4.814   0.084  -0.656  1.00  0.00     0.272 C 
HETATM   31  C18 UNL     1      -5.744  -0.274  -1.775  1.00  0.00     0.032 C 
HETATM   32  C19 UNL     1      -6.540  -1.436  -1.246  1.00  0.00     0.032 C 
HETATM   33  C20 UNL     1      -5.566  -2.076  -0.274  1.00  0.00     0.272 C 
ENDBRANCH  28  29
ENDBRANCH  27  28
ENDBRANCH  26  27
ENDBRANCH  17  26
TORSDOF 4
