REMARK  5 active torsions:
REMARK  status: ('A' for Active; 'I' for Inactive)
REMARK    1  A    between atoms: O1_1  and  C1_2 
REMARK    2  A    between atoms: C3_5  and  N1_6 
REMARK    3  A    between atoms: N1_6  and  C4_7 
REMARK    4  A    between atoms: N1_6  and  N2_15 
REMARK    5  A    between atoms: C4_7  and  C5_8 
ROOT
HETATM    1  N1  UNL     1      -0.407   0.416  -0.075  1.00  0.00    -0.242 N 
ENDROOT
BRANCH   1   2
HETATM    2  C3  UNL     1      -1.047   1.703  -0.161  1.00  0.00     0.192 A 
HETATM    3  S1  UNL     1      -2.486   1.858  -1.319  1.00  0.00    -0.058 SA
HETATM    4  C2  UNL     1      -2.723   3.641  -0.894  1.00  0.00     0.111 A 
HETATM    5  C1  UNL     1      -1.610   3.821   0.107  1.00  0.00     0.171 A 
HETATM    6  N3  UNL     1      -0.881   2.742   0.343  1.00  0.00    -0.198 NA
BRANCH   5   7
HETATM    7  O1  UNL     1      -1.252   4.980   0.814  1.00  0.00    -0.344 OA
HETATM    8  H1  UNL     1      -0.953   5.833   0.381  1.00  0.00     0.219 HD
ENDBRANCH   5   7
ENDBRANCH   1   2
BRANCH   1   9
HETATM    9  C4  UNL     1      -0.663  -0.836  -0.698  1.00  0.00     0.192 C 
BRANCH   9  10
HETATM   10  C5  UNL     1      -1.942  -1.479  -0.367  1.00  0.00    -0.038 A 
HETATM   11  C6  UNL     1      -1.857  -2.213   0.810  1.00  0.00     0.010 A 
HETATM   12  C7  UNL     1      -2.933  -2.921   1.323  1.00  0.00     0.024 A 
HETATM   13  C8  UNL     1      -4.137  -2.933   0.694  1.00  0.00     0.034 A 
HETATM   14 CL1  UNL     1      -5.566  -3.782   1.235  1.00  0.00    -0.084 Cl
HETATM   15  C9  UNL     1      -4.236  -2.198  -0.492  1.00  0.00     0.024 A 
HETATM   16  C10 UNL     1      -3.169  -1.503  -0.990  1.00  0.00     0.010 A 
ENDBRANCH   9  10
ENDBRANCH   1   9
BRANCH   1  17
HETATM   17  N2  UNL     1       0.683   0.401   0.801  1.00  0.00    -0.179 NA
HETATM   18  C11 UNL     1       1.919   0.451   0.433  1.00  0.00     0.039 C 
HETATM   19  C12 UNL     1       2.744   0.413   1.643  1.00  0.00     0.083 C 
HETATM   20  C17 UNL     1       2.233   0.530  -1.017  1.00  0.00     0.085 C 
HETATM   21  C13 UNL     1       4.172   0.105   1.405  1.00  0.00    -0.019 C 
HETATM   22  C14 UNL     1       4.846  -0.487   0.412  1.00  0.00     0.020 C 
HETATM   23  C15 UNL     1       4.230  -1.023  -0.801  1.00  0.00     0.030 C 
HETATM   24 CL2  UNL     1       5.089  -2.396  -1.506  1.00  0.00    -0.085 Cl
HETATM   25  C16 UNL     1       3.132  -0.595  -1.400  1.00  0.00     0.003 C 
ENDBRANCH   1  17
TORSDOF 5
