REMARK  4 active torsions:
REMARK  status: ('A' for Active; 'I' for Inactive)
REMARK    1  A    between atoms: O1_1  and  C1_2 
REMARK    2  A    between atoms: C3_5  and  N1_6 
REMARK    3  A    between atoms: C4_8  and  C5_9 
REMARK    4  A    between atoms: C11_17  and  C12_18 
ROOT
HETATM    1  N1  UNL     1      -0.307   0.818   0.439  1.00  0.00    -0.236 N 
HETATM    2  N2  UNL     1       1.042   0.867   0.179  1.00  0.00    -0.173 NA
HETATM    3  C4  UNL     1       1.569  -0.328   0.240  1.00  0.00     0.070 C 
HETATM    4  C10 UNL     1       0.500  -1.333   0.576  1.00  0.00     0.094 C 
HETATM    5  C11 UNL     1      -0.620  -0.437   1.036  1.00  0.00     0.151 C 
ENDROOT
BRANCH   1   6
HETATM    6  C3  UNL     1      -1.159   1.965   0.096  1.00  0.00     0.192 A 
HETATM    7  S1  UNL     1      -3.000   1.745   0.517  1.00  0.00    -0.058 SA
HETATM    8  C2  UNL     1      -3.285   3.487  -0.184  1.00  0.00     0.111 A 
HETATM    9  C1  UNL     1      -2.071   3.871  -0.565  1.00  0.00     0.171 A 
HETATM   10  N3  UNL     1      -1.133   2.991  -0.352  1.00  0.00    -0.198 NA
BRANCH   9  11
HETATM   11  O1  UNL     1      -1.759   5.109  -1.155  1.00  0.00    -0.344 OA
HETATM   12  H1  UNL     1      -1.564   5.938  -0.631  1.00  0.00     0.219 HD
ENDBRANCH   9  11
ENDBRANCH   1   6
BRANCH   5  13
HETATM   13  C12 UNL     1      -1.952  -0.960   0.651  1.00  0.00    -0.033 A 
HETATM   14  C13 UNL     1      -2.923  -1.519   1.470  1.00  0.00     0.011 A 
HETATM   15  C14 UNL     1      -4.101  -1.950   0.937  1.00  0.00     0.019 A 
HETATM   16  C15 UNL     1      -4.365  -1.848  -0.409  1.00  0.00     0.011 A 
HETATM   17 BR1  UNL     1      -6.019  -2.462  -1.104  1.00  0.00    -0.051 Br
HETATM   18  C16 UNL     1      -3.404  -1.289  -1.250  1.00  0.00     0.019 A 
HETATM   19  C17 UNL     1      -2.204  -0.852  -0.694  1.00  0.00     0.011 A 
ENDBRANCH   5  13
BRANCH   3  20
HETATM   20  C5  UNL     1       2.967  -0.683   0.025  1.00  0.00     0.012 A 
HETATM   21  S2  UNL     1       3.491  -2.225   0.133  1.00  0.00    -0.102 SA
HETATM   22  C6  UNL     1       5.088  -2.421  -0.141  1.00  0.00     0.073 A 
HETATM   23  C7  UNL     1       5.891  -1.243  -0.450  1.00  0.00     0.037 A 
HETATM   24 CL1  UNL     1       7.608  -1.407  -0.751  1.00  0.00    -0.084 Cl
HETATM   25  C8  UNL     1       5.296  -0.086  -0.493  1.00  0.00     0.003 A 
HETATM   26  C9  UNL     1       3.933   0.410  -0.304  1.00  0.00     0.077 A 
ENDBRANCH   3  20
TORSDOF 4
