REMARK  6 active torsions:
REMARK  status: ('A' for Active; 'I' for Inactive)
REMARK    1  A    between atoms: O1_1  and  C1_2 
REMARK    2  A    between atoms: C3_7  and  C4_8 
REMARK    3  A    between atoms: C4_8  and  C5_9 
REMARK    4  A    between atoms: C5_9  and  C6_10 
REMARK    5  A    between atoms: C6_10  and  C7_11 
REMARK    6  A    between atoms: C7_11  and  C8_13 
ROOT
HETATM    1  C1  UNL     1      -3.641   0.378  -2.425  1.00  0.00     0.169 C 
HETATM    2  C2  UNL     1      -2.538   0.794  -3.018  1.00  0.00     0.127 C 
HETATM    3  S1  UNL     1      -0.772   0.660  -2.692  1.00  0.00    -0.000 SA
HETATM    4  N1  UNL     1      -0.582  -0.670  -1.570  1.00  0.00    -0.223 N 
HETATM    5  N2  UNL     1       0.614   0.040  -1.287  1.00  0.00    -0.167 NA
HETATM    6  C3  UNL     1       0.860  -0.883  -0.426  1.00  0.00     0.085 A 
HETATM    7  C9  UNL     1      -0.321  -1.705  -0.625  1.00  0.00     0.205 A 
HETATM    8  C10 UNL     1      -1.348  -1.648   0.439  1.00  0.00    -0.015 A 
HETATM    9  C11 UNL     1      -0.821  -1.700   1.706  1.00  0.00     0.012 A 
HETATM   10  C12 UNL     1      -1.574  -1.664   2.855  1.00  0.00     0.020 A 
HETATM   11  C13 UNL     1      -2.949  -1.571   2.781  1.00  0.00     0.011 A 
HETATM   12 BR1  UNL     1      -4.112  -1.510   4.287  1.00  0.00    -0.051 Br
HETATM   13  C14 UNL     1      -3.462  -1.520   1.474  1.00  0.00     0.032 A 
HETATM   14  C15 UNL     1      -2.696  -1.555   0.299  1.00  0.00    -0.009 A 
HETATM   15  C16 UNL     1      -3.536  -1.480  -0.893  1.00  0.00     0.131 C 
HETATM   16  N3  UNL     1      -3.188  -0.312  -1.296  1.00  0.00    -0.236 NA
ENDROOT
BRANCH   6  17
HETATM   17  C4  UNL     1       2.068  -0.821   0.358  1.00  0.00     0.031 C 
BRANCH  17  18
HETATM   18  C5  UNL     1       2.886   0.187   0.165  1.00  0.00     0.004 C 
BRANCH  18  19
HETATM   19  C6  UNL     1       3.993   1.104   0.242  1.00  0.00     0.022 C 
BRANCH  19  20
HETATM   20  C7  UNL     1       4.776   2.125   0.014  1.00  0.00     0.040 C 
HETATM   21 CL1  UNL     1       4.541   3.406  -1.118  1.00  0.00    -0.086 Cl
BRANCH  20  22
HETATM   22  C8  UNL     1       6.029   2.250   0.793  1.00  0.00     0.273 C 
HETATM   23  F1  UNL     1       7.138   2.244  -0.042  1.00  0.00    -0.250 F 
ENDBRANCH  20  22
ENDBRANCH  19  20
ENDBRANCH  18  19
ENDBRANCH  17  18
ENDBRANCH   6  17
BRANCH   1  24
HETATM   24  O1  UNL     1      -4.824   0.758  -3.105  1.00  0.00    -0.344 OA
HETATM   25  H1  UNL     1      -5.654   0.368  -2.677  1.00  0.00     0.219 HD
ENDBRANCH   1  24
TORSDOF 6
