REMARK  1 active torsions:
REMARK  status: ('A' for Active; 'I' for Inactive)
REMARK    1  A    between atoms: C8_13  and  C9_14 
ROOT
HETATM    1  C1  UNL     1      -3.451   1.354   0.765  1.00  0.00     0.042 C 
HETATM    2  C2  UNL     1      -2.829   1.290  -0.587  1.00  0.00     0.149 C 
HETATM    3  O1  UNL     1      -2.238   2.613  -0.809  1.00  0.00    -0.340 OA
HETATM    4  C3  UNL     1      -0.964   3.108  -0.573  1.00  0.00     0.351 A 
HETATM    5  C4  UNL     1      -0.224   4.384  -0.678  1.00  0.00     0.364 A 
HETATM    6  S1  UNL     1       1.334   3.375   0.000  1.00  0.00     0.088 SA
HETATM    7  C5  UNL     1       0.700   1.794   0.200  1.00  0.00     0.364 A 
HETATM    8  N1  UNL     1       0.348   2.996  -0.182  1.00  0.00     0.084 N 
HETATM    9  N2  UNL     1       0.010   0.674   0.247  1.00  0.00    -0.270 N 
HETATM   10  N3  UNL     1      -1.069  -0.223   0.583  1.00  0.00    -0.124 NA
HETATM   11  C6  UNL     1      -1.734   0.234  -0.565  1.00  0.00     0.104 C 
HETATM   12  C7  UNL     1      -0.754  -0.719  -1.233  1.00  0.00     0.065 C 
HETATM   13  C8  UNL     1       0.641  -0.255  -0.633  1.00  0.00     0.137 C 
ENDROOT
BRANCH  13  14
HETATM   14  C9  UNL     1       1.352  -1.322   0.033  1.00  0.00    -0.034 A 
HETATM   15  C10 UNL     1       2.503  -1.865  -0.588  1.00  0.00     0.011 A 
HETATM   16  C11 UNL     1       3.340  -2.854  -0.185  1.00  0.00     0.024 A 
HETATM   17  C12 UNL     1       2.959  -3.388   1.046  1.00  0.00     0.034 A 
HETATM   18 CL1  UNL     1       3.964  -4.710   1.699  1.00  0.00    -0.084 Cl
HETATM   19  C13 UNL     1       1.883  -2.980   1.768  1.00  0.00     0.024 A 
HETATM   20  C14 UNL     1       1.115  -1.950   1.222  1.00  0.00     0.011 A 
ENDBRANCH  13  14
TORSDOF 1
