REMARK  4 active torsions:
REMARK  status: ('A' for Active; 'I' for Inactive)
REMARK    1  A    between atoms: O1_1  and  C1_2 
REMARK    2  A    between atoms: C2_3  and  C3_4 
REMARK    3  A    between atoms: C3_4  and  C4_5 
REMARK    4  A    between atoms: C8_14  and  C9_15 
ROOT
HETATM    1  C4  UNL     1       1.749  -0.058   0.287  1.00  0.00     0.038 C 
HETATM    2  N1  UNL     1       2.484  -1.063   0.011  1.00  0.00    -0.181 NA
HETATM    3  N2  UNL     1       2.198  -2.295  -0.474  1.00  0.00    -0.255 N 
HETATM    4  C5  UNL     1       1.091  -3.126  -0.763  1.00  0.00     0.189 A 
HETATM    5  N3  UNL     1       0.270  -2.363  -0.175  1.00  0.00    -0.198 NA
HETATM    6  C6  UNL     1      -0.999  -2.582  -0.086  1.00  0.00     0.174 A 
HETATM    7  C7  UNL     1      -1.626  -3.770  -0.671  1.00  0.00     0.111 A 
HETATM    8  S1  UNL     1       0.033  -4.469  -1.364  1.00  0.00    -0.058 SA
HETATM    9  O2  UNL     1      -0.967  -1.377   0.611  1.00  0.00    -0.323 OA
HETATM   10  C8  UNL     1      -0.754  -0.145  -0.100  1.00  0.00     0.169 C 
HETATM   11  C15 UNL     1       0.416   0.630   0.375  1.00  0.00     0.094 C 
HETATM   12  H6  UNL     1       2.851  -3.025  -0.799  1.00  0.00     0.191 HD
ENDROOT
BRANCH  10  13
HETATM   13  C9  UNL     1      -2.029   0.579  -0.007  1.00  0.00    -0.029 A 
HETATM   14  C10 UNL     1      -3.148  -0.199  -0.253  1.00  0.00     0.011 A 
HETATM   15  C11 UNL     1      -4.401   0.410  -0.185  1.00  0.00     0.024 A 
HETATM   16  C12 UNL     1      -4.571   1.745   0.115  1.00  0.00     0.034 A 
HETATM   17 CL1  UNL     1      -6.172   2.469   0.189  1.00  0.00    -0.084 Cl
HETATM   18  C13 UNL     1      -3.422   2.499   0.357  1.00  0.00     0.024 A 
HETATM   19  C14 UNL     1      -2.172   1.918   0.295  1.00  0.00     0.011 A 
ENDBRANCH  10  13
BRANCH   1  20
HETATM   20  C3  UNL     1       2.705   1.001   0.793  1.00  0.00     0.085 C 
BRANCH  20  21
HETATM   21  C2  UNL     1       4.100   0.535   0.791  1.00  0.00     0.003 C 
HETATM   22  C1  UNL     1       4.960   1.194   0.067  1.00  0.00     0.127 C 
BRANCH  22  23
HETATM   23  O1  UNL     1       4.292   2.243  -0.562  1.00  0.00    -0.373 OA
HETATM   24  H1  UNL     1       3.753   1.994  -1.398  1.00  0.00     0.216 HD
ENDBRANCH  22  23
ENDBRANCH  20  21
ENDBRANCH   1  20
TORSDOF 4
