REMARK  5 active torsions:
REMARK  status: ('A' for Active; 'I' for Inactive)
REMARK    1  A    between atoms: C6_6  and  C7_7 
REMARK    2  A    between atoms: C7_7  and  C8_8 
REMARK    3  A    between atoms: C8_8  and  C9_9 
REMARK    4  A    between atoms: N2_17  and  C15_18 
REMARK    5  A    between atoms: C16_20  and  O1_21 
ROOT
HETATM    1  C1  UNL     1      -3.458  -2.300   0.699  1.00  0.00     0.070 C 
HETATM    2  C2  UNL     1      -2.068  -2.152   0.245  1.00  0.00     0.035 C 
HETATM    3  C3  UNL     1      -1.270  -3.226   0.300  1.00  0.00     0.027 C 
HETATM    4  C4  UNL     1       0.151  -3.354  -0.088  1.00  0.00     0.004 C 
HETATM    5  C5  UNL     1       0.833  -2.451  -0.805  1.00  0.00     0.029 C 
HETATM    6  C6  UNL     1       0.386  -1.187  -1.358  1.00  0.00     0.055 C 
HETATM    7  N1  UNL     1      -0.712  -0.508  -1.101  1.00  0.00    -0.170 NA
HETATM    8  N2  UNL     1      -1.727  -0.862  -0.213  1.00  0.00    -0.214 N 
ENDROOT
BRANCH   6   9
HETATM    9  C7  UNL     1       1.285  -0.598  -2.335  1.00  0.00     0.065 C 
BRANCH   9  10
HETATM   10  C8  UNL     1       2.667  -0.299  -1.925  1.00  0.00     0.044 C 
BRANCH  10  11
HETATM   11  C9  UNL     1       2.802   0.658  -0.800  1.00  0.00    -0.058 A 
HETATM   12  C10 UNL     1       2.900   2.036  -1.028  1.00  0.00     0.008 A 
HETATM   13  C11 UNL     1       3.035   2.919   0.042  1.00  0.00     0.019 A 
HETATM   14  C12 UNL     1       3.074   2.449   1.329  1.00  0.00     0.011 A 
HETATM   15 BR1  UNL     1       3.266   3.708   2.772  1.00  0.00    -0.051 Br
HETATM   16  C13 UNL     1       2.982   1.104   1.614  1.00  0.00     0.019 A 
HETATM   17  C14 UNL     1       2.846   0.224   0.533  1.00  0.00     0.008 A 
ENDBRANCH  10  11
ENDBRANCH   9  10
ENDBRANCH   6   9
BRANCH   8  18
HETATM   18  C15 UNL     1      -2.450   0.280   0.219  1.00  0.00     0.196 A 
HETATM   19  N3  UNL     1      -2.262   1.551  -0.208  1.00  0.00    -0.198 NA
HETATM   20  C16 UNL     1      -3.081   2.419   0.384  1.00  0.00     0.171 A 
HETATM   21  C17 UNL     1      -4.118   2.148   1.404  1.00  0.00     0.111 A 
HETATM   22  S1  UNL     1      -3.813   0.353   1.475  1.00  0.00    -0.058 SA
BRANCH  20  23
HETATM   23  O1  UNL     1      -2.806   3.707  -0.128  1.00  0.00    -0.344 OA
HETATM   24  H15 UNL     1      -3.503   4.437  -0.070  1.00  0.00     0.219 HD
ENDBRANCH  20  23
ENDBRANCH   8  18
TORSDOF 5
