REMARK  4 active torsions:
REMARK  status: ('A' for Active; 'I' for Inactive)
REMARK    1  A    between atoms: C6_6  and  C7_7 
REMARK    2  A    between atoms: C9_9  and  C10_10 
REMARK    3  A    between atoms: N2_18  and  C16_19 
REMARK    4  A    between atoms: C17_21  and  O1_22 
ROOT
HETATM    1  C7  UNL     1      -0.726   0.351   1.392  1.00  0.00     0.127 C 
HETATM    2  C8  UNL     1       0.292  -0.740   1.587  1.00  0.00     0.090 C 
HETATM    3  C9  UNL     1       1.242  -0.430   0.474  1.00  0.00     0.067 C 
HETATM    4  N1  UNL     1       0.982   0.725  -0.005  1.00  0.00    -0.174 NA
HETATM    5  N2  UNL     1      -0.083   1.356   0.623  1.00  0.00    -0.240 N 
ENDROOT
BRANCH   3   6
HETATM    6  C10 UNL     1       2.302  -1.322   0.014  1.00  0.00    -0.010 A 
HETATM    7  C11 UNL     1       2.484  -2.563   0.627  1.00  0.00     0.015 A 
HETATM    8  C12 UNL     1       3.469  -3.440   0.228  1.00  0.00     0.024 A 
HETATM    9  C13 UNL     1       4.259  -3.028  -0.800  1.00  0.00     0.034 A 
HETATM   10 CL1  UNL     1       5.522  -4.138  -1.323  1.00  0.00    -0.084 Cl
HETATM   11  C14 UNL     1       4.122  -1.830  -1.430  1.00  0.00     0.024 A 
HETATM   12  C15 UNL     1       3.128  -0.949  -1.024  1.00  0.00     0.015 A 
ENDBRANCH   3   6
BRANCH   1  13
HETATM   13  C6  UNL     1      -2.067  -0.119   0.988  1.00  0.00     0.045 A 
HETATM   14  C2  UNL     1      -2.360  -0.842  -0.228  1.00  0.00    -0.021 A 
HETATM   15  C1  UNL     1      -3.038  -2.196  -0.013  1.00  0.00     0.020 C 
HETATM   16  C3  UNL     1      -1.403  -0.852  -1.398  1.00  0.00     0.020 C 
HETATM   17  C4  UNL     1      -3.372   0.190  -0.489  1.00  0.00    -0.021 A 
HETATM   18  C5  UNL     1      -3.102   0.828   0.599  1.00  0.00    -0.022 A 
ENDBRANCH   1  13
BRANCH   5  19
HETATM   19  C16 UNL     1      -0.275   2.760   0.390  1.00  0.00     0.192 A 
HETATM   20  N3  UNL     1       0.472   3.568  -0.472  1.00  0.00    -0.198 NA
HETATM   21  C17 UNL     1       0.025   4.819  -0.419  1.00  0.00     0.171 A 
HETATM   22  C18 UNL     1      -1.023   5.406   0.331  1.00  0.00     0.111 A 
HETATM   23  S1  UNL     1      -1.503   3.775   1.181  1.00  0.00    -0.058 SA
BRANCH  21  24
HETATM   24  O1  UNL     1       0.822   5.574  -1.311  1.00  0.00    -0.344 OA
HETATM   25  H17 UNL     1       1.685   5.986  -0.975  1.00  0.00     0.219 HD
ENDBRANCH  21  24
ENDBRANCH   5  19
TORSDOF 4
