REMARK  4 active torsions:
REMARK  status: ('A' for Active; 'I' for Inactive)
REMARK    1  A    between atoms: C4_5  and  C5_6 
REMARK    2  A    between atoms: N2_8  and  S1_9 
REMARK    3  A    between atoms: S1_9  and  C6_10 
REMARK    4  A    between atoms: C9_16  and  C10_17 
ROOT
HETATM    1  C5  UNL     1      -1.669  -0.953  -0.185  1.00  0.00     0.068 C 
HETATM    2  N1  UNL     1      -0.457  -1.026  -0.622  1.00  0.00    -0.169 NA
HETATM    3  N2  UNL     1       0.225   0.177  -0.540  1.00  0.00    -0.226 N 
HETATM    4  C9  UNL     1      -0.432   0.812   0.590  1.00  0.00     0.157 C 
HETATM    5  C16 UNL     1      -1.880   0.454   0.258  1.00  0.00     0.095 C 
ENDROOT
BRANCH   3   6
HETATM    6  S1  UNL     1       1.520   0.507  -1.702  1.00  0.00     0.047 SA
BRANCH   6   7
HETATM    7  C6  UNL     1       3.020  -0.308  -1.125  1.00  0.00     0.203 C 
HETATM    8  N3  UNL     1       3.017  -0.989  -0.029  1.00  0.00    -0.262 NA
HETATM    9  C7  UNL     1       4.251  -1.624   0.388  1.00  0.00     0.180 C 
HETATM   10  C8  UNL     1       5.392  -0.805  -0.175  1.00  0.00     0.223 C 
HETATM   11  O1  UNL     1       5.307  -0.716  -1.565  1.00  0.00    -0.277 OA
HETATM   12  N4  UNL     1       4.159  -0.133  -1.962  1.00  0.00    -0.242 N 
HETATM   13  H7  UNL     1       4.133   0.417  -2.848  1.00  0.00     0.196 HD
ENDBRANCH   6   7
ENDBRANCH   3   6
BRANCH   4  14
HETATM   14  C10 UNL     1      -0.230   2.267   0.658  1.00  0.00    -0.032 A 
HETATM   15  C11 UNL     1      -0.386   2.927  -0.550  1.00  0.00     0.011 A 
HETATM   16  C12 UNL     1      -0.227   4.290  -0.642  1.00  0.00     0.019 A 
HETATM   17  C13 UNL     1       0.092   5.022   0.479  1.00  0.00     0.011 A 
HETATM   18 BR1  UNL     1       0.329   6.917   0.433  1.00  0.00    -0.051 Br
HETATM   19  C14 UNL     1       0.253   4.393   1.695  1.00  0.00     0.019 A 
HETATM   20  C15 UNL     1       0.093   3.020   1.783  1.00  0.00     0.011 A 
ENDBRANCH   4  14
BRANCH   1  21
HETATM   21  C4  UNL     1      -2.685  -2.024  -0.116  1.00  0.00    -0.010 A 
HETATM   22  C3  UNL     1      -3.941  -1.754   0.388  1.00  0.00     0.015 A 
HETATM   23  C2  UNL     1      -4.841  -2.800   0.423  1.00  0.00     0.024 A 
HETATM   24  C1  UNL     1      -4.526  -4.065  -0.019  1.00  0.00     0.034 A 
HETATM   25 CL1  UNL     1      -5.656  -5.409   0.017  1.00  0.00    -0.084 Cl
HETATM   26  C18 UNL     1      -3.265  -4.305  -0.517  1.00  0.00     0.024 A 
HETATM   27  C17 UNL     1      -2.339  -3.285  -0.568  1.00  0.00     0.015 A 
ENDBRANCH   1  21
TORSDOF 4
