REMARK  4 active torsions:
REMARK  status: ('A' for Active; 'I' for Inactive)
REMARK    1  A    between atoms: C5_5  and  C6_6 
REMARK    2  A    between atoms: C11_12  and  C12_13 
REMARK    3  A    between atoms: N1_16  and  C15_17 
REMARK    4  A    between atoms: C16_19  and  O1_20 
ROOT
HETATM    1  C6  UNL     1      -0.890  -2.320   0.312  1.00  0.00    -0.012 A 
HETATM    2  C7  UNL     1      -1.219  -3.661   0.300  1.00  0.00     0.037 A 
HETATM    3  C8  UNL     1      -0.384  -4.664   0.749  1.00  0.00     0.035 A 
HETATM    4 CL1  UNL     1      -0.837  -6.344   0.717  1.00  0.00    -0.084 Cl
HETATM    5  C9  UNL     1       0.865  -4.337   1.247  1.00  0.00     0.025 A 
HETATM    6  C10 UNL     1       1.179  -2.994   1.252  1.00  0.00     0.016 A 
HETATM    7  C11 UNL     1       0.364  -1.944   0.807  1.00  0.00     0.006 A 
ENDROOT
BRANCH   7   8
HETATM    8  C12 UNL     1       0.873  -0.576   0.892  1.00  0.00     0.090 A 
HETATM    9  C13 UNL     1       0.321   0.457   1.653  1.00  0.00     0.053 A 
HETATM   10  C14 UNL     1       1.079   1.602   1.478  1.00  0.00     0.123 A 
HETATM   11  N1  UNL     1       2.048   1.265   0.642  1.00  0.00    -0.220 N 
HETATM   12  N3  UNL     1       1.941   0.001   0.293  1.00  0.00    -0.165 NA
BRANCH  11  13
HETATM   13  C15 UNL     1       3.182   2.071   0.074  1.00  0.00     0.195 A 
HETATM   14  N2  UNL     1       4.274   2.440   0.311  1.00  0.00    -0.198 NA
HETATM   15  C16 UNL     1       4.999   3.189  -0.505  1.00  0.00     0.171 A 
HETATM   16  C17 UNL     1       4.334   3.558  -1.792  1.00  0.00     0.111 A 
HETATM   17  S1  UNL     1       2.671   2.682  -1.548  1.00  0.00    -0.058 SA
BRANCH  15  18
HETATM   18  O1  UNL     1       6.264   3.471   0.051  1.00  0.00    -0.344 OA
HETATM   19  H11 UNL     1       6.316   4.395   0.508  1.00  0.00     0.219 HD
ENDBRANCH  15  18
ENDBRANCH  11  13
ENDBRANCH   7   8
BRANCH   1  20
HETATM   20  C5  UNL     1      -1.718  -1.240  -0.143  1.00  0.00    -0.025 A 
HETATM   21  C4  UNL     1      -2.926  -1.094   0.542  1.00  0.00     0.013 A 
HETATM   22  C3  UNL     1      -3.794  -0.083   0.180  1.00  0.00     0.007 A 
HETATM   23  C2  UNL     1      -3.472   0.782  -0.856  1.00  0.00    -0.062 A 
HETATM   24  C1  UNL     1      -4.435   1.861  -1.216  1.00  0.00     0.048 C 
HETATM   25  C19 UNL     1      -2.278   0.661  -1.553  1.00  0.00     0.007 A 
HETATM   26  C18 UNL     1      -1.420  -0.354  -1.180  1.00  0.00     0.013 A 
ENDBRANCH   1  20
TORSDOF 4
