REMARK  6 active torsions:
REMARK  status: ('A' for Active; 'I' for Inactive)
REMARK    1  A    between atoms: C2_2  and  C12_17 
REMARK    2  A    between atoms: C3_3  and  C4_4 
REMARK    3  A    between atoms: C5_5  and  C6_6 
REMARK    4  A    between atoms: N2_10  and  C9_11 
REMARK    5  A    between atoms: C10_13  and  O1_14 
REMARK    6  A    between atoms: C12_17  and  C13_18 
ROOT
HETATM    1  C4  UNL     1       0.590  -0.966  -0.209  1.00  0.00    -0.002 C 
HETATM    2  C5  UNL     1       1.358  -1.978   0.078  1.00  0.00     0.001 C 
ENDROOT
BRANCH   2   3
HETATM    3  C6  UNL     1       2.729  -1.945   0.633  1.00  0.00     0.140 C 
HETATM    4  C7  UNL     1       2.582  -2.430   2.081  1.00  0.00     0.080 C 
HETATM    5  C8  UNL     1       2.150  -1.156   2.727  1.00  0.00     0.114 C 
HETATM    6  N1  UNL     1       2.550  -0.154   1.984  1.00  0.00    -0.186 NA
HETATM    7  N2  UNL     1       3.224  -0.606   0.873  1.00  0.00    -0.238 N 
BRANCH   7   8
HETATM    8  C9  UNL     1       4.231   0.165   0.128  1.00  0.00     0.192 A 
HETATM    9  N3  UNL     1       4.690   1.268   0.262  1.00  0.00    -0.198 NA
HETATM   10  C10 UNL     1       5.616   1.747  -0.568  1.00  0.00     0.171 A 
HETATM   11  C11 UNL     1       6.064   0.916  -1.639  1.00  0.00     0.111 A 
HETATM   12  S1  UNL     1       4.998  -0.616  -1.301  1.00  0.00    -0.058 SA
BRANCH  10  13
HETATM   13  O1  UNL     1       6.040   3.057  -0.260  1.00  0.00    -0.344 OA
HETATM   14  H11 UNL     1       6.620   3.585  -0.881  1.00  0.00     0.219 HD
ENDBRANCH  10  13
ENDBRANCH   7   8
ENDBRANCH   2   3
BRANCH   1  15
HETATM   15  C3  UNL     1      -0.755  -1.107  -0.756  1.00  0.00     0.002 C 
HETATM   16  C2  UNL     1      -1.507  -0.071  -1.035  1.00  0.00    -0.080 C 
HETATM   17  C1  UNL     1      -0.991   1.289  -0.795  1.00  0.00     0.043 C 
BRANCH  16  18
HETATM   18  C12 UNL     1      -2.866  -0.281  -1.589  1.00  0.00     0.072 C 
BRANCH  18  19
HETATM   19  C13 UNL     1      -3.946   0.277  -0.752  1.00  0.00    -0.054 A 
HETATM   20  C14 UNL     1      -4.464   1.552  -0.846  1.00  0.00     0.009 A 
HETATM   21  C15 UNL     1      -5.477   2.012  -0.030  1.00  0.00     0.024 A 
HETATM   22  C16 UNL     1      -5.990   1.139   0.929  1.00  0.00     0.034 A 
HETATM   23 CL1  UNL     1      -7.287   1.636   2.020  1.00  0.00    -0.084 Cl
HETATM   24  C17 UNL     1      -5.500  -0.147   1.058  1.00  0.00     0.024 A 
HETATM   25  C18 UNL     1      -4.487  -0.570   0.222  1.00  0.00     0.009 A 
ENDBRANCH  18  19
ENDBRANCH  16  18
ENDBRANCH   1  15
TORSDOF 6
