REMARK  4 active torsions:
REMARK  status: ('A' for Active; 'I' for Inactive)
REMARK    1  A    between atoms: O1_2  and  C2_3 
REMARK    2  A    between atoms: C5_6  and  C6_7 
REMARK    3  A    between atoms: C6_7  and  N1_8 
REMARK    4  A    between atoms: C14_19  and  O2_20 
ROOT
HETATM    1  N1  UNL     1      -0.452  -1.515  -0.664  1.00  0.00    -0.237 N 
HETATM    2  N2  UNL     1      -0.654  -0.148  -0.507  1.00  0.00    -0.165 NA
HETATM    3  C7  UNL     1      -1.541   0.298   0.268  1.00  0.00     0.089 A 
HETATM    4  C8  UNL     1      -1.276   1.737   0.013  1.00  0.00     0.048 A 
HETATM    5  C9  UNL     1      -1.754   2.886   0.491  1.00  0.00    -0.000 A 
HETATM    6  C10 UNL     1      -2.770   2.700   1.318  1.00  0.00     0.046 A 
HETATM    7 CL1  UNL     1      -3.608   4.094   1.945  1.00  0.00    -0.083 Cl
HETATM    8  C11 UNL     1      -3.142   1.336   1.666  1.00  0.00     0.039 A 
HETATM    9  C12 UNL     1      -2.623   0.206   1.225  1.00  0.00     0.006 A 
HETATM   10  C13 UNL     1      -3.195  -1.031   1.744  1.00  0.00     0.078 C 
HETATM   11  N3  UNL     1      -3.275  -1.842   0.715  1.00  0.00    -0.234 NA
HETATM   12  C14 UNL     1      -3.772  -3.143   0.777  1.00  0.00     0.195 A 
HETATM   13  C15 UNL     1      -2.477  -3.265   0.451  1.00  0.00     0.205 A 
HETATM   14  S1  UNL     1      -0.778  -3.087   0.040  1.00  0.00    -0.009 SA
ENDROOT
BRANCH   1  15
HETATM   15  C6  UNL     1       0.316  -1.425  -1.884  1.00  0.00     0.198 C 
BRANCH  15  16
HETATM   16  C5  UNL     1       1.506  -0.557  -1.596  1.00  0.00    -0.038 A 
HETATM   17  C4  UNL     1       1.472   0.787  -1.806  1.00  0.00     0.011 A 
HETATM   18  C3  UNL     1       2.626   1.508  -1.498  1.00  0.00     0.037 A 
HETATM   19  C2  UNL     1       3.743   0.872  -1.004  1.00  0.00     0.068 A 
HETATM   20  C17 UNL     1       3.788  -0.482  -0.789  1.00  0.00     0.037 A 
HETATM   21  C16 UNL     1       2.628  -1.188  -1.101  1.00  0.00     0.011 A 
BRANCH  19  22
HETATM   22  O1  UNL     1       4.855   1.641  -0.719  1.00  0.00    -0.356 OA
HETATM   23  C1  UNL     1       4.769   3.044  -0.953  1.00  0.00     0.210 C 
ENDBRANCH  19  22
ENDBRANCH  15  16
ENDBRANCH   1  15
BRANCH  12  24
HETATM   24  O2  UNL     1      -4.514  -4.308   0.906  1.00  0.00    -0.369 OA
HETATM   25  H11 UNL     1      -4.824  -4.638   1.815  1.00  0.00     0.212 HD
ENDBRANCH  12  24
TORSDOF 4
