REMARK  5 active torsions:
REMARK  status: ('A' for Active; 'I' for Inactive)
REMARK    1  A    between atoms: B1_1  and  C1_2 
REMARK    2  A    between atoms: C3_5  and  N1_6 
REMARK    3  A    between atoms: C4_8  and  C5_9 
REMARK    4  A    between atoms: C12_17  and  C13_18 
REMARK    5  A    between atoms: C16_21  and  O1_22 
ROOT
HETATM    1  N1  UNL     1      -0.239   1.550   0.311  1.00  0.00    -0.236 N 
HETATM    2  N2  UNL     1      -1.231   0.799  -0.322  1.00  0.00    -0.173 NA
HETATM    3  C4  UNL     1      -1.853   0.018   0.519  1.00  0.00     0.067 C 
HETATM    4  C11 UNL     1      -1.229   0.242   1.867  1.00  0.00     0.094 C 
HETATM    5  C12 UNL     1       0.135   0.777   1.476  1.00  0.00     0.151 C 
ENDROOT
BRANCH   1   6
HETATM    6  C3  UNL     1       0.375   2.834  -0.011  1.00  0.00     0.189 A 
HETATM    7  S1  UNL     1       1.631   3.651   0.964  1.00  0.00    -0.061 SA
HETATM    8  C2  UNL     1       1.766   5.088  -0.148  1.00  0.00     0.066 A 
HETATM    9  C1  UNL     1       0.801   4.722  -1.133  1.00  0.00    -0.011 A 
HETATM   10  N3  UNL     1       0.042   3.618  -1.171  1.00  0.00    -0.241 NA
BRANCH   9  11
HETATM   11  B1  UNL     1       0.409   5.558  -2.420  1.00  0.00     0.199 B 
HETATM   12  H1  UNL     1       0.200   6.734  -2.310  1.00  0.00    -0.025 HD
HETATM   13  H2  UNL     1       0.852   5.240  -3.490  1.00  0.00    -0.025 HD
ENDBRANCH   9  11
ENDBRANCH   1   6
BRANCH   5  14
HETATM   14  C13 UNL     1       1.016  -0.344   1.180  1.00  0.00    -0.033 A 
HETATM   15  C14 UNL     1       1.994   0.002   0.265  1.00  0.00     0.012 A 
HETATM   16  C15 UNL     1       2.964  -0.887  -0.183  1.00  0.00     0.037 A 
HETATM   17  C16 UNL     1       2.980  -2.197   0.292  1.00  0.00     0.068 A 
HETATM   18  C18 UNL     1       2.013  -2.561   1.205  1.00  0.00     0.037 A 
HETATM   19  C19 UNL     1       1.078  -1.648   1.615  1.00  0.00     0.012 A 
BRANCH  17  20
HETATM   20  O1  UNL     1       3.877  -3.187  -0.059  1.00  0.00    -0.356 OA
HETATM   21  C17 UNL     1       4.895  -2.912  -0.978  1.00  0.00     0.210 C 
ENDBRANCH  17  20
ENDBRANCH   5  14
BRANCH   3  22
HETATM   22  C5  UNL     1      -2.943  -0.900   0.204  1.00  0.00    -0.010 A 
HETATM   23  C6  UNL     1      -3.519  -1.676   1.189  1.00  0.00     0.015 A 
HETATM   24  C7  UNL     1      -4.545  -2.526   0.832  1.00  0.00     0.024 A 
HETATM   25  C8  UNL     1      -5.003  -2.616  -0.467  1.00  0.00     0.034 A 
HETATM   26 CL1  UNL     1      -6.302  -3.672  -0.995  1.00  0.00    -0.084 Cl
HETATM   27  C9  UNL     1      -4.424  -1.837  -1.451  1.00  0.00     0.024 A 
HETATM   28  C10 UNL     1      -3.397  -0.992  -1.077  1.00  0.00     0.015 A 
ENDBRANCH   3  22
TORSDOF 5
