REMARK  5 active torsions:
REMARK  status: ('A' for Active; 'I' for Inactive)
REMARK    1  A    between atoms: O1_2  and  C2_3 
REMARK    2  A    between atoms: C4_5  and  C5_6 
REMARK    3  A    between atoms: C7_8  and  C8_9 
REMARK    4  A    between atoms: N2_17  and  C14_18 
REMARK    5  A    between atoms: C15_20  and  O2_21 
ROOT
HETATM    1  C5  UNL     1      -0.042   0.009   0.952  1.00  0.00     0.151 C 
HETATM    2  C6  UNL     1      -0.909  -0.966   0.148  1.00  0.00     0.094 C 
HETATM    3  C7  UNL     1      -1.995  -0.014  -0.285  1.00  0.00     0.067 C 
HETATM    4  N1  UNL     1      -1.518   1.208  -0.260  1.00  0.00    -0.173 NA
HETATM    5  N2  UNL     1      -0.184   1.175   0.158  1.00  0.00    -0.236 N 
ENDROOT
BRANCH   3   6
HETATM    6  C8  UNL     1      -3.339  -0.438  -0.660  1.00  0.00    -0.010 A 
HETATM    7  C9  UNL     1      -3.710  -1.776  -0.641  1.00  0.00     0.015 A 
HETATM    8  C10 UNL     1      -4.969  -2.205  -0.990  1.00  0.00     0.024 A 
HETATM    9  C11 UNL     1      -5.887  -1.231  -1.373  1.00  0.00     0.034 A 
HETATM   10 CL1  UNL     1      -7.494  -1.739  -1.821  1.00  0.00    -0.084 Cl
HETATM   11  C12 UNL     1      -5.529   0.098  -1.395  1.00  0.00     0.024 A 
HETATM   12  C13 UNL     1      -4.263   0.516  -1.043  1.00  0.00     0.015 A 
ENDBRANCH   3   6
BRANCH   1  13
HETATM   13  C4  UNL     1       1.320  -0.471   1.178  1.00  0.00    -0.028 A 
HETATM   14  C3  UNL     1       2.290  -0.797   0.163  1.00  0.00     0.046 A 
HETATM   15  C2  UNL     1       3.157  -1.114   1.088  1.00  0.00     0.069 A 
HETATM   16  C17 UNL     1       2.186  -0.788   2.151  1.00  0.00     0.046 A 
BRANCH  15  17
HETATM   17  O1  UNL     1       4.423  -1.562   1.487  1.00  0.00    -0.356 OA
HETATM   18  C1  UNL     1       5.294  -2.130   0.550  1.00  0.00     0.210 C 
ENDBRANCH  15  17
ENDBRANCH   1  13
BRANCH   5  19
HETATM   19  C14 UNL     1       0.923   2.033  -0.065  1.00  0.00     0.192 A 
HETATM   20  N3  UNL     1       2.056   2.176   0.180  1.00  0.00    -0.198 NA
HETATM   21  C15 UNL     1       2.857   3.143  -0.205  1.00  0.00     0.171 A 
HETATM   22  C16 UNL     1       2.226   4.161  -1.049  1.00  0.00     0.111 A 
HETATM   23  S1  UNL     1       0.537   3.544  -1.154  1.00  0.00    -0.058 SA
BRANCH  21  24
HETATM   24  O2  UNL     1       4.181   3.010   0.276  1.00  0.00    -0.344 OA
HETATM   25  H12 UNL     1       4.709   3.780   0.642  1.00  0.00     0.219 HD
ENDBRANCH  21  24
ENDBRANCH   5  19
TORSDOF 5
