REMARK  5 active torsions:
REMARK  status: ('A' for Active; 'I' for Inactive)
REMARK    1  A    between atoms: O1_2  and  C2_3 
REMARK    2  A    between atoms: C5_6  and  C6_7 
REMARK    3  A    between atoms: N2_11  and  C8_12 
REMARK    4  A    between atoms: C13_18  and  C14_19 
REMARK    5  A    between atoms: C15_21  and  O2_22 
ROOT
HETATM    1  C8  UNL     1      -1.812  -0.945   0.912  1.00  0.00     0.054 A 
HETATM    2  C9  UNL     1      -1.835  -1.603   2.124  1.00  0.00     0.033 A 
HETATM    3  C10 UNL     1      -2.962  -1.443   2.906  1.00  0.00     0.026 A 
HETATM    4  C11 UNL     1      -4.041  -0.658   2.515  1.00  0.00     0.035 A 
HETATM    5 CL1  UNL     1      -5.447  -0.474   3.520  1.00  0.00    -0.084 Cl
HETATM    6  C12 UNL     1      -3.930  -0.035   1.283  1.00  0.00     0.038 A 
HETATM    7  C13 UNL     1      -2.838  -0.147   0.447  1.00  0.00     0.006 A 
ENDROOT
BRANCH   1   8
HETATM    8  N2  UNL     1      -0.632  -1.139   0.140  1.00  0.00    -0.297 N 
HETATM    9  C6  UNL     1       0.632  -1.860   0.241  1.00  0.00     0.145 C 
HETATM   10  C7  UNL     1       0.633  -2.829  -0.909  1.00  0.00     0.132 C 
HETATM   11  N1  UNL     1       0.429  -2.075  -2.120  1.00  0.00    -0.247 NA
HETATM   12  S1  UNL     1      -0.139  -0.522  -1.444  1.00  0.00     0.039 SA
HETATM   13  H9  UNL     1       1.242  -1.974  -2.731  1.00  0.00     0.136 HD
BRANCH   9  14
HETATM   14  C5  UNL     1       1.780  -0.929   0.211  1.00  0.00    -0.033 A 
HETATM   15  C4  UNL     1       1.636   0.196   1.018  1.00  0.00     0.012 A 
HETATM   16  C3  UNL     1       2.618   1.163   1.104  1.00  0.00     0.037 A 
HETATM   17  C2  UNL     1       3.783   1.028   0.377  1.00  0.00     0.068 A 
HETATM   18  C18 UNL     1       3.938  -0.089  -0.431  1.00  0.00     0.037 A 
HETATM   19  C17 UNL     1       2.953  -1.051  -0.512  1.00  0.00     0.012 A 
BRANCH  17  20
HETATM   20  O1  UNL     1       4.873   1.888   0.334  1.00  0.00    -0.356 OA
HETATM   21  C1  UNL     1       4.951   3.084   1.064  1.00  0.00     0.210 C 
ENDBRANCH  17  20
ENDBRANCH   9  14
ENDBRANCH   1   8
BRANCH   7  22
HETATM   22  C14 UNL     1      -2.764   0.528  -0.844  1.00  0.00     0.006 A 
HETATM   23  N3  UNL     1      -2.202   1.645  -1.123  1.00  0.00    -0.242 NA
HETATM   24  C15 UNL     1      -2.328   1.999  -2.492  1.00  0.00     0.146 A 
HETATM   25  C16 UNL     1      -2.998   1.116  -3.218  1.00  0.00    -0.018 A 
HETATM   26  B1  UNL     1      -3.390  -0.015  -2.187  1.00  0.00     0.249 B 
HETATM   27  H15 UNL     1      -4.294  -0.771  -2.306  1.00  0.00    -0.014 HD
BRANCH  24  28
HETATM   28  O2  UNL     1      -1.759   3.193  -2.927  1.00  0.00    -0.346 OA
HETATM   29  H13 UNL     1      -2.240   4.092  -2.853  1.00  0.00     0.219 HD
ENDBRANCH  24  28
ENDBRANCH   7  22
TORSDOF 5
