REMARK  2 active torsions:
REMARK  status: ('A' for Active; 'I' for Inactive)
REMARK    1  A    between atoms: C8_9  and  O1_10 
REMARK    2  A    between atoms: C11_15  and  C12_16 
ROOT
HETATM    1  C1  UNL     1      -5.429  -1.545   0.734  1.00  0.00     0.048 C 
HETATM    2  C2  UNL     1      -3.957  -1.344   0.629  1.00  0.00    -0.061 A 
HETATM    3  C3  UNL     1      -3.126  -2.386   0.278  1.00  0.00     0.007 A 
HETATM    4  C4  UNL     1      -1.780  -2.109   0.206  1.00  0.00     0.009 A 
HETATM    5  C5  UNL     1      -1.143  -0.873   0.452  1.00  0.00    -0.035 A 
HETATM    6  C6  UNL     1      -2.067   0.098   0.795  1.00  0.00     0.014 A 
HETATM    7  C7  UNL     1      -3.413  -0.112   0.884  1.00  0.00     0.026 A 
HETATM    8  S1  UNL     1      -1.604   1.808   1.173  1.00  0.00    -0.066 SA
HETATM    9  C8  UNL     1      -1.478   2.592  -0.455  1.00  0.00     0.105 C 
HETATM   10  C9  UNL     1      -0.336   2.985  -0.991  1.00  0.00     0.038 C 
HETATM   11  C10 UNL     1       1.099   2.980  -0.623  1.00  0.00     0.172 C 
HETATM   12  N1  UNL     1       1.334   2.347   0.684  1.00  0.00    -0.310 N 
HETATM   13  N2  UNL     1       0.750   1.136   0.551  1.00  0.00    -0.183 NA
HETATM   14  C11 UNL     1       1.200   0.022   0.315  1.00  0.00     0.068 C 
HETATM   15  C18 UNL     1       0.269  -1.095   0.249  1.00  0.00     0.101 C 
HETATM   16  H11 UNL     1       1.865   2.905   1.418  1.00  0.00     0.182 HD
ENDROOT
BRANCH  14  17
HETATM   17  C12 UNL     1       2.576  -0.404   0.084  1.00  0.00    -0.009 A 
HETATM   18  C13 UNL     1       3.612   0.498   0.112  1.00  0.00     0.015 A 
HETATM   19  C14 UNL     1       4.923   0.167  -0.096  1.00  0.00     0.024 A 
HETATM   20  C15 UNL     1       5.286  -1.141  -0.354  1.00  0.00     0.034 A 
HETATM   21 CL1  UNL     1       6.912  -1.666  -0.630  1.00  0.00    -0.084 Cl
HETATM   22  C16 UNL     1       4.288  -2.075  -0.391  1.00  0.00     0.024 A 
HETATM   23  C17 UNL     1       2.991  -1.692  -0.177  1.00  0.00     0.015 A 
ENDBRANCH  14  17
BRANCH   9  24
HETATM   24  O1  UNL     1      -2.640   2.771  -1.157  1.00  0.00    -0.354 OA
HETATM   25  H7  UNL     1      -3.458   3.257  -0.783  1.00  0.00     0.218 HD
ENDBRANCH   9  24
TORSDOF 2
