REMARK  4 active torsions:
REMARK  status: ('A' for Active; 'I' for Inactive)
REMARK    1  A    between atoms: C3_3  and  C4_4 
REMARK    2  A    between atoms: C5_5  and  C6_6 
REMARK    3  A    between atoms: C7_8  and  O1_9 
REMARK    4  A    between atoms: C13_17  and  N3_18 
ROOT
HETATM    1  C6  UNL     1       0.043   0.121   0.666  1.00  0.00     0.155 C 
HETATM    2  N1  UNL     1      -0.236  -1.186   1.152  1.00  0.00    -0.359 N 
HETATM    3  C7  UNL     1      -0.881  -2.044   2.076  1.00  0.00     0.142 C 
HETATM    4  C8  UNL     1      -1.977  -2.736   2.281  1.00  0.00     0.105 C 
HETATM    5  S1  UNL     1      -3.247  -2.691   1.016  1.00  0.00    -0.097 SA
HETATM    6  C9  UNL     1      -2.941  -1.284  -0.086  1.00  0.00     0.012 C 
HETATM    7  C10 UNL     1      -2.813  -0.569  -1.190  1.00  0.00    -0.018 C 
HETATM    8  C11 UNL     1      -4.059  -0.275  -1.936  1.00  0.00     0.052 C 
HETATM    9  C12 UNL     1      -1.358  -0.308  -1.279  1.00  0.00     0.078 C 
HETATM   10  N2  UNL     1      -0.493  -0.781  -2.093  1.00  0.00    -0.301 NA
HETATM   11  C13 UNL     1      -1.056   0.659  -0.195  1.00  0.00     0.241 C 
HETATM   12  C15 UNL     1      -2.254   0.992   0.606  1.00  0.00     0.025 C 
HETATM   13  C16 UNL     1      -2.584  -0.241   0.913  1.00  0.00     0.018 C 
HETATM   14  H9  UNL     1       0.191  -2.007   0.608  1.00  0.00     0.162 HD
HETATM   15  H15 UNL     1      -0.672  -1.444  -2.846  1.00  0.00     0.186 HD
ENDROOT
BRANCH   1  16
HETATM   16  C5  UNL     1       1.308  -0.003  -0.147  1.00  0.00     0.001 C 
HETATM   17  C4  UNL     1       2.462   0.313   0.469  1.00  0.00    -0.002 C 
BRANCH  17  18
HETATM   18  C3  UNL     1       3.863   0.310  -0.006  1.00  0.00    -0.005 C 
HETATM   19  C2  UNL     1       4.958   0.634   0.649  1.00  0.00    -0.031 C 
HETATM   20  C1  UNL     1       6.212   0.528  -0.102  1.00  0.00     0.036 C 
ENDBRANCH  17  18
ENDBRANCH   1  16
BRANCH  11  21
HETATM   21  N3  UNL     1      -0.533   1.919  -0.782  1.00  0.00     0.101 N 
HETATM   22  C14 UNL     1      -1.513   2.541  -1.651  1.00  0.00     0.308 C 
HETATM   23  H16 UNL     1      -0.429   2.559   0.039  1.00  0.00     0.317 HD
ENDBRANCH  11  21
BRANCH   3  24
HETATM   24  O1  UNL     1       0.080  -2.117   3.119  1.00  0.00    -0.346 OA
HETATM   25  H10 UNL     1       0.716  -2.896   3.153  1.00  0.00     0.219 HD
ENDBRANCH   3  24
TORSDOF 4
