REMARK  6 active torsions:
REMARK  status: ('A' for Active; 'I' for Inactive)
REMARK    1  A    between atoms: C5_6  and  C6_7 
REMARK    2  A    between atoms: C6_7  and  C7_9 
REMARK    3  A    between atoms: C17_21  and  O5_22 
REMARK    4  A    between atoms: O5_22  and  C18_23 
REMARK    5  A    between atoms: C18_23  and  C19_24 
REMARK    6  A    between atoms: C19_24  and  N1_25 
ROOT
HETATM    1  O1  UNL     1      -0.224  -3.918   2.631  1.00  0.00    -0.265 OA
HETATM    2  C1  UNL     1      -0.509  -3.341   1.519  1.00  0.00     0.268 C 
HETATM    3  C2  UNL     1      -1.765  -3.481   0.735  1.00  0.00     0.152 C 
HETATM    4  C3  UNL     1      -2.457  -2.177   0.594  1.00  0.00    -0.016 A 
HETATM    5  C4  UNL     1      -3.812  -2.274   0.378  1.00  0.00     0.051 A 
HETATM    6  C5  UNL     1      -4.214  -0.963   0.311  1.00  0.00     0.127 A 
HETATM    7  O3  UNL     1      -3.195  -0.161   0.470  1.00  0.00    -0.310 OA
HETATM    8  C13 UNL     1      -2.059  -0.839   0.653  1.00  0.00     0.065 A 
HETATM    9  C14 UNL     1      -0.911   0.042   0.835  1.00  0.00     0.105 C 
HETATM   10  C15 UNL     1       0.260  -0.425   0.068  1.00  0.00    -0.006 A 
HETATM   11  C16 UNL     1       0.891  -1.569   0.251  1.00  0.00     0.095 A 
HETATM   12  O4  UNL     1       0.591  -2.553   1.184  1.00  0.00    -0.280 OA
HETATM   13  C17 UNL     1       1.360  -0.620  -0.813  1.00  0.00     0.211 A 
ENDROOT
BRANCH   6  14
HETATM   14  C6  UNL     1      -5.632  -0.618   0.088  1.00  0.00     0.215 C 
HETATM   15  O2  UNL     1      -6.467  -1.529  -0.141  1.00  0.00    -0.284 OA
BRANCH  14  16
HETATM   16  C7  UNL     1      -6.116   0.783   0.126  1.00  0.00     0.017 A 
HETATM   17  C8  UNL     1      -5.396   1.801   0.707  1.00  0.00     0.015 A 
HETATM   18  C9  UNL     1      -5.845   3.127   0.764  1.00  0.00     0.001 A 
HETATM   19  C10 UNL     1      -7.077   3.363   0.194  1.00  0.00     0.000 A 
HETATM   20  C11 UNL     1      -7.827   2.370  -0.397  1.00  0.00     0.001 A 
HETATM   21  C12 UNL     1      -7.337   1.062  -0.430  1.00  0.00     0.015 A 
ENDBRANCH  14  16
ENDBRANCH   6  14
BRANCH  13  22
HETATM   22  O5  UNL     1       2.644  -0.055  -0.578  1.00  0.00    -0.373 OA
BRANCH  22  23
HETATM   23  C18 UNL     1       3.359  -0.334  -1.727  1.00  0.00     0.199 C 
BRANCH  23  24
HETATM   24  C19 UNL     1       4.769   0.162  -1.716  1.00  0.00     0.298 C 
BRANCH  24  25
HETATM   25  N1  UNL     1       5.568  -0.389  -0.611  1.00  0.00     0.090 N 
HETATM   26  C20 UNL     1       6.996  -0.124  -0.884  1.00  0.00     0.272 C 
HETATM   27  C21 UNL     1       7.190   1.337  -0.662  1.00  0.00     0.032 C 
HETATM   28  C22 UNL     1       6.080   1.734   0.275  1.00  0.00     0.032 C 
HETATM   29  C23 UNL     1       5.334   0.450   0.567  1.00  0.00     0.272 C 
ENDBRANCH  24  25
ENDBRANCH  23  24
ENDBRANCH  22  23
ENDBRANCH  13  22
TORSDOF 6
