REMARK  3 active torsions:
REMARK  status: ('A' for Active; 'I' for Inactive)
REMARK    1  A    between atoms: O1_1  and  C1_2 
REMARK    2  A    between atoms: C3_7  and  C4_8 
REMARK    3  A    between atoms: C11_17  and  C12_18 
ROOT
HETATM    1  C1  UNL     1      -0.583   1.597  -1.387  1.00  0.00     0.170 C 
HETATM    2  C2  UNL     1      -1.296   2.487  -0.618  1.00  0.00     0.127 C 
HETATM    3  S1  UNL     1      -1.422   2.453   1.229  1.00  0.00    -0.000 SA
HETATM    4  N1  UNL     1      -0.431   1.023   1.735  1.00  0.00    -0.223 N 
HETATM    5  N2  UNL     1       0.572   0.141   2.317  1.00  0.00    -0.162 NA
HETATM    6  C3  UNL     1       1.318  -0.264   1.267  1.00  0.00     0.115 C 
HETATM    7  C10 UNL     1       0.317  -0.027   0.174  1.00  0.00     0.098 C 
HETATM    8  N3  UNL     1       0.153   0.325  -1.085  1.00  0.00    -0.224 NA
HETATM    9  C11 UNL     1      -0.920  -0.229   1.074  1.00  0.00     0.205 C 
ENDROOT
BRANCH   6  10
HETATM   10  C4  UNL     1       2.587  -0.768   0.709  1.00  0.00    -0.003 A 
HETATM   11  C5  UNL     1       2.974  -1.092  -0.546  1.00  0.00     0.015 A 
HETATM   12  C6  UNL     1       4.260  -1.524  -0.710  1.00  0.00     0.024 A 
HETATM   13  C7  UNL     1       5.171  -1.645   0.315  1.00  0.00     0.034 A 
HETATM   14 CL1  UNL     1       6.753  -2.216  -0.132  1.00  0.00    -0.084 Cl
HETATM   15  C8  UNL     1       4.747  -1.308   1.581  1.00  0.00     0.024 A 
HETATM   16  C9  UNL     1       3.436  -0.861   1.790  1.00  0.00     0.015 A 
ENDBRANCH   6  10
BRANCH   9  17
HETATM   17  C12 UNL     1      -2.165  -0.131   0.353  1.00  0.00    -0.027 A 
HETATM   18  C13 UNL     1      -3.234   0.494   0.960  1.00  0.00     0.010 A 
HETATM   19  C14 UNL     1      -4.464   0.633   0.345  1.00  0.00     0.001 A 
HETATM   20  C15 UNL     1      -4.678   0.139  -0.939  1.00  0.00     0.000 A 
HETATM   21  C16 UNL     1      -3.640  -0.494  -1.588  1.00  0.00     0.001 A 
HETATM   22  C17 UNL     1      -2.441  -0.598  -0.914  1.00  0.00     0.010 A 
ENDBRANCH   9  17
BRANCH   1  23
HETATM   23  O1  UNL     1      -0.490   1.882  -2.735  1.00  0.00    -0.344 OA
HETATM   24  H1  UNL     1       0.345   2.392  -3.030  1.00  0.00     0.219 HD
ENDBRANCH   1  23
TORSDOF 3
