REMARK  7 active torsions:
REMARK  status: ('A' for Active; 'I' for Inactive)
REMARK    1  A    between atoms: O1_1  and  C1_2 
REMARK    2  A    between atoms: C3_5  and  N1_6 
REMARK    3  A    between atoms: N1_6  and  C4_7 
REMARK    4  A    between atoms: C4_7  and  C5_8 
REMARK    5  A    between atoms: C4_7  and  C13_18 
REMARK    6  A    between atoms: C5_8  and  C6_9 
REMARK    7  A    between atoms: C8_12  and  C9_13 
ROOT
HETATM    1  C4  UNL     1       0.087   1.202  -0.316  1.00  0.00     0.119 C 
ENDROOT
BRANCH   1   2
HETATM    2  N1  UNL     1      -0.134  -0.192  -0.246  1.00  0.00    -0.360 N 
HETATM    3  H3  UNL     1      -0.429  -0.218   0.757  1.00  0.00     0.162 HD
BRANCH   2   4
HETATM    4  C3  UNL     1      -0.128  -1.304  -1.110  1.00  0.00     0.169 A 
HETATM    5  S1  UNL     1      -0.450  -2.963  -0.234  1.00  0.00    -0.060 SA
HETATM    6  C2  UNL     1      -0.346  -3.911  -1.853  1.00  0.00     0.111 A 
HETATM    7  C1  UNL     1      -0.098  -2.847  -2.748  1.00  0.00     0.171 A 
HETATM    8  N3  UNL     1      -0.018  -1.642  -2.243  1.00  0.00    -0.200 NA
BRANCH   7   9
HETATM    9  O1  UNL     1      -0.012  -3.451  -3.988  1.00  0.00    -0.344 OA
HETATM   10  H1  UNL     1      -0.353  -2.984  -4.801  1.00  0.00     0.219 HD
ENDBRANCH   7   9
ENDBRANCH   2   4
ENDBRANCH   1   2
BRANCH   1  11
HETATM   11  C5  UNL     1       1.023   1.749   0.672  1.00  0.00     0.075 C 
BRANCH  11  12
HETATM   12  C6  UNL     1       2.428   1.120   0.456  1.00  0.00     0.207 A 
HETATM   13  N2  UNL     1       3.752   0.655   0.190  1.00  0.00    -0.006 N 
HETATM   14  C7  UNL     1       3.985  -0.603   0.753  1.00  0.00     0.241 A 
HETATM   15  C8  UNL     1       3.784   0.594   0.209  1.00  0.00     0.287 A 
HETATM   16  C9  UNL     1       2.694  -0.114   0.947  1.00  0.00     0.220 A 
HETATM   17  C12 UNL     1       4.081  -1.837   1.353  1.00  0.00     0.053 A 
HETATM   18  C11 UNL     1       2.909  -2.194   1.945  1.00  0.00     0.021 A 
HETATM   19 CL1  UNL     1       5.511  -2.717   1.328  1.00  0.00    -0.086 Cl
HETATM   20  C10 UNL     1       2.097  -1.130   1.679  1.00  0.00     0.019 A 
ENDBRANCH  11  12
ENDBRANCH   1  11
BRANCH   1  21
HETATM   21  C13 UNL     1      -1.287   1.846  -0.226  1.00  0.00    -0.035 C 
HETATM   22  C14 UNL     1      -1.676   2.717   0.664  1.00  0.00     0.017 C 
HETATM   23  P1  UNL     1      -3.310   3.527   0.807  1.00  0.00    -0.082 P 
HETATM   24  C15 UNL     1      -4.598   2.294   0.387  1.00  0.00     0.008 C 
HETATM   25  H11 UNL     1      -3.482   3.883   2.235  1.00  0.00     0.066 HD
HETATM   26  C16 UNL     1      -4.414   1.420  -0.577  1.00  0.00     0.001 C 
HETATM   27  C17 UNL     1      -3.398   1.087  -1.510  1.00  0.00     0.001 C 
HETATM   28  C18 UNL     1      -2.079   1.285  -1.322  1.00  0.00     0.009 C 
ENDBRANCH   1  21
TORSDOF 7
