REMARK  6 active torsions:
REMARK  status: ('A' for Active; 'I' for Inactive)
REMARK    1  A    between atoms: O1_2  and  C2_3 
REMARK    2  A    between atoms: C3_4  and  C4_5 
REMARK    3  A    between atoms: C4_5  and  C5_6 
REMARK    4  A    between atoms: N1_9  and  C8_10 
REMARK    5  A    between atoms: C9_12  and  O2_13 
REMARK    6  A    between atoms: C11_17  and  C12_18 
ROOT
HETATM    1  C5  UNL     1       1.514  -0.659   0.354  1.00  0.00    -0.039 A 
HETATM    2  C6  UNL     1       0.751   0.200  -0.155  1.00  0.00    -0.001 A 
HETATM    3  C7  UNL     1       0.096   0.905  -0.575  1.00  0.00     0.134 A 
HETATM    4  N1  UNL     1      -0.659   1.684  -1.042  1.00  0.00    -0.227 N 
HETATM    5  N3  UNL     1      -1.472   0.570  -0.550  1.00  0.00    -0.136 NA
HETATM    6  C11 UNL     1      -1.089  -0.582   0.060  1.00  0.00     0.034 A 
HETATM    7  C18 UNL     1       0.145  -1.287   0.516  1.00  0.00     0.122 A 
ENDROOT
BRANCH   4   8
HETATM    8  C8  UNL     1      -1.606   2.527  -1.560  1.00  0.00     0.192 A 
HETATM    9  N2  UNL     1      -1.223   3.570  -2.051  1.00  0.00    -0.198 NA
HETATM   10  C9  UNL     1      -2.069   4.458  -2.583  1.00  0.00     0.171 A 
HETATM   11  C10 UNL     1      -3.400   4.200  -2.580  1.00  0.00     0.111 A 
HETATM   12  S1  UNL     1      -3.440   2.539  -1.743  1.00  0.00    -0.058 SA
BRANCH  10  13
HETATM   13  O2  UNL     1      -1.751   5.700  -3.181  1.00  0.00    -0.344 OA
HETATM   14  H7  UNL     1      -1.487   6.456  -2.548  1.00  0.00     0.219 HD
ENDBRANCH  10  13
ENDBRANCH   4   8
BRANCH   6  15
HETATM   15  C12 UNL     1      -2.237  -1.528   0.440  1.00  0.00    -0.016 A 
HETATM   16  C13 UNL     1      -3.468  -1.043   0.097  1.00  0.00     0.014 A 
HETATM   17  C14 UNL     1      -4.599  -1.758   0.362  1.00  0.00     0.024 A 
HETATM   18  C15 UNL     1      -4.536  -2.974   0.975  1.00  0.00     0.034 A 
HETATM   19 CL1  UNL     1      -5.915  -3.976   1.363  1.00  0.00    -0.084 Cl
HETATM   20  C16 UNL     1      -3.280  -3.421   1.301  1.00  0.00     0.024 A 
HETATM   21  C17 UNL     1      -2.120  -2.727   1.048  1.00  0.00     0.014 A 
ENDBRANCH   6  15
BRANCH   1  22
HETATM   22  C4  UNL     1       2.668  -1.059   0.678  1.00  0.00     0.010 C 
BRANCH  22  23
HETATM   23  C3  UNL     1       3.773  -0.172   0.360  1.00  0.00     0.025 C 
HETATM   24  C2  UNL     1       4.977  -0.596   0.702  1.00  0.00     0.134 C 
BRANCH  24  25
HETATM   25  O1  UNL     1       6.081   0.199   0.429  1.00  0.00    -0.368 OA
HETATM   26  C1  UNL     1       7.307  -0.059   1.086  1.00  0.00     0.208 C 
ENDBRANCH  24  25
ENDBRANCH  22  23
ENDBRANCH   1  22
TORSDOF 6
