REMARK  8 active torsions:
REMARK  status: ('A' for Active; 'I' for Inactive)
REMARK    1  A    between atoms: C2_2  and  C3_3 
REMARK    2  A    between atoms: C3_3  and  C4_5 
REMARK    3  A    between atoms: C4_5  and  C5_6 
REMARK    4  A    between atoms: C5_6  and  C6_7 
REMARK    5  A    between atoms: N2_9  and  C7_10 
REMARK    6  A    between atoms: C8_12  and  O1_13 
REMARK    7  A    between atoms: C10_16  and  C11_17 
REMARK    8  A    between atoms: C14_20  and  O2_21 
ROOT
HETATM    1  C6  UNL     1      -1.157  -0.651  -0.437  1.00  0.00     0.058 C 
HETATM    2  N1  UNL     1      -0.889  -0.079   0.702  1.00  0.00    -0.174 NA
HETATM    3  N2  UNL     1      -0.594   1.270   0.588  1.00  0.00    -0.236 N 
HETATM    4  C10 UNL     1       0.080   1.223  -0.730  1.00  0.00     0.151 C 
HETATM    5  C18 UNL     1      -1.040   0.461  -1.438  1.00  0.00     0.093 C 
ENDROOT
BRANCH   4   6
HETATM    6  C11 UNL     1       1.327   0.456  -0.695  1.00  0.00    -0.033 A 
HETATM    7  C12 UNL     1       1.552  -0.553  -1.638  1.00  0.00     0.012 A 
HETATM    8  C13 UNL     1       2.699  -1.303  -1.668  1.00  0.00     0.037 A 
HETATM    9  C14 UNL     1       3.710  -1.113  -0.769  1.00  0.00     0.068 A 
HETATM   10  C16 UNL     1       3.533  -0.129   0.178  1.00  0.00     0.037 A 
HETATM   11  C17 UNL     1       2.368   0.615   0.191  1.00  0.00     0.012 A 
BRANCH   9  12
HETATM   12  O2  UNL     1       4.853  -1.897  -0.840  1.00  0.00    -0.356 OA
HETATM   13  C15 UNL     1       5.883  -1.686   0.099  1.00  0.00     0.210 C 
ENDBRANCH   9  12
ENDBRANCH   4   6
BRANCH   3  14
HETATM   14  C7  UNL     1      -0.725   2.551   1.247  1.00  0.00     0.192 A 
HETATM   15  N3  UNL     1      -1.344   3.531   1.060  1.00  0.00    -0.198 NA
HETATM   16  C8  UNL     1      -1.265   4.593   1.873  1.00  0.00     0.171 A 
HETATM   17  C9  UNL     1      -0.424   4.550   2.987  1.00  0.00     0.111 A 
HETATM   18  S1  UNL     1       0.286   2.854   2.821  1.00  0.00    -0.058 SA
BRANCH  16  19
HETATM   19  O1  UNL     1      -2.057   5.712   1.538  1.00  0.00    -0.344 OA
HETATM   20  H5  UNL     1      -1.937   6.213   0.665  1.00  0.00     0.219 HD
ENDBRANCH  16  19
ENDBRANCH   3  14
BRANCH   1  21
HETATM   21  C5  UNL     1      -1.508  -1.935  -0.926  1.00  0.00     0.043 C 
BRANCH  21  22
HETATM   22  C4  UNL     1      -2.829  -1.944  -0.828  1.00  0.00    -0.001 C 
BRANCH  22  23
HETATM   23  C3  UNL     1      -4.068  -2.417  -0.779  1.00  0.00     0.044 C 
HETATM   24 CL1  UNL     1      -4.907  -2.026  -2.224  1.00  0.00    -0.083 Cl
BRANCH  23  25
HETATM   25  C2  UNL     1      -4.473  -3.120   0.388  1.00  0.00     0.014 C 
HETATM   26  C1  UNL     1      -5.671  -3.639   0.551  1.00  0.00     0.013 C 
ENDBRANCH  23  25
ENDBRANCH  22  23
ENDBRANCH  21  22
ENDBRANCH   1  21
TORSDOF 8
