REMARK  8 active torsions:
REMARK  status: ('A' for Active; 'I' for Inactive)
REMARK    1  A    between atoms: O1_1  and  N1_2 
REMARK    2  A    between atoms: N1_2  and  C1_3 
REMARK    3  A    between atoms: N1_2  and  C4_9 
REMARK    4  A    between atoms: C2_5  and  O2_6 
REMARK    5  A    between atoms: C4_9  and  C5_10 
REMARK    6  A    between atoms: C4_9  and  C13_19 
REMARK    7  A    between atoms: C5_10  and  C6_11 
REMARK    8  A    between atoms: C6_11  and  C7_12 
ROOT
HETATM    1  C4  UNL     1      -1.239  -0.202   1.011  1.00  0.00     0.150 C 
ENDROOT
BRANCH   1   2
HETATM    2  N1  UNL     1      -2.322   0.712   0.878  1.00  0.00    -0.227 N 
BRANCH   2   3
HETATM    3  O1  UNL     1      -3.507   0.225   1.306  1.00  0.00    -0.285 OA
HETATM    4  H1  UNL     1      -3.584   0.413   2.274  1.00  0.00     0.245 HD
ENDBRANCH   2   3
BRANCH   2   5
HETATM    5  C1  UNL     1      -2.038   1.971   0.333  1.00  0.00     0.195 A 
HETATM    6  N2  UNL     1      -1.128   2.611  -0.099  1.00  0.00    -0.198 NA
HETATM    7  C2  UNL     1      -1.257   3.864  -0.556  1.00  0.00     0.171 A 
HETATM    8  C3  UNL     1      -2.579   4.512  -0.538  1.00  0.00     0.111 A 
HETATM    9  S1  UNL     1      -3.557   3.109   0.203  1.00  0.00    -0.058 SA
BRANCH   7  10
HETATM   10  O2  UNL     1      -0.058   4.441  -1.023  1.00  0.00    -0.344 OA
HETATM   11  H2  UNL     1       0.163   5.413  -0.823  1.00  0.00     0.219 HD
ENDBRANCH   7  10
ENDBRANCH   2   5
ENDBRANCH   1   2
BRANCH   1  12
HETATM   12  C5  UNL     1       0.099   0.324   0.541  1.00  0.00     0.037 C 
BRANCH  12  13
HETATM   13  C6  UNL     1       1.089  -0.799   0.773  1.00  0.00     0.041 C 
BRANCH  13  14
HETATM   14  C7  UNL     1       2.464  -0.428   0.355  1.00  0.00    -0.058 A 
HETATM   15  C8  UNL     1       3.398   0.167   1.179  1.00  0.00     0.008 A 
HETATM   16  C9  UNL     1       4.665   0.515   0.816  1.00  0.00     0.019 A 
HETATM   17  C10 UNL     1       4.984   0.225  -0.495  1.00  0.00     0.011 A 
HETATM   18 BR1  UNL     1       6.704   0.634  -1.193  1.00  0.00    -0.051 Br
HETATM   19  C11 UNL     1       4.102  -0.374  -1.391  1.00  0.00     0.019 A 
HETATM   20  C12 UNL     1       2.821  -0.704  -0.953  1.00  0.00     0.008 A 
ENDBRANCH  13  14
ENDBRANCH  12  13
ENDBRANCH   1  12
BRANCH   1  21
HETATM   21  C13 UNL     1      -1.625  -1.437   0.281  1.00  0.00    -0.033 A 
HETATM   22  C14 UNL     1      -2.195  -1.325  -0.973  1.00  0.00     0.009 A 
HETATM   23  C15 UNL     1      -2.571  -2.465  -1.689  1.00  0.00     0.001 A 
HETATM   24  C16 UNL     1      -2.370  -3.708  -1.135  1.00  0.00     0.000 A 
HETATM   25  C17 UNL     1      -1.805  -3.861   0.111  1.00  0.00     0.001 A 
HETATM   26  C18 UNL     1      -1.456  -2.718   0.769  1.00  0.00     0.009 A 
ENDBRANCH   1  21
TORSDOF 8
