REMARK  6 active torsions:
REMARK  status: ('A' for Active; 'I' for Inactive)
REMARK    1  A    between atoms: O1_1  and  C1_2 
REMARK    2  A    between atoms: C3_5  and  N1_6 
REMARK    3  A    between atoms: N1_6  and  C4_7 
REMARK    4  A    between atoms: C4_7  and  C5_8 
REMARK    5  A    between atoms: C4_7  and  C12_18 
REMARK    6  A    between atoms: C5_8  and  C6_9 
ROOT
HETATM    1  C4  UNL     1      -0.111  -0.742  -0.073  1.00  0.00     0.118 C 
ENDROOT
BRANCH   1   2
HETATM    2  N1  UNL     1      -0.341   0.071   1.078  1.00  0.00    -0.360 N 
HETATM    3  H3  UNL     1      -0.071   0.282   2.087  1.00  0.00     0.162 HD
BRANCH   2   4
HETATM    4  C3  UNL     1      -1.392   1.037   0.830  1.00  0.00     0.169 A 
HETATM    5  S1  UNL     1      -1.589   2.861   0.255  1.00  0.00    -0.060 SA
HETATM    6  C2  UNL     1      -3.401   2.792   0.377  1.00  0.00     0.111 A 
HETATM    7  C1  UNL     1      -3.602   1.407   0.833  1.00  0.00     0.171 A 
HETATM    8  N3  UNL     1      -2.556   0.632   1.024  1.00  0.00    -0.200 NA
BRANCH   7   9
HETATM    9  O1  UNL     1      -4.933   0.963   1.049  1.00  0.00    -0.344 OA
HETATM   10  H1  UNL     1      -5.164   0.006   1.121  1.00  0.00     0.219 HD
ENDBRANCH   7   9
ENDBRANCH   2   4
ENDBRANCH   1   2
BRANCH   1  11
HETATM   11  C5  UNL     1       0.390   0.070  -1.217  1.00  0.00     0.053 C 
BRANCH  11  12
HETATM   12  C6  UNL     1       1.710   0.697  -0.870  1.00  0.00     0.085 C 
HETATM   13  C7  UNL     1       2.726  -0.350  -0.581  1.00  0.00    -0.006 C 
HETATM   14  C8  UNL     1       4.007  -0.396  -0.231  1.00  0.00     0.017 C 
HETATM   15  C9  UNL     1       5.104   0.493   0.057  1.00  0.00     0.010 C 
HETATM   16 BR1  UNL     1       6.784  -0.347   0.404  1.00  0.00    -0.051 Br
HETATM   17  C10 UNL     1       5.273   1.817   0.154  1.00  0.00     0.021 C 
HETATM   18  C11 UNL     1       4.299   2.919  -0.018  1.00  0.00     0.030 C 
HETATM   19  P1  UNL     1       2.615   2.970   0.006  1.00  0.00     0.028 P 
HETATM   20  N2  UNL     1       1.494   1.561   0.272  1.00  0.00    -0.284 NA
HETATM   21  H12 UNL     1       1.857   1.131   1.158  1.00  0.00     0.128 HD
ENDBRANCH  11  12
ENDBRANCH   1  11
BRANCH   1  22
HETATM   22  C12 UNL     1      -1.353  -1.509  -0.359  1.00  0.00    -0.035 A 
HETATM   23  C13 UNL     1      -1.828  -2.051   0.845  1.00  0.00     0.009 A 
HETATM   24  C14 UNL     1      -2.987  -2.834   0.907  1.00  0.00     0.001 A 
HETATM   25  C15 UNL     1      -3.662  -3.063  -0.271  1.00  0.00     0.000 A 
HETATM   26  C16 UNL     1      -3.207  -2.537  -1.460  1.00  0.00     0.001 A 
HETATM   27  C17 UNL     1      -2.069  -1.771  -1.508  1.00  0.00     0.009 A 
ENDBRANCH   1  22
TORSDOF 6
