REMARK  1 active torsions:
REMARK  status: ('A' for Active; 'I' for Inactive)
REMARK    1  A    between atoms: O1_1  and  C1_2 
ROOT
HETATM    1  C1  UNL     1      -1.069  -1.194   1.934  1.00  0.00     0.172 C 
HETATM    2  C2  UNL     1       0.055  -0.572   1.547  1.00  0.00     0.039 C 
HETATM    3  C3  UNL     1       0.182  -0.445   0.275  1.00  0.00    -0.026 C 
HETATM    4  C4  UNL     1      -1.007  -0.324  -0.548  1.00  0.00     0.099 C 
HETATM    5  C5  UNL     1      -2.261   0.140   0.042  1.00  0.00     0.031 C 
HETATM    6  N1  UNL     1      -2.761  -0.956  -0.033  1.00  0.00    -0.274 N 
HETATM    7  N2  UNL     1      -3.867  -1.578   0.240  1.00  0.00    -0.191 NA
HETATM    8  C6  UNL     1      -2.603  -2.347   0.474  1.00  0.00     0.322 A 
HETATM    9  N3  UNL     1      -1.429  -2.302   1.118  1.00  0.00    -0.223 NA
HETATM   10  C7  UNL     1      -2.496   1.524   0.412  1.00  0.00     0.026 C 
HETATM   11  C8  UNL     1      -2.119   2.775   0.595  1.00  0.00    -0.001 C 
HETATM   12  C9  UNL     1      -0.761   3.255   0.368  1.00  0.00    -0.017 C 
HETATM   13  C10 UNL     1       0.519   3.360   0.090  1.00  0.00     0.042 C 
HETATM   14  C11 UNL     1       1.682   2.630  -0.307  1.00  0.00    -0.016 C 
HETATM   15  C12 UNL     1       2.567   1.748  -0.656  1.00  0.00     0.009 C 
HETATM   16  C13 UNL     1       2.487   0.305  -0.830  1.00  0.00    -0.026 A 
HETATM   17  C14 UNL     1       3.545  -0.308  -1.446  1.00  0.00     0.012 A 
HETATM   18  C15 UNL     1       3.703  -1.659  -1.653  1.00  0.00     0.001 A 
HETATM   19  C16 UNL     1       2.703  -2.485  -1.198  1.00  0.00     0.001 A 
HETATM   20  C17 UNL     1       1.611  -1.886  -0.567  1.00  0.00     0.013 A 
HETATM   21  C18 UNL     1       1.483  -0.533  -0.379  1.00  0.00    -0.018 A 
HETATM   22  H4  UNL     1      -4.218  -2.469   0.580  1.00  0.00     0.151 HD
ENDROOT
BRANCH   1  23
HETATM   23  O1  UNL     1      -1.889  -0.870   3.020  1.00  0.00    -0.344 OA
HETATM   24  H1  UNL     1      -1.761  -1.467   3.847  1.00  0.00     0.219 HD
ENDBRANCH   1  23
TORSDOF 1
