REMARK  5 active torsions:
REMARK  status: ('A' for Active; 'I' for Inactive)
REMARK    1  A    between atoms: C3_3  and  C4_4 
REMARK    2  A    between atoms: C5_5  and  C6_6 
REMARK    3  A    between atoms: C8_8  and  C9_9 
REMARK    4  A    between atoms: N2_17  and  C15_18 
REMARK    5  A    between atoms: C15_18  and  S1_19 
ROOT
HETATM    1  C6  UNL     1       0.099  -1.473   1.256  1.00  0.00     0.190 C 
HETATM    2  C7  UNL     1      -0.685  -1.203  -0.031  1.00  0.00     0.101 C 
HETATM    3  C8  UNL     1      -1.712  -0.260   0.540  1.00  0.00     0.067 C 
HETATM    4  N1  UNL     1      -1.178   0.330   1.553  1.00  0.00    -0.179 NA
HETATM    5  N2  UNL     1       0.135  -0.096   1.771  1.00  0.00    -0.279 N 
ENDROOT
BRANCH   3   6
HETATM    6  C9  UNL     1      -3.068  -0.039   0.049  1.00  0.00    -0.010 A 
HETATM    7  C10 UNL     1      -3.839   0.881   0.736  1.00  0.00     0.015 A 
HETATM    8  C11 UNL     1      -5.127   1.128   0.315  1.00  0.00     0.020 A 
HETATM    9  C12 UNL     1      -5.638   0.461  -0.781  1.00  0.00     0.011 A 
HETATM   10 BR1  UNL     1      -7.427   0.797  -1.374  1.00  0.00    -0.051 Br
HETATM   11  C13 UNL     1      -4.826  -0.449  -1.433  1.00  0.00     0.020 A 
HETATM   12  C14 UNL     1      -3.530  -0.732  -1.051  1.00  0.00     0.015 A 
ENDBRANCH   3   6
BRANCH   1  13
HETATM   13  C5  UNL     1       1.452  -1.924   0.989  1.00  0.00    -0.074 C 
HETATM   14  C4  UNL     1       2.584  -2.322   0.769  1.00  0.00    -0.077 C 
BRANCH  14  15
HETATM   15  C3  UNL     1       3.918  -2.797   0.532  1.00  0.00     0.060 C 
HETATM   16  C2  UNL     1       4.623  -2.471  -0.521  1.00  0.00    -0.022 C 
HETATM   17  C1  UNL     1       4.044  -1.567  -1.541  1.00  0.00     0.036 C 
ENDBRANCH  14  15
ENDBRANCH   1  13
BRANCH   5  18
HETATM   18  C15 UNL     1       1.204   0.712   2.370  1.00  0.00     0.233 C 
BRANCH  18  19
HETATM   19  S1  UNL     1       1.508   2.200   1.376  1.00  0.00    -0.014 SA
HETATM   20  C16 UNL     1       2.166   1.830  -0.228  1.00  0.00     0.073 A 
HETATM   21  C17 UNL     1       1.787   3.114  -0.298  1.00  0.00     0.299 A 
HETATM   22  N3  UNL     1       1.201   3.798   0.802  1.00  0.00    -0.018 N 
HETATM   23  H17 UNL     1       0.163   3.750   0.933  1.00  0.00     0.292 HD
HETATM   24  H18 UNL     1       2.035   4.232   1.265  1.00  0.00     0.292 HD
ENDBRANCH  18  19
ENDBRANCH   5  18
TORSDOF 5
