REMARK  4 active torsions:
REMARK  status: ('A' for Active; 'I' for Inactive)
REMARK    1  A    between atoms: O1_1  and  C1_2 
REMARK    2  A    between atoms: C3_5  and  N1_6 
REMARK    3  A    between atoms: C4_7  and  C5_8 
REMARK    4  A    between atoms: C12_15  and  C13_16 
ROOT
HETATM    1  N1  UNL     1      -0.420   0.705   0.247  1.00  0.00    -0.342 N 
HETATM    2  C4  UNL     1      -1.326   0.027   1.202  1.00  0.00     0.122 C 
HETATM    3  C11 UNL     1      -0.035  -0.556   1.793  1.00  0.00     0.060 C 
HETATM    4  C12 UNL     1       0.366  -0.480   0.310  1.00  0.00     0.122 C 
ENDROOT
BRANCH   1   5
HETATM    5  C3  UNL     1      -0.494   2.013  -0.359  1.00  0.00     0.172 A 
HETATM    6  S1  UNL     1      -1.950   3.006   0.127  1.00  0.00    -0.060 SA
HETATM    7  C2  UNL     1      -1.389   4.441  -0.972  1.00  0.00     0.111 A 
HETATM    8  C1  UNL     1      -0.176   3.898  -1.520  1.00  0.00     0.171 A 
HETATM    9  N2  UNL     1       0.111   2.687  -1.106  1.00  0.00    -0.200 NA
BRANCH   8  10
HETATM   10  O1  UNL     1       0.770   4.428  -2.425  1.00  0.00    -0.344 OA
HETATM   11  H1  UNL     1       1.578   4.939  -2.063  1.00  0.00     0.219 HD
ENDBRANCH   8  10
ENDBRANCH   1   5
BRANCH   2  12
HETATM   12  C5  UNL     1      -2.101  -1.062   0.572  1.00  0.00    -0.035 A 
HETATM   13  C6  UNL     1      -2.662  -0.746  -0.668  1.00  0.00     0.009 A 
HETATM   14  C7  UNL     1      -3.416  -1.653  -1.389  1.00  0.00     0.001 A 
HETATM   15  C8  UNL     1      -3.647  -2.925  -0.906  1.00  0.00     0.000 A 
HETATM   16  C9  UNL     1      -3.090  -3.234   0.323  1.00  0.00     0.001 A 
HETATM   17  C10 UNL     1      -2.337  -2.334   1.049  1.00  0.00     0.009 A 
ENDBRANCH   2  12
BRANCH   4  18
HETATM   18  C13 UNL     1       1.823  -0.399   0.143  1.00  0.00    -0.035 A 
HETATM   19  C14 UNL     1       2.559  -1.086   1.119  1.00  0.00     0.010 A 
HETATM   20  C15 UNL     1       3.932  -1.151   1.155  1.00  0.00     0.019 A 
HETATM   21  C16 UNL     1       4.658  -0.505   0.176  1.00  0.00     0.011 A 
HETATM   22 BR1  UNL     1       6.562  -0.507   0.099  1.00  0.00    -0.051 Br
HETATM   23  C17 UNL     1       3.967   0.178  -0.796  1.00  0.00     0.019 A 
HETATM   24  C18 UNL     1       2.595   0.228  -0.811  1.00  0.00     0.010 A 
ENDBRANCH   4  18
TORSDOF 4
