REMARK  6 active torsions:
REMARK  status: ('A' for Active; 'I' for Inactive)
REMARK    1  A    between atoms: C3_3  and  C4_4 
REMARK    2  A    between atoms: C4_4  and  C5_5 
REMARK    3  A    between atoms: C6_7  and  C7_8 
REMARK    4  A    between atoms: N2_16  and  O1_17 
REMARK    5  A    between atoms: O1_17  and  C13_18 
REMARK    6  A    between atoms: C14_20  and  O2_21 
ROOT
HETATM    1  C1  UNL     1      -0.346   6.147  -0.658  1.00  0.00     0.112 C 
HETATM    2  C2  UNL     1       0.253   4.869  -0.289  1.00  0.00    -0.111 C 
HETATM    3  C3  UNL     1       0.733   3.803   0.011  1.00  0.00    -0.104 C 
ENDROOT
BRANCH   3   4
HETATM    4  C4  UNL     1       1.319   2.506   0.350  1.00  0.00     0.134 C 
BRANCH   4   5
HETATM    5  C5  UNL     1       0.780   1.483  -0.630  1.00  0.00     0.215 A 
HETATM    6  S1  UNL     1      -1.035   1.391  -0.516  1.00  0.00    -0.077 SA
HETATM    7  C6  UNL     1      -1.114  -0.338  -0.043  1.00  0.00     0.128 A 
HETATM    8  N1  UNL     1       0.074  -0.832   0.076  1.00  0.00    -0.142 NA
HETATM    9  N2  UNL     1       1.062   0.119  -0.196  1.00  0.00    -0.151 N 
BRANCH   7  10
HETATM   10  C7  UNL     1      -2.348  -1.085   0.177  1.00  0.00     0.001 A 
HETATM   11  C8  UNL     1      -2.299  -2.414   0.539  1.00  0.00     0.016 A 
HETATM   12  C9  UNL     1      -3.469  -3.125   0.748  1.00  0.00     0.020 A 
HETATM   13  C10 UNL     1      -4.666  -2.487   0.589  1.00  0.00     0.011 A 
HETATM   14 BR1  UNL     1      -6.335  -3.409   0.863  1.00  0.00    -0.051 Br
HETATM   15  C11 UNL     1      -4.779  -1.145   0.224  1.00  0.00     0.020 A 
HETATM   16  C12 UNL     1      -3.578  -0.487   0.029  1.00  0.00     0.016 A 
ENDBRANCH   7  10
BRANCH   9  17
HETATM   17  O1  UNL     1       2.429  -0.000  -0.124  1.00  0.00    -0.189 OA
BRANCH  17  18
HETATM   18  C13 UNL     1       3.097  -1.200  -0.102  1.00  0.00     0.238 A 
HETATM   19  N3  UNL     1       2.988  -2.399  -0.122  1.00  0.00    -0.192 NA
HETATM   20  C14 UNL     1       4.038  -3.228  -0.076  1.00  0.00     0.172 A 
HETATM   21  C15 UNL     1       5.425  -2.659   0.005  1.00  0.00     0.111 A 
HETATM   22  S2  UNL     1       4.961  -0.849   0.002  1.00  0.00    -0.050 SA
BRANCH  20  23
HETATM   23  O2  UNL     1       3.630  -4.578  -0.113  1.00  0.00    -0.344 OA
HETATM   24  H11 UNL     1       4.277  -5.347  -0.009  1.00  0.00     0.219 HD
ENDBRANCH  20  23
ENDBRANCH  17  18
ENDBRANCH   9  17
ENDBRANCH   4   5
ENDBRANCH   3   4
TORSDOF 6
