REMARK  3 active torsions:
REMARK  status: ('A' for Active; 'I' for Inactive)
REMARK    1  A    between atoms: C4_5  and  C5_6 
REMARK    2  A    between atoms: N2_8  and  C6_9 
REMARK    3  A    between atoms: C9_14  and  C10_15 
ROOT
HETATM    1  C5  UNL     1       1.506  -0.028   0.037  1.00  0.00     0.067 C 
HETATM    2  N1  UNL     1       0.952   0.970   0.629  1.00  0.00    -0.173 NA
HETATM    3  N2  UNL     1      -0.420   1.030   0.559  1.00  0.00    -0.236 N 
HETATM    4  C9  UNL     1      -0.704  -0.358   0.458  1.00  0.00     0.151 C 
HETATM    5  C16 UNL     1       0.359  -0.788  -0.540  1.00  0.00     0.094 C 
ENDROOT
BRANCH   1   6
HETATM    6  C4  UNL     1       2.949  -0.282  -0.010  1.00  0.00    -0.010 A 
HETATM    7  C3  UNL     1       3.875   0.546   0.560  1.00  0.00     0.015 A 
HETATM    8  C2  UNL     1       5.211   0.176   0.485  1.00  0.00     0.020 A 
HETATM    9  C1  UNL     1       5.563  -1.016  -0.165  1.00  0.00     0.011 A 
HETATM   10 BR1  UNL     1       7.434  -1.448  -0.229  1.00  0.00    -0.051 Br
HETATM   11  C18 UNL     1       4.601  -1.822  -0.727  1.00  0.00     0.020 A 
HETATM   12  C17 UNL     1       3.269  -1.475  -0.664  1.00  0.00     0.015 A 
ENDBRANCH   1   6
BRANCH   3  13
HETATM   13  C6  UNL     1      -1.117   2.311   0.604  1.00  0.00     0.189 A 
HETATM   14  N3  UNL     1      -1.130   3.307  -0.441  1.00  0.00    -0.235 NA
HETATM   15  C7  UNL     1      -1.889   4.312  -0.027  1.00  0.00     0.127 A 
HETATM   16  C8  UNL     1      -2.648   4.511   1.253  1.00  0.00     0.072 A 
HETATM   17  S1  UNL     1      -2.147   2.899   2.004  1.00  0.00    -0.061 SA
ENDBRANCH   3  13
BRANCH   4  18
HETATM   18  C10 UNL     1      -1.993  -0.817   0.038  1.00  0.00    -0.033 A 
HETATM   19  C11 UNL     1      -2.356  -2.098   0.488  1.00  0.00     0.009 A 
HETATM   20  C12 UNL     1      -3.531  -2.740   0.226  1.00  0.00     0.001 A 
HETATM   21  C13 UNL     1      -4.476  -2.114  -0.545  1.00  0.00     0.000 A 
HETATM   22  C14 UNL     1      -4.184  -0.853  -1.020  1.00  0.00     0.001 A 
HETATM   23  C15 UNL     1      -2.975  -0.233  -0.731  1.00  0.00     0.009 A 
ENDBRANCH   4  18
TORSDOF 3
