REMARK  2 active torsions:
REMARK  status: ('A' for Active; 'I' for Inactive)
REMARK    1  A    between atoms: O1_1  and  C1_2 
REMARK    2  A    between atoms: C9_16  and  C10_17 
ROOT
HETATM    1  C1  UNL     1       1.096   2.137  -2.014  1.00  0.00     0.171 A 
HETATM    2  C2  UNL     1       2.440   2.029  -1.896  1.00  0.00     0.104 A 
HETATM    3  S1  UNL     1       2.686   0.510  -0.881  1.00  0.00    -0.097 SA
HETATM    4  C3  UNL     1       3.680   0.313   0.437  1.00  0.00     0.048 C 
HETATM    5  C4  UNL     1       3.774  -0.960   1.137  1.00  0.00     0.024 C 
HETATM    6  C5  UNL     1       3.419  -2.223   1.253  1.00  0.00    -0.003 C 
HETATM    7 BR1  UNL     1       3.681  -3.787   2.308  1.00  0.00    -0.052 Br
HETATM    8  C6  UNL     1       2.533  -2.957   0.368  1.00  0.00    -0.082 C 
HETATM    9  B1  UNL     1       1.051  -3.480  -0.390  1.00  0.00     0.249 B 
HETATM   10  C7  UNL     1      -0.472  -2.698   0.183  1.00  0.00    -0.006 C 
HETATM   11  N1  UNL     1      -0.329  -1.859  -0.823  1.00  0.00    -0.191 NA
HETATM   12  N2  UNL     1      -0.144  -0.613  -0.225  1.00  0.00    -0.238 N 
HETATM   13  C8  UNL     1       0.867   0.231  -0.755  1.00  0.00     0.186 A 
HETATM   14  N3  UNL     1       0.278   1.169  -1.399  1.00  0.00    -0.199 NA
HETATM   15  C9  UNL     1      -1.126  -0.594   0.830  1.00  0.00     0.146 C 
HETATM   16  C15 UNL     1      -1.718  -1.999   0.591  1.00  0.00     0.075 C 
ENDROOT
BRANCH  15  17
HETATM   17  C10 UNL     1      -2.184   0.384   0.572  1.00  0.00    -0.051 A 
HETATM   18  C11 UNL     1      -2.586   1.260   1.508  1.00  0.00     0.005 A 
HETATM   19  C12 UNL     1      -3.646   2.136   1.038  1.00  0.00    -0.003 A 
HETATM   20  C13 UNL     1      -3.904   1.796  -0.212  1.00  0.00    -0.022 A 
HETATM   21  C14 UNL     1      -3.022   0.680  -0.612  1.00  0.00     0.063 A 
ENDBRANCH  15  17
BRANCH   1  22
HETATM   22  O1  UNL     1       0.709   3.270  -2.781  1.00  0.00    -0.344 OA
HETATM   23  H1  UNL     1       0.778   4.206  -2.439  1.00  0.00     0.219 HD
ENDBRANCH   1  22
TORSDOF 2
