REMARK  3 active torsions:
REMARK  status: ('A' for Active; 'I' for Inactive)
REMARK    1  A    between atoms: O1_1  and  C1_2 
REMARK    2  A    between atoms: C3_5  and  C4_6 
REMARK    3  A    between atoms: C11_17  and  C12_18 
ROOT
HETATM    1  C1  UNL     1       0.460   3.546  -0.679  1.00  0.00     0.307 C 
HETATM    2  N1  UNL     1       0.773   2.111  -1.009  1.00  0.00    -0.247 NA
HETATM    3  C2  UNL     1       0.205   1.126  -0.350  1.00  0.00     0.092 C 
HETATM    4  C3  UNL     1       0.421   0.049   0.601  1.00  0.00     0.114 C 
HETATM    5  N2  UNL     1      -0.755   0.075   1.212  1.00  0.00    -0.173 NA
HETATM    6  N3  UNL     1      -1.339   1.383   0.996  1.00  0.00    -0.280 N 
HETATM    7  C10 UNL     1      -1.884   2.751   1.156  1.00  0.00     0.224 C 
HETATM    8  S1  UNL     1      -1.122   3.875  -0.019  1.00  0.00    -0.093 SA
HETATM    9  C11 UNL     1      -1.322   1.006  -0.453  1.00  0.00     0.192 C 
ENDROOT
BRANCH   4  10
HETATM   10  C4  UNL     1       1.743  -0.552   0.522  1.00  0.00    -0.004 A 
HETATM   11  C5  UNL     1       1.850  -1.510   1.490  1.00  0.00     0.015 A 
HETATM   12  C6  UNL     1       3.044  -2.224   1.610  1.00  0.00     0.020 A 
HETATM   13  C7  UNL     1       4.108  -1.976   0.769  1.00  0.00     0.011 A 
HETATM   14 BR1  UNL     1       5.786  -2.877   0.826  1.00  0.00    -0.051 Br
HETATM   15  C8  UNL     1       3.925  -0.997  -0.181  1.00  0.00     0.020 A 
HETATM   16  C9  UNL     1       2.770  -0.278  -0.328  1.00  0.00     0.015 A 
ENDBRANCH   4  10
BRANCH   9  17
HETATM   17  C12 UNL     1      -1.779  -0.370  -0.599  1.00  0.00    -0.028 A 
HETATM   18  C13 UNL     1      -2.910  -0.677   0.143  1.00  0.00     0.012 A 
HETATM   19  C14 UNL     1      -3.479  -1.952   0.117  1.00  0.00     0.043 A 
HETATM   20  C15 UNL     1      -2.909  -2.939  -0.664  1.00  0.00     0.116 A 
HETATM   21  F1  UNL     1      -3.503  -4.168  -0.655  1.00  0.00    -0.206 F 
HETATM   22  C16 UNL     1      -1.780  -2.625  -1.403  1.00  0.00     0.043 A 
HETATM   23  C17 UNL     1      -1.224  -1.377  -1.377  1.00  0.00     0.012 A 
ENDBRANCH   9  17
BRANCH   1  24
HETATM   24  O1  UNL     1       0.612   4.240  -1.878  1.00  0.00    -0.366 OA
HETATM   25  H1  UNL     1       1.498   4.671  -1.962  1.00  0.00     0.213 HD
ENDBRANCH   1  24
TORSDOF 3
