REMARK  9 active torsions:
REMARK  status: ('A' for Active; 'I' for Inactive)
REMARK    1  A    between atoms: O1_1  and  C1_2 
REMARK    2  A    between atoms: C3_5  and  N1_6 
REMARK    3  A    between atoms: N1_6  and  C4_7 
REMARK    4  A    between atoms: N1_6  and  N2_14 
REMARK    5  A    between atoms: C4_7  and  C5_8 
REMARK    6  A    between atoms: N2_14  and  C11_15 
REMARK    7  A    between atoms: C12_16  and  C13_17 
REMARK    8  A    between atoms: C12_16  and  C17_21 
REMARK    9  A    between atoms: C15_19  and  C18_22 
ROOT
HETATM    1  N1  UNL     1       0.117  -1.171   1.060  1.00  0.00    -0.246 N 
ENDROOT
BRANCH   1   2
HETATM    2  C3  UNL     1       0.967  -2.253   1.621  1.00  0.00     0.191 A 
HETATM    3  S1  UNL     1      -0.213  -3.696   1.253  1.00  0.00    -0.058 SA
HETATM    4  C2  UNL     1       0.996  -4.930   2.015  1.00  0.00     0.111 A 
HETATM    5  C1  UNL     1       2.076  -3.998   2.409  1.00  0.00     0.171 A 
HETATM    6  N3  UNL     1       1.855  -2.715   2.119  1.00  0.00    -0.198 NA
BRANCH   5   7
HETATM    7  O1  UNL     1       3.312  -4.243   3.046  1.00  0.00    -0.344 OA
HETATM    8  H1  UNL     1       3.221  -4.587   4.003  1.00  0.00     0.219 HD
ENDBRANCH   5   7
ENDBRANCH   1   2
BRANCH   1   9
HETATM    9  C4  UNL     1      -0.629  -0.479   2.044  1.00  0.00     0.191 C 
BRANCH   9  10
HETATM   10  C5  UNL     1      -1.492   0.612   1.606  1.00  0.00    -0.038 A 
HETATM   11  C6  UNL     1      -0.927   1.892   1.525  1.00  0.00     0.009 A 
HETATM   12  C7  UNL     1      -1.734   2.937   1.116  1.00  0.00     0.001 A 
HETATM   13  C8  UNL     1      -3.076   2.810   0.777  1.00  0.00     0.000 A 
HETATM   14  C9  UNL     1      -3.623   1.554   0.859  1.00  0.00     0.001 A 
HETATM   15  C10 UNL     1      -2.827   0.481   1.270  1.00  0.00     0.009 A 
ENDBRANCH   9  10
ENDBRANCH   1   9
BRANCH   1  16
HETATM   16  N2  UNL     1      -0.072  -0.746  -0.220  1.00  0.00    -0.197 NA
BRANCH  16  17
HETATM   17  C11 UNL     1       0.678   0.063  -0.913  1.00  0.00     0.127 A 
HETATM   18  C12 UNL     1       1.027   0.868  -2.223  1.00  0.00     0.024 A 
HETATM   19  C18 UNL     1       0.241   0.286  -2.205  1.00  0.00     0.104 A 
HETATM   20 BR1  UNL     1       0.074  -1.221  -3.413  1.00  0.00    -0.087 Br
BRANCH  18  21
HETATM   21  C13 UNL     1       0.372   2.192  -2.068  1.00  0.00     0.034 A 
HETATM   22  C14 UNL     1       0.942   2.800  -3.108  1.00  0.00    -0.032 A 
HETATM   23  C15 UNL     1       1.303   1.384  -2.874  1.00  0.00     0.006 A 
HETATM   24  C16 UNL     1       2.276   1.010  -3.877  1.00  0.00    -0.032 A 
HETATM   25  C17 UNL     1       1.994   0.023  -3.007  1.00  0.00     0.034 A 
ENDBRANCH  18  21
ENDBRANCH  16  17
ENDBRANCH   1  16
TORSDOF 9
