REMARK  5 active torsions:
REMARK  status: ('A' for Active; 'I' for Inactive)
REMARK    1  A    between atoms: C2_2  and  C3_3 
REMARK    2  A    between atoms: C4_5  and  C5_6 
REMARK    3  A    between atoms: C8_9  and  C9_10 
REMARK    4  A    between atoms: N2_18  and  C15_19 
REMARK    5  A    between atoms: C16_21  and  O1_22 
ROOT
HETATM    1  C5  UNL     1      -1.986  -0.486  -0.228  1.00  0.00     0.029 C 
HETATM    2  C6  UNL     1      -0.788  -0.014  -0.056  1.00  0.00     0.044 A 
HETATM    3  C7  UNL     1       0.429  -0.823  -0.244  1.00  0.00     0.121 A 
HETATM    4  C8  UNL     1       1.491   0.172   0.071  1.00  0.00     0.071 A 
HETATM    5  N1  UNL     1       0.976   1.331   0.381  1.00  0.00    -0.169 NA
HETATM    6  N2  UNL     1      -0.397   1.274   0.320  1.00  0.00    -0.213 N 
ENDROOT
BRANCH   4   7
HETATM    7  C9  UNL     1       2.932  -0.059   0.053  1.00  0.00    -0.009 A 
HETATM    8  C10 UNL     1       3.787   0.970   0.371  1.00  0.00     0.015 A 
HETATM    9  C11 UNL     1       5.165   0.798   0.368  1.00  0.00     0.020 A 
HETATM   10  C12 UNL     1       5.712  -0.408   0.046  1.00  0.00     0.011 A 
HETATM   11 BR1  UNL     1       7.608  -0.667   0.035  1.00  0.00    -0.051 Br
HETATM   12  C13 UNL     1       4.849  -1.452  -0.276  1.00  0.00     0.020 A 
HETATM   13  C14 UNL     1       3.461  -1.285  -0.275  1.00  0.00     0.015 A 
ENDBRANCH   4   7
BRANCH   6  14
HETATM   14  C15 UNL     1      -1.228   2.406   0.612  1.00  0.00     0.196 A 
HETATM   15  N3  UNL     1      -0.775   3.621   0.969  1.00  0.00    -0.198 NA
HETATM   16  C16 UNL     1      -1.753   4.507   1.187  1.00  0.00     0.171 A 
HETATM   17  C17 UNL     1      -3.097   4.249   1.070  1.00  0.00     0.111 A 
HETATM   18  S1  UNL     1      -2.951   2.494   0.580  1.00  0.00    -0.058 SA
BRANCH  16  19
HETATM   19  O1  UNL     1      -1.235   5.769   1.559  1.00  0.00    -0.344 OA
HETATM   20  H12 UNL     1      -1.655   6.637   1.278  1.00  0.00     0.219 HD
ENDBRANCH  16  19
ENDBRANCH   6  14
BRANCH   1  21
HETATM   21  C4  UNL     1      -2.086  -1.904  -0.631  1.00  0.00     0.026 C 
HETATM   22  C3  UNL     1      -3.293  -2.459  -0.827  1.00  0.00     0.033 C 
HETATM   23 CL1  UNL     1      -4.725  -1.486  -0.600  1.00  0.00    -0.084 Cl
BRANCH  22  24
HETATM   24  C2  UNL     1      -3.421  -3.848  -1.222  1.00  0.00     0.013 C 
HETATM   25  C1  UNL     1      -4.612  -4.391  -1.414  1.00  0.00     0.013 C 
ENDBRANCH  22  24
ENDBRANCH   1  21
TORSDOF 5
