REMARK  5 active torsions:
REMARK  status: ('A' for Active; 'I' for Inactive)
REMARK    1  A    between atoms: C4_5  and  C5_6 
REMARK    2  A    between atoms: C6_7  and  C7_8 
REMARK    3  A    between atoms: C9_10  and  C10_11 
REMARK    4  A    between atoms: N2_19  and  C16_20 
REMARK    5  A    between atoms: C17_22  and  O1_23 
ROOT
HETATM    1  C1  UNL     1       5.732  -1.042   0.456  1.00  0.00     0.019 C 
HETATM    2  C2  UNL     1       5.113  -1.505  -0.478  1.00  0.00    -0.065 C 
HETATM    3  C3  UNL     1       4.374  -2.060  -1.574  1.00  0.00     0.086 C 
HETATM    4 CL1  UNL     1       5.049  -3.223  -2.695  1.00  0.00    -0.074 Cl
HETATM    5  C4  UNL     1       3.120  -1.666  -1.739  1.00  0.00     0.033 C 
ENDROOT
BRANCH   5   6
HETATM    6  C5  UNL     1       2.531  -0.682  -0.804  1.00  0.00     0.000 C 
HETATM    7  C6  UNL     1       1.260  -0.260  -0.937  1.00  0.00     0.001 C 
BRANCH   7   8
HETATM    8  C7  UNL     1       0.784   0.726   0.057  1.00  0.00     0.141 C 
HETATM    9  C8  UNL     1       0.136   0.052   1.277  1.00  0.00     0.093 C 
HETATM   10  C9  UNL     1      -1.220  -0.229   0.733  1.00  0.00     0.067 C 
HETATM   11  N1  UNL     1      -1.441   0.597  -0.249  1.00  0.00    -0.173 NA
HETATM   12  N2  UNL     1      -0.358   1.447  -0.455  1.00  0.00    -0.237 N 
BRANCH  10  13
HETATM   13  C10 UNL     1      -2.092  -1.274   1.267  1.00  0.00    -0.010 A 
HETATM   14  C11 UNL     1      -1.708  -2.085   2.333  1.00  0.00     0.015 A 
HETATM   15  C12 UNL     1      -2.560  -3.061   2.807  1.00  0.00     0.020 A 
HETATM   16  C13 UNL     1      -3.784  -3.185   2.182  1.00  0.00     0.011 A 
HETATM   17 BR1  UNL     1      -4.955  -4.553   2.859  1.00  0.00    -0.051 Br
HETATM   18  C14 UNL     1      -4.200  -2.392   1.114  1.00  0.00     0.020 A 
HETATM   19  C15 UNL     1      -3.323  -1.423   0.663  1.00  0.00     0.015 A 
ENDBRANCH  10  13
BRANCH  12  20
HETATM   20  C16 UNL     1      -0.508   2.765  -1.057  1.00  0.00     0.192 A 
HETATM   21  N3  UNL     1      -1.279   3.528  -1.430  1.00  0.00    -0.198 NA
HETATM   22  C17 UNL     1      -1.037   4.701  -1.982  1.00  0.00     0.171 A 
HETATM   23  C18 UNL     1       0.304   5.062  -2.133  1.00  0.00     0.111 A 
HETATM   24  S1  UNL     1       1.150   3.599  -1.426  1.00  0.00    -0.058 SA
BRANCH  22  25
HETATM   25  O1  UNL     1      -2.137   5.494  -2.373  1.00  0.00    -0.344 OA
HETATM   26  H12 UNL     1      -2.625   6.075  -1.704  1.00  0.00     0.219 HD
ENDBRANCH  22  25
ENDBRANCH  12  20
ENDBRANCH   7   8
ENDBRANCH   5   6
TORSDOF 5
