REMARK  6 active torsions:
REMARK  status: ('A' for Active; 'I' for Inactive)
REMARK    1  A    between atoms: O1_1  and  C1_2 
REMARK    2  A    between atoms: C11_15  and  C12_16 
REMARK    3  A    between atoms: C12_16  and  C13_17 
REMARK    4  A    between atoms: C13_17  and  C14_18 
REMARK    5  A    between atoms: C14_18  and  C15_19 
REMARK    6  A    between atoms: C15_19  and  C16_20 
ROOT
HETATM    1  C1  UNL     1      -1.243   3.902   1.214  1.00  0.00     0.171 A 
HETATM    2  C2  UNL     1      -0.076   4.416   0.412  1.00  0.00     0.111 A 
HETATM    3  S1  UNL     1       0.246   2.754  -0.450  1.00  0.00    -0.058 SA
HETATM    4  C3  UNL     1      -1.152   1.821   0.399  1.00  0.00     0.190 A 
HETATM    5  N1  UNL     1      -1.104   0.607  -0.073  1.00  0.00    -0.260 N 
HETATM    6  N2  UNL     1      -2.216  -0.079   0.671  1.00  0.00    -0.296 N 
HETATM    7  C4  UNL     1      -2.822  -1.395   0.271  1.00  0.00     0.045 C 
HETATM    8  C5  UNL     1      -3.370  -1.821  -0.916  1.00  0.00     0.012 C 
HETATM    9  C6  UNL     1      -2.529  -3.048  -0.834  1.00  0.00     0.033 C 
HETATM   10  C7  UNL     1      -3.119  -3.519   0.494  1.00  0.00    -0.016 C 
HETATM   11  C8  UNL     1      -2.661  -2.529   1.264  1.00  0.00     0.027 C 
HETATM   12  C9  UNL     1      -1.046  -2.800  -0.922  1.00  0.00     0.015 C 
HETATM   13  C10 UNL     1      -0.651  -1.478  -1.079  1.00  0.00     0.032 C 
HETATM   14  C11 UNL     1      -0.191  -0.081  -1.100  1.00  0.00     0.133 C 
HETATM   15  N3  UNL     1      -1.701   2.656   1.159  1.00  0.00    -0.198 NA
HETATM   16  H3  UNL     1      -2.674   0.222   1.535  1.00  0.00     0.187 HD
ENDROOT
BRANCH  14  17
HETATM   17  C12 UNL     1       1.190   0.029  -0.599  1.00  0.00     0.000 C 
BRANCH  17  18
HETATM   18  C13 UNL     1       2.463   0.326  -0.511  1.00  0.00    -0.002 C 
BRANCH  18  19
HETATM   19  C14 UNL     1       3.787   0.384   0.061  1.00  0.00    -0.003 C 
BRANCH  19  20
HETATM   20  C15 UNL     1       4.712   0.993  -0.631  1.00  0.00    -0.012 C 
BRANCH  20  21
HETATM   21  C16 UNL     1       5.838   0.809   0.302  1.00  0.00     0.141 C 
HETATM   22 CL1  UNL     1       5.342  -0.084   1.758  1.00  0.00    -0.126 Cl
ENDBRANCH  20  21
ENDBRANCH  19  20
ENDBRANCH  18  19
ENDBRANCH  17  18
ENDBRANCH  14  17
BRANCH   1  23
HETATM   23  O1  UNL     1      -2.037   4.631   2.143  1.00  0.00    -0.344 OA
HETATM   24  H1  UNL     1      -2.776   5.243   1.800  1.00  0.00     0.219 HD
ENDBRANCH   1  23
TORSDOF 6
