REMARK  6 active torsions:
REMARK  status: ('A' for Active; 'I' for Inactive)
REMARK    1  A    between atoms: C13_14  and  C14_15 
REMARK    2  A    between atoms: C14_15  and  O3_17 
REMARK    3  A    between atoms: C16_19  and  O4_20 
REMARK    4  A    between atoms: O4_20  and  C17_21 
REMARK    5  A    between atoms: C17_21  and  C18_22 
REMARK    6  A    between atoms: C18_22  and  N1_23 
ROOT
HETATM    1  C1  UNL     1      -3.372   4.270   0.704  1.00  0.00     0.023 C 
HETATM    2  C2  UNL     1      -2.603   3.304   0.267  1.00  0.00    -0.046 A 
HETATM    3  C3  UNL     1      -1.435   2.937   1.067  1.00  0.00     0.008 A 
HETATM    4  C4  UNL     1      -0.745   1.944   0.529  1.00  0.00    -0.003 A 
HETATM    5  C5  UNL     1      -0.928   1.156  -0.698  1.00  0.00     0.066 A 
HETATM    6  C6  UNL     1      -2.129   1.581  -1.460  1.00  0.00    -0.003 A 
HETATM    7  C7  UNL     1      -2.878   2.584  -0.974  1.00  0.00     0.008 A 
HETATM    8  C8  UNL     1       0.297   1.114  -1.484  1.00  0.00     0.192 C 
HETATM    9  O1  UNL     1       0.977   1.931  -2.247  1.00  0.00    -0.385 OA
HETATM   10  C9  UNL     1       2.009   1.047  -2.714  1.00  0.00     0.211 C 
HETATM   11  C10 UNL     1       2.851   0.494  -1.603  1.00  0.00     0.026 A 
HETATM   12  C11 UNL     1       2.257  -0.463  -1.169  1.00  0.00    -0.004 A 
HETATM   13  C12 UNL     1       1.403  -1.596  -0.763  1.00  0.00     0.089 C 
HETATM   14  C13 UNL     1      -0.022  -1.290  -0.448  1.00  0.00     0.052 C 
HETATM   15  C16 UNL     1      -1.014  -0.349  -0.374  1.00  0.00     0.077 C 
HETATM   16  C20 UNL     1       3.315  -0.690  -0.037  1.00  0.00     0.125 A 
HETATM   17  O5  UNL     1       3.316  -1.634   0.895  1.00  0.00    -0.191 OA
HETATM   18  C21 UNL     1       4.585   0.042   0.332  1.00  0.00     0.015 A 
HETATM   19  C22 UNL     1       5.459  -0.251   1.389  1.00  0.00     0.015 A 
HETATM   20  C23 UNL     1       6.559   0.567   1.539  1.00  0.00     0.001 A 
HETATM   21  C24 UNL     1       6.868   1.638   0.743  1.00  0.00     0.001 A 
HETATM   22  C25 UNL     1       6.009   1.904  -0.273  1.00  0.00     0.016 A 
HETATM   23  C26 UNL     1       4.917   1.117  -0.447  1.00  0.00     0.028 A 
HETATM   24  C27 UNL     1       3.972   1.384  -1.523  1.00  0.00     0.192 A 
HETATM   25  O6  UNL     1       4.235   2.361  -2.264  1.00  0.00    -0.287 OA
ENDROOT
BRANCH  15  26
HETATM   26  O4  UNL     1      -2.294  -0.571   0.001  1.00  0.00    -0.351 OA
BRANCH  26  27
HETATM   27  C17 UNL     1      -2.834  -0.547   1.273  1.00  0.00     0.205 C 
BRANCH  27  28
HETATM   28  C18 UNL     1      -4.359  -0.371   1.150  1.00  0.00     0.295 C 
BRANCH  28  29
HETATM   29  N1  UNL     1      -4.966  -1.422   0.394  1.00  0.00     0.081 N 
HETATM   30  C19 UNL     1      -4.955  -2.719   0.979  1.00  0.00     0.306 C 
HETATM   31  H20 UNL     1      -5.924  -1.164   0.113  1.00  0.00     0.315 HD
ENDBRANCH  28  29
ENDBRANCH  27  28
ENDBRANCH  26  27
ENDBRANCH  15  26
BRANCH  14  32
HETATM   32  C14 UNL     1      -0.641  -2.537  -0.048  1.00  0.00     0.291 C 
HETATM   33  O2  UNL     1      -0.080  -3.686   0.020  1.00  0.00    -0.260 OA
BRANCH  32  34
HETATM   34  O3  UNL     1      -1.632  -3.288   0.357  1.00  0.00    -0.323 OA
HETATM   35  C15 UNL     1      -1.649  -4.656   0.628  1.00  0.00     0.213 C 
ENDBRANCH  32  34
ENDBRANCH  14  32
TORSDOF 6
