REMARK  4 active torsions:
REMARK  status: ('A' for Active; 'I' for Inactive)
REMARK    1  A    between atoms: O1_1  and  C1_2 
REMARK    2  A    between atoms: C2_4  and  N2_5 
REMARK    3  A    between atoms: C3_7  and  C4_8 
REMARK    4  A    between atoms: C11_16  and  C12_17 
ROOT
HETATM    1  N2  UNL     1      -1.257  -0.635  -0.899  1.00  0.00    -0.237 N 
HETATM    2  N3  UNL     1       0.063  -1.097  -0.867  1.00  0.00    -0.173 NA
HETATM    3  C3  UNL     1       0.921  -0.156  -0.992  1.00  0.00     0.067 C 
HETATM    4  C10 UNL     1       0.157   1.135  -1.132  1.00  0.00     0.094 C 
HETATM    5  C11 UNL     1      -1.240   0.809  -0.660  1.00  0.00     0.151 C 
ENDROOT
BRANCH   3   6
HETATM    6  C4  UNL     1       2.379  -0.261  -1.004  1.00  0.00    -0.010 A 
HETATM    7  C5  UNL     1       3.167   0.881  -1.152  1.00  0.00     0.015 A 
HETATM    8  C6  UNL     1       4.551   0.689  -1.152  1.00  0.00     0.020 A 
HETATM    9  C7  UNL     1       5.188  -0.542  -1.017  1.00  0.00     0.011 A 
HETATM   10 BR1  UNL     1       7.069  -0.696  -1.030  1.00  0.00    -0.051 Br
HETATM   11  C8  UNL     1       4.318  -1.602  -0.877  1.00  0.00     0.020 A 
HETATM   12  C9  UNL     1       2.943  -1.518  -0.864  1.00  0.00     0.015 A 
ENDBRANCH   3   6
BRANCH   1  13
HETATM   13  C2  UNL     1      -2.421  -1.458  -1.131  1.00  0.00     0.188 A 
HETATM   14  N1  UNL     1      -2.771  -2.478  -0.600  1.00  0.00    -0.223 NA
HETATM   15  C1  UNL     1      -3.942  -2.679  -1.320  1.00  0.00     0.316 A 
HETATM   16  S1  UNL     1      -3.670  -1.205  -2.260  1.00  0.00    -0.036 SA
BRANCH  15  17
HETATM   17  O1  UNL     1      -5.133  -2.650  -0.526  1.00  0.00    -0.365 OA
HETATM   18  H1  UNL     1      -4.844  -2.783   0.417  1.00  0.00     0.213 HD
ENDBRANCH  15  17
ENDBRANCH   1  13
BRANCH   5  19
HETATM   19  C12 UNL     1      -1.321   1.148   0.781  1.00  0.00    -0.033 A 
HETATM   20  C13 UNL     1      -0.557   0.479   1.715  1.00  0.00     0.011 A 
HETATM   21  C14 UNL     1      -0.605   0.768   3.078  1.00  0.00     0.019 A 
HETATM   22  C15 UNL     1      -1.473   1.782   3.487  1.00  0.00     0.011 A 
HETATM   23 BR2  UNL     1      -1.473   2.110   5.373  1.00  0.00    -0.051 Br
HETATM   24  C16 UNL     1      -2.247   2.466   2.585  1.00  0.00     0.019 A 
HETATM   25  C17 UNL     1      -2.176   2.157   1.242  1.00  0.00     0.011 A 
ENDBRANCH   5  19
TORSDOF 4
