REMARK  1 active torsions:
REMARK  status: ('A' for Active; 'I' for Inactive)
REMARK    1  A    between atoms: C8_12  and  C9_13 
ROOT
HETATM    1  C1  UNL     1      -4.860   2.655   0.444  1.00  0.00     0.048 C 
HETATM    2  C2  UNL     1      -4.199   1.321   0.307  1.00  0.00    -0.064 C 
HETATM    3  C3  UNL     1      -4.775   0.147   0.123  1.00  0.00     0.006 C 
HETATM    4  C4  UNL     1      -4.791  -1.321  -0.068  1.00  0.00     0.202 C 
HETATM    5  O1  UNL     1      -3.486  -1.890  -0.070  1.00  0.00    -0.359 OA
HETATM    6  C5  UNL     1      -3.313  -3.275  -0.245  1.00  0.00     0.141 C 
HETATM    7  C6  UNL     1      -2.116  -3.805  -0.059  1.00  0.00     0.070 C 
HETATM    8  S1  UNL     1      -0.840  -2.650   0.405  1.00  0.00    -0.118 SA
HETATM    9  C7  UNL     1      -0.314  -1.765  -1.075  1.00  0.00     0.223 C 
HETATM   10  N1  UNL     1       0.715  -0.816  -0.711  1.00  0.00    -0.290 N 
HETATM   11  N2  UNL     1       2.024  -1.025  -0.282  1.00  0.00    -0.180 NA
HETATM   12  C8  UNL     1       2.714   0.069  -0.471  1.00  0.00     0.066 C 
HETATM   13  C15 UNL     1       1.880   1.167  -1.077  1.00  0.00     0.089 C 
HETATM   14  C16 UNL     1       0.503   0.638  -0.749  1.00  0.00     0.114 C 
HETATM   15  C17 UNL     1      -0.047   1.189   0.521  1.00  0.00     0.054 C 
HETATM   16  C18 UNL     1      -1.529   1.218   0.443  1.00  0.00    -0.024 C 
HETATM   17  C19 UNL     1      -2.794   1.560   0.416  1.00  0.00     0.002 C 
ENDROOT
BRANCH  12  18
HETATM   18  C9  UNL     1       4.124   0.231  -0.141  1.00  0.00    -0.010 A 
HETATM   19  C10 UNL     1       4.828   1.397  -0.351  1.00  0.00     0.015 A 
HETATM   20  C11 UNL     1       6.179   1.465  -0.006  1.00  0.00     0.020 A 
HETATM   21  C12 UNL     1       6.860   0.400   0.548  1.00  0.00     0.011 A 
HETATM   22 BR1  UNL     1       8.691   0.467   1.025  1.00  0.00    -0.051 Br
HETATM   23  C13 UNL     1       6.176  -0.778   0.767  1.00  0.00     0.020 A 
HETATM   24  C14 UNL     1       4.842  -0.804   0.412  1.00  0.00     0.015 A 
ENDBRANCH  12  18
TORSDOF 1
