REMARK  2 active torsions:
REMARK  status: ('A' for Active; 'I' for Inactive)
REMARK    1  A    between atoms: N2_14  and  C12_15 
REMARK    2  A    between atoms: C13_17  and  O1_18 
ROOT
HETATM    1  C1  UNL     1       2.322   0.714   2.739  1.00  0.00     0.048 C 
HETATM    2  C2  UNL     1       1.049   0.646   1.927  1.00  0.00    -0.060 C 
HETATM    3  C3  UNL     1      -0.150   0.669   2.458  1.00  0.00     0.003 C 
HETATM    4  C4  UNL     1      -1.583   0.682   2.867  1.00  0.00    -0.021 C 
HETATM    5  C5  UNL     1      -2.625   0.593   1.993  1.00  0.00     0.020 C 
HETATM    6  C6  UNL     1      -3.877   0.515   1.261  1.00  0.00     0.041 C 
HETATM    7  P1  UNL     1      -4.337  -1.029   0.404  1.00  0.00    -0.121 P 
HETATM    8  C7  UNL     1      -2.972  -2.253   0.200  1.00  0.00     0.030 C 
HETATM    9  C8  UNL     1      -3.568  -3.624  -0.180  1.00  0.00     0.019 C 
HETATM   10  C9  UNL     1      -2.020  -1.826  -0.849  1.00  0.00    -0.016 C 
HETATM   11  C10 UNL     1      -1.207  -1.512  -1.806  1.00  0.00     0.026 C 
HETATM   12  C11 UNL     1      -0.277  -0.440  -2.049  1.00  0.00     0.060 C 
HETATM   13  N1  UNL     1       0.637  -0.104  -2.833  1.00  0.00    -0.170 NA
HETATM   14  N2  UNL     1       1.671   0.579  -2.130  1.00  0.00    -0.213 N 
HETATM   15  C15 UNL     1       1.218   0.610  -0.748  1.00  0.00     0.045 C 
HETATM   16  C16 UNL     1       1.479   0.619   0.534  1.00  0.00     0.034 C 
HETATM   17  C17 UNL     1      -0.262   0.705  -1.113  1.00  0.00     0.120 C 
HETATM   18  H9  UNL     1      -4.973  -0.729  -0.870  1.00  0.00     0.058 HD
ENDROOT
BRANCH  14  19
HETATM   19  C12 UNL     1       2.985   1.191  -2.330  1.00  0.00     0.196 A 
HETATM   20  N3  UNL     1       4.045   0.706  -2.225  1.00  0.00    -0.198 NA
HETATM   21  C13 UNL     1       5.206   1.310  -2.428  1.00  0.00     0.171 A 
HETATM   22  C14 UNL     1       5.158   2.667  -2.806  1.00  0.00     0.111 A 
HETATM   23  S1  UNL     1       3.350   2.978  -2.842  1.00  0.00    -0.058 SA
BRANCH  21  24
HETATM   24  O1  UNL     1       6.407   0.588  -2.260  1.00  0.00    -0.344 OA
HETATM   25  H16 UNL     1       6.822   0.620  -1.332  1.00  0.00     0.219 HD
ENDBRANCH  21  24
ENDBRANCH  14  19
TORSDOF 2
