REMARK  6 active torsions:
REMARK  status: ('A' for Active; 'I' for Inactive)
REMARK    1  A    between atoms: C5_5  and  C6_6 
REMARK    2  A    between atoms: C6_6  and  C7_7 
REMARK    3  A    between atoms: C6_6  and  N1_16 
REMARK    4  A    between atoms: C7_7  and  C8_8 
REMARK    5  A    between atoms: C8_8  and  S1_9 
REMARK    6  A    between atoms: N1_16  and  C14_17 
ROOT
HETATM    1  C6  UNL     1       0.056   0.135  -0.566  1.00  0.00     0.117 C 
ENDROOT
BRANCH   1   2
HETATM    2  C5  UNL     1      -1.299  -0.570  -0.553  1.00  0.00    -0.035 A 
HETATM    3  C4  UNL     1      -1.892  -0.845  -1.742  1.00  0.00     0.010 A 
HETATM    4  C3  UNL     1      -3.113  -1.479  -1.796  1.00  0.00     0.007 A 
HETATM    5  C2  UNL     1      -3.716  -1.825  -0.611  1.00  0.00    -0.062 A 
HETATM    6  C1  UNL     1      -5.028  -2.505  -0.664  1.00  0.00     0.048 C 
HETATM    7  C18 UNL     1      -3.075  -1.524   0.593  1.00  0.00     0.007 A 
HETATM    8  C17 UNL     1      -1.849  -0.888   0.671  1.00  0.00     0.010 A 
ENDBRANCH   1   2
BRANCH   1   9
HETATM    9  C7  UNL     1       1.024  -0.916  -0.115  1.00  0.00     0.050 C 
BRANCH   9  10
HETATM   10  C8  UNL     1       2.468  -0.500  -0.078  1.00  0.00     0.011 C 
HETATM   11  C9  UNL     1       3.296  -1.731   0.310  1.00  0.00     0.048 C 
HETATM   12  C10 UNL     1       4.733  -1.494   0.087  1.00  0.00    -0.010 C 
HETATM   13  C11 UNL     1       5.016  -0.329   0.623  1.00  0.00    -0.015 C 
HETATM   14 BR1  UNL     1       6.870   0.178   0.440  1.00  0.00    -0.056 Br
HETATM   15  C12 UNL     1       4.164   0.639   1.330  1.00  0.00     0.048 C 
HETATM   16  C13 UNL     1       2.690   0.518   0.991  1.00  0.00     0.025 C 
BRANCH  10  17
HETATM   17  S1  UNL     1       3.050   0.025  -1.717  1.00  0.00    -0.172 SA
HETATM   18  H9  UNL     1       2.951  -1.085  -2.576  1.00  0.00     0.102 HD
ENDBRANCH  10  17
ENDBRANCH   9  10
ENDBRANCH   1   9
BRANCH   1  19
HETATM   19  N1  UNL     1      -0.145   1.157   0.480  1.00  0.00    -0.368 N 
HETATM   20  H17 UNL     1       0.151   1.306   1.466  1.00  0.00     0.161 HD
BRANCH  19  21
HETATM   21  C14 UNL     1      -0.985   2.235   0.042  1.00  0.00     0.121 C 
HETATM   22  N2  UNL     1      -1.195   2.591  -1.193  1.00  0.00    -0.249 NA
HETATM   23  C15 UNL     1      -2.103   3.720  -1.197  1.00  0.00     0.319 C 
HETATM   24  O1  UNL     1      -2.128   4.202   0.110  1.00  0.00    -0.363 OA
HETATM   25  C16 UNL     1      -1.780   3.156   0.929  1.00  0.00     0.247 C 
ENDBRANCH  19  21
ENDBRANCH   1  19
TORSDOF 6
