REMARK  3 active torsions:
REMARK  status: ('A' for Active; 'I' for Inactive)
REMARK    1  A    between atoms: C6_7  and  O1_8 
REMARK    2  A    between atoms: C12_16  and  C13_17 
REMARK    3  A    between atoms: C16_20  and  N3_21 
ROOT
HETATM    1  C1  UNL     1      -4.726  -0.541   2.131  1.00  0.00     0.048 C 
HETATM    2  C2  UNL     1      -3.647  -0.312   1.133  1.00  0.00    -0.060 C 
HETATM    3  C3  UNL     1      -4.085   0.365   0.100  1.00  0.00     0.013 C 
HETATM    4  C4  UNL     1      -3.579   0.908  -1.182  1.00  0.00     0.047 C 
HETATM    5  S1  UNL     1      -2.145   0.516  -1.861  1.00  0.00    -0.099 SA
HETATM    6  C5  UNL     1      -1.562   1.192  -3.414  1.00  0.00     0.104 A 
HETATM    7  C6  UNL     1      -0.281   0.825  -3.286  1.00  0.00     0.170 A 
HETATM    8  N1  UNL     1       0.258   0.133  -2.204  1.00  0.00    -0.200 NA
HETATM    9  C7  UNL     1      -0.561  -0.167  -1.265  1.00  0.00     0.170 A 
HETATM   10  N2  UNL     1      -0.338  -0.864  -0.023  1.00  0.00    -0.321 N 
HETATM   11  C8  UNL     1      -1.129  -1.107   1.134  1.00  0.00     0.015 C 
HETATM   12  C9  UNL     1      -2.372  -0.875   1.511  1.00  0.00     0.032 C 
HETATM   13  C10 UNL     1      -0.170  -1.793   2.037  1.00  0.00     0.059 C 
HETATM   14  C11 UNL     1       0.926  -2.339   1.186  1.00  0.00     0.036 C 
HETATM   15  C12 UNL     1       0.996  -1.415  -0.009  1.00  0.00     0.125 C 
ENDROOT
BRANCH  15  16
HETATM   16  C13 UNL     1       2.059  -0.416   0.058  1.00  0.00    -0.035 A 
HETATM   17  C14 UNL     1       1.950   0.633   0.944  1.00  0.00     0.011 A 
HETATM   18  C15 UNL     1       2.973   1.573   0.992  1.00  0.00     0.029 A 
HETATM   19  C16 UNL     1       4.067   1.442   0.162  1.00  0.00     0.025 A 
HETATM   20  C17 UNL     1       4.189   0.396  -0.730  1.00  0.00     0.029 A 
HETATM   21  C18 UNL     1       3.158  -0.537  -0.767  1.00  0.00     0.011 A 
BRANCH  19  22
HETATM   22  N3  UNL     1       5.074   2.438   0.264  1.00  0.00    -0.399 N 
HETATM   23  H16 UNL     1       4.645   3.044  -0.474  1.00  0.00     0.156 HD
HETATM   24  H17 UNL     1       5.932   2.521   0.867  1.00  0.00     0.156 HD
ENDBRANCH  19  22
ENDBRANCH  15  16
BRANCH   7  25
HETATM   25  O1  UNL     1       0.568   1.176  -4.337  1.00  0.00    -0.344 OA
HETATM   26  H7  UNL     1       1.264   1.898  -4.270  1.00  0.00     0.219 HD
ENDBRANCH   7  25
TORSDOF 3
