REMARK  5 active torsions:
REMARK  status: ('A' for Active; 'I' for Inactive)
REMARK    1  A    between atoms: C4_4  and  C5_5 
REMARK    2  A    between atoms: C6_6  and  C7_7 
REMARK    3  A    between atoms: N2_18  and  C16_19 
REMARK    4  A    between atoms: C17_21  and  O1_22 
REMARK    5  A    between atoms: C18_23  and  S1_24 
ROOT
HETATM    1  C1  UNL     1       5.139   0.075  -1.158  1.00  0.00     0.017 C 
HETATM    2  C2  UNL     1       5.154  -0.896  -0.417  1.00  0.00    -0.090 C 
HETATM    3  C3  UNL     1       5.144  -2.000   0.424  1.00  0.00     0.060 C 
HETATM    4  C4  UNL     1       3.889  -2.149   0.905  1.00  0.00    -0.012 C 
ENDROOT
BRANCH   4   5
HETATM    5  C5  UNL     1       3.239  -0.993   0.243  1.00  0.00     0.023 C 
HETATM    6  C6  UNL     1       2.137  -0.297   0.028  1.00  0.00     0.026 C 
BRANCH   6   7
HETATM    7  C7  UNL     1       0.729  -0.429   0.474  1.00  0.00     0.123 C 
HETATM    8  C8  UNL     1      -0.087  -1.029  -0.748  1.00  0.00     0.089 C 
HETATM    9  C9  UNL     1      -1.404  -0.892  -0.138  1.00  0.00     0.067 C 
HETATM   10  C10 UNL     1      -2.717  -1.453  -0.063  1.00  0.00    -0.010 A 
HETATM   11  N1  UNL     1      -1.269   0.119   0.679  1.00  0.00    -0.174 NA
HETATM   12  C11 UNL     1      -3.822  -1.713   0.663  1.00  0.00     0.015 A 
HETATM   13  C15 UNL     1      -3.063  -1.281  -1.437  1.00  0.00     0.015 A 
HETATM   14  C12 UNL     1      -5.117  -1.828   0.348  1.00  0.00     0.020 A 
HETATM   15  C13 UNL     1      -5.437  -1.646  -1.016  1.00  0.00     0.011 A 
HETATM   16 BR1  UNL     1      -7.337  -1.814  -1.248  1.00  0.00    -0.051 Br
HETATM   17  C14 UNL     1      -4.393  -1.380  -1.873  1.00  0.00     0.020 A 
HETATM   18  N2  UNL     1      -0.030   0.705   0.685  1.00  0.00    -0.234 N 
BRANCH  18  19
HETATM   19  C16 UNL     1       0.198   2.121   0.796  1.00  0.00     0.301 A 
HETATM   20  N3  UNL     1       0.370   3.180   0.870  1.00  0.00     0.097 N 
HETATM   21  C17 UNL     1       0.447   4.249   1.541  1.00  0.00     0.354 A 
HETATM   22  S1  UNL     1       0.631   3.079  -0.809  1.00  0.00     0.106 SA
HETATM   23  C18 UNL     1       0.752   4.638   0.113  1.00  0.00     0.372 A 
BRANCH  21  24
HETATM   24  O1  UNL     1       0.494   5.314   2.396  1.00  0.00    -0.357 OA
HETATM   25  H13 UNL     1       0.877   6.203   2.233  1.00  0.00     0.213 HD
ENDBRANCH  21  24
ENDBRANCH  18  19
ENDBRANCH   6   7
ENDBRANCH   4   5
TORSDOF 5
