REMARK  4 active torsions:
REMARK  status: ('A' for Active; 'I' for Inactive)
REMARK    1  A    between atoms: O1_2  and  C2_3 
REMARK    2  A    between atoms: N1_8  and  N2_9 
REMARK    3  A    between atoms: C7_10  and  C8_11 
REMARK    4  A    between atoms: C14_19  and  O2_20 
ROOT
HETATM    1  C2  UNL     1      -2.705  -2.526   0.038  1.00  0.00     0.069 C 
HETATM    2  C3  UNL     1      -1.551  -2.822   0.606  1.00  0.00     0.036 C 
HETATM    3  C4  UNL     1      -0.217  -2.564   1.113  1.00  0.00     0.000 C 
HETATM    4  C5  UNL     1       0.554  -1.496   1.188  1.00  0.00    -0.005 C 
HETATM    5  C6  UNL     1       0.187  -0.159   0.715  1.00  0.00     0.187 C 
HETATM    6  N1  UNL     1       1.019   0.424  -0.277  1.00  0.00    -0.236 N 
HETATM    7  S1  UNL     1       1.748   2.022   0.065  1.00  0.00    -0.001 SA
HETATM    8  C13 UNL     1       0.540   3.053   0.889  1.00  0.00     0.127 C 
HETATM    9  C14 UNL     1      -0.722   3.453   1.143  1.00  0.00     0.172 C 
HETATM   10  N3  UNL     1      -1.224   2.489   0.237  1.00  0.00    -0.219 NA
HETATM   11  C16 UNL     1      -2.454   2.200   0.032  1.00  0.00     0.209 C 
HETATM   12  N4  UNL     1      -2.735   1.176  -0.947  1.00  0.00    -0.360 N 
HETATM   13  C17 UNL     1      -3.421  -0.088  -0.900  1.00  0.00     0.091 C 
HETATM   14  C18 UNL     1      -3.364  -1.359  -0.542  1.00  0.00     0.053 C 
HETATM   15  H19 UNL     1      -2.292   1.527  -1.857  1.00  0.00     0.166 HD
ENDROOT
BRANCH   6  16
HETATM   16  N2  UNL     1       1.244  -0.234  -1.490  1.00  0.00    -0.181 NA
HETATM   17  C7  UNL     1       2.364  -0.750  -1.823  1.00  0.00     0.124 C 
BRANCH  17  18
HETATM   18  C8  UNL     1       3.609  -0.755  -1.022  1.00  0.00     0.074 A 
HETATM   19  C9  UNL     1       4.473   0.418  -1.251  1.00  0.00    -0.011 A 
HETATM   20  C10 UNL     1       5.652   0.021  -1.717  1.00  0.00     0.015 A 
HETATM   21  C11 UNL     1       5.665  -1.436  -1.834  1.00  0.00     0.007 A 
HETATM   22 BR1  UNL     1       6.970  -2.691  -2.412  1.00  0.00    -0.051 Br
HETATM   23  C12 UNL     1       4.484  -1.890  -1.432  1.00  0.00     0.006 A 
ENDBRANCH  17  18
ENDBRANCH   6  16
BRANCH   9  24
HETATM   24  O2  UNL     1      -0.950   4.497   2.061  1.00  0.00    -0.339 OA
HETATM   25  C15 UNL     1      -1.182   5.822   1.622  1.00  0.00     0.211 C 
ENDBRANCH   9  24
BRANCH   1  26
HETATM   26  O1  UNL     1      -3.577  -3.654  -0.050  1.00  0.00    -0.356 OA
HETATM   27  C1  UNL     1      -4.330  -4.025   1.070  1.00  0.00     0.210 C 
ENDBRANCH   1  26
TORSDOF 4
