REMARK  4 active torsions:
REMARK  status: ('A' for Active; 'I' for Inactive)
REMARK    1  A    between atoms: O1_2  and  C2_3 
REMARK    2  A    between atoms: C5_6  and  C6_7 
REMARK    3  A    between atoms: N2_11  and  C9_12 
REMARK    4  A    between atoms: C10_14  and  O2_15 
ROOT
HETATM    1  C6  UNL     1      -0.599   0.708  -0.582  1.00  0.00     0.164 C 
HETATM    2  C7  UNL     1      -1.696  -0.382  -0.545  1.00  0.00     0.116 C 
HETATM    3  C8  UNL     1      -2.016  -0.264   0.934  1.00  0.00     0.070 C 
HETATM    4  N1  UNL     1      -1.688   0.918   1.308  1.00  0.00    -0.173 NA
HETATM    5  N2  UNL     1      -1.166   1.693   0.305  1.00  0.00    -0.235 N 
HETATM    6  C12 UNL     1      -2.589  -1.202   1.922  1.00  0.00     0.030 C 
HETATM    7  C13 UNL     1      -3.006  -2.424   1.545  1.00  0.00     0.003 C 
HETATM    8  C14 UNL     1      -3.000  -3.065   0.209  1.00  0.00     0.018 C 
HETATM    9  C15 UNL     1      -2.908  -2.343  -0.848  1.00  0.00    -0.002 C 
HETATM   10  S2  UNL     1      -1.312  -1.723  -1.205  1.00  0.00    -0.195 SA
HETATM   11  C16 UNL     1      -0.891  -3.098  -1.778  1.00  0.00     0.074 C 
HETATM   12 BR1  UNL     1      -1.026  -0.923  -2.738  1.00  0.00    -0.039 Br
HETATM   13  H13 UNL     1      -0.282  -1.855  -0.155  1.00  0.00     0.089 HD
ENDROOT
BRANCH   1  14
HETATM   14  C5  UNL     1       0.716   0.202  -0.177  1.00  0.00    -0.032 A 
HETATM   15  C4  UNL     1       1.794   0.088  -1.062  1.00  0.00     0.012 A 
HETATM   16  C3  UNL     1       3.039  -0.382  -0.721  1.00  0.00     0.037 A 
HETATM   17  C2  UNL     1       3.282  -0.773   0.556  1.00  0.00     0.068 A 
HETATM   18  C18 UNL     1       2.284  -0.692   1.477  1.00  0.00     0.037 A 
HETATM   19  C17 UNL     1       1.048  -0.214   1.091  1.00  0.00     0.012 A 
BRANCH  17  20
HETATM   20  O1  UNL     1       4.524  -1.252   0.941  1.00  0.00    -0.356 OA
HETATM   21  C1  UNL     1       5.612  -1.367   0.042  1.00  0.00     0.210 C 
ENDBRANCH  17  20
ENDBRANCH   1  14
BRANCH   5  22
HETATM   22  C9  UNL     1      -1.202   3.132   0.209  1.00  0.00     0.192 A 
HETATM   23  N3  UNL     1      -1.651   4.030   0.899  1.00  0.00    -0.198 NA
HETATM   24  C10 UNL     1      -1.519   5.305   0.526  1.00  0.00     0.171 A 
HETATM   25  C11 UNL     1      -0.881   5.648  -0.632  1.00  0.00     0.111 A 
HETATM   26  S1  UNL     1      -0.437   3.915  -1.220  1.00  0.00    -0.058 SA
BRANCH  24  27
HETATM   27  O2  UNL     1      -2.087   6.237   1.421  1.00  0.00    -0.344 OA
HETATM   28  H8  UNL     1      -3.060   6.494   1.322  1.00  0.00     0.219 HD
ENDBRANCH  24  27
ENDBRANCH   5  22
TORSDOF 4
