REMARK  1 active torsions:
REMARK  status: ('A' for Active; 'I' for Inactive)
REMARK    1  A    between atoms: C8_11  and  O1_12 
ROOT
HETATM    1  C1  UNL     1       4.160   1.956   0.954  1.00  0.00     0.036 C 
HETATM    2  C2  UNL     1       3.116   0.958   0.506  1.00  0.00     0.102 C 
HETATM    3  C3  UNL     1       1.765   1.518   0.737  1.00  0.00     0.017 C 
HETATM    4  C4  UNL     1       0.968   1.817  -0.256  1.00  0.00     0.010 C 
HETATM    5 BR1  UNL     1       1.511   1.546  -2.085  1.00  0.00    -0.051 Br
HETATM    6  C5  UNL     1      -0.363   2.356  -0.003  1.00  0.00     0.036 C 
HETATM    7  C6  UNL     1      -1.184   2.663  -1.021  1.00  0.00     0.090 C 
HETATM    8  N1  UNL     1      -2.481   3.189  -0.757  1.00  0.00    -0.360 N 
HETATM    9  C7  UNL     1      -3.166   1.938  -0.570  1.00  0.00     0.209 C 
HETATM   10  N2  UNL     1      -2.975   0.909   0.163  1.00  0.00    -0.220 NA
HETATM   11  C8  UNL     1      -3.777  -0.251   0.207  1.00  0.00     0.169 C 
HETATM   12  C9  UNL     1      -3.586  -1.356  -0.494  1.00  0.00     0.105 C 
HETATM   13  S1  UNL     1      -2.229  -1.518  -1.633  1.00  0.00    -0.111 SA
HETATM   14  C10 UNL     1      -1.532  -3.176  -1.625  1.00  0.00     0.254 C 
HETATM   15  O2  UNL     1      -0.911  -3.478  -0.385  1.00  0.00    -0.341 OA
HETATM   16  C11 UNL     1       0.153  -2.674   0.033  1.00  0.00     0.070 A 
HETATM   17  C12 UNL     1       0.186  -2.190   1.326  1.00  0.00     0.039 A 
HETATM   18  C13 UNL     1       1.245  -1.397   1.718  1.00  0.00     0.032 A 
HETATM   19  C14 UNL     1       2.255  -1.094   0.828  1.00  0.00     0.028 A 
HETATM   20  C15 UNL     1       2.216  -1.581  -0.462  1.00  0.00     0.032 A 
HETATM   21  C16 UNL     1       1.160  -2.377  -0.865  1.00  0.00     0.039 A 
HETATM   22  N3  UNL     1       3.320  -0.266   1.269  1.00  0.00    -0.382 N 
HETATM   23  H8  UNL     1      -2.997   4.088  -0.674  1.00  0.00     0.166 HD
HETATM   24  H18 UNL     1       4.059  -0.503   1.974  1.00  0.00     0.160 HD
ENDROOT
BRANCH  11  25
HETATM   25  O1  UNL     1      -4.830  -0.114   1.096  1.00  0.00    -0.344 OA
HETATM   26  H10 UNL     1      -5.780   0.105   0.808  1.00  0.00     0.219 HD
ENDBRANCH  11  25
TORSDOF 1
