REMARK  4 active torsions:
REMARK  status: ('A' for Active; 'I' for Inactive)
REMARK    1  A    between atoms: N2_9  and  C8_10 
REMARK    2  A    between atoms: C9_12  and  O1_13 
REMARK    3  A    between atoms: C11_16  and  C12_17 
REMARK    4  A    between atoms: C18_23  and  N4_24 
ROOT
HETATM    1  C1  UNL     1      -4.541  -3.632  -0.433  1.00  0.00     0.048 C 
HETATM    2  C2  UNL     1      -3.161  -3.022  -0.518  1.00  0.00    -0.060 A 
HETATM    3  C3  UNL     1      -2.036  -3.688  -0.958  1.00  0.00     0.007 A 
HETATM    4  C4  UNL     1      -0.820  -3.037  -0.994  1.00  0.00     0.012 A 
HETATM    5  C5  UNL     1      -0.682  -1.724  -0.600  1.00  0.00     0.005 A 
HETATM    6  C6  UNL     1      -1.814  -1.061  -0.159  1.00  0.00     0.057 A 
HETATM    7  C7  UNL     1      -3.026  -1.708  -0.124  1.00  0.00     0.038 A 
HETATM    8  N1  UNL     1      -1.561   0.274   0.235  1.00  0.00    -0.295 N 
HETATM    9  N2  UNL     1      -0.266   0.872   0.190  1.00  0.00    -0.257 N 
HETATM   10  C11 UNL     1       0.795  -0.060   0.424  1.00  0.00     0.181 C 
HETATM   11  C18 UNL     1       0.659  -1.101  -0.687  1.00  0.00     0.282 C 
HETATM   12  H7  UNL     1      -2.434   0.810   0.572  1.00  0.00     0.187 HD
ENDROOT
BRANCH   9  13
HETATM   13  C8  UNL     1      -0.394   2.335  -0.091  1.00  0.00     0.190 A 
HETATM   14  N3  UNL     1      -0.875   3.026   0.629  1.00  0.00    -0.198 NA
HETATM   15  C9  UNL     1      -1.141   4.298   0.718  1.00  0.00     0.171 A 
HETATM   16  C10 UNL     1      -0.689   4.957  -0.411  1.00  0.00     0.111 A 
HETATM   17  S1  UNL     1       0.069   3.576  -1.446  1.00  0.00    -0.058 SA
BRANCH  15  18
HETATM   18  O1  UNL     1      -1.692   5.327   1.468  1.00  0.00    -0.344 OA
HETATM   19  H8  UNL     1      -2.551   5.258   2.006  1.00  0.00     0.219 HD
ENDBRANCH  15  18
ENDBRANCH   9  13
BRANCH  10  20
HETATM   20  C12 UNL     1       2.161   0.510   0.450  1.00  0.00    -0.031 A 
HETATM   21  C13 UNL     1       2.977   0.252   1.554  1.00  0.00     0.009 A 
HETATM   22  C14 UNL     1       4.285   0.668   1.776  1.00  0.00     0.001 A 
HETATM   23  C15 UNL     1       4.837   1.436   0.763  1.00  0.00     0.000 A 
HETATM   24  C16 UNL     1       4.079   1.722  -0.353  1.00  0.00     0.001 A 
HETATM   25  C17 UNL     1       2.775   1.276  -0.514  1.00  0.00     0.009 A 
ENDBRANCH  10  20
BRANCH  11  26
HETATM   26  N4  UNL     1       1.734  -2.044  -0.657  1.00  0.00     0.089 N 
HETATM   27  H17 UNL     1       1.687  -2.605  -1.515  1.00  0.00     0.313 HD
HETATM   28  H18 UNL     1       1.732  -2.598   0.200  1.00  0.00     0.313 HD
ENDBRANCH  11  26
TORSDOF 4
