REMARK  0 active torsions:
REMARK  status: ('A' for Active; 'I' for Inactive)
ROOT
HETATM    1  C1  UNL     1       3.760  -1.000   2.549  1.00  0.00     0.043 C 
HETATM    2  C2  UNL     1       2.390  -0.553   2.294  1.00  0.00    -0.082 C 
HETATM    3  C3  UNL     1       2.001  -1.371   1.262  1.00  0.00     0.033 C 
HETATM    4  C4  UNL     1       0.614  -1.259   0.670  1.00  0.00     0.044 C 
HETATM    5  C5  UNL     1      -0.548  -0.911   1.346  1.00  0.00     0.010 C 
HETATM    6  C6  UNL     1      -0.586   0.550   1.162  1.00  0.00     0.025 C 
HETATM    7  C7  UNL     1       0.681   1.205   1.738  1.00  0.00     0.014 C 
HETATM    8  C8  UNL     1       1.396   0.489   2.828  1.00  0.00     0.034 C 
HETATM    9  C9  UNL     1      -0.750   0.918  -0.241  1.00  0.00     0.035 A 
HETATM   10  C10 UNL     1      -1.312   1.973  -0.849  1.00  0.00     0.069 A 
HETATM   11  C11 UNL     1      -1.696   2.855  -1.777  1.00  0.00    -0.003 A 
HETATM   12  C12 UNL     1      -1.102   2.272  -2.932  1.00  0.00    -0.004 A 
HETATM   13  C13 UNL     1      -0.371   1.072  -2.831  1.00  0.00     0.008 A 
HETATM   14  C14 UNL     1      -0.347   0.653  -1.567  1.00  0.00     0.099 A 
HETATM   15  N1  UNL     1       0.024  -0.769  -1.598  1.00  0.00    -0.302 N 
HETATM   16  C15 UNL     1      -0.609  -1.602  -2.606  1.00  0.00     0.217 C 
HETATM   17  S1  UNL     1      -2.019  -2.363  -1.676  1.00  0.00    -0.146 SA
HETATM   18  C16 UNL     1      -3.072  -1.024  -0.945  1.00  0.00     0.049 C 
HETATM   19  C17 UNL     1      -3.568   0.150  -0.328  1.00  0.00     0.114 C 
HETATM   20  S2  UNL     1      -2.699   1.656   0.380  1.00  0.00    -0.144 SA
HETATM   21  N2  UNL     1       0.832  -1.570  -0.767  1.00  0.00    -0.301 N 
HETATM   22  H18 UNL     1       1.508  -2.291  -0.982  1.00  0.00     0.187 HD
ENDROOT
TORSDOF 0
