REMARK  6 active torsions:
REMARK  status: ('A' for Active; 'I' for Inactive)
REMARK    1  A    between atoms: O1_2  and  C2_3 
REMARK    2  A    between atoms: C2_3  and  C3_5 
REMARK    3  A    between atoms: C4_6  and  O3_7 
REMARK    4  A    between atoms: O3_7  and  C5_8 
REMARK    5  A    between atoms: C5_8  and  C6_9 
REMARK    6  A    between atoms: C6_9  and  N1_10 
ROOT
HETATM    1  C3  UNL     1       0.081  -0.594  -0.121  1.00  0.00     0.087 A 
HETATM    2  C4  UNL     1       1.284  -0.710  -0.822  1.00  0.00     0.097 A 
HETATM    3  C9  UNL     1       1.265  -0.730  -2.221  1.00  0.00     0.011 A 
HETATM    4  C10 UNL     1       2.393  -0.843  -3.006  1.00  0.00     0.015 A 
HETATM    5  C11 UNL     1       2.369  -0.865  -4.382  1.00  0.00     0.001 A 
HETATM    6  C12 UNL     1       1.159  -0.769  -5.034  1.00  0.00     0.001 A 
HETATM    7  C13 UNL     1      -0.005  -0.654  -4.304  1.00  0.00     0.015 A 
HETATM    8  C14 UNL     1       0.064  -0.636  -2.910  1.00  0.00     0.012 A 
HETATM    9  C15 UNL     1      -1.102  -0.524  -2.209  1.00  0.00     0.100 A 
HETATM   10  O4  UNL     1      -2.330  -0.423  -2.600  1.00  0.00    -0.304 OA
HETATM   11  C16 UNL     1      -3.122  -0.337  -1.558  1.00  0.00     0.142 A 
HETATM   12  C17 UNL     1      -2.357  -0.386  -0.401  1.00  0.00     0.067 A 
HETATM   13  C18 UNL     1      -1.076  -0.504  -0.817  1.00  0.00     0.035 A 
HETATM   14  C19 UNL     1      -2.943  -0.314   0.907  1.00  0.00     0.197 A 
HETATM   15  O5  UNL     1      -2.384  -0.345   2.003  1.00  0.00    -0.286 OA
HETATM   16  C20 UNL     1      -4.393  -0.186   1.001  1.00  0.00     0.025 A 
HETATM   17  C21 UNL     1      -5.131  -0.107   2.095  1.00  0.00    -0.010 A 
HETATM   18  C22 UNL     1      -6.586   0.023   2.327  1.00  0.00     0.032 A 
HETATM   19  C23 UNL     1      -7.408   0.078   1.074  1.00  0.00     0.032 A 
HETATM   20  C24 UNL     1      -6.531  -0.017  -0.099  1.00  0.00    -0.010 A 
HETATM   21  C25 UNL     1      -5.220  -0.134  -0.222  1.00  0.00     0.027 A 
HETATM   22  C26 UNL     1      -4.571  -0.211  -1.523  1.00  0.00     0.217 A 
HETATM   23  O6  UNL     1      -5.237  -0.169  -2.588  1.00  0.00    -0.284 OA
ENDROOT
BRANCH   2  24
HETATM   24  O3  UNL     1       2.573  -0.814  -0.317  1.00  0.00    -0.347 OA
BRANCH  24  25
HETATM   25  C5  UNL     1       3.441   0.234  -0.030  1.00  0.00     0.206 C 
BRANCH  25  26
HETATM   26  C6  UNL     1       4.778  -0.244   0.506  1.00  0.00     0.297 C 
BRANCH  26  27
HETATM   27  N1  UNL     1       5.672   0.835   0.802  1.00  0.00     0.082 N 
HETATM   28  C7  UNL     1       5.266   1.650   1.916  1.00  0.00     0.309 C 
HETATM   29  C8  UNL     1       6.976   0.270   1.105  1.00  0.00     0.309 C 
ENDBRANCH  26  27
ENDBRANCH  25  26
ENDBRANCH  24  25
ENDBRANCH   2  24
BRANCH   1  30
HETATM   30  C2  UNL     1       0.278  -0.586   1.296  1.00  0.00     0.296 C 
HETATM   31  O2  UNL     1       0.207  -1.841   1.547  1.00  0.00    -0.259 OA
BRANCH  30  32
HETATM   32  O1  UNL     1       0.461   0.706   1.820  1.00  0.00    -0.322 OA
HETATM   33  C1  UNL     1       0.668   0.800   3.239  1.00  0.00     0.213 C 
ENDBRANCH  30  32
ENDBRANCH   1  30
TORSDOF 6
