REMARK  1 active torsions:
REMARK  status: ('A' for Active; 'I' for Inactive)
REMARK    1  A    between atoms: C8_10  and  O1_11 
ROOT
HETATM    1  C1  UNL     1       4.428   2.119   0.322  1.00  0.00     0.048 C 
HETATM    2  C2  UNL     1       3.673   0.842   0.169  1.00  0.00    -0.065 C 
HETATM    3  C3  UNL     1       4.039  -0.307   0.776  1.00  0.00    -0.014 C 
HETATM    4  C4  UNL     1       3.367  -1.635   0.924  1.00  0.00     0.082 C 
HETATM    5  C5  UNL     1       2.115  -1.742   0.151  1.00  0.00     0.015 C 
HETATM    6  N1  UNL     1       0.991  -2.087   0.649  1.00  0.00    -0.281 NA
HETATM    7  C6  UNL     1      -0.302  -1.580   0.284  1.00  0.00     0.182 C 
HETATM    8  S1  UNL     1      -1.394  -2.175   1.620  1.00  0.00    -0.109 SA
HETATM    9  C7  UNL     1      -2.839  -2.848   0.750  1.00  0.00     0.102 C 
HETATM   10  C8  UNL     1      -3.700  -2.106   0.044  1.00  0.00     0.146 C 
HETATM   11  N2  UNL     1      -3.877  -0.711  -0.303  1.00  0.00    -0.336 N 
HETATM   12  C9  UNL     1      -3.059   0.418   0.070  1.00  0.00     0.040 A 
HETATM   13  C10 UNL     1      -3.990   1.448   0.264  1.00  0.00     0.030 A 
HETATM   14  C11 UNL     1      -3.499   2.677   0.647  1.00  0.00     0.002 A 
HETATM   15  C12 UNL     1      -2.147   2.865   0.826  1.00  0.00     0.001 A 
HETATM   16  C13 UNL     1      -1.274   1.831   0.625  1.00  0.00     0.010 A 
HETATM   17  C14 UNL     1      -1.678   0.542   0.233  1.00  0.00    -0.024 A 
HETATM   18  C15 UNL     1      -0.406  -0.136   0.152  1.00  0.00     0.060 C 
HETATM   19  C16 UNL     1       0.259   0.454  -1.125  1.00  0.00     0.047 C 
HETATM   20  C17 UNL     1       1.707   0.119  -1.082  1.00  0.00    -0.073 C 
HETATM   21  C18 UNL     1       2.511   1.100  -0.722  1.00  0.00     0.009 C 
HETATM   22  C19 UNL     1       2.156  -1.331  -1.335  1.00  0.00     0.088 C 
HETATM   23  H10 UNL     1      -4.676  -0.397  -0.889  1.00  0.00     0.168 HD
ENDROOT
BRANCH  10  24
HETATM   24  O1  UNL     1      -4.749  -2.809  -0.553  1.00  0.00    -0.346 OA
HETATM   25  H9  UNL     1      -5.713  -2.684  -0.253  1.00  0.00     0.219 HD
ENDBRANCH  10  24
TORSDOF 1
