REMARK  4 active torsions:
REMARK  status: ('A' for Active; 'I' for Inactive)
REMARK    1  A    between atoms: C4_5  and  C5_6 
REMARK    2  A    between atoms: N2_8  and  C6_9 
REMARK    3  A    between atoms: C7_11  and  O1_12 
REMARK    4  A    between atoms: C9_15  and  C10_16 
ROOT
HETATM    1  C5  UNL     1       1.075  -0.269   0.907  1.00  0.00     0.034 C 
HETATM    2  N1  UNL     1       0.401  -1.225   0.366  1.00  0.00    -0.179 NA
HETATM    3  N2  UNL     1      -0.939  -0.846   0.085  1.00  0.00    -0.237 N 
HETATM    4  C9  UNL     1      -0.755   0.535  -0.196  1.00  0.00     0.151 C 
HETATM    5  C16 UNL     1       0.133   0.913   1.006  1.00  0.00     0.088 C 
ENDROOT
BRANCH   1   6
HETATM    6  C4  UNL     1       2.481  -0.196   1.368  1.00  0.00     0.018 A 
HETATM    7  B1  UNL     1       3.242  -1.562   1.127  1.00  0.00     0.197 B 
HETATM    8  C3  UNL     1       4.486  -1.545   0.192  1.00  0.00    -0.075 A 
HETATM    9  H5  UNL     1       2.685  -2.550   1.419  1.00  0.00    -0.021 HD
HETATM   10  C2  UNL     1       4.966  -0.487  -0.418  1.00  0.00    -0.077 A 
HETATM   11  C1  UNL     1       6.176  -0.590  -1.299  1.00  0.00     0.047 C 
HETATM   12  C18 UNL     1       4.248   0.748  -0.176  1.00  0.00     0.001 A 
HETATM   13  C17 UNL     1       3.188   0.855   0.591  1.00  0.00    -0.025 A 
ENDBRANCH   1   6
BRANCH   3  14
HETATM   14  C6  UNL     1      -2.067  -1.729   0.121  1.00  0.00     0.192 A 
HETATM   15  N3  UNL     1      -3.329  -1.642  -0.047  1.00  0.00    -0.198 NA
HETATM   16  C7  UNL     1      -4.067  -2.726   0.071  1.00  0.00     0.171 A 
HETATM   17  C8  UNL     1      -3.594  -4.001   0.371  1.00  0.00     0.111 A 
HETATM   18  S1  UNL     1      -1.812  -3.535   0.495  1.00  0.00    -0.058 SA
BRANCH  16  19
HETATM   19  O1  UNL     1      -5.433  -2.455  -0.144  1.00  0.00    -0.344 OA
HETATM   20  H7  UNL     1      -6.138  -2.502   0.554  1.00  0.00     0.219 HD
ENDBRANCH  16  19
ENDBRANCH   3  14
BRANCH   4  21
HETATM   21  C10 UNL     1      -1.927   1.385  -0.291  1.00  0.00    -0.033 A 
HETATM   22  C11 UNL     1      -3.030   1.264  -1.099  1.00  0.00     0.009 A 
HETATM   23  C12 UNL     1      -4.099   2.135  -1.079  1.00  0.00     0.001 A 
HETATM   24  C13 UNL     1      -4.102   3.208  -0.212  1.00  0.00     0.000 A 
HETATM   25  C14 UNL     1      -3.025   3.400   0.635  1.00  0.00     0.001 A 
HETATM   26  C15 UNL     1      -1.991   2.493   0.566  1.00  0.00     0.009 A 
ENDBRANCH   4  21
TORSDOF 4
