REMARK  5 active torsions:
REMARK  status: ('A' for Active; 'I' for Inactive)
REMARK    1  A    between atoms: O1_1  and  C1_2 
REMARK    2  A    between atoms: C3_5  and  N1_6 
REMARK    3  A    between atoms: C4_8  and  C5_9 
REMARK    4  A    between atoms: C8_12  and  P1_13 
REMARK    5  A    between atoms: C12_17  and  C13_18 
ROOT
HETATM    1  N1  UNL     1      -1.177   1.185   0.142  1.00  0.00    -0.236 N 
HETATM    2  N2  UNL     1       0.107   1.054  -0.388  1.00  0.00    -0.173 NA
HETATM    3  C4  UNL     1       0.881   0.425   0.430  1.00  0.00     0.067 C 
HETATM    4  C11 UNL     1       0.123   0.062   1.656  1.00  0.00     0.094 C 
HETATM    5  C12 UNL     1      -1.303   0.187   1.159  1.00  0.00     0.151 C 
ENDROOT
BRANCH   3   6
HETATM    6  C5  UNL     1       2.290   0.136   0.149  1.00  0.00    -0.010 A 
HETATM    7  C6  UNL     1       2.815   0.562  -1.058  1.00  0.00     0.014 A 
HETATM    8  C7  UNL     1       4.127   0.332  -1.400  1.00  0.00     0.012 A 
HETATM    9  C8  UNL     1       4.904  -0.355  -0.464  1.00  0.00    -0.037 A 
HETATM   10  C9  UNL     1       4.389  -0.785   0.745  1.00  0.00     0.012 A 
HETATM   11  C10 UNL     1       3.071  -0.540   1.061  1.00  0.00     0.014 A 
BRANCH   9  12
HETATM   12  P1  UNL     1       6.651  -0.679  -0.886  1.00  0.00    -0.106 P 
HETATM   13  H5  UNL     1       7.216  -1.737  -0.070  1.00  0.00     0.059 HD
HETATM   14  H6  UNL     1       6.804  -1.054  -2.279  1.00  0.00     0.059 HD
ENDBRANCH   9  12
ENDBRANCH   3   6
BRANCH   1  15
HETATM   15  C3  UNL     1      -2.082   2.181  -0.347  1.00  0.00     0.192 A 
HETATM   16  S1  UNL     1      -3.223   1.760  -1.778  1.00  0.00    -0.058 SA
HETATM   17  C2  UNL     1      -3.977   3.453  -1.765  1.00  0.00     0.111 A 
HETATM   18  C1  UNL     1      -3.272   4.028  -0.729  1.00  0.00     0.171 A 
HETATM   19  N3  UNL     1      -2.338   3.401  -0.029  1.00  0.00    -0.198 NA
BRANCH  18  20
HETATM   20  O1  UNL     1      -3.447   5.353  -0.273  1.00  0.00    -0.344 OA
HETATM   21  H1  UNL     1      -3.988   5.479   0.574  1.00  0.00     0.219 HD
ENDBRANCH  18  20
ENDBRANCH   1  15
BRANCH   5  22
HETATM   22  C13 UNL     1      -1.823  -1.114   0.675  1.00  0.00    -0.033 A 
HETATM   23  C14 UNL     1      -1.384  -1.722  -0.467  1.00  0.00     0.009 A 
HETATM   24  C15 UNL     1      -1.891  -2.944  -0.897  1.00  0.00     0.001 A 
HETATM   25  C16 UNL     1      -2.877  -3.600  -0.171  1.00  0.00     0.000 A 
HETATM   26  C17 UNL     1      -3.334  -3.015   0.975  1.00  0.00     0.001 A 
HETATM   27  C18 UNL     1      -2.816  -1.809   1.375  1.00  0.00     0.009 A 
ENDBRANCH   5  22
TORSDOF 5
