REMARK  8 active torsions:
REMARK  status: ('A' for Active; 'I' for Inactive)
REMARK    1  A    between atoms: C1_2  and  N2_3 
REMARK    2  A    between atoms: C4_7  and  C5_8 
REMARK    3  A    between atoms: C5_8  and  N4_9 
REMARK    4  A    between atoms: N5_10  and  C6_11 
REMARK    5  A    between atoms: C6_11  and  N6_12 
REMARK    6  A    between atoms: N6_12  and  C7_13 
REMARK    7  A    between atoms: C11_17  and  C12_18 
REMARK    8  A    between atoms: C12_18  and  C13_19 
ROOT
HETATM    1  C5  UNL     1       2.372  -1.137  -0.675  1.00  0.00     0.119 C 
HETATM    2  N5  UNL     1       1.661  -0.071  -0.574  1.00  0.00    -0.256 NA
ENDROOT
BRANCH   2   3
HETATM    3  C6  UNL     1       0.241   0.021  -0.686  1.00  0.00     0.272 C 
BRANCH   3   4
HETATM    4  N6  UNL     1      -0.366   0.694   0.453  1.00  0.00    -0.372 N 
HETATM    5  H11 UNL     1       0.300   1.028   1.210  1.00  0.00     0.161 HD
BRANCH   4   6
HETATM    6  C7  UNL     1      -1.743   0.958   0.674  1.00  0.00     0.029 A 
HETATM    7  C8  UNL     1      -2.216   1.612   1.802  1.00  0.00     0.029 A 
HETATM    8  C9  UNL     1      -3.573   1.816   1.915  1.00  0.00     0.003 A 
HETATM    9  C10 UNL     1      -4.455   1.392   0.945  1.00  0.00     0.007 A 
HETATM   10  C11 UNL     1      -3.946   0.745  -0.165  1.00  0.00    -0.054 A 
HETATM   11  C14 UNL     1      -2.586   0.518  -0.319  1.00  0.00     0.036 A 
BRANCH  10  12
HETATM   12  C12 UNL     1      -4.948   0.312  -1.176  1.00  0.00     0.070 C 
BRANCH  12  13
HETATM   13  C13 UNL     1      -5.391  -1.085  -0.811  1.00  0.00     0.226 C 
HETATM   14  F1  UNL     1      -6.328  -1.498  -1.750  1.00  0.00    -0.255 F 
ENDBRANCH  12  13
ENDBRANCH  10  12
ENDBRANCH   4   6
ENDBRANCH   3   4
ENDBRANCH   2   3
BRANCH   1  15
HETATM   15  C4  UNL     1       3.846  -1.110  -0.540  1.00  0.00     0.180 C 
HETATM   16  N2  UNL     1       4.250   0.277  -0.291  1.00  0.00    -0.323 N 
HETATM   17  C2  UNL     1       4.022   0.419   1.126  1.00  0.00     0.204 C 
HETATM   18  N3  UNL     1       4.066  -0.737   1.716  1.00  0.00    -0.282 NA
HETATM   19  C3  UNL     1       4.331  -1.771   0.735  1.00  0.00     0.183 C 
BRANCH  16  20
HETATM   20  C1  UNL     1       4.758   1.388  -1.042  1.00  0.00     0.201 C 
HETATM   21  N1  UNL     1       6.053   1.546  -1.146  1.00  0.00    -0.295 NA
HETATM   22  H1  UNL     1       6.509   2.308  -1.661  1.00  0.00     0.187 HD
ENDBRANCH  16  20
ENDBRANCH   1  15
BRANCH   1  23
HETATM   23  N4  UNL     1       2.048  -2.512  -0.914  1.00  0.00    -0.386 N 
HETATM   24  H7  UNL     1       1.719  -3.202  -0.197  1.00  0.00     0.157 HD
HETATM   25  H8  UNL     1       2.127  -2.926  -1.874  1.00  0.00     0.157 HD
ENDBRANCH   1  23
TORSDOF 8
