REMARK  5 active torsions:
REMARK  status: ('A' for Active; 'I' for Inactive)
REMARK    1  A    between atoms: C5_5  and  C6_6 
REMARK    2  A    between atoms: N2_8  and  C7_9 
REMARK    3  A    between atoms: C8_11  and  O1_12 
REMARK    4  A    between atoms: C10_15  and  C11_16 
REMARK    5  A    between atoms: C11_16  and  C12_17 
ROOT
HETATM    1  C6  UNL     1       0.631   0.212  -0.209  1.00  0.00     0.067 A 
HETATM    2  N1  UNL     1      -0.064   1.264   0.071  1.00  0.00    -0.174 NA
HETATM    3  N2  UNL     1      -1.419   0.942   0.025  1.00  0.00    -0.240 N 
HETATM    4  C10 UNL     1      -1.642  -0.465  -0.237  1.00  0.00     0.122 A 
HETATM    5  C16 UNL     1      -0.261  -0.969  -0.480  1.00  0.00     0.089 A 
ENDROOT
BRANCH   1   6
HETATM    6  C5  UNL     1       2.101   0.160  -0.258  1.00  0.00    -0.010 A 
HETATM    7  C4  UNL     1       2.769   1.338   0.018  1.00  0.00     0.014 A 
HETATM    8  C3  UNL     1       4.149   1.382  -0.006  1.00  0.00     0.007 A 
HETATM    9  C2  UNL     1       4.835   0.220  -0.313  1.00  0.00    -0.062 A 
HETATM   10  C1  UNL     1       6.307   0.225  -0.348  1.00  0.00     0.048 C 
HETATM   11  C18 UNL     1       4.147  -0.945  -0.585  1.00  0.00     0.007 A 
HETATM   12  C17 UNL     1       2.756  -1.005  -0.565  1.00  0.00     0.014 A 
ENDBRANCH   1   6
BRANCH   3  13
HETATM   13  C7  UNL     1      -2.327   2.014   0.237  1.00  0.00     0.192 A 
HETATM   14  N3  UNL     1      -2.340   3.177   0.456  1.00  0.00    -0.198 NA
HETATM   15  C8  UNL     1      -3.427   3.915   0.606  1.00  0.00     0.171 A 
HETATM   16  C9  UNL     1      -4.659   3.313   0.505  1.00  0.00     0.111 A 
HETATM   17  S1  UNL     1      -4.167   1.605   0.179  1.00  0.00    -0.058 SA
BRANCH  15  18
HETATM   18  O1  UNL     1      -3.229   5.288   0.862  1.00  0.00    -0.344 OA
HETATM   19  H6  UNL     1      -2.968   5.543   1.802  1.00  0.00     0.219 HD
ENDBRANCH  15  18
ENDBRANCH   3  13
BRANCH   4  20
HETATM   20  C11 UNL     1      -2.308  -1.068   0.968  1.00  0.00     0.066 C 
BRANCH  20  21
HETATM   21  C12 UNL     1      -2.578  -2.507   0.798  1.00  0.00    -0.056 A 
HETATM   22  C13 UNL     1      -3.701  -3.241   0.809  1.00  0.00     0.007 A 
HETATM   23  C14 UNL     1      -2.963  -4.462   0.567  1.00  0.00     0.001 A 
HETATM   24  C15 UNL     1      -1.862  -3.742   0.556  1.00  0.00     0.007 A 
ENDBRANCH  20  21
ENDBRANCH   4  20
TORSDOF 5
