REMARK  6 active torsions:
REMARK  status: ('A' for Active; 'I' for Inactive)
REMARK    1  A    between atoms: C13_14  and  C14_15 
REMARK    2  A    between atoms: C14_15  and  O2_16 
REMARK    3  A    between atoms: O2_16  and  C15_17 
REMARK    4  A    between atoms: C15_17  and  C16_18 
REMARK    5  A    between atoms: C16_18  and  C17_19 
REMARK    6  A    between atoms: C17_19  and  N1_20 
ROOT
HETATM    1  O1  UNL     1       0.375   0.252  -2.614  1.00  0.00    -0.224 OA
HETATM    2  C1  UNL     1      -0.804   0.108  -2.083  1.00  0.00     0.148 C 
HETATM    3  C2  UNL     1      -1.708   1.256  -2.130  1.00  0.00     0.073 C 
HETATM    4  C3  UNL     1      -2.785   1.396  -1.100  1.00  0.00    -0.023 C 
HETATM    5  C4  UNL     1      -3.407   0.745  -0.039  1.00  0.00    -0.004 C 
HETATM    6  C5  UNL     1      -3.224  -0.575   0.541  1.00  0.00    -0.003 C 
HETATM    7  C6  UNL     1      -2.699  -1.824   0.603  1.00  0.00    -0.011 C 
HETATM    8  C7  UNL     1      -1.780  -2.043  -0.647  1.00  0.00     0.020 A 
HETATM    9  C8  UNL     1      -2.626  -2.902  -1.196  1.00  0.00    -0.011 A 
HETATM   10  C9  UNL     1      -2.384  -2.675  -2.574  1.00  0.00    -0.006 A 
HETATM   11  C10 UNL     1      -1.405  -1.661  -2.777  1.00  0.00    -0.012 A 
HETATM   12  C11 UNL     1      -1.035  -1.278  -1.491  1.00  0.00     0.040 A 
HETATM   13  C12 UNL     1      -0.985  -1.235  -0.090  1.00  0.00     0.003 A 
HETATM   14  C13 UNL     1      -0.119  -0.355   0.513  1.00  0.00     0.039 C 
ENDROOT
BRANCH  14  15
HETATM   15  C14 UNL     1       0.012   1.081   0.522  1.00  0.00     0.168 C 
BRANCH  15  16
HETATM   16  O2  UNL     1       1.040   1.366   1.482  1.00  0.00    -0.391 OA
BRANCH  16  17
HETATM   17  C15 UNL     1       2.243   0.755   1.265  1.00  0.00     0.169 C 
BRANCH  17  18
HETATM   18  C16 UNL     1       3.191   1.299   2.345  1.00  0.00     0.043 C 
BRANCH  18  19
HETATM   19  C17 UNL     1       4.555   0.707   2.264  1.00  0.00     0.125 C 
BRANCH  19  20
HETATM   20  N1  UNL     1       5.254   0.920   1.045  1.00  0.00    -0.163 NA
HETATM   21  F1  UNL     1       6.465   0.269   1.153  1.00  0.00    -0.136 F 
HETATM   22  H20 UNL     1       5.466   1.938   0.932  1.00  0.00     0.159 HD
ENDBRANCH  19  20
ENDBRANCH  18  19
ENDBRANCH  17  18
ENDBRANCH  16  17
ENDBRANCH  15  16
ENDBRANCH  14  15
TORSDOF 6
