REMARK  9 active torsions:
REMARK  status: ('A' for Active; 'I' for Inactive)
REMARK    1  A    between atoms: C4_6  and  N3_7 
REMARK    2  A    between atoms: N3_7  and  C5_8 
REMARK    3  A    between atoms: C9_12  and  C10_13 
REMARK    4  A    between atoms: C10_13  and  O1_14 
REMARK    5  A    between atoms: O1_14  and  C11_15 
REMARK    6  A    between atoms: C13_19  and  N5_20 
REMARK    7  A    between atoms: N5_20  and  C14_21 
REMARK    8  A    between atoms: C14_21  and  C15_22 
REMARK    9  A    between atoms: C15_22  and  N6_23 
ROOT
HETATM    1  C1  UNL     1       3.744  -1.323   2.504  1.00  0.00     0.159 C 
HETATM    2  N1  UNL     1       2.591  -1.695   1.703  1.00  0.00    -0.328 N 
HETATM    3  C2  UNL     1       1.814  -2.784   1.822  1.00  0.00     0.211 A 
HETATM    4  N2  UNL     1       0.830  -2.767   0.879  1.00  0.00    -0.236 NA
HETATM    5  C3  UNL     1       0.959  -1.647   0.124  1.00  0.00     0.151 A 
HETATM    6  C4  UNL     1       0.331  -1.043  -0.945  1.00  0.00     0.180 A 
HETATM    7  N4  UNL     1       0.779   0.121  -1.437  1.00  0.00    -0.043 NA
HETATM    8  C13 UNL     1       1.863   0.749  -0.901  1.00  0.00     0.726 A 
HETATM    9  N7  UNL     1       2.457   0.149   0.131  1.00  0.00    -0.042 NA
HETATM   10  C16 UNL     1       2.061  -1.012   0.668  1.00  0.00     0.182 A 
ENDROOT
BRANCH   6  11
HETATM   11  N3  UNL     1      -0.789  -1.745  -1.440  1.00  0.00    -0.338 N 
HETATM   12  H5  UNL     1      -0.476  -2.518  -2.059  1.00  0.00     0.167 HD
BRANCH  11  13
HETATM   13  C5  UNL     1      -2.179  -1.519  -1.193  1.00  0.00     0.034 A 
HETATM   14  C6  UNL     1      -3.086  -2.454  -1.637  1.00  0.00     0.029 A 
HETATM   15  C7  UNL     1      -4.435  -2.172  -1.388  1.00  0.00     0.003 A 
HETATM   16  C8  UNL     1      -4.775  -1.002  -0.726  1.00  0.00     0.009 A 
HETATM   17  C9  UNL     1      -3.842  -0.098  -0.301  1.00  0.00    -0.032 A 
HETATM   18  C12 UNL     1      -2.506  -0.352  -0.534  1.00  0.00     0.038 A 
BRANCH  17  19
HETATM   19  C10 UNL     1      -4.426   1.077   0.362  1.00  0.00     0.209 C 
BRANCH  19  20
HETATM   20  O1  UNL     1      -4.578   0.895   1.731  1.00  0.00    -0.358 OA
BRANCH  20  21
HETATM   21  C11 UNL     1      -5.145   2.048   2.291  1.00  0.00     0.391 C 
HETATM   22  F1  UNL     1      -6.381   2.291   1.718  1.00  0.00    -0.227 F 
ENDBRANCH  20  21
ENDBRANCH  19  20
ENDBRANCH  17  19
ENDBRANCH  11  13
ENDBRANCH   6  11
BRANCH   8  23
HETATM   23  N5  UNL     1       2.321   1.990  -1.409  1.00  0.00    -0.221 N 
HETATM   24  H14 UNL     1       1.732   2.405  -2.193  1.00  0.00     0.177 HD
BRANCH  23  25
HETATM   25  C14 UNL     1       3.461   2.737  -0.998  1.00  0.00     0.168 C 
BRANCH  25  26
HETATM   26  C15 UNL     1       4.790   2.113  -1.295  1.00  0.00     0.286 C 
BRANCH  26  27
HETATM   27  N6  UNL     1       4.911   0.845  -0.647  1.00  0.00     0.079 N 
HETATM   28  H19 UNL     1       5.351   0.129  -1.283  1.00  0.00     0.312 HD
HETATM   29  H20 UNL     1       5.415   0.826   0.246  1.00  0.00     0.312 HD
ENDBRANCH  26  27
ENDBRANCH  25  26
ENDBRANCH  23  25
ENDBRANCH   8  23
TORSDOF 9
