REMARK  8 active torsions:
REMARK  status: ('A' for Active; 'I' for Inactive)
REMARK    1  A    between atoms: C2_2  and  C3_3 
REMARK    2  A    between atoms: C4_4  and  N1_5 
REMARK    3  A    between atoms: C4_4  and  C15_22 
REMARK    4  A    between atoms: N1_5  and  C5_6 
REMARK    5  A    between atoms: C6_8  and  N3_9 
REMARK    6  A    between atoms: N3_9  and  C7_10 
REMARK    7  A    between atoms: C7_10  and  C8_11 
REMARK    8  A    between atoms: N6_19  and  C13_20 
ROOT
HETATM    1  C8  UNL     1       4.503   3.453   0.021  1.00  0.00    -0.051 C 
HETATM    2  C9  UNL     1       5.355   4.288   0.308  1.00  0.00     0.107 C 
HETATM    3  F1  UNL     1       6.297   5.182   0.633  1.00  0.00    -0.144 F 
ENDROOT
BRANCH   1   4
HETATM    4  C7  UNL     1       3.479   2.468  -0.345  1.00  0.00     0.235 C 
BRANCH   4   5
HETATM    5  N3  UNL     1       2.660   2.173   0.797  1.00  0.00    -0.212 N 
HETATM    6  H6  UNL     1       2.825   2.638   1.717  1.00  0.00     0.178 HD
BRANCH   5   7
HETATM    7  C6  UNL     1       1.697   1.214   0.410  1.00  0.00     0.727 A 
HETATM    8  N2  UNL     1       0.450   1.441  -0.083  1.00  0.00    -0.043 NA
HETATM    9  C5  UNL     1      -0.352   0.415  -0.417  1.00  0.00     0.180 A 
HETATM   10  C11 UNL     1       0.098  -0.900  -0.256  1.00  0.00     0.151 A 
HETATM   11  C10 UNL     1       1.368  -1.124   0.247  1.00  0.00     0.182 A 
HETATM   12  N5  UNL     1      -0.404  -2.132  -0.468  1.00  0.00    -0.236 NA
HETATM   13  N4  UNL     1       2.131  -0.067   0.565  1.00  0.00    -0.042 NA
HETATM   14  N6  UNL     1       1.651  -2.454   0.346  1.00  0.00    -0.324 N 
HETATM   15  C12 UNL     1       0.525  -3.041  -0.108  1.00  0.00     0.212 A 
BRANCH   9  16
HETATM   16  N1  UNL     1      -1.662   0.597  -0.925  1.00  0.00    -0.339 N 
HETATM   17  H5  UNL     1      -1.549   0.812  -1.945  1.00  0.00     0.167 HD
BRANCH  16  18
HETATM   18  C4  UNL     1      -2.904   0.513  -0.233  1.00  0.00     0.044 C 
HETATM   19  C3  UNL     1      -3.592  -0.634  -0.388  1.00  0.00     0.027 C 
BRANCH  19  20
HETATM   20  C2  UNL     1      -4.872  -1.179   0.102  1.00  0.00    -0.008 C 
HETATM   21  C1  UNL     1      -5.466  -2.340  -0.116  1.00  0.00     0.011 C 
ENDBRANCH  19  20
BRANCH  18  22
HETATM   22  C15 UNL     1      -3.416   1.624   0.604  1.00  0.00     0.215 C 
HETATM   23  C16 UNL     1      -3.727   2.827  -0.267  1.00  0.00     0.051 C 
HETATM   24  F2  UNL     1      -2.425   2.076   1.488  1.00  0.00    -0.243 F 
ENDBRANCH  18  22
ENDBRANCH  16  18
ENDBRANCH   9  16
BRANCH  14  25
HETATM   25  C13 UNL     1       2.887  -3.020   0.833  1.00  0.00     0.127 C 
HETATM   26  C14 UNL     1       3.864  -3.210  -0.286  1.00  0.00     0.027 C 
ENDBRANCH  14  25
ENDBRANCH   5   7
ENDBRANCH   4   5
ENDBRANCH   1   4
TORSDOF 8
