REMARK  3 active torsions:
REMARK  status: ('A' for Active; 'I' for Inactive)
REMARK    1  A    between atoms: C2_2  and  N1_3 
REMARK    2  A    between atoms: C8_14  and  N7_15 
REMARK    3  A    between atoms: N7_15  and  C9_16 
ROOT
HETATM    1  C9  UNL     1       2.870  -0.348  -0.725  1.00  0.00     0.035 A 
HETATM    2  C10 UNL     1       3.169  -1.669  -0.416  1.00  0.00     0.029 A 
HETATM    3  C11 UNL     1       4.411  -2.036   0.082  1.00  0.00     0.004 A 
HETATM    4  C12 UNL     1       5.339  -1.053   0.262  1.00  0.00     0.023 A 
HETATM    5  C13 UNL     1       5.132   0.291  -0.019  1.00  0.00     0.046 A 
HETATM    6  C14 UNL     1       6.121   1.310   0.177  1.00  0.00     0.099 C 
HETATM    7  N8  UNL     1       6.906   2.133   0.337  1.00  0.00    -0.191 NA
HETATM    8  C15 UNL     1       3.870   0.576  -0.511  1.00  0.00     0.052 A 
ENDROOT
BRANCH   1   9
HETATM    9  N7  UNL     1       1.583   0.065  -1.242  1.00  0.00    -0.338 N 
HETATM   10  H12 UNL     1       1.912  -0.090  -2.244  1.00  0.00     0.167 HD
BRANCH   9  11
HETATM   11  C8  UNL     1       0.334   0.504  -0.646  1.00  0.00     0.182 C 
HETATM   12  C4  UNL     1      -0.685  -0.273  -0.430  1.00  0.00     0.153 A 
HETATM   13  N2  UNL     1      -0.590  -1.568  -0.779  1.00  0.00    -0.236 NA
HETATM   14  C5  UNL     1      -1.946  -0.077   0.092  1.00  0.00     0.183 A 
HETATM   15  C3  UNL     1      -1.730  -2.201  -0.506  1.00  0.00     0.212 A 
HETATM   16  N1  UNL     1      -2.574  -1.298   0.030  1.00  0.00    -0.323 N 
HETATM   17  N3  UNL     1      -2.796   0.740   0.614  1.00  0.00    -0.158 NA
HETATM   18  N4  UNL     1      -2.783   2.069   0.939  1.00  0.00    -0.310 N 
HETATM   19  C6  UNL     1      -2.080   3.278   0.366  1.00  0.00     0.165 C 
HETATM   20  H7  UNL     1      -3.431   2.125   1.768  1.00  0.00     0.182 HD
HETATM   21  C7  UNL     1      -0.805   2.703   0.155  1.00  0.00     0.195 C 
HETATM   22  N5  UNL     1       0.485   2.850  -0.232  1.00  0.00    -0.189 NA
HETATM   23  N6  UNL     1       1.017   1.732  -0.622  1.00  0.00    -0.135 NA
BRANCH  16  24
HETATM   24  C2  UNL     1      -3.892  -1.850   0.377  1.00  0.00     0.127 C 
HETATM   25  C1  UNL     1      -4.868  -1.793  -0.752  1.00  0.00     0.027 C 
ENDBRANCH  16  24
ENDBRANCH   9  11
ENDBRANCH   1   9
TORSDOF 3
