REMARK  7 active torsions:
REMARK  status: ('A' for Active; 'I' for Inactive)
REMARK    1  A    between atoms: C2_2  and  C3_3 
REMARK    2  A    between atoms: N3_13  and  C11_14 
REMARK    3  A    between atoms: N4_17  and  C14_18 
REMARK    4  A    between atoms: C14_18  and  N5_19 
REMARK    5  A    between atoms: N5_19  and  C15_20 
REMARK    6  A    between atoms: C15_20  and  C16_21 
REMARK    7  A    between atoms: C16_21  and  N6_22 
ROOT
HETATM    1  C3  UNL     1      -4.077   0.113   1.621  1.00  0.00     0.048 C 
HETATM    2  C4  UNL     1      -3.200   0.850   2.273  1.00  0.00     0.070 C 
HETATM    3  C5  UNL     1      -3.714   1.948   3.034  1.00  0.00     0.102 C 
HETATM    4  N1  UNL     1      -4.117   2.820   3.657  1.00  0.00    -0.191 NA
HETATM    5  C6  UNL     1      -1.739   0.609   2.253  1.00  0.00     0.026 C 
HETATM    6  C7  UNL     1      -1.045  -0.086   1.341  1.00  0.00     0.013 C 
HETATM    7  C8  UNL     1      -1.533  -0.771   0.156  1.00  0.00    -0.008 C 
HETATM    8  C9  UNL     1      -0.758  -0.706  -0.916  1.00  0.00     0.111 A 
HETATM    9  N2  UNL     1      -1.153  -1.354  -2.145  1.00  0.00    -0.239 NA
HETATM   10  C10 UNL     1      -0.281  -1.162  -3.069  1.00  0.00     0.212 A 
HETATM   11  N3  UNL     1       0.787  -0.370  -2.564  1.00  0.00    -0.325 N 
HETATM   12  C13 UNL     1       0.521  -0.069  -1.223  1.00  0.00     0.157 A 
HETATM   13  N4  UNL     1       1.188   0.589  -0.391  1.00  0.00    -0.240 NA
HETATM   14  C17 UNL     1      -2.806  -1.513   0.050  1.00  0.00     0.161 C 
HETATM   15  N7  UNL     1      -3.901  -1.020   0.793  1.00  0.00    -0.384 N 
HETATM   16  H23 UNL     1      -4.730  -1.643   0.685  1.00  0.00     0.160 HD
ENDROOT
BRANCH   1  17
HETATM   17  C2  UNL     1      -5.418   0.593   1.828  1.00  0.00     0.020 C 
HETATM   18  C1  UNL     1      -6.436  -0.019   1.257  1.00  0.00     0.013 C 
ENDBRANCH   1  17
BRANCH  11  19
HETATM   19  C11 UNL     1       1.846  -0.062  -3.490  1.00  0.00     0.127 C 
HETATM   20  C12 UNL     1       2.571  -1.389  -3.764  1.00  0.00     0.027 C 
ENDBRANCH  11  19
BRANCH  13  21
HETATM   21  C14 UNL     1       2.426   1.271  -0.489  1.00  0.00     0.420 C 
BRANCH  21  22
HETATM   22  N5  UNL     1       2.822   1.806   0.788  1.00  0.00     0.104 N 
HETATM   23  H14 UNL     1       3.503   2.563   0.772  1.00  0.00     0.318 HD
BRANCH  22  24
HETATM   24  C15 UNL     1       3.131   0.773   1.738  1.00  0.00     0.301 C 
BRANCH  24  25
HETATM   25  C16 UNL     1       4.408   0.007   1.368  1.00  0.00     0.296 C 
BRANCH  25  26
HETATM   26  N6  UNL     1       5.562   0.871   1.304  1.00  0.00     0.080 N 
HETATM   27  H19 UNL     1       5.308   1.871   1.364  1.00  0.00     0.312 HD
HETATM   28  H20 UNL     1       6.214   0.676   2.096  1.00  0.00     0.312 HD
ENDBRANCH  25  26
ENDBRANCH  24  25
ENDBRANCH  22  24
ENDBRANCH  21  22
ENDBRANCH  13  21
TORSDOF 7
