REMARK  0 active torsions:
REMARK  status: ('A' for Active; 'I' for Inactive)
ROOT
HETATM    1  N1  UNL     1       5.025   3.806   1.829  1.00  0.00    -0.096 N 
HETATM    2  C1  UNL     1       4.406   3.020   1.160  1.00  0.00     0.019 C 
HETATM    3  C2  UNL     1       3.639   2.037   0.342  1.00  0.00     0.028 C 
HETATM    4  C3  UNL     1       2.558   2.714   0.170  1.00  0.00     0.015 C 
HETATM    5  C4  UNL     1       1.500   2.118  -0.643  1.00  0.00     0.168 C 
HETATM    6  N2  UNL     1       0.283   1.788  -0.097  1.00  0.00    -0.311 N 
HETATM    7  C5  UNL     1      -0.978   1.447   0.468  1.00  0.00     0.222 A 
HETATM    8  C6  UNL     1      -2.157   1.402  -0.190  1.00  0.00     0.035 C 
HETATM    9  C7  UNL     1      -3.372   1.378  -0.958  1.00  0.00     0.109 C 
HETATM   10  N3  UNL     1      -4.403   0.779  -0.391  1.00  0.00    -0.302 NA
HETATM   11  C8  UNL     1      -4.260   0.170   0.931  1.00  0.00     0.149 C 
HETATM   12  C9  UNL     1      -3.808  -1.260   0.809  1.00  0.00     0.038 C 
HETATM   13  C10 UNL     1      -2.581  -1.610   0.099  1.00  0.00     0.112 C 
HETATM   14  N4  UNL     1      -1.304  -1.308   0.684  1.00  0.00    -0.238 NA
HETATM   15  N5  UNL     1      -0.270  -1.308  -0.337  1.00  0.00    -0.311 N 
HETATM   16  C11 UNL     1       0.095  -0.265  -1.271  1.00  0.00     0.189 C 
HETATM   17  N6  UNL     1       0.060   0.437  -0.280  1.00  0.00    -0.163 NA
HETATM   18  C12 UNL     1       0.483  -2.534  -0.527  1.00  0.00     0.149 C 
HETATM   19  C13 UNL     1       1.931  -2.385  -0.311  1.00  0.00     0.020 C 
HETATM   20  C14 UNL     1       2.617  -1.232  -0.085  1.00  0.00     0.022 C 
HETATM   21  C15 UNL     1       3.963  -0.650   0.174  1.00  0.00    -0.019 C 
HETATM   22  C16 UNL     1       4.175   0.677   0.321  1.00  0.00     0.018 C 
HETATM   23  H13 UNL     1      -1.007  -2.035   1.358  1.00  0.00     0.146 HD
ENDROOT
TORSDOF 0
