REMARK  8 active torsions:
REMARK  status: ('A' for Active; 'I' for Inactive)
REMARK    1  A    between atoms: C2_2  and  N1_3 
REMARK    2  A    between atoms: N1_3  and  C3_4 
REMARK    3  A    between atoms: C5_7  and  N3_8 
REMARK    4  A    between atoms: N3_8  and  C6_9 
REMARK    5  A    between atoms: C14_19  and  N6_20 
REMARK    6  A    between atoms: N6_20  and  C15_21 
REMARK    7  A    between atoms: C15_21  and  C16_22 
REMARK    8  A    between atoms: C16_22  and  N7_23 
ROOT
HETATM    1  C6  UNL     1       3.037  -1.398   0.014  1.00  0.00     0.033 A 
HETATM    2  C7  UNL     1       3.344  -1.424   1.369  1.00  0.00     0.029 A 
HETATM    3  C8  UNL     1       4.664  -1.347   1.771  1.00  0.00     0.004 A 
HETATM    4  C9  UNL     1       5.716  -1.244   0.874  1.00  0.00     0.023 A 
HETATM    5  C10 UNL     1       5.329  -1.224  -0.447  1.00  0.00     0.046 A 
HETATM    6  C11 UNL     1       6.375  -1.117  -1.450  1.00  0.00     0.099 C 
HETATM    7  N4  UNL     1       7.209  -1.026  -2.261  1.00  0.00    -0.191 NA
HETATM    8  C12 UNL     1       4.051  -1.295  -0.947  1.00  0.00     0.052 A 
ENDROOT
BRANCH   1   9
HETATM    9  N3  UNL     1       1.715  -1.474  -0.463  1.00  0.00    -0.357 N 
HETATM   10  H8  UNL     1       1.579  -2.493  -0.504  1.00  0.00     0.166 HD
BRANCH   9  11
HETATM   11  C5  UNL     1       0.742  -0.511  -0.824  1.00  0.00     0.048 C 
HETATM   12  C4  UNL     1       0.956   0.719  -0.430  1.00  0.00     0.145 C 
HETATM   13  N2  UNL     1       0.366   2.021  -0.486  1.00  0.00    -0.240 NA
HETATM   14  C3  UNL     1      -0.931   2.142  -0.279  1.00  0.00     0.141 C 
HETATM   15  C17 UNL     1      -2.037   1.175   0.007  1.00  0.00     0.186 C 
HETATM   16  N8  UNL     1      -1.336   0.152  -0.001  1.00  0.00    -0.072 NA
HETATM   17  C14 UNL     1      -1.730  -1.163   0.198  1.00  0.00     0.717 C 
HETATM   18  N5  UNL     1      -1.192  -1.933  -0.771  1.00  0.00    -0.100 NA
HETATM   19  C13 UNL     1      -0.376  -1.069  -1.681  1.00  0.00     0.227 C 
BRANCH  14  20
HETATM   20  N1  UNL     1      -1.220   3.557  -0.395  1.00  0.00    -0.374 N 
HETATM   21  H6  UNL     1      -2.217   3.877  -0.603  1.00  0.00     0.161 HD
BRANCH  20  22
HETATM   22  C2  UNL     1      -0.230   4.631  -0.240  1.00  0.00     0.116 C 
HETATM   23  C1  UNL     1      -0.829   5.996  -0.448  1.00  0.00     0.026 C 
ENDBRANCH  20  22
ENDBRANCH  14  20
BRANCH  17  24
HETATM   24  N6  UNL     1      -2.540  -1.768   1.173  1.00  0.00    -0.221 N 
HETATM   25  H15 UNL     1      -2.331  -1.334   2.124  1.00  0.00     0.177 HD
BRANCH  24  26
HETATM   26  C15 UNL     1      -3.461  -2.806   0.751  1.00  0.00     0.168 C 
BRANCH  26  27
HETATM   27  C16 UNL     1      -4.589  -2.268  -0.092  1.00  0.00     0.286 C 
BRANCH  27  28
HETATM   28  N7  UNL     1      -5.462  -3.360  -0.480  1.00  0.00     0.079 N 
HETATM   29  H20 UNL     1      -6.458  -3.069  -0.545  1.00  0.00     0.312 HD
HETATM   30  H21 UNL     1      -5.427  -4.140   0.214  1.00  0.00     0.312 HD
ENDBRANCH  27  28
ENDBRANCH  26  27
ENDBRANCH  24  26
ENDBRANCH  17  24
ENDBRANCH   9  11
ENDBRANCH   1   9
TORSDOF 8
