REMARK  6 active torsions:
REMARK  status: ('A' for Active; 'I' for Inactive)
REMARK    1  A    between atoms: C2_2  and  N1_3 
REMARK    2  A    between atoms: C6_8  and  C7_9 
REMARK    3  A    between atoms: C7_9  and  C8_10 
REMARK    4  A    between atoms: C8_10  and  N3_11 
REMARK    5  A    between atoms: N3_11  and  N4_12 
REMARK    6  A    between atoms: N6_15  and  C10_16 
ROOT
HETATM    1  N1  UNL     1      -0.717  -2.271  -0.589  1.00  0.00    -0.362 N 
HETATM    2  C3  UNL     1       0.603  -2.881  -0.668  1.00  0.00     0.202 C 
HETATM    3  N2  UNL     1       1.503  -1.971  -0.838  1.00  0.00    -0.257 NA
HETATM    4  C4  UNL     1       0.839  -0.720  -0.882  1.00  0.00     0.239 C 
HETATM    5  C5  UNL     1      -0.378  -1.025  -0.023  1.00  0.00     0.176 C 
HETATM    6  C6  UNL     1      -1.256   0.130  -0.155  1.00  0.00     0.036 C 
HETATM    7  N5  UNL     1      -0.732   1.285  -0.339  1.00  0.00    -0.276 NA
HETATM    8  C9  UNL     1       0.664   1.583  -0.432  1.00  0.00     0.275 C 
HETATM    9  N6  UNL     1       1.527   0.419  -0.349  1.00  0.00    -0.337 N 
ENDROOT
BRANCH   6  10
HETATM   10  C7  UNL     1      -2.733   0.155  -0.095  1.00  0.00     0.072 C 
BRANCH  10  11
HETATM   11  C8  UNL     1      -3.317   1.564  -0.268  1.00  0.00     0.110 C 
BRANCH  11  12
HETATM   12  N3  UNL     1      -2.801   2.405   0.796  1.00  0.00    -0.263 NA
HETATM   13  H13 UNL     1      -3.062   1.992   1.710  1.00  0.00     0.140 HD
BRANCH  12  14
HETATM   14  N4  UNL     1      -3.281   3.704   0.693  1.00  0.00    -0.271 NA
HETATM   15  H14 UNL     1      -2.517   4.334   1.036  1.00  0.00     0.137 HD
HETATM   16  H15 UNL     1      -4.135   3.800   1.279  1.00  0.00     0.137 HD
ENDBRANCH  12  14
ENDBRANCH  11  12
ENDBRANCH  10  11
ENDBRANCH   6  10
BRANCH   1  17
HETATM   17  C2  UNL     1      -1.869  -3.023  -1.053  1.00  0.00     0.120 C 
HETATM   18  C1  UNL     1      -2.768  -3.403   0.124  1.00  0.00     0.026 C 
ENDBRANCH   1  17
BRANCH   9  19
HETATM   19  C10 UNL     1       2.836   0.565   0.191  1.00  0.00     0.035 A 
HETATM   20  C11 UNL     1       3.304   1.867   0.277  1.00  0.00     0.029 A 
HETATM   21  C12 UNL     1       4.574   2.090   0.805  1.00  0.00     0.004 A 
HETATM   22  C13 UNL     1       5.414   1.067   1.259  1.00  0.00     0.024 A 
HETATM   23  C14 UNL     1       4.869  -0.187   1.135  1.00  0.00     0.036 A 
HETATM   24 CL1  UNL     1       5.852  -1.543   1.682  1.00  0.00    -0.084 Cl
HETATM   25  C15 UNL     1       3.630  -0.471   0.626  1.00  0.00     0.053 A 
ENDBRANCH   9  19
TORSDOF 6
