REMARK  8 active torsions:
REMARK  status: ('A' for Active; 'I' for Inactive)
REMARK    1  A    between atoms: C2_2  and  P1_3 
REMARK    2  A    between atoms: P1_3  and  C3_4 
REMARK    3  A    between atoms: C4_5  and  C5_6 
REMARK    4  A    between atoms: C5_6  and  N1_7 
REMARK    5  A    between atoms: C10_14  and  N4_15 
REMARK    6  A    between atoms: N4_15  and  C11_16 
REMARK    7  A    between atoms: C11_16  and  C12_17 
REMARK    8  A    between atoms: C12_17  and  N5_18 
ROOT
HETATM    1  N1  UNL     1       0.649  -0.647   0.605  1.00  0.00    -0.320 N 
HETATM    2  C6  UNL     1       1.129   0.097   1.635  1.00  0.00     0.212 A 
HETATM    3  N2  UNL     1       0.266   1.102   1.855  1.00  0.00    -0.238 NA
HETATM    4  C7  UNL     1      -0.748   1.019   0.994  1.00  0.00     0.129 A 
HETATM    5  C8  UNL     1      -1.907   1.748   0.745  1.00  0.00     0.082 A 
HETATM    6  C9  UNL     1      -2.111   2.924   1.618  1.00  0.00     0.074 C 
HETATM    7  N3  UNL     1      -2.738   1.344  -0.252  1.00  0.00    -0.066 NA
HETATM    8  C10 UNL     1      -2.424   0.254  -0.974  1.00  0.00     0.724 A 
HETATM    9  N6  UNL     1      -1.314  -0.523  -0.806  1.00  0.00    -0.043 NA
HETATM   10  C13 UNL     1      -0.503  -0.086   0.206  1.00  0.00     0.181 A 
ENDROOT
BRANCH   8  11
HETATM   11  N4  UNL     1      -3.458   0.039  -1.942  1.00  0.00    -0.221 N 
HETATM   12  H13 UNL     1      -3.627   0.486  -2.880  1.00  0.00     0.177 HD
BRANCH  11  13
HETATM   13  C11 UNL     1      -4.300  -0.971  -1.382  1.00  0.00     0.168 C 
BRANCH  13  14
HETATM   14  C12 UNL     1      -4.848  -0.644  -0.014  1.00  0.00     0.286 C 
BRANCH  14  15
HETATM   15  N5  UNL     1      -5.640   0.546   0.001  1.00  0.00     0.079 N 
HETATM   16  H18 UNL     1      -6.661   0.359   0.166  1.00  0.00     0.312 HD
HETATM   17  H19 UNL     1      -5.366   1.131   0.850  1.00  0.00     0.312 HD
ENDBRANCH  14  15
ENDBRANCH  13  14
ENDBRANCH  11  13
ENDBRANCH   8  11
BRANCH   1  18
HETATM   18  C5  UNL     1       1.409  -1.807   0.165  1.00  0.00     0.159 C 
BRANCH  18  19
HETATM   19  C4  UNL     1       2.374  -1.315  -0.880  1.00  0.00    -0.005 C 
HETATM   20  C3  UNL     1       3.685  -1.453  -0.697  1.00  0.00     0.013 C 
BRANCH  20  21
HETATM   21  P1  UNL     1       5.500  -1.344  -1.038  1.00  0.00    -0.039 P 
BRANCH  21  22
HETATM   22  C2  UNL     1       6.347   0.014  -0.565  1.00  0.00    -0.015 C 
HETATM   23  C1  UNL     1       7.790   0.000  -0.886  1.00  0.00     0.037 C 
ENDBRANCH  21  22
ENDBRANCH  20  21
ENDBRANCH  18  19
ENDBRANCH   1  18
TORSDOF 8
