REMARK  3 active torsions:
REMARK  status: ('A' for Active; 'I' for Inactive)
REMARK    1  A    between atoms: N1_2  and  C2_3 
REMARK    2  A    between atoms: C2_3  and  C3_4 
REMARK    3  A    between atoms: N2_6  and  C4_7 
ROOT
HETATM    1  C4  UNL     1       1.365  -1.194   0.318  1.00  0.00     0.126 C 
HETATM    2  C5  UNL     1       0.773  -1.998   1.219  1.00  0.00     0.069 C 
HETATM    3  C6  UNL     1      -0.529  -2.176   1.897  1.00  0.00     0.114 C 
HETATM    4  N3  UNL     1      -1.171  -1.202   1.361  1.00  0.00    -0.297 NA
HETATM    5  C7  UNL     1      -2.538  -0.947   1.712  1.00  0.00     0.183 C 
HETATM    6  C8  UNL     1      -3.188  -0.102   0.644  1.00  0.00    -0.049 C 
HETATM    7  C9  UNL     1      -4.593   0.225   0.933  1.00  0.00     0.046 C 
HETATM    8  C10 UNL     1      -3.064   0.524  -0.515  1.00  0.00     0.088 C 
HETATM    9  N4  UNL     1      -3.610   1.315  -1.550  1.00  0.00    -0.381 N 
HETATM   10  C11 UNL     1      -2.706   2.430  -1.733  1.00  0.00     0.268 C 
HETATM   11  N5  UNL     1      -1.401   2.040  -2.114  1.00  0.00    -0.285 NA
HETATM   12  C12 UNL     1      -0.440   1.709  -1.382  1.00  0.00     0.104 C 
HETATM   13  C13 UNL     1       0.570   1.351  -0.351  1.00  0.00     0.167 C 
HETATM   14  N6  UNL     1       0.698  -0.099  -0.309  1.00  0.00    -0.370 N 
HETATM   15  H13 UNL     1      -4.363   0.594  -1.560  1.00  0.00     0.160 HD
HETATM   16  H19 UNL     1       0.115  -0.702  -0.955  1.00  0.00     0.161 HD
ENDROOT
BRANCH   1  17
HETATM   17  N2  UNL     1       2.626  -1.007  -0.350  1.00  0.00    -0.222 NA
HETATM   18  C3  UNL     1       3.705  -1.428   0.197  1.00  0.00     0.125 C 
HETATM   19 CL1  UNL     1       4.186  -2.251   1.664  1.00  0.00    -0.065 Cl
BRANCH  18  20
HETATM   20  C2  UNL     1       4.997  -1.214  -0.531  1.00  0.00     0.219 C 
BRANCH  20  21
HETATM   21  N1  UNL     1       5.819  -0.416   0.327  1.00  0.00    -0.306 NA
HETATM   22  C1  UNL     1       5.963   0.852   0.224  1.00  0.00     0.143 C 
ENDBRANCH  20  21
ENDBRANCH  18  20
ENDBRANCH   1  17
TORSDOF 3
