REMARK  7 active torsions:
REMARK  status: ('A' for Active; 'I' for Inactive)
REMARK    1  A    between atoms: C2_2  and  N1_3 
REMARK    2  A    between atoms: C5_7  and  C6_8 
REMARK    3  A    between atoms: C8_10  and  N3_11 
REMARK    4  A    between atoms: C10_15  and  N5_16 
REMARK    5  A    between atoms: N5_16  and  C11_17 
REMARK    6  A    between atoms: C11_17  and  C12_18 
REMARK    7  A    between atoms: C12_18  and  N6_19 
ROOT
HETATM    1  N1  UNL     1       0.165   2.896   0.089  1.00  0.00    -0.324 N 
HETATM    2  C3  UNL     1       1.455   3.040  -0.313  1.00  0.00     0.212 A 
HETATM    3  N2  UNL     1       2.043   1.829  -0.241  1.00  0.00    -0.238 NA
HETATM    4  C4  UNL     1       1.121   0.933   0.204  1.00  0.00     0.134 A 
HETATM    5  C5  UNL     1       1.339  -0.417   0.410  1.00  0.00     0.116 A 
HETATM    6  N4  UNL     1       0.252  -1.096   0.860  1.00  0.00    -0.060 NA
HETATM    7  C10 UNL     1      -0.932  -0.471   1.077  1.00  0.00     0.725 A 
HETATM    8  N7  UNL     1      -1.097   0.856   0.860  1.00  0.00    -0.042 NA
HETATM    9  C13 UNL     1      -0.067   1.591   0.416  1.00  0.00     0.181 A 
ENDROOT
BRANCH   5  10
HETATM   10  C6  UNL     1       2.579  -1.156   0.198  1.00  0.00    -0.007 A 
HETATM   11  C7  UNL     1       3.047  -2.342   0.313  1.00  0.00     0.021 A 
HETATM   12  C8  UNL     1       4.356  -1.997  -0.151  1.00  0.00     0.264 A 
HETATM   13  C9  UNL     1       3.835  -0.624  -0.304  1.00  0.00     0.153 A 
HETATM   14 CL1  UNL     1       4.607   0.626   0.687  1.00  0.00    -0.117 Cl
BRANCH  12  15
HETATM   15  N3  UNL     1       4.798  -2.656  -1.370  1.00  0.00     0.088 N 
HETATM   16  H9  UNL     1       4.402  -3.611  -1.453  1.00  0.00     0.313 HD
HETATM   17  H10 UNL     1       5.840  -2.638  -1.428  1.00  0.00     0.313 HD
ENDBRANCH  12  15
ENDBRANCH   5  10
BRANCH   7  18
HETATM   18  N5  UNL     1      -2.110  -1.111   1.541  1.00  0.00    -0.221 N 
HETATM   19  H12 UNL     1      -2.406  -1.309   2.520  1.00  0.00     0.177 HD
BRANCH  18  20
HETATM   20  C11 UNL     1      -2.883  -1.466   0.341  1.00  0.00     0.168 C 
BRANCH  20  21
HETATM   21  C12 UNL     1      -4.127  -2.155   0.809  1.00  0.00     0.286 C 
BRANCH  21  22
HETATM   22  N6  UNL     1      -4.949  -2.533  -0.307  1.00  0.00     0.079 N 
HETATM   23  H17 UNL     1      -5.877  -2.892  -0.027  1.00  0.00     0.312 HD
HETATM   24  H18 UNL     1      -4.429  -3.169  -0.926  1.00  0.00     0.312 HD
ENDBRANCH  21  22
ENDBRANCH  20  21
ENDBRANCH  18  20
ENDBRANCH   7  18
BRANCH   1  25
HETATM   25  C2  UNL     1      -0.885   3.879   0.196  1.00  0.00     0.127 C 
HETATM   26  C1  UNL     1      -1.692   4.008  -1.079  1.00  0.00     0.027 C 
ENDBRANCH   1  25
TORSDOF 7
