REMARK  3 active torsions:
REMARK  status: ('A' for Active; 'I' for Inactive)
REMARK    1  A    between atoms: C2_2  and  N1_3 
REMARK    2  A    between atoms: N5_16  and  C11_17 
REMARK    3  A    between atoms: C13_20  and  N6_21 
ROOT
HETATM    1  N1  UNL     1      -2.983   0.863  -0.624  1.00  0.00    -0.327 N 
HETATM    2  C3  UNL     1      -4.024   0.012  -1.038  1.00  0.00     0.207 A 
HETATM    3  N2  UNL     1      -3.614  -0.860  -1.862  1.00  0.00    -0.251 NA
HETATM    4  C4  UNL     1      -2.203  -0.707  -2.124  1.00  0.00     0.277 A 
HETATM    5  N3  UNL     1      -1.465  -1.924  -1.792  1.00  0.00    -0.359 N 
HETATM    6  C5  UNL     1      -0.960  -2.382  -0.548  1.00  0.00     0.059 A 
HETATM    7  C6  UNL     1      -1.446  -3.650  -0.311  1.00  0.00     0.055 A 
HETATM    8  C7  UNL     1      -1.168  -4.424   0.811  1.00  0.00     0.036 A 
HETATM    9 CL1  UNL     1      -1.799  -6.035   1.087  1.00  0.00    -0.084 Cl
HETATM   10  C8  UNL     1      -0.336  -3.872   1.761  1.00  0.00     0.026 A 
HETATM   11  C9  UNL     1       0.149  -2.604   1.521  1.00  0.00     0.034 A 
HETATM   12  C10 UNL     1      -0.130  -1.845   0.411  1.00  0.00     0.069 A 
HETATM   13  N4  UNL     1       0.540  -0.597   0.505  1.00  0.00    -0.315 N 
HETATM   14  N5  UNL     1       1.304   0.174  -0.372  1.00  0.00    -0.204 NA
HETATM   15  C15 UNL     1       0.436   1.181  -1.009  1.00  0.00     0.264 C 
HETATM   16  N7  UNL     1      -0.619   0.402  -1.565  1.00  0.00    -0.257 NA
HETATM   17  C16 UNL     1      -1.815   0.430  -1.290  1.00  0.00     0.148 A 
HETATM   18  H8  UNL     1      -1.287  -2.551  -2.636  1.00  0.00     0.162 HD
HETATM   19  H12 UNL     1       0.505  -0.051   1.402  1.00  0.00     0.181 HD
ENDROOT
BRANCH  14  20
HETATM   20  C11 UNL     1       2.484   0.686   0.199  1.00  0.00     0.109 C 
HETATM   21  C12 UNL     1       2.337   1.709   1.281  1.00  0.00     0.192 C 
HETATM   22  O1  UNL     1       3.640   2.252   1.315  1.00  0.00    -0.356 OA
HETATM   23  C13 UNL     1       4.031   2.428  -0.008  1.00  0.00     0.355 C 
HETATM   24  C14 UNL     1       3.419   1.272  -0.802  1.00  0.00     0.087 C 
BRANCH  23  25
HETATM   25  N6  UNL     1       5.468   2.341  -0.186  1.00  0.00     0.107 N 
HETATM   26  H17 UNL     1       5.629   2.678  -1.184  1.00  0.00     0.316 HD
HETATM   27  H18 UNL     1       5.717   1.326  -0.204  1.00  0.00     0.316 HD
ENDBRANCH  23  25
ENDBRANCH  14  20
BRANCH   1  28
HETATM   28  C2  UNL     1      -3.003   1.972   0.288  1.00  0.00     0.127 C 
HETATM   29  C1  UNL     1      -3.249   1.408   1.676  1.00  0.00     0.027 C 
ENDBRANCH   1  28
TORSDOF 3
