REMARK  4 active torsions:
REMARK  status: ('A' for Active; 'I' for Inactive)
REMARK    1  A    between atoms: N1_1  and  C1_2 
REMARK    2  A    between atoms: C1_2  and  C2_3 
REMARK    3  A    between atoms: C2_3  and  N2_4 
REMARK    4  A    between atoms: N2_4  and  C3_5 
ROOT
HETATM    1  C3  UNL     1       1.066   0.401   1.201  1.00  0.00     0.725 A 
HETATM    2  N3  UNL     1       0.630  -0.781   1.750  1.00  0.00    -0.059 NA
HETATM    3  C4  UNL     1      -0.074  -1.678   0.998  1.00  0.00     0.130 A 
HETATM    4  C5  UNL     1      -0.491  -1.710  -0.273  1.00  0.00     0.136 A 
HETATM    5  N4  UNL     1      -1.183  -2.417  -1.131  1.00  0.00    -0.237 NA
HETATM    6  C6  UNL     1      -1.235  -1.682  -2.254  1.00  0.00     0.212 A 
HETATM    7  N5  UNL     1      -0.564  -0.572  -1.991  1.00  0.00    -0.324 N 
HETATM    8  C7  UNL     1      -0.027  -0.515  -0.712  1.00  0.00     0.181 A 
HETATM    9  N6  UNL     1       0.662   0.410  -0.052  1.00  0.00    -0.042 NA
HETATM   10  C8  UNL     1      -0.384   0.757  -2.600  1.00  0.00     0.132 C 
HETATM   11  C9  UNL     1      -1.760   1.427  -2.631  1.00  0.00     0.026 C 
HETATM   12  C10 UNL     1      -2.571   1.030  -1.461  1.00  0.00     0.027 C 
HETATM   13  C11 UNL     1      -3.042   0.496  -0.347  1.00  0.00    -0.001 C 
HETATM   14  C12 UNL     1      -3.166  -0.303   0.883  1.00  0.00    -0.026 C 
HETATM   15  C13 UNL     1      -2.635  -1.141   1.715  1.00  0.00    -0.002 C 
HETATM   16  C14 UNL     1      -1.676  -2.026   2.333  1.00  0.00     0.026 C 
HETATM   17  C15 UNL     1      -0.396  -2.462   2.174  1.00  0.00     0.066 C 
HETATM   18 CL1  UNL     1       0.500  -3.563   3.112  1.00  0.00    -0.082 Cl
ENDROOT
BRANCH   1  19
HETATM   19  N2  UNL     1       1.749   1.616   1.394  1.00  0.00    -0.221 N 
HETATM   20  H7  UNL     1       1.079   2.431   1.560  1.00  0.00     0.177 HD
BRANCH  19  21
HETATM   21  C2  UNL     1       3.170   1.809   1.390  1.00  0.00     0.168 C 
BRANCH  21  22
HETATM   22  C1  UNL     1       3.878   1.146   0.230  1.00  0.00     0.286 C 
BRANCH  22  23
HETATM   23  N1  UNL     1       3.632  -0.283   0.330  1.00  0.00     0.079 N 
HETATM   24  H1  UNL     1       3.643  -0.538   1.350  1.00  0.00     0.312 HD
HETATM   25  H2  UNL     1       4.480  -0.761  -0.080  1.00  0.00     0.312 HD
ENDBRANCH  22  23
ENDBRANCH  21  22
ENDBRANCH  19  21
ENDBRANCH   1  19
TORSDOF 4
