REMARK  8 active torsions:
REMARK  status: ('A' for Active; 'I' for Inactive)
REMARK    1  A    between atoms: C2_2  and  N1_3 
REMARK    2  A    between atoms: C5_7  and  N3_8 
REMARK    3  A    between atoms: N3_8  and  C6_9 
REMARK    4  A    between atoms: C6_9  and  C7_10 
REMARK    5  A    between atoms: C12_18  and  N5_19 
REMARK    6  A    between atoms: N5_19  and  C13_20 
REMARK    7  A    between atoms: C13_20  and  C14_21 
REMARK    8  A    between atoms: C14_21  and  N6_22 
ROOT
HETATM    1  N1  UNL     1      -1.564   2.172   1.258  1.00  0.00    -0.324 N 
HETATM    2  C3  UNL     1      -0.758   3.060   0.661  1.00  0.00     0.212 A 
HETATM    3  N2  UNL     1       0.136   2.456  -0.151  1.00  0.00    -0.236 NA
HETATM    4  C4  UNL     1      -0.067   1.118  -0.105  1.00  0.00     0.150 A 
HETATM    5  C5  UNL     1       0.468  -0.068  -0.667  1.00  0.00     0.176 A 
HETATM    6  N4  UNL     1      -0.070  -1.242  -0.325  1.00  0.00    -0.043 NA
HETATM    7  C12 UNL     1      -1.091  -1.360   0.523  1.00  0.00     0.726 A 
HETATM    8  N7  UNL     1      -1.570  -0.231   1.034  1.00  0.00    -0.042 NA
HETATM    9  C15 UNL     1      -1.116   0.981   0.766  1.00  0.00     0.182 A 
ENDROOT
BRANCH   5  10
HETATM   10  N3  UNL     1       1.525   0.312  -1.515  1.00  0.00    -0.368 N 
HETATM   11  H7  UNL     1       1.766  -0.702  -1.792  1.00  0.00     0.161 HD
BRANCH  10  12
HETATM   12  C6  UNL     1       2.575   0.689  -2.357  1.00  0.00     0.159 C 
BRANCH  12  13
HETATM   13  C7  UNL     1       3.928   0.228  -1.885  1.00  0.00    -0.017 A 
HETATM   14  C8  UNL     1       4.887   1.134  -1.626  1.00  0.00     0.042 A 
HETATM   15 CL1  UNL     1       4.655   2.856  -1.809  1.00  0.00    -0.084 Cl
HETATM   16  C9  UNL     1       6.171   0.644  -1.160  1.00  0.00     0.048 A 
HETATM   17  C10 UNL     1       6.369  -0.650  -1.002  1.00  0.00     0.136 A 
HETATM   18  O1  UNL     1       5.394  -1.592  -1.263  1.00  0.00    -0.359 OA
HETATM   19  C11 UNL     1       4.125  -1.228  -1.723  1.00  0.00     0.212 A 
ENDBRANCH  12  13
ENDBRANCH  10  12
ENDBRANCH   5  10
BRANCH   7  20
HETATM   20  N5  UNL     1      -1.549  -2.674   0.783  1.00  0.00    -0.221 N 
HETATM   21  H14 UNL     1      -1.131  -3.519   0.383  1.00  0.00     0.177 HD
BRANCH  20  22
HETATM   22  C13 UNL     1      -2.663  -2.811   1.659  1.00  0.00     0.168 C 
BRANCH  22  23
HETATM   23  C14 UNL     1      -3.884  -2.121   1.101  1.00  0.00     0.286 C 
BRANCH  23  24
HETATM   24  N6  UNL     1      -4.246  -2.677  -0.178  1.00  0.00     0.079 N 
HETATM   25  H19 UNL     1      -4.345  -1.891  -0.856  1.00  0.00     0.312 HD
HETATM   26  H20 UNL     1      -5.146  -3.186  -0.163  1.00  0.00     0.312 HD
ENDBRANCH  23  24
ENDBRANCH  22  23
ENDBRANCH  20  22
ENDBRANCH   7  20
BRANCH   1  27
HETATM   27  C2  UNL     1      -2.635   2.338   2.202  1.00  0.00     0.127 C 
HETATM   28  C1  UNL     1      -3.949   2.461   1.470  1.00  0.00     0.027 C 
ENDBRANCH   1  27
TORSDOF 8
