REMARK  5 active torsions:
REMARK  status: ('A' for Active; 'I' for Inactive)
REMARK    1  A    between atoms: O1_2  and  C2_3 
REMARK    2  A    between atoms: C4_6  and  C5_7 
REMARK    3  A    between atoms: C5_7  and  C6_8 
REMARK    4  A    between atoms: C6_8  and  N1_9 
REMARK    5  A    between atoms: C17_22  and  C18_23 
ROOT
HETATM    1  C2  UNL     1       1.148   1.681   1.832  1.00  0.00     0.120 A 
HETATM    2  O2  UNL     1       1.343   0.963   0.869  1.00  0.00     0.000 OA
HETATM    3  C3  UNL     1       0.324   1.370   0.653  1.00  0.00     0.193 A 
HETATM    4  C4  UNL     1       1.012   0.534  -0.085  1.00  0.00     0.139 A 
HETATM    5  O3  UNL     1      -0.000   0.442  -1.086  1.00  0.00    -0.369 OA
HETATM    6  C9  UNL     1      -0.970  -0.568  -0.858  1.00  0.00     0.208 C 
HETATM    7  C10 UNL     1      -2.212  -0.297  -1.644  1.00  0.00    -0.021 A 
HETATM    8  C11 UNL     1      -2.398  -0.656  -2.962  1.00  0.00     0.010 A 
HETATM    9  C12 UNL     1      -3.589  -0.343  -3.583  1.00  0.00     0.001 A 
HETATM   10  C13 UNL     1      -4.634   0.317  -2.973  1.00  0.00     0.001 A 
HETATM   11  C14 UNL     1      -4.437   0.679  -1.632  1.00  0.00     0.015 A 
HETATM   12  C15 UNL     1      -3.243   0.375  -0.980  1.00  0.00     0.009 A 
HETATM   13  C16 UNL     1      -3.076   0.773   0.439  1.00  0.00     0.120 A 
HETATM   14  O4  UNL     1      -4.009   0.446   1.297  1.00  0.00    -0.302 OA
HETATM   15  C17 UNL     1      -3.732   0.858   2.510  1.00  0.00     0.141 A 
HETATM   16  C19 UNL     1      -2.513   1.500   2.379  1.00  0.00     0.082 A 
HETATM   17  C20 UNL     1      -2.075   1.459   1.070  1.00  0.00     0.108 A 
HETATM   18  O6  UNL     1      -0.916   1.994   0.594  1.00  0.00    -0.323 OA
ENDROOT
BRANCH   4  19
HETATM   19  C5  UNL     1       1.986  -0.372  -0.696  1.00  0.00     0.075 C 
BRANCH  19  20
HETATM   20  C6  UNL     1       3.286  -0.568   0.040  1.00  0.00     0.274 C 
BRANCH  20  21
HETATM   21  N1  UNL     1       4.145  -1.499  -0.666  1.00  0.00     0.080 N 
HETATM   22  C7  UNL     1       3.666  -2.848  -0.677  1.00  0.00     0.309 C 
HETATM   23  C8  UNL     1       4.545  -1.019  -1.965  1.00  0.00     0.309 C 
ENDBRANCH  20  21
ENDBRANCH  19  20
ENDBRANCH   4  19
BRANCH   1  24
HETATM   24  O1  UNL     1       1.898   1.983   2.938  1.00  0.00    -0.354 OA
HETATM   25  C1  UNL     1       3.170   1.520   3.278  1.00  0.00     0.209 C 
ENDBRANCH   1  24
BRANCH  15  26
HETATM   26  C18 UNL     1      -4.489   0.712   3.766  1.00  0.00     0.275 C 
HETATM   27  O5  UNL     1      -4.087   1.151   4.851  1.00  0.00    -0.272 OA
HETATM   28 CL1  UNL     1      -6.030  -0.146   3.593  1.00  0.00    -0.036 Cl
ENDBRANCH  15  26
TORSDOF 5
