REMARK  4 active torsions:
REMARK  status: ('A' for Active; 'I' for Inactive)
REMARK    1  A    between atoms: C2_2  and  N1_3 
REMARK    2  A    between atoms: N1_3  and  C3_4 
REMARK    3  A    between atoms: N1_3  and  N3_6 
REMARK    4  A    between atoms: C7_12  and  N6_13 
ROOT
HETATM    1  N3  UNL     1      -1.708  -0.620  -0.350  1.00  0.00    -0.210 N 
HETATM    2  N4  UNL     1      -2.903  -1.361  -0.537  1.00  0.00    -0.217 NA
HETATM    3  C4  UNL     1      -2.672  -2.604   0.196  1.00  0.00     0.118 C 
HETATM    4  C5  UNL     1      -1.683  -3.440  -0.605  1.00  0.00     0.078 C 
HETATM    5  C6  UNL     1      -0.338  -2.774  -0.492  1.00  0.00     0.072 A 
HETATM    6  N5  UNL     1       0.932  -2.551  -0.422  1.00  0.00    -0.231 NA
HETATM    7  C7  UNL     1       0.829  -1.141  -0.297  1.00  0.00     0.162 A 
HETATM    8  C13 UNL     1      -0.477  -1.330  -0.366  1.00  0.00     0.140 A 
HETATM    9  H8  UNL     1      -3.684  -0.826  -0.122  1.00  0.00     0.148 HD
ENDROOT
BRANCH   7  10
HETATM   10  N6  UNL     1       1.900  -0.218  -0.169  1.00  0.00    -0.336 N 
HETATM   11  C8  UNL     1       1.912   0.649   0.934  1.00  0.00     0.095 A 
HETATM   12  C9  UNL     1       2.920   1.497   1.041  1.00  0.00     0.041 A 
HETATM   13  C10 UNL     1       4.018   1.593   0.091  1.00  0.00     0.033 A 
HETATM   14 CL1  UNL     1       5.281   2.766   0.373  1.00  0.00    -0.085 Cl
HETATM   15  C11 UNL     1       3.981   0.769  -0.935  1.00  0.00     0.017 A 
HETATM   16  C12 UNL     1       2.941  -0.228  -1.203  1.00  0.00     0.159 A 
ENDBRANCH   7  10
BRANCH   1  17
HETATM   17  N1  UNL     1      -1.797   0.759  -0.155  1.00  0.00    -0.270 N 
BRANCH  17  18
HETATM   18  C2  UNL     1      -1.682   2.085  -0.726  1.00  0.00     0.147 C 
HETATM   19  C1  UNL     1      -0.511   2.790  -0.112  1.00  0.00     0.028 C 
ENDBRANCH  17  18
BRANCH  17  20
HETATM   20  C3  UNL     1      -2.172   0.723   1.225  1.00  0.00     0.218 C 
HETATM   21  N2  UNL     1      -1.719   0.152   2.292  1.00  0.00    -0.294 NA
HETATM   22  H7  UNL     1      -0.890  -0.463   2.328  1.00  0.00     0.187 HD
ENDBRANCH  17  20
ENDBRANCH   1  17
TORSDOF 4
