REMARK  4 active torsions:
REMARK  status: ('A' for Active; 'I' for Inactive)
REMARK    1  A    between atoms: N1_1  and  C1_2 
REMARK    2  A    between atoms: C5_6  and  N2_7 
REMARK    3  A    between atoms: C10_16  and  N6_17 
REMARK    4  A    between atoms: N6_17  and  C11_18 
ROOT
HETATM    1  N2  UNL     1      -1.144   0.372  -0.720  1.00  0.00    -0.205 NA
HETATM    2  C6  UNL     1      -1.260   1.556  -1.500  1.00  0.00     0.265 C 
HETATM    3  N3  UNL     1      -0.052   1.866  -2.226  1.00  0.00    -0.252 NA
HETATM    4  C7  UNL     1       1.191   1.705  -1.977  1.00  0.00     0.190 A 
HETATM    5  C8  UNL     1       1.793   1.146  -0.856  1.00  0.00     0.151 A 
HETATM    6  N4  UNL     1       3.134   1.195  -1.006  1.00  0.00    -0.234 NA
HETATM    7  C9  UNL     1       3.390   1.778  -2.210  1.00  0.00     0.247 A 
HETATM    8  N5  UNL     1       2.208   2.081  -2.786  1.00  0.00    -0.153 N 
HETATM    9  F1  UNL     1       2.038   2.670  -3.984  1.00  0.00    -0.091 F 
HETATM   10  C10 UNL     1       1.117   0.640   0.174  1.00  0.00     0.149 C 
HETATM   11  N7  UNL     1      -0.301   0.532   0.385  1.00  0.00    -0.301 N 
HETATM   12  H19 UNL     1      -0.594   0.582   1.386  1.00  0.00     0.182 HD
ENDROOT
BRANCH   1  13
HETATM   13  C5  UNL     1      -2.412  -0.178  -0.392  1.00  0.00     0.083 C 
HETATM   14  C4  UNL     1      -3.311   0.762   0.414  1.00  0.00     0.022 C 
HETATM   15  C3  UNL     1      -4.709   0.232   0.228  1.00  0.00     0.004 C 
HETATM   16  C2  UNL     1      -4.867  -1.205   0.582  1.00  0.00     0.035 C 
HETATM   17  C1  UNL     1      -3.698  -2.087   0.385  1.00  0.00     0.219 C 
HETATM   18  C17 UNL     1      -2.359  -1.437   0.411  1.00  0.00     0.056 C 
BRANCH  17  19
HETATM   19  N1  UNL     1      -3.757  -2.910  -0.827  1.00  0.00     0.083 N 
HETATM   20  H1  UNL     1      -4.337  -3.776  -0.635  1.00  0.00     0.313 HD
HETATM   21  H2  UNL     1      -2.779  -3.313  -0.943  1.00  0.00     0.313 HD
ENDBRANCH  17  19
ENDBRANCH   1  13
BRANCH  10  22
HETATM   22  N6  UNL     1       1.944   0.113   1.229  1.00  0.00    -0.340 N 
HETATM   23  H14 UNL     1       1.498  -0.282   2.079  1.00  0.00     0.167 HD
BRANCH  22  24
HETATM   24  C11 UNL     1       3.344   0.120   1.139  1.00  0.00     0.035 A 
HETATM   25  C12 UNL     1       4.290   1.068   1.541  1.00  0.00     0.029 A 
HETATM   26  C13 UNL     1       5.627   0.820   1.330  1.00  0.00     0.004 A 
HETATM   27  C14 UNL     1       6.068  -0.330   0.737  1.00  0.00     0.024 A 
HETATM   28  C15 UNL     1       5.177  -1.277   0.333  1.00  0.00     0.036 A 
HETATM   29 CL1  UNL     1       5.804  -2.716  -0.414  1.00  0.00    -0.084 Cl
HETATM   30  C16 UNL     1       3.817  -1.046   0.537  1.00  0.00     0.053 A 
ENDBRANCH  22  24
ENDBRANCH  10  22
TORSDOF 4
