REMARK  6 active torsions:
REMARK  status: ('A' for Active; 'I' for Inactive)
REMARK    1  A    between atoms: C2_2  and  N1_3 
REMARK    2  A    between atoms: C5_7  and  N3_8 
REMARK    3  A    between atoms: N3_8  and  C6_9 
REMARK    4  A    between atoms: C12_17  and  N5_18 
REMARK    5  A    between atoms: N5_18  and  C13_19 
REMARK    6  A    between atoms: C17_23  and  N6_24 
ROOT
HETATM    1  N1  UNL     1       2.214   3.127  -0.649  1.00  0.00    -0.324 N 
HETATM    2  C3  UNL     1       3.423   2.660  -1.011  1.00  0.00     0.212 A 
HETATM    3  N2  UNL     1       3.378   1.320  -0.981  1.00  0.00    -0.236 NA
HETATM    4  C4  UNL     1       2.162   0.910  -0.606  1.00  0.00     0.151 A 
HETATM    5  C5  UNL     1       1.509  -0.311  -0.393  1.00  0.00     0.180 A 
HETATM    6  N4  UNL     1       0.201  -0.332   0.002  1.00  0.00    -0.043 NA
HETATM    7  C12 UNL     1      -0.478   0.817   0.194  1.00  0.00     0.726 A 
HETATM    8  N7  UNL     1       0.151   1.987  -0.009  1.00  0.00    -0.042 NA
HETATM    9  C19 UNL     1       1.417   2.070  -0.393  1.00  0.00     0.182 A 
ENDROOT
BRANCH   7  10
HETATM   10  N5  UNL     1      -1.835   0.769   0.597  1.00  0.00    -0.218 N 
HETATM   11  H12 UNL     1      -2.315   1.700   0.750  1.00  0.00     0.178 HD
BRANCH  10  12
HETATM   12  C13 UNL     1      -2.533  -0.498   0.789  1.00  0.00     0.101 C 
HETATM   13  C14 UNL     1      -3.926  -0.140   1.299  1.00  0.00     0.026 C 
HETATM   14  C15 UNL     1      -4.876  -1.290   1.306  1.00  0.00     0.004 C 
HETATM   15  C16 UNL     1      -4.863  -2.059   0.003  1.00  0.00     0.035 C 
HETATM   16  C17 UNL     1      -4.042  -1.359  -1.036  1.00  0.00     0.220 C 
HETATM   17  C18 UNL     1      -2.629  -1.151  -0.585  1.00  0.00     0.060 C 
BRANCH  16  18
HETATM   18  N6  UNL     1      -4.653  -0.107  -1.449  1.00  0.00     0.083 N 
HETATM   19  H21 UNL     1      -4.685  -0.017  -2.472  1.00  0.00     0.313 HD
HETATM   20  H22 UNL     1      -5.638  -0.038  -1.095  1.00  0.00     0.313 HD
ENDBRANCH  16  18
ENDBRANCH  10  12
ENDBRANCH   7  10
BRANCH   5  21
HETATM   21  N3  UNL     1       2.365  -1.413  -0.638  1.00  0.00    -0.338 N 
HETATM   22  H7  UNL     1       2.191  -1.742  -1.613  1.00  0.00     0.167 HD
BRANCH  21  23
HETATM   23  C6  UNL     1       3.315  -2.044   0.189  1.00  0.00     0.035 A 
HETATM   24  C7  UNL     1       4.061  -3.106  -0.243  1.00  0.00     0.029 A 
HETATM   25  C8  UNL     1       4.972  -3.656   0.633  1.00  0.00     0.004 A 
HETATM   26  C9  UNL     1       5.212  -3.233   1.931  1.00  0.00     0.024 A 
HETATM   27  C10 UNL     1       4.433  -2.151   2.330  1.00  0.00     0.036 A 
HETATM   28 CL1  UNL     1       4.683  -1.556   3.967  1.00  0.00    -0.084 Cl
HETATM   29  C11 UNL     1       3.503  -1.563   1.485  1.00  0.00     0.053 A 
ENDBRANCH  21  23
ENDBRANCH   5  21
BRANCH   1  30
HETATM   30  C2  UNL     1       1.775   4.520  -0.523  1.00  0.00     0.127 C 
HETATM   31  C1  UNL     1       1.173   5.026  -1.810  1.00  0.00     0.027 C 
ENDBRANCH   1  30
TORSDOF 6
