REMARK  5 active torsions:
REMARK  status: ('A' for Active; 'I' for Inactive)
REMARK    1  A    between atoms: C2_2  and  N1_3 
REMARK    2  A    between atoms: C5_7  and  N3_8 
REMARK    3  A    between atoms: N3_8  and  C6_9 
REMARK    4  A    between atoms: C12_17  and  C13_18 
REMARK    5  A    between atoms: C17_23  and  N5_24 
ROOT
HETATM    1  N1  UNL     1       0.663   3.259  -1.159  1.00  0.00    -0.324 N 
HETATM    2  C3  UNL     1       1.958   3.540  -0.920  1.00  0.00     0.212 A 
HETATM    3  N2  UNL     1       2.519   2.539  -0.199  1.00  0.00    -0.236 NA
HETATM    4  C4  UNL     1       1.607   1.606   0.036  1.00  0.00     0.150 A 
HETATM    5  C5  UNL     1       1.562   0.380   0.696  1.00  0.00     0.163 A 
HETATM    6  N4  UNL     1       0.409  -0.323   0.732  1.00  0.00    -0.212 NA
HETATM    7  C12 UNL     1      -0.705   0.126   0.146  1.00  0.00     0.150 A 
HETATM    8  N6  UNL     1      -0.653   1.305  -0.486  1.00  0.00    -0.211 NA
HETATM    9  C19 UNL     1       0.453   2.067  -0.568  1.00  0.00     0.165 A 
ENDROOT
BRANCH   7  10
HETATM   10  C13 UNL     1      -2.016  -0.556   0.122  1.00  0.00     0.082 C 
HETATM   11 BR1  UNL     1      -3.440   0.779   0.021  1.00  0.00    -0.077 Br
HETATM   12  C14 UNL     1      -2.206  -1.479  -1.051  1.00  0.00     0.029 C 
HETATM   13  C15 UNL     1      -3.714  -1.707  -1.144  1.00  0.00     0.004 C 
HETATM   14  C16 UNL     1      -4.210  -2.348   0.111  1.00  0.00     0.035 C 
HETATM   15  C17 UNL     1      -3.755  -1.694   1.378  1.00  0.00     0.220 C 
HETATM   16  C18 UNL     1      -2.280  -1.345   1.379  1.00  0.00     0.064 C 
BRANCH  15  17
HETATM   17  N5  UNL     1      -4.037  -2.649   2.459  1.00  0.00     0.083 N 
HETATM   18  H19 UNL     1      -5.070  -2.693   2.552  1.00  0.00     0.313 HD
HETATM   19  H20 UNL     1      -3.673  -2.257   3.361  1.00  0.00     0.313 HD
ENDBRANCH  15  17
ENDBRANCH   7  10
BRANCH   5  20
HETATM   20  N3  UNL     1       2.740  -0.103   1.320  1.00  0.00    -0.339 N 
HETATM   21  H7  UNL     1       2.775   0.237   2.306  1.00  0.00     0.167 HD
BRANCH  20  22
HETATM   22  C6  UNL     1       3.725  -0.922   0.714  1.00  0.00     0.035 A 
HETATM   23  C7  UNL     1       3.528  -1.286  -0.601  1.00  0.00     0.029 A 
HETATM   24  C8  UNL     1       4.513  -2.093  -1.176  1.00  0.00     0.004 A 
HETATM   25  C9  UNL     1       5.603  -2.472  -0.414  1.00  0.00     0.024 A 
HETATM   26  C10 UNL     1       5.766  -2.086   0.907  1.00  0.00     0.036 A 
HETATM   27 CL1  UNL     1       7.149  -2.571   1.867  1.00  0.00    -0.084 Cl
HETATM   28  C11 UNL     1       4.795  -1.279   1.506  1.00  0.00     0.053 A 
ENDBRANCH  20  22
ENDBRANCH   5  20
BRANCH   1  29
HETATM   29  C2  UNL     1      -0.316   4.064  -1.900  1.00  0.00     0.127 C 
HETATM   30  C1  UNL     1      -1.036   5.016  -0.965  1.00  0.00     0.027 C 
ENDBRANCH   1  29
TORSDOF 5
