REMARK  6 active torsions:
REMARK  status: ('A' for Active; 'I' for Inactive)
REMARK    1  A    between atoms: C2_2  and  N1_3 
REMARK    2  A    between atoms: N4_10  and  C7_11 
REMARK    3  A    between atoms: C7_11  and  P1_12 
REMARK    4  A    between atoms: C11_16  and  N5_17 
REMARK    5  A    between atoms: C13_20  and  N7_21 
REMARK    6  A    between atoms: N7_21  and  C14_22 
ROOT
HETATM    1  N1  UNL     1      -2.936  -2.833   0.088  1.00  0.00    -0.325 N 
HETATM    2  C3  UNL     1      -4.087  -2.265  -0.377  1.00  0.00     0.212 A 
HETATM    3  N2  UNL     1      -3.797  -0.987  -0.738  1.00  0.00    -0.236 NA
HETATM    4  C4  UNL     1      -2.485  -0.805  -0.484  1.00  0.00     0.149 A 
HETATM    5  C5  UNL     1      -1.911  -1.970   0.044  1.00  0.00     0.160 A 
HETATM    6  N3  UNL     1      -0.736  -2.307   0.435  1.00  0.00    -0.249 NA
HETATM    7  C6  UNL     1       0.447  -1.477   0.438  1.00  0.00     0.293 C 
HETATM    8  N4  UNL     1       0.501  -0.430  -0.478  1.00  0.00    -0.302 N 
HETATM    9  N6  UNL     1      -0.379   0.596  -0.446  1.00  0.00    -0.284 N 
HETATM   10  C13 UNL     1      -1.766   0.317  -0.686  1.00  0.00     0.153 C 
HETATM   11  H22 UNL     1      -0.219   1.634  -0.267  1.00  0.00     0.188 HD
ENDROOT
BRANCH   8  12
HETATM   12  C7  UNL     1       1.835   0.012  -0.740  1.00  0.00     0.178 C 
BRANCH  12  13
HETATM   13  P1  UNL     1       2.768   0.644   0.712  1.00  0.00    -0.095 P 
HETATM   14  C8  UNL     1       3.883  -0.702   1.346  1.00  0.00     0.036 C 
HETATM   15  C9  UNL     1       4.922  -1.079   0.316  1.00  0.00     0.007 C 
HETATM   16  C10 UNL     1       5.241   0.073  -0.606  1.00  0.00     0.036 C 
HETATM   17  C11 UNL     1       5.310   1.403   0.069  1.00  0.00     0.222 C 
HETATM   18  C12 UNL     1       3.939   2.023   0.175  1.00  0.00     0.071 C 
BRANCH  17  19
HETATM   19  N5  UNL     1       5.918   1.359   1.386  1.00  0.00     0.083 N 
HETATM   20  H18 UNL     1       6.722   0.686   1.398  1.00  0.00     0.313 HD
HETATM   21  H19 UNL     1       6.214   2.334   1.599  1.00  0.00     0.313 HD
ENDBRANCH  17  19
ENDBRANCH  12  13
ENDBRANCH   8  12
BRANCH  10  22
HETATM   22  N7  UNL     1      -2.533   1.412  -1.228  1.00  0.00    -0.339 N 
HETATM   23  H23 UNL     1      -2.280   1.693  -2.210  1.00  0.00     0.167 HD
BRANCH  22  24
HETATM   24  C14 UNL     1      -3.586   2.299  -0.867  1.00  0.00     0.035 A 
HETATM   25  C15 UNL     1      -4.930   2.275  -1.182  1.00  0.00     0.029 A 
HETATM   26  C16 UNL     1      -5.726   3.273  -0.677  1.00  0.00     0.004 A 
HETATM   27  C17 UNL     1      -5.244   4.285   0.123  1.00  0.00     0.024 A 
HETATM   28  C18 UNL     1      -3.900   4.319   0.445  1.00  0.00     0.036 A 
HETATM   29 CL1  UNL     1      -3.347   5.638   1.468  1.00  0.00    -0.084 Cl
HETATM   30  C19 UNL     1      -3.080   3.323  -0.054  1.00  0.00     0.053 A 
ENDBRANCH  22  24
ENDBRANCH  10  22
BRANCH   1  31
HETATM   31  C2  UNL     1      -2.826  -4.194   0.571  1.00  0.00     0.127 C 
HETATM   32  C1  UNL     1      -2.481  -5.081  -0.603  1.00  0.00     0.027 C 
ENDBRANCH   1  31
TORSDOF 6
