REMARK  7 active torsions:
REMARK  status: ('A' for Active; 'I' for Inactive)
REMARK    1  A    between atoms: C2_2  and  C3_3 
REMARK    2  A    between atoms: C4_5  and  C5_6 
REMARK    3  A    between atoms: C5_6  and  C6_7 
REMARK    4  A    between atoms: C7_9  and  N2_10 
REMARK    5  A    between atoms: N2_10  and  C8_11 
REMARK    6  A    between atoms: C12_15  and  N3_16 
REMARK    7  A    between atoms: N6_23  and  C17_24 
ROOT
HETATM    1  C6  UNL     1       1.220  -1.881   0.406  1.00  0.00     0.089 A 
HETATM    2  N1  UNL     1       0.758  -0.980   1.302  1.00  0.00    -0.065 NA
HETATM    3  C7  UNL     1       0.615   0.318   0.978  1.00  0.00     0.725 A 
HETATM    4  N4  UNL     1       0.911   0.837  -0.237  1.00  0.00    -0.043 NA
HETATM    5  C14 UNL     1       1.382  -0.030  -1.180  1.00  0.00     0.181 A 
HETATM    6  C15 UNL     1       1.522  -1.355  -0.834  1.00  0.00     0.130 A 
HETATM    7  N5  UNL     1       1.994  -2.000  -1.913  1.00  0.00    -0.238 NA
HETATM    8  C16 UNL     1       2.148  -1.103  -2.914  1.00  0.00     0.212 A 
HETATM    9  N6  UNL     1       1.772   0.116  -2.471  1.00  0.00    -0.324 N 
ENDROOT
BRANCH   3  10
HETATM   10  N2  UNL     1       0.123   1.229   1.965  1.00  0.00    -0.218 N 
HETATM   11  H7  UNL     1      -0.110   0.871   2.938  1.00  0.00     0.178 HD
BRANCH  10  12
HETATM   12  C8  UNL     1      -0.100   2.639   1.771  1.00  0.00     0.101 C 
HETATM   13  C9  UNL     1      -0.583   3.348   3.024  1.00  0.00     0.026 C 
HETATM   14  C10 UNL     1      -1.845   2.719   3.511  1.00  0.00     0.004 C 
HETATM   15  C11 UNL     1      -2.841   2.429   2.431  1.00  0.00     0.035 C 
HETATM   16  C12 UNL     1      -2.501   3.101   1.126  1.00  0.00     0.220 C 
HETATM   17  C13 UNL     1      -1.113   2.800   0.660  1.00  0.00     0.060 C 
BRANCH  16  18
HETATM   18  N3  UNL     1      -3.442   2.564   0.145  1.00  0.00     0.083 N 
HETATM   19  H16 UNL     1      -3.307   2.935  -0.802  1.00  0.00     0.313 HD
HETATM   20  H17 UNL     1      -3.383   1.506   0.211  1.00  0.00     0.313 HD
ENDBRANCH  16  18
ENDBRANCH  10  12
ENDBRANCH   3  10
BRANCH   1  21
HETATM   21  C5  UNL     1       1.371  -3.320   0.750  1.00  0.00     0.091 C 
BRANCH  21  22
HETATM   22  C4  UNL     1       0.295  -4.146   0.212  1.00  0.00     0.003 C 
HETATM   23  C3  UNL     1       0.507  -5.127  -0.638  1.00  0.00     0.026 C 
HETATM   24 CL1  UNL     1       2.070  -5.588  -1.254  1.00  0.00    -0.085 Cl
BRANCH  23  25
HETATM   25  C2  UNL     1      -0.707  -5.811  -1.036  1.00  0.00    -0.003 C 
HETATM   26  C1  UNL     1      -1.491  -6.668  -1.642  1.00  0.00     0.032 C 
ENDBRANCH  23  25
ENDBRANCH  21  22
ENDBRANCH   1  21
BRANCH   9  27
HETATM   27  C17 UNL     1       1.786   1.350  -3.239  1.00  0.00     0.127 C 
HETATM   28  C18 UNL     1       3.133   2.036  -3.071  1.00  0.00     0.027 C 
ENDBRANCH   9  27
TORSDOF 7
