REMARK  3 active torsions:
REMARK  status: ('A' for Active; 'I' for Inactive)
REMARK    1  A    between atoms: O1_2  and  P1_3 
REMARK    2  A    between atoms: P1_3  and  C2_4 
REMARK    3  A    between atoms: C2_4  and  C3_6 
ROOT
HETATM    1  C3  UNL     1       0.781   0.399  -1.009  1.00  0.00     0.037 A 
HETATM    2  C4  UNL     1      -0.183  -0.255  -1.857  1.00  0.00     0.034 A 
HETATM    3  C5  UNL     1      -0.500  -1.256  -0.956  1.00  0.00     0.149 A 
HETATM    4  C6  UNL     1      -0.635  -2.103   0.038  1.00  0.00    -0.006 A 
HETATM    5  C7  UNL     1      -1.322  -3.214   0.264  1.00  0.00     0.011 A 
HETATM    6  C8  UNL     1      -1.096  -3.816   1.471  1.00  0.00     0.001 A 
HETATM    7  C9  UNL     1      -0.202  -3.241   2.330  1.00  0.00     0.001 A 
HETATM    8  C10 UNL     1       0.435  -2.098   1.964  1.00  0.00     0.011 A 
HETATM    9  C11 UNL     1       0.272  -1.456   0.815  1.00  0.00    -0.006 A 
HETATM   10  C12 UNL     1       0.590  -0.478  -0.043  1.00  0.00     0.158 A 
HETATM   11  O3  UNL     1       1.279   0.055   1.110  1.00  0.00    -0.366 OA
HETATM   12  C13 UNL     1       0.384   1.164   1.573  1.00  0.00     0.171 C 
HETATM   13  C14 UNL     1      -1.065   0.846   1.599  1.00  0.00     0.056 C 
HETATM   14  C15 UNL     1      -1.932   0.994   0.413  1.00  0.00     0.277 C 
HETATM   15  N1  UNL     1      -1.956   0.353  -0.811  1.00  0.00     0.107 NA
HETATM   16  C16 UNL     1      -2.803   1.241  -1.694  1.00  0.00     0.312 C 
HETATM   17  C17 UNL     1      -2.720  -0.927  -0.957  1.00  0.00     0.441 C 
HETATM   18  O4  UNL     1      -1.645  -1.680  -1.824  1.00  0.00    -0.338 OA
ENDROOT
BRANCH   1  19
HETATM   19  C2  UNL     1       1.595   1.497  -1.364  1.00  0.00     0.207 C 
HETATM   20  O2  UNL     1       1.272   2.020  -2.451  1.00  0.00    -0.285 OA
BRANCH  19  21
HETATM   21  P1  UNL     1       3.019   2.422  -0.722  1.00  0.00     0.088 P 
HETATM   22  H4  UNL     1       3.472   1.840   0.559  1.00  0.00     0.096 HD
BRANCH  21  23
HETATM   23  O1  UNL     1       4.355   2.470  -1.784  1.00  0.00    -0.363 OA
HETATM   24  C1  UNL     1       5.516   2.193  -1.078  1.00  0.00     0.207 C 
ENDBRANCH  21  23
ENDBRANCH  19  21
ENDBRANCH   1  19
TORSDOF 3
