REMARK  6 active torsions:
REMARK  status: ('A' for Active; 'I' for Inactive)
REMARK    1  A    between atoms: C2_2  and  N1_3 
REMARK    2  A    between atoms: C5_7  and  N3_8 
REMARK    3  A    between atoms: N3_8  and  C6_9 
REMARK    4  A    between atoms: C12_16  and  N5_17 
REMARK    5  A    between atoms: N5_17  and  C13_18 
REMARK    6  A    between atoms: C17_22  and  N6_23 
ROOT
HETATM    1  N1  UNL     1      -2.130   2.806  -1.146  1.00  0.00    -0.324 N 
HETATM    2  C3  UNL     1      -3.355   2.257  -1.101  1.00  0.00     0.212 A 
HETATM    3  N2  UNL     1      -3.235   1.041  -0.550  1.00  0.00    -0.236 NA
HETATM    4  C4  UNL     1      -1.951   0.795  -0.239  1.00  0.00     0.151 A 
HETATM    5  C5  UNL     1      -1.377  -0.309   0.342  1.00  0.00     0.180 A 
HETATM    6  N4  UNL     1      -0.050  -0.229   0.526  1.00  0.00    -0.043 NA
HETATM    7  C12 UNL     1       0.678   0.832   0.178  1.00  0.00     0.726 A 
HETATM    8  N7  UNL     1       0.063   1.887  -0.389  1.00  0.00    -0.042 NA
HETATM    9  C19 UNL     1      -1.259   1.923  -0.622  1.00  0.00     0.182 A 
ENDROOT
BRANCH   7  10
HETATM   10  N5  UNL     1       2.097   0.845   0.407  1.00  0.00    -0.218 N 
HETATM   11  H13 UNL     1       2.619   1.720   0.110  1.00  0.00     0.178 HD
BRANCH  10  12
HETATM   12  C13 UNL     1       2.740  -0.299   1.014  1.00  0.00     0.101 C 
HETATM   13  C14 UNL     1       2.572  -1.557   0.225  1.00  0.00     0.026 C 
HETATM   14  C15 UNL     1       3.866  -2.341   0.290  1.00  0.00     0.004 C 
HETATM   15  C16 UNL     1       4.939  -1.676  -0.548  1.00  0.00     0.035 C 
HETATM   16  C17 UNL     1       4.920  -0.195  -0.210  1.00  0.00     0.220 C 
HETATM   17  C18 UNL     1       4.224   0.044   1.091  1.00  0.00     0.060 C 
BRANCH  16  18
HETATM   18  N6  UNL     1       6.253   0.362  -0.126  1.00  0.00     0.083 N 
HETATM   19  H22 UNL     1       6.186   1.374  -0.393  1.00  0.00     0.313 HD
HETATM   20  H23 UNL     1       6.567   0.284   0.867  1.00  0.00     0.313 HD
ENDBRANCH  16  18
ENDBRANCH  10  12
ENDBRANCH   7  10
BRANCH   5  21
HETATM   21  N3  UNL     1      -2.015  -1.501   0.737  1.00  0.00    -0.338 N 
HETATM   22  H7  UNL     1      -1.482  -2.214   1.283  1.00  0.00     0.167 HD
BRANCH  21  23
HETATM   23  C6  UNL     1      -3.311  -2.042   0.578  1.00  0.00     0.033 A 
HETATM   24  C7  UNL     1      -4.020  -2.717   1.577  1.00  0.00     0.029 A 
HETATM   25  C8  UNL     1      -5.273  -3.239   1.354  1.00  0.00     0.002 A 
HETATM   26  C9  UNL     1      -5.893  -3.120   0.125  1.00  0.00     0.000 A 
HETATM   27  C10 UNL     1      -5.203  -2.456  -0.869  1.00  0.00     0.002 A 
HETATM   28  C11 UNL     1      -3.957  -1.940  -0.639  1.00  0.00     0.029 A 
ENDBRANCH  21  23
ENDBRANCH   5  21
BRANCH   1  29
HETATM   29  C2  UNL     1      -1.698   4.099  -1.641  1.00  0.00     0.127 C 
HETATM   30  C1  UNL     1      -1.760   5.105  -0.500  1.00  0.00     0.027 C 
ENDBRANCH   1  29
TORSDOF 6
