REMARK  9 active torsions:
REMARK  status: ('A' for Active; 'I' for Inactive)
REMARK    1  A    between atoms: C2_2  and  N1_3 
REMARK    2  A    between atoms: C6_9  and  N4_10 
REMARK    3  A    between atoms: N4_10  and  C7_11 
REMARK    4  A    between atoms: C7_11  and  C8_12 
REMARK    5  A    between atoms: C8_12  and  C9_13 
REMARK    6  A    between atoms: C9_13  and  C10_14 
REMARK    7  A    between atoms: C10_14  and  C11_15 
REMARK    8  A    between atoms: C11_15  and  N5_16 
REMARK    9  A    between atoms: C13_19  and  C14_20 
ROOT
HETATM    1  C11 UNL     1       5.775   0.595  -0.340  1.00  0.00     0.323 C 
HETATM    2  C12 UNL     1       6.072   1.096   1.002  1.00  0.00     0.095 C 
HETATM    3  N6  UNL     1       6.294   1.497   2.070  1.00  0.00    -0.195 NA
ENDROOT
BRANCH   1   4
HETATM    4  C10 UNL     1       4.867  -0.597  -0.278  1.00  0.00     0.050 C 
BRANCH   4   5
HETATM    5  C9  UNL     1       3.504  -0.247   0.291  1.00  0.00     0.005 C 
BRANCH   5   6
HETATM    6  C8  UNL     1       2.702  -1.516   0.297  1.00  0.00     0.030 C 
BRANCH   6   7
HETATM    7  C7  UNL     1       1.306  -1.363   0.835  1.00  0.00     0.273 C 
BRANCH   7   8
HETATM    8  N4  UNL     1       0.519  -0.416   0.070  1.00  0.00     0.113 N 
HETATM    9  H8  UNL     1       0.963   0.528   0.280  1.00  0.00     0.319 HD
BRANCH   8  10
HETATM   10  C6  UNL     1      -0.786  -0.366   0.687  1.00  0.00     0.380 A 
HETATM   11  N3  UNL     1      -1.490  -1.610   0.616  1.00  0.00    -0.229 NA
HETATM   12  C5  UNL     1      -2.628  -1.457   0.027  1.00  0.00     0.158 A 
HETATM   13  N1  UNL     1      -3.688  -2.208  -0.326  1.00  0.00    -0.325 N 
HETATM   14  C4  UNL     1      -2.807  -0.136  -0.349  1.00  0.00     0.115 A 
HETATM   15  C3  UNL     1      -4.547  -1.368  -0.930  1.00  0.00     0.212 A 
HETATM   16  N2  UNL     1      -4.026  -0.127  -0.947  1.00  0.00    -0.239 NA
HETATM   17  C13 UNL     1      -1.727   0.564   0.024  1.00  0.00     0.039 A 
BRANCH  13  18
HETATM   18  C2  UNL     1      -3.943  -3.624  -0.141  1.00  0.00     0.127 C 
HETATM   19  C1  UNL     1      -4.656  -3.868   1.195  1.00  0.00     0.027 C 
ENDBRANCH  13  18
BRANCH  17  20
HETATM   20  C14 UNL     1      -1.696   2.010  -0.277  1.00  0.00    -0.022 A 
HETATM   21  C15 UNL     1      -0.740   2.707  -0.954  1.00  0.00     0.012 A 
HETATM   22  C16 UNL     1      -0.888   4.065  -1.138  1.00  0.00     0.003 A 
HETATM   23  C17 UNL     1      -1.972   4.768  -0.663  1.00  0.00     0.024 A 
HETATM   24  C18 UNL     1      -2.962   4.099   0.028  1.00  0.00     0.034 A 
HETATM   25 CL1  UNL     1      -4.372   4.917   0.664  1.00  0.00    -0.084 Cl
HETATM   26  C19 UNL     1      -2.790   2.741   0.197  1.00  0.00     0.036 A 
ENDBRANCH  17  20
ENDBRANCH   8  10
ENDBRANCH   7   8
ENDBRANCH   6   7
ENDBRANCH   5   6
ENDBRANCH   4   5
ENDBRANCH   1   4
BRANCH   1  27
HETATM   27  N5  UNL     1       5.178   1.601  -1.180  1.00  0.00     0.096 N 
HETATM   28  H18 UNL     1       5.238   1.236  -2.176  1.00  0.00     0.314 HD
HETATM   29  H19 UNL     1       5.800   2.454  -1.173  1.00  0.00     0.314 HD
ENDBRANCH   1  27
TORSDOF 9
