REMARK  4 active torsions:
REMARK  status: ('A' for Active; 'I' for Inactive)
REMARK    1  A    between atoms: C1_2  and  C2_3 
REMARK    2  A    between atoms: C2_3  and  C3_4 
REMARK    3  A    between atoms: C7_8  and  C8_9 
REMARK    4  A    between atoms: C13_15  and  C14_16 
ROOT
HETATM    1  C3  UNL     1       1.551  -1.278  -2.557  1.00  0.00    -0.017 C 
HETATM    2  C4  UNL     1       0.893  -1.137  -1.384  1.00  0.00    -0.073 C 
HETATM    3  C5  UNL     1       1.471  -1.680  -0.136  1.00  0.00     0.062 C 
HETATM    4  C6  UNL     1       1.799  -0.736   0.916  1.00  0.00    -0.012 C 
HETATM    5  C7  UNL     1       1.392  -0.525   2.142  1.00  0.00    -0.024 C 
HETATM    6  C9  UNL     1       0.280  -1.325   2.694  1.00  0.00     0.045 C 
HETATM    7  C10 UNL     1      -0.859  -0.408   3.166  1.00  0.00     0.031 C 
HETATM    8  C11 UNL     1      -1.199   0.584   2.112  1.00  0.00    -0.029 C 
HETATM    9  C12 UNL     1      -1.347   1.832   1.683  1.00  0.00    -0.019 C 
HETATM   10  C13 UNL     1      -1.742   2.513   0.414  1.00  0.00     0.076 C 
HETATM   11  C15 UNL     1      -1.937   1.397  -0.629  1.00  0.00     0.094 C 
HETATM   12  C16 UNL     1      -0.563   0.763  -0.720  1.00  0.00     0.131 C 
HETATM   13  O4  UNL     1       0.199   1.484  -0.086  1.00  0.00    -0.298 OA
HETATM   14  C17 UNL     1      -0.433  -0.476  -1.474  1.00  0.00     0.112 C 
ENDROOT
BRANCH   1  15
HETATM   15  C2  UNL     1       1.390  -0.926  -3.992  1.00  0.00     0.096 C 
BRANCH  15  16
HETATM   16  C1  UNL     1       1.390  -2.130  -4.866  1.00  0.00     0.234 C 
HETATM   17  O1  UNL     1       1.288  -2.192  -6.087  1.00  0.00    -0.307 OA
ENDBRANCH  15  16
ENDBRANCH   1  15
BRANCH   5  18
HETATM   18  C8  UNL     1       1.914   0.516   2.998  1.00  0.00     0.265 C 
HETATM   19  O2  UNL     1       2.561   1.478   3.454  1.00  0.00    -0.302 OA
ENDBRANCH   5  18
BRANCH  10  20
HETATM   20  C14 UNL     1      -3.017   3.245   0.557  1.00  0.00     0.240 C 
HETATM   21  O3  UNL     1      -4.128   3.241   0.056  1.00  0.00    -0.306 OA
ENDBRANCH  10  20
TORSDOF 4
