REMARK  10 active torsions:
REMARK  status: ('A' for Active; 'I' for Inactive)
REMARK    1  A    between atoms: C6_10  and  C7_11 
REMARK    2  A    between atoms: C7_11  and  C8_12 
REMARK    3  A    between atoms: C8_12  and  N5_13 
REMARK    4  A    between atoms: C12_17  and  N6_18 
REMARK    5  A    between atoms: N6_18  and  C13_19 
REMARK    6  A    between atoms: C13_19  and  C14_20 
REMARK    7  A    between atoms: C15_21  and  N7_22 
REMARK    8  A    between atoms: C15_21  and  C16_23 
REMARK    9  A    between atoms: C16_23  and  C17_24 
REMARK   10  A    between atoms: C17_24  and  P1_25 
ROOT
HETATM    1  C1  UNL     1      -1.714  -4.724  -0.871  1.00  0.00     0.159 C 
HETATM    2  N1  UNL     1      -0.617  -3.864  -0.519  1.00  0.00    -0.329 N 
HETATM    3  C2  UNL     1       0.664  -4.177  -0.272  1.00  0.00     0.211 A 
HETATM    4  N2  UNL     1       1.266  -3.011   0.007  1.00  0.00    -0.238 NA
HETATM    5  C3  UNL     1       0.387  -1.970  -0.060  1.00  0.00     0.126 A 
HETATM    6  C4  UNL     1      -0.841  -2.549  -0.405  1.00  0.00     0.158 A 
HETATM    7  N3  UNL     1      -1.735  -1.676  -0.491  1.00  0.00    -0.240 NA
HETATM    8  C5  UNL     1      -3.091  -1.625  -0.780  1.00  0.00     0.420 C 
HETATM    9  N4  UNL     1      -3.653  -0.319  -0.735  1.00  0.00     0.107 NA
HETATM   10  C6  UNL     1      -3.706   0.275   0.528  1.00  0.00     0.224 C 
HETATM   11  C9  UNL     1      -2.596   1.063   1.089  1.00  0.00     0.036 C 
HETATM   12  C10 UNL     1      -1.273   0.418   1.288  1.00  0.00     0.008 C 
HETATM   13  C11 UNL     1      -0.467   0.279   0.039  1.00  0.00     0.059 C 
HETATM   14  C12 UNL     1       0.658  -0.672   0.182  1.00  0.00     0.038 C 
HETATM   15  H7  UNL     1      -3.260   0.277  -1.468  1.00  0.00     0.318 HD
ENDROOT
BRANCH  14  16
HETATM   16  N6  UNL     1       1.960  -0.303   0.596  1.00  0.00    -0.388 N 
HETATM   17  H21 UNL     1       1.945   0.398   1.374  1.00  0.00     0.159 HD
BRANCH  16  18
HETATM   18  C13 UNL     1       3.254  -0.743   0.113  1.00  0.00     0.148 C 
BRANCH  18  19
HETATM   19  C14 UNL     1       4.370  -0.100   0.826  1.00  0.00     0.018 C 
HETATM   20  C15 UNL     1       5.444   0.641   0.853  1.00  0.00     0.011 C 
BRANCH  20  21
HETATM   21  N7  UNL     1       6.320   1.058   1.896  1.00  0.00    -0.402 N 
HETATM   22  H25 UNL     1       5.707   1.858   2.140  1.00  0.00     0.156 HD
HETATM   23  H26 UNL     1       7.127   0.394   1.923  1.00  0.00     0.156 HD
ENDBRANCH  20  21
BRANCH  20  24
HETATM   24  C16 UNL     1       5.854   1.171  -0.479  1.00  0.00     0.142 C 
BRANCH  24  25
HETATM   25  C17 UNL     1       5.786   2.583  -0.417  1.00  0.00    -0.133 C 
BRANCH  25  26
HETATM   26  P1  UNL     1       5.720   3.912  -0.335  1.00  0.00     0.040 P 
HETATM   27 CL1  UNL     1       5.603   6.597  -0.123  1.00  0.00    -0.086 Cl
HETATM   28  H29 UNL     1       5.684   4.498  -0.307  1.00  0.00     0.087 HD
ENDBRANCH  25  26
ENDBRANCH  24  25
ENDBRANCH  20  24
ENDBRANCH  18  19
ENDBRANCH  16  18
ENDBRANCH  14  16
BRANCH  10  29
HETATM   29  C7  UNL     1      -4.976   1.161   0.509  1.00  0.00     0.065 C 
BRANCH  29  30
HETATM   30  C8  UNL     1      -5.009   2.195  -0.535  1.00  0.00     0.269 C 
BRANCH  30  31
HETATM   31  N5  UNL     1      -3.987   3.196  -0.478  1.00  0.00     0.078 N 
HETATM   32  H13 UNL     1      -4.180   4.013   0.108  1.00  0.00     0.312 HD
HETATM   33  H14 UNL     1      -3.619   3.506  -1.380  1.00  0.00     0.312 HD
ENDBRANCH  30  31
ENDBRANCH  29  30
ENDBRANCH  10  29
TORSDOF 10
