REMARK  8 active torsions:
REMARK  status: ('A' for Active; 'I' for Inactive)
REMARK    1  A    between atoms: C2_2  and  N1_3 
REMARK    2  A    between atoms: C5_7  and  N3_8 
REMARK    3  A    between atoms: N3_8  and  C6_9 
REMARK    4  A    between atoms: C6_9  and  C11_15 
REMARK    5  A    between atoms: C8_11  and  C9_12 
REMARK    6  A    between atoms: C12_17  and  N5_18 
REMARK    7  A    between atoms: N5_18  and  C13_19 
REMARK    8  A    between atoms: C17_23  and  N6_24 
ROOT
HETATM    1  N1  UNL     1       2.094   2.085  -0.934  1.00  0.00    -0.324 N 
HETATM    2  C3  UNL     1       3.436   1.974  -0.974  1.00  0.00     0.212 A 
HETATM    3  N2  UNL     1       3.718   0.790  -0.358  1.00  0.00    -0.236 NA
HETATM    4  C4  UNL     1       2.553   0.220   0.035  1.00  0.00     0.151 A 
HETATM    5  C5  UNL     1       2.376  -0.977   0.691  1.00  0.00     0.176 A 
HETATM    6  N4  UNL     1       1.111  -1.312   0.963  1.00  0.00    -0.043 NA
HETATM    7  C12 UNL     1       0.039  -0.560   0.639  1.00  0.00     0.726 A 
HETATM    8  N7  UNL     1       0.295   0.594   0.001  1.00  0.00    -0.042 NA
HETATM    9  C19 UNL     1       1.507   1.040  -0.328  1.00  0.00     0.182 A 
ENDROOT
BRANCH   7  10
HETATM   10  N5  UNL     1      -1.280  -0.981   0.964  1.00  0.00    -0.218 N 
HETATM   11  H10 UNL     1      -1.394  -1.892   1.460  1.00  0.00     0.178 HD
BRANCH  10  12
HETATM   12  C13 UNL     1      -2.460  -0.208   0.639  1.00  0.00     0.101 C 
HETATM   13  C14 UNL     1      -2.631   0.030  -0.845  1.00  0.00     0.026 C 
HETATM   14  C15 UNL     1      -3.821   0.926  -1.032  1.00  0.00     0.004 C 
HETATM   15  C16 UNL     1      -5.085   0.384  -0.422  1.00  0.00     0.035 C 
HETATM   16  C17 UNL     1      -4.844   0.102   1.053  1.00  0.00     0.220 C 
HETATM   17  C18 UNL     1      -3.693  -0.896   1.146  1.00  0.00     0.060 C 
BRANCH  16  18
HETATM   18  N6  UNL     1      -6.021  -0.454   1.667  1.00  0.00     0.083 N 
HETATM   19  H19 UNL     1      -5.807  -1.044   2.497  1.00  0.00     0.313 HD
HETATM   20  H20 UNL     1      -6.675   0.322   1.953  1.00  0.00     0.313 HD
ENDBRANCH  16  18
ENDBRANCH  10  12
ENDBRANCH   7  10
BRANCH   5  21
HETATM   21  N3  UNL     1       3.382  -1.885   1.110  1.00  0.00    -0.358 N 
HETATM   22  H7  UNL     1       3.538  -1.560   2.084  1.00  0.00     0.162 HD
BRANCH  21  23
HETATM   23  C6  UNL     1       4.076  -3.054   0.357  1.00  0.00     0.074 A 
HETATM   24  C7  UNL     1       3.605  -4.577   0.206  1.00  0.00     0.062 A 
HETATM   25  C8  UNL     1       4.579  -4.171  -0.275  1.00  0.00    -0.038 A 
BRANCH  25  26
HETATM   26  C9  UNL     1       5.471  -3.777  -0.708  1.00  0.00    -0.039 A 
HETATM   27  C10 UNL     1       6.429  -3.330  -1.167  1.00  0.00     0.097 A 
HETATM   28 CL1  UNL     1       7.590  -2.157  -1.539  1.00  0.00    -0.111 Cl
HETATM   29  C11 UNL     1       5.414  -2.467  -0.294  1.00  0.00     0.080 A 
ENDBRANCH  25  26
ENDBRANCH  21  23
ENDBRANCH   5  21
BRANCH   1  30
HETATM   30  C2  UNL     1       1.342   3.198  -1.476  1.00  0.00     0.127 C 
HETATM   31  C1  UNL     1       1.148   4.294  -0.445  1.00  0.00     0.027 C 
ENDBRANCH   1  30
TORSDOF 8
