REMARK  10 active torsions:
REMARK  status: ('A' for Active; 'I' for Inactive)
REMARK    1  A    between atoms: C2_2  and  C3_3 
REMARK    2  A    between atoms: C3_3  and  C4_4 
REMARK    3  A    between atoms: C4_4  and  N1_5 
REMARK    4  A    between atoms: C4_4  and  C5_6 
REMARK    5  A    between atoms: C5_6  and  C6_7 
REMARK    6  A    between atoms: C6_7  and  N2_8 
REMARK    7  A    between atoms: N2_8  and  C7_9 
REMARK    8  A    between atoms: C8_11  and  N4_12 
REMARK    9  A    between atoms: N4_12  and  C9_13 
REMARK   10  A    between atoms: N6_23  and  C17_24 
ROOT
HETATM    1  C7  UNL     1      -0.330  -0.368   1.000  1.00  0.00     0.726 A 
HETATM    2  N3  UNL     1      -1.396  -1.168   1.139  1.00  0.00    -0.043 NA
HETATM    3  C8  UNL     1      -2.656  -0.710   1.204  1.00  0.00     0.180 A 
HETATM    4  C15 UNL     1      -2.905   0.644   1.125  1.00  0.00     0.151 A 
HETATM    5  N5  UNL     1      -4.041   1.390   1.161  1.00  0.00    -0.236 NA
HETATM    6  C16 UNL     1      -3.668   2.671   1.041  1.00  0.00     0.212 A 
HETATM    7  N6  UNL     1      -2.330   2.733   0.932  1.00  0.00    -0.324 N 
HETATM    8  C19 UNL     1      -1.809   1.470   0.981  1.00  0.00     0.182 A 
HETATM    9  N7  UNL     1      -0.537   0.978   0.919  1.00  0.00    -0.042 NA
ENDROOT
BRANCH   1  10
HETATM   10  N2  UNL     1       0.977  -0.924   0.947  1.00  0.00    -0.222 N 
HETATM   11  H15 UNL     1       1.103  -1.941   1.016  1.00  0.00     0.177 HD
BRANCH  10  12
HETATM   12  C6  UNL     1       2.191  -0.113   0.796  1.00  0.00     0.140 C 
BRANCH  12  13
HETATM   13  C5  UNL     1       3.423  -0.953   0.817  1.00  0.00     0.055 C 
BRANCH  13  14
HETATM   14  C4  UNL     1       4.633  -0.097   0.682  1.00  0.00     0.219 C 
BRANCH  14  15
HETATM   15  C3  UNL     1       4.755   0.716  -0.549  1.00  0.00     0.035 C 
BRANCH  15  16
HETATM   16  C2  UNL     1       5.041  -0.090  -1.790  1.00  0.00    -0.002 C 
HETATM   17  C1  UNL     1       6.327  -0.868  -1.691  1.00  0.00     0.005 C 
ENDBRANCH  15  16
ENDBRANCH  14  15
BRANCH  14  18
HETATM   18  N1  UNL     1       5.853  -0.847   0.976  1.00  0.00     0.083 N 
HETATM   19  H9  UNL     1       5.682  -1.605   1.667  1.00  0.00     0.313 HD
HETATM   20  H10 UNL     1       6.642  -0.227   1.217  1.00  0.00     0.313 HD
ENDBRANCH  14  18
ENDBRANCH  13  14
ENDBRANCH  12  13
ENDBRANCH  10  12
ENDBRANCH   1  10
BRANCH   3  21
HETATM   21  N4  UNL     1      -3.792  -1.549   1.347  1.00  0.00    -0.338 N 
HETATM   22  H16 UNL     1      -4.053  -1.797   2.349  1.00  0.00     0.167 HD
BRANCH  21  23
HETATM   23  C9  UNL     1      -4.587  -2.072   0.307  1.00  0.00     0.035 A 
HETATM   24  C10 UNL     1      -5.674  -2.910   0.498  1.00  0.00     0.029 A 
HETATM   25  C11 UNL     1      -6.308  -3.297  -0.657  1.00  0.00     0.004 A 
HETATM   26  C12 UNL     1      -5.979  -2.943  -1.941  1.00  0.00     0.024 A 
HETATM   27  C13 UNL     1      -4.880  -2.096  -2.126  1.00  0.00     0.036 A 
HETATM   28 CL1  UNL     1      -4.417  -1.615  -3.727  1.00  0.00    -0.084 Cl
HETATM   29  C14 UNL     1      -4.207  -1.680  -0.977  1.00  0.00     0.053 A 
ENDBRANCH  21  23
ENDBRANCH   3  21
BRANCH   7  30
HETATM   30  C17 UNL     1      -1.578   3.969   0.784  1.00  0.00     0.127 C 
HETATM   31  C18 UNL     1      -1.493   4.207  -0.727  1.00  0.00     0.027 C 
ENDBRANCH   7  30
TORSDOF 10
