REMARK  7 active torsions:
REMARK  status: ('A' for Active; 'I' for Inactive)
REMARK    1  A    between atoms: C2_2  and  N1_3 
REMARK    2  A    between atoms: N1_3  and  C4_5 
REMARK    3  A    between atoms: C4_5  and  C5_6 
REMARK    4  A    between atoms: C8_11  and  N4_12 
REMARK    5  A    between atoms: N4_12  and  C9_13 
REMARK    6  A    between atoms: C18_24  and  C19_25 
REMARK    7  A    between atoms: C19_25  and  O1_26 
ROOT
HETATM    1  C5  UNL     1      -1.939  -0.725  -0.764  1.00  0.00    -0.051 A 
HETATM    2  C6  UNL     1      -1.274  -1.215   0.297  1.00  0.00     0.039 A 
HETATM    3  C7  UNL     1      -0.041  -0.769   0.896  1.00  0.00     0.087 A 
HETATM    4  N2  UNL     1       0.557  -1.260   1.902  1.00  0.00    -0.173 NA
HETATM    5  N3  UNL     1       1.761  -0.689   2.350  1.00  0.00    -0.262 N 
HETATM    6  C8  UNL     1       2.392   0.455   1.731  1.00  0.00     0.122 A 
HETATM    7  C15 UNL     1       1.831   1.026   0.677  1.00  0.00     0.063 A 
HETATM    8  C16 UNL     1       0.591   0.402   0.253  1.00  0.00    -0.005 A 
HETATM    9  C17 UNL     1      -0.101   0.846  -0.782  1.00  0.00    -0.002 A 
HETATM   10  C18 UNL     1      -1.354   0.445  -1.440  1.00  0.00     0.063 A 
HETATM   11  H12 UNL     1       2.283  -1.066   3.179  1.00  0.00     0.191 HD
ENDROOT
BRANCH   6  12
HETATM   12  N4  UNL     1       3.615   1.008   2.208  1.00  0.00    -0.341 N 
HETATM   13  H13 UNL     1       3.374   1.530   3.070  1.00  0.00     0.167 HD
BRANCH  12  14
HETATM   14  C9  UNL     1       4.747   0.690   1.392  1.00  0.00     0.035 A 
HETATM   15  C10 UNL     1       5.175   1.493   0.357  1.00  0.00     0.032 A 
HETATM   16  C11 UNL     1       6.288   1.029  -0.331  1.00  0.00     0.046 A 
HETATM   17  C12 UNL     1       6.894  -0.150   0.025  1.00  0.00     0.138 A 
HETATM   18  F1  UNL     1       7.985  -0.559  -0.689  1.00  0.00    -0.204 F 
HETATM   19  C13 UNL     1       6.451  -0.947   1.069  1.00  0.00     0.074 A 
HETATM   20 CL1  UNL     1       7.247  -2.440   1.487  1.00  0.00    -0.081 Cl
HETATM   21  C14 UNL     1       5.336  -0.496   1.768  1.00  0.00     0.056 A 
ENDBRANCH  12  14
ENDBRANCH   6  12
BRANCH  10  22
HETATM   22  C19 UNL     1      -2.243   1.676  -1.449  1.00  0.00     0.177 C 
BRANCH  22  23
HETATM   23  O1  UNL     1      -1.459   2.647  -2.133  1.00  0.00    -0.400 OA
HETATM   24  H22 UNL     1      -0.998   2.218  -2.916  1.00  0.00     0.209 HD
ENDBRANCH  22  23
ENDBRANCH  10  22
BRANCH   1  25
HETATM   25  C4  UNL     1      -3.191  -1.470  -1.085  1.00  0.00     0.151 C 
BRANCH  25  26
HETATM   26  N1  UNL     1      -4.393  -0.763  -1.080  1.00  0.00    -0.413 N 
HETATM   27  C3  UNL     1      -5.036  -0.513  -2.325  1.00  0.00     0.143 C 
BRANCH  26  28
HETATM   28  C2  UNL     1      -4.959  -0.232   0.079  1.00  0.00     0.112 C 
HETATM   29  C1  UNL     1      -4.288  -0.674   1.363  1.00  0.00     0.026 C 
ENDBRANCH  26  28
ENDBRANCH  25  26
ENDBRANCH   1  25
TORSDOF 7
