REMARK  5 active torsions:
REMARK  status: ('A' for Active; 'I' for Inactive)
REMARK    1  A    between atoms: C2_2  and  C3_3 
REMARK    2  A    between atoms: C3_3  and  C4_4 
REMARK    3  A    between atoms: C5_5  and  C6_6 
REMARK    4  A    between atoms: C6_6  and  O2_8 
REMARK    5  A    between atoms: C17_20  and  O4_21 
ROOT
HETATM    1  C4  UNL     1       2.291   0.075  -0.316  1.00  0.00    -0.030 A 
HETATM    2  C5  UNL     1       1.249  -0.726   0.145  1.00  0.00     0.056 A 
HETATM    3  C8  UNL     1       0.048  -0.184   0.521  1.00  0.00     0.000 A 
HETATM    4  C9  UNL     1      -0.216   1.173   0.471  1.00  0.00     0.087 A 
HETATM    5  C10 UNL     1       0.818   1.938   0.018  1.00  0.00     0.009 A 
HETATM    6  C11 UNL     1       0.663   3.304  -0.056  1.00  0.00     0.015 A 
HETATM    7  C12 UNL     1       1.628   4.201  -0.487  1.00  0.00     0.001 A 
HETATM    8  C13 UNL     1       2.859   3.682  -0.877  1.00  0.00     0.001 A 
HETATM    9  C14 UNL     1       3.041   2.317  -0.812  1.00  0.00     0.013 A 
HETATM   10  C15 UNL     1       2.046   1.439  -0.372  1.00  0.00    -0.016 A 
HETATM   11  O3  UNL     1      -1.463   1.676   0.862  1.00  0.00    -0.347 OA
HETATM   12  C16 UNL     1      -2.459   2.086  -0.018  1.00  0.00     0.212 C 
HETATM   13  C17 UNL     1      -2.990   1.069  -0.966  1.00  0.00     0.176 C 
HETATM   14  C18 UNL     1      -3.774  -0.036  -0.327  1.00  0.00    -0.014 A 
HETATM   15  C19 UNL     1      -5.143   0.183  -0.129  1.00  0.00     0.011 A 
HETATM   16  C20 UNL     1      -6.021  -0.714   0.414  1.00  0.00     0.001 A 
HETATM   17  C21 UNL     1      -5.557  -1.946   0.811  1.00  0.00     0.001 A 
HETATM   18  C22 UNL     1      -4.187  -2.172   0.616  1.00  0.00     0.016 A 
HETATM   19  C23 UNL     1      -3.304  -1.266   0.069  1.00  0.00     0.019 A 
HETATM   20  C24 UNL     1      -1.871  -1.623  -0.051  1.00  0.00     0.164 C 
HETATM   21  O5  UNL     1      -2.052  -2.275  -1.095  1.00  0.00    -0.292 OA
HETATM   22  C25 UNL     1      -1.028  -1.070   1.033  1.00  0.00     0.126 C 
ENDROOT
BRANCH   2  23
HETATM   23  C6  UNL     1       1.459  -2.162   0.212  1.00  0.00     0.294 C 
HETATM   24  O1  UNL     1       1.073  -2.493  -0.938  1.00  0.00    -0.259 OA
BRANCH  23  25
HETATM   25  O2  UNL     1       1.889  -3.187   1.016  1.00  0.00    -0.322 OA
HETATM   26  C7  UNL     1       1.865  -4.500   0.486  1.00  0.00     0.213 C 
ENDBRANCH  23  25
ENDBRANCH   2  23
BRANCH   1  27
HETATM   27  C3  UNL     1       3.606  -0.438  -0.728  1.00  0.00     0.040 C 
BRANCH  27  28
HETATM   28  C2  UNL     1       4.528  -0.754   0.435  1.00  0.00     0.000 C 
HETATM   29  C1  UNL     1       4.804   0.460   1.287  1.00  0.00     0.005 C 
ENDBRANCH  27  28
ENDBRANCH   1  27
BRANCH  13  30
HETATM   30  O4  UNL     1      -3.927   1.769  -1.787  1.00  0.00    -0.389 OA
HETATM   31  H18 UNL     1      -3.511   2.659  -1.978  1.00  0.00     0.210 HD
ENDBRANCH  13  30
TORSDOF 5
