REMARK  9 active torsions:
REMARK  status: ('A' for Active; 'I' for Inactive)
REMARK    1  A    between atoms: C2_2  and  N1_3 
REMARK    2  A    between atoms: N1_3  and  C3_4 
REMARK    3  A    between atoms: N1_3  and  C5_6 
REMARK    4  A    between atoms: C5_6  and  C6_7 
REMARK    5  A    between atoms: C6_7  and  O1_8 
REMARK    6  A    between atoms: O1_8  and  B1_9 
REMARK    7  A    between atoms: C11_16  and  N4_17 
REMARK    8  A    between atoms: N4_17  and  C12_18 
REMARK    9  A    between atoms: C19_27  and  O2_28 
ROOT
HETATM    1  B1  UNL     1      -0.225   0.729   0.395  1.00  0.00     0.395 B 
HETATM    2  C7  UNL     1       1.167   0.012   0.165  1.00  0.00     0.037 A 
HETATM    3  C8  UNL     1       2.164   0.954  -0.390  1.00  0.00     0.011 A 
HETATM    4  C9  UNL     1       1.933   2.279  -0.668  1.00  0.00     0.069 A 
HETATM    5  N2  UNL     1       2.864   3.099  -1.169  1.00  0.00    -0.241 NA
HETATM    6  C10 UNL     1       4.095   2.626  -1.421  1.00  0.00     0.235 A 
HETATM    7  N3  UNL     1       4.321   1.337  -1.150  1.00  0.00    -0.224 NA
HETATM    8  C11 UNL     1       3.444   0.460  -0.651  1.00  0.00     0.137 A 
HETATM    9  C18 UNL     1       0.640   2.904  -0.439  1.00  0.00     0.055 A 
HETATM   10  C19 UNL     1      -0.373   2.234   0.046  1.00  0.00     0.042 A 
ENDROOT
BRANCH   8  11
HETATM   11  N4  UNL     1       3.746  -0.902  -0.386  1.00  0.00    -0.340 N 
HETATM   12  H18 UNL     1       2.958  -1.496   0.006  1.00  0.00     0.167 HD
BRANCH  11  13
HETATM   13  C12 UNL     1       4.956  -1.621  -0.561  1.00  0.00     0.035 A 
HETATM   14  C13 UNL     1       5.065  -2.961  -0.251  1.00  0.00     0.032 A 
HETATM   15  C14 UNL     1       6.212  -3.684  -0.406  1.00  0.00     0.046 A 
HETATM   16  C15 UNL     1       7.338  -3.063  -0.898  1.00  0.00     0.138 A 
HETATM   17  F1  UNL     1       8.444  -3.832  -1.028  1.00  0.00    -0.204 F 
HETATM   18  C16 UNL     1       7.312  -1.725  -1.232  1.00  0.00     0.074 A 
HETATM   19 CL1  UNL     1       8.755  -0.953  -1.856  1.00  0.00    -0.081 Cl
HETATM   20  C17 UNL     1       6.118  -1.063  -1.048  1.00  0.00     0.056 A 
ENDBRANCH  11  13
ENDBRANCH   8  11
BRANCH   1  21
HETATM   21  O1  UNL     1      -1.445  -0.103   0.426  1.00  0.00    -0.444 OA
BRANCH  21  22
HETATM   22  C6  UNL     1      -2.125  -0.022   1.621  1.00  0.00     0.173 C 
BRANCH  22  23
HETATM   23  C5  UNL     1      -3.349  -0.909   1.653  1.00  0.00     0.296 C 
BRANCH  23  24
HETATM   24  N1  UNL     1      -4.321  -0.604   0.641  1.00  0.00     0.089 N 
BRANCH  24  25
HETATM   25  C2  UNL     1      -5.415  -1.565   0.830  1.00  0.00     0.268 C 
HETATM   26  C1  UNL     1      -4.870  -2.982   0.729  1.00  0.00     0.037 C 
ENDBRANCH  24  25
BRANCH  24  27
HETATM   27  C3  UNL     1      -4.814   0.755   0.730  1.00  0.00     0.268 C 
HETATM   28  C4  UNL     1      -5.697   1.064  -0.438  1.00  0.00     0.037 C 
ENDBRANCH  24  27
ENDBRANCH  23  24
ENDBRANCH  22  23
ENDBRANCH  21  22
ENDBRANCH   1  21
BRANCH  10  29
HETATM   29  O2  UNL     1      -1.607   2.826   0.266  1.00  0.00    -0.369 OA
HETATM   30  C20 UNL     1      -1.855   4.150  -0.162  1.00  0.00     0.208 C 
ENDBRANCH  10  29
TORSDOF 9
