REMARK  9 active torsions:
REMARK  status: ('A' for Active; 'I' for Inactive)
REMARK    1  A    between atoms: O1_2  and  C2_3 
REMARK    2  A    between atoms: C8_11  and  O2_12 
REMARK    3  A    between atoms: O2_12  and  C9_13 
REMARK    4  A    between atoms: C9_13  and  C10_14 
REMARK    5  A    between atoms: N3_15  and  C11_16 
REMARK    6  A    between atoms: C11_16  and  C12_17 
REMARK    7  A    between atoms: C12_17  and  C13_18 
REMARK    8  A    between atoms: C13_18  and  N4_19 
REMARK    9  A    between atoms: N4_19  and  C14_20 
ROOT
HETATM    1  C10 UNL     1      -0.035   0.344   0.190  1.00  0.00     0.110 C 
HETATM    2  N3  UNL     1       0.947   0.101   0.971  1.00  0.00    -0.303 NA
ENDROOT
BRANCH   1   3
HETATM    3  C9  UNL     1      -1.283  -0.222  -0.391  1.00  0.00     0.222 C 
BRANCH   3   4
HETATM    4  O2  UNL     1      -2.393   0.635  -0.168  1.00  0.00    -0.344 OA
BRANCH   4   5
HETATM    5  C8  UNL     1      -3.666   0.267  -0.647  1.00  0.00     0.101 C 
HETATM    6  C2  UNL     1      -4.789   0.183   0.316  1.00  0.00     0.103 C 
HETATM    7  C3  UNL     1      -6.038  -0.217  -0.001  1.00  0.00     0.069 C 
HETATM    8  C4  UNL     1      -6.049  -0.662  -1.372  1.00  0.00     0.067 A 
HETATM    9  N1  UNL     1      -6.897  -1.464  -1.955  1.00  0.00    -0.244 NA
HETATM   10  C6  UNL     1      -5.090  -0.295  -2.396  1.00  0.00     0.186 A 
HETATM   11  C5  UNL     1      -6.515  -1.656  -3.333  1.00  0.00     0.228 A 
HETATM   12  N2  UNL     1      -5.430  -0.962  -3.580  1.00  0.00    -0.267 NA
HETATM   13  C7  UNL     1      -3.755   0.019  -1.971  1.00  0.00     0.046 C 
BRANCH   6  14
HETATM   14  O1  UNL     1      -4.492   0.616   1.622  1.00  0.00    -0.353 OA
HETATM   15  C1  UNL     1      -4.288   2.022   1.755  1.00  0.00     0.210 C 
ENDBRANCH   6  14
ENDBRANCH   4   5
ENDBRANCH   3   4
ENDBRANCH   1   3
BRANCH   2  16
HETATM   16  C11 UNL     1       1.092  -1.128   1.646  1.00  0.00     0.149 C 
BRANCH  16  17
HETATM   17  C12 UNL     1       2.282  -1.159   2.559  1.00  0.00     0.041 C 
BRANCH  17  18
HETATM   18  C13 UNL     1       3.542  -0.941   1.805  1.00  0.00     0.121 C 
BRANCH  18  19
HETATM   19  N4  UNL     1       3.646   0.325   1.117  1.00  0.00    -0.390 N 
HETATM   20  H17 UNL     1       3.017   1.168   1.048  1.00  0.00     0.159 HD
BRANCH  19  21
HETATM   21  C14 UNL     1       4.872   0.470   0.373  1.00  0.00     0.029 A 
HETATM   22  C15 UNL     1       5.166   1.611  -0.356  1.00  0.00     0.032 A 
HETATM   23  C16 UNL     1       6.307   1.826  -1.089  1.00  0.00     0.046 A 
HETATM   24  C17 UNL     1       7.245   0.823  -1.104  1.00  0.00     0.138 A 
HETATM   25  F1  UNL     1       8.390   0.984  -1.811  1.00  0.00    -0.204 F 
HETATM   26  C18 UNL     1       7.034  -0.346  -0.405  1.00  0.00     0.074 A 
HETATM   27 CL1  UNL     1       8.235  -1.625  -0.425  1.00  0.00    -0.081 Cl
HETATM   28  C19 UNL     1       5.864  -0.481   0.304  1.00  0.00     0.056 A 
ENDBRANCH  19  21
ENDBRANCH  18  19
ENDBRANCH  17  18
ENDBRANCH  16  17
ENDBRANCH   2  16
TORSDOF 9
