REMARK  10 active torsions:
REMARK  status: ('A' for Active; 'I' for Inactive)
REMARK    1  A    between atoms: C2_2  and  N1_3 
REMARK    2  A    between atoms: N1_3  and  C3_4 
REMARK    3  A    between atoms: N1_3  and  C5_6 
REMARK    4  A    between atoms: C5_6  and  C6_7 
REMARK    5  A    between atoms: C6_7  and  O1_8 
REMARK    6  A    between atoms: O1_8  and  C7_9 
REMARK    7  A    between atoms: C10_12  and  N2_13 
REMARK    8  A    between atoms: N2_13  and  C11_14 
REMARK    9  A    between atoms: C13_16  and  C14_17 
REMARK   10  A    between atoms: C19_25  and  O2_26 
ROOT
HETATM    1  C7  UNL     1      -0.524  -2.098   0.310  1.00  0.00     0.103 A 
HETATM    2  C8  UNL     1       0.541  -1.225   0.306  1.00  0.00     0.057 A 
HETATM    3  C9  UNL     1       1.747  -1.396   0.906  1.00  0.00     0.042 A 
HETATM    4  C10 UNL     1       2.710  -0.429   0.811  1.00  0.00     0.142 A 
HETATM    5  N3  UNL     1       3.884  -0.651   1.427  1.00  0.00    -0.224 NA
HETATM    6  C16 UNL     1       4.082  -1.794   2.109  1.00  0.00     0.236 A 
HETATM    7  N4  UNL     1       3.141  -2.736   2.199  1.00  0.00    -0.241 NA
HETATM    8  C17 UNL     1       1.953  -2.583   1.613  1.00  0.00     0.075 A 
HETATM    9  C18 UNL     1       0.914  -3.515   1.659  1.00  0.00     0.072 A 
HETATM   10  C19 UNL     1      -0.290  -3.282   1.027  1.00  0.00     0.103 A 
ENDROOT
BRANCH   1  11
HETATM   11  O1  UNL     1      -1.755  -2.046  -0.235  1.00  0.00    -0.347 OA
BRANCH  11  12
HETATM   12  C6  UNL     1      -2.406  -1.080  -0.986  1.00  0.00     0.195 C 
BRANCH  12  13
HETATM   13  C5  UNL     1      -2.623   0.217  -0.292  1.00  0.00     0.143 C 
BRANCH  13  14
HETATM   14  N1  UNL     1      -3.285   1.233  -1.034  1.00  0.00    -0.411 N 
BRANCH  14  15
HETATM   15  C2  UNL     1      -2.532   1.776  -2.138  1.00  0.00     0.112 C 
HETATM   16  C1  UNL     1      -2.936   3.239  -2.264  1.00  0.00     0.026 C 
ENDBRANCH  14  15
BRANCH  14  17
HETATM   17  C3  UNL     1      -4.678   1.114  -1.235  1.00  0.00     0.112 C 
HETATM   18  C4  UNL     1      -5.336   0.536  -0.013  1.00  0.00     0.026 C 
ENDBRANCH  14  17
ENDBRANCH  13  14
ENDBRANCH  12  13
ENDBRANCH  11  12
ENDBRANCH   1  11
BRANCH  10  19
HETATM   19  O2  UNL     1      -1.246  -4.265   1.135  1.00  0.00    -0.353 OA
HETATM   20  C20 UNL     1      -1.146  -5.475   1.812  1.00  0.00     0.210 C 
ENDBRANCH  10  19
BRANCH   4  21
HETATM   21  N2  UNL     1       2.558   0.795   0.105  1.00  0.00    -0.340 N 
HETATM   22  H16 UNL     1       1.734   1.127  -0.438  1.00  0.00     0.167 HD
BRANCH  21  23
HETATM   23  C11 UNL     1       3.597   1.769   0.060  1.00  0.00     0.034 A 
HETATM   24  C12 UNL     1       3.785   3.084  -0.039  1.00  0.00     0.037 A 
HETATM   25  C13 UNL     1       5.230   2.915   0.020  1.00  0.00    -0.040 A 
HETATM   26  C15 UNL     1       5.053   1.589   0.119  1.00  0.00     0.037 A 
BRANCH  25  27
HETATM   27  C14 UNL     1       6.362   3.897  -0.021  1.00  0.00     0.153 C 
HETATM   28 CL1  UNL     1       6.197   5.023   1.347  1.00  0.00    -0.126 Cl
ENDBRANCH  25  27
ENDBRANCH  21  23
ENDBRANCH   4  21
TORSDOF 10
