REMARK  9 active torsions:
REMARK  status: ('A' for Active; 'I' for Inactive)
REMARK    1  A    between atoms: C2_2  and  C3_3 
REMARK    2  A    between atoms: C3_3  and  C4_4 
REMARK    3  A    between atoms: C3_3  and  C6_6 
REMARK    4  A    between atoms: C6_6  and  O1_7 
REMARK    5  A    between atoms: O1_7  and  C7_8 
REMARK    6  A    between atoms: C10_11  and  N1_12 
REMARK    7  A    between atoms: N1_12  and  C11_13 
REMARK    8  A    between atoms: C20_26  and  C21_27 
REMARK    9  A    between atoms: C21_27  and  N4_28 
ROOT
HETATM    1  C7  UNL     1      -0.615  -0.361   1.661  1.00  0.00     0.077 A 
HETATM    2  C8  UNL     1       0.393   0.466   1.212  1.00  0.00     0.055 A 
HETATM    3  C9  UNL     1       1.246   1.239   1.962  1.00  0.00     0.041 A 
HETATM    4  C10 UNL     1       2.202   2.012   1.339  1.00  0.00     0.142 A 
HETATM    5  N2  UNL     1       2.967   2.719   2.190  1.00  0.00    -0.224 NA
HETATM    6  C17 UNL     1       2.808   2.670   3.527  1.00  0.00     0.236 A 
HETATM    7  N3  UNL     1       1.848   1.890   4.102  1.00  0.00    -0.241 NA
HETATM    8  C18 UNL     1       1.041   1.152   3.318  1.00  0.00     0.073 A 
HETATM    9  C19 UNL     1       0.072   0.366   3.896  1.00  0.00     0.044 A 
HETATM   10  C20 UNL     1      -0.763  -0.396   3.064  1.00  0.00    -0.005 A 
ENDROOT
BRANCH   4  11
HETATM   11  N1  UNL     1       2.370   2.059  -0.073  1.00  0.00    -0.340 N 
HETATM   12  H15 UNL     1       1.766   2.785  -0.502  1.00  0.00     0.167 HD
BRANCH  11  13
HETATM   13  C11 UNL     1       3.233   1.249  -0.867  1.00  0.00     0.035 A 
HETATM   14  C12 UNL     1       3.246   1.430  -2.235  1.00  0.00     0.032 A 
HETATM   15  C13 UNL     1       4.089   0.642  -2.989  1.00  0.00     0.046 A 
HETATM   16  C14 UNL     1       4.911  -0.315  -2.406  1.00  0.00     0.138 A 
HETATM   17  F1  UNL     1       5.730  -1.077  -3.168  1.00  0.00    -0.204 F 
HETATM   18  C15 UNL     1       4.862  -0.458  -1.035  1.00  0.00     0.074 A 
HETATM   19 CL1  UNL     1       5.913  -1.672  -0.343  1.00  0.00    -0.081 Cl
HETATM   20  C16 UNL     1       4.032   0.311  -0.246  1.00  0.00     0.056 A 
ENDBRANCH  11  13
ENDBRANCH   4  11
BRANCH   1  21
HETATM   21  O1  UNL     1      -1.502  -1.153   1.091  1.00  0.00    -0.350 OA
BRANCH  21  22
HETATM   22  C6  UNL     1      -2.014  -1.647  -0.023  1.00  0.00     0.180 C 
BRANCH  22  23
HETATM   23  C3  UNL     1      -2.701  -0.760  -1.044  1.00  0.00     0.009 C 
BRANCH  23  24
HETATM   24  C2  UNL     1      -1.883   0.311  -1.618  1.00  0.00     0.002 C 
HETATM   25  C1  UNL     1      -2.521   1.248  -2.600  1.00  0.00     0.005 C 
ENDBRANCH  23  24
BRANCH  23  26
HETATM   26  C4  UNL     1      -3.249  -1.702  -2.075  1.00  0.00     0.002 C 
HETATM   27  C5  UNL     1      -4.168  -1.138  -3.103  1.00  0.00     0.005 C 
ENDBRANCH  23  26
ENDBRANCH  22  23
ENDBRANCH  21  22
ENDBRANCH   1  21
BRANCH  10  28
HETATM   28  C21 UNL     1      -1.794  -1.229   3.785  1.00  0.00     0.152 C 
BRANCH  28  29
HETATM   29  N4  UNL     1      -1.329  -2.574   3.768  1.00  0.00    -0.426 N 
HETATM   30  H23 UNL     1      -0.418  -2.736   4.204  1.00  0.00     0.150 HD
HETATM   31  H24 UNL     1      -2.023  -3.318   3.837  1.00  0.00     0.150 HD
ENDBRANCH  28  29
ENDBRANCH  10  28
TORSDOF 9
