REMARK  9 active torsions:
REMARK  status: ('A' for Active; 'I' for Inactive)
REMARK    1  A    between atoms: O1_2  and  C2_3 
REMARK    2  A    between atoms: C6_9  and  C7_10 
REMARK    3  A    between atoms: C12_17  and  O2_18 
REMARK    4  A    between atoms: C15_21  and  C16_22 
REMARK    5  A    between atoms: C16_22  and  C17_23 
REMARK    6  A    between atoms: C17_23  and  N3_24 
REMARK    7  A    between atoms: N3_24  and  C18_25 
REMARK    8  A    between atoms: C18_25  and  C19_26 
REMARK    9  A    between atoms: C19_26  and  N4_27 
ROOT
HETATM    1  C2  UNL     1       0.029   1.766   0.442  1.00  0.00     0.076 A 
HETATM    2  C3  UNL     1       0.901   2.784   0.142  1.00  0.00     0.069 A 
HETATM    3  C4  UNL     1       2.236   2.547  -0.143  1.00  0.00     0.073 A 
HETATM    4  N1  UNL     1       3.023   3.584  -0.416  1.00  0.00    -0.241 NA
HETATM    5  C5  UNL     1       4.335   3.332  -0.686  1.00  0.00     0.234 A 
HETATM    6  N2  UNL     1       4.779   2.069  -0.665  1.00  0.00    -0.240 NA
HETATM    7  C6  UNL     1       3.997   1.002  -0.391  1.00  0.00     0.083 A 
HETATM    8  C13 UNL     1       2.656   1.226  -0.112  1.00  0.00     0.023 A 
HETATM    9  C14 UNL     1       1.815   0.169   0.184  1.00  0.00     0.026 A 
HETATM   10  C15 UNL     1       0.485   0.472   0.462  1.00  0.00    -0.022 A 
ENDROOT
BRANCH   7  11
HETATM   11  C7  UNL     1       4.549  -0.352  -0.381  1.00  0.00     0.029 A 
HETATM   12  C8  UNL     1       4.149  -1.425  -1.140  1.00  0.00     0.043 A 
HETATM   13  C9  UNL     1       4.782  -2.639  -1.016  1.00  0.00     0.073 A 
HETATM   14 CL1  UNL     1       4.247  -4.008  -1.987  1.00  0.00    -0.081 Cl
HETATM   15  C10 UNL     1       5.842  -2.844  -0.131  1.00  0.00     0.140 A 
HETATM   16  F1  UNL     1       6.490  -4.033   0.020  1.00  0.00    -0.204 F 
HETATM   17  C11 UNL     1       6.200  -1.733   0.601  1.00  0.00     0.081 A 
HETATM   18  C12 UNL     1       5.609  -0.481   0.527  1.00  0.00     0.081 A 
BRANCH  18  19
HETATM   19  O2  UNL     1       6.135   0.494   1.360  1.00  0.00    -0.360 OA
HETATM   20  H8  UNL     1       5.800   1.443   1.387  1.00  0.00     0.217 HD
ENDBRANCH  18  19
ENDBRANCH   7  11
BRANCH  10  21
HETATM   21  C16 UNL     1      -0.444  -0.663   0.800  1.00  0.00     0.071 C 
BRANCH  21  22
HETATM   22  C17 UNL     1      -1.314  -0.873  -0.415  1.00  0.00     0.274 C 
BRANCH  22  23
HETATM   23  N3  UNL     1      -2.254  -1.948  -0.238  1.00  0.00     0.085 N 
HETATM   24  H14 UNL     1      -2.689  -2.227  -1.120  1.00  0.00     0.315 HD
BRANCH  23  25
HETATM   25  C18 UNL     1      -3.268  -1.708   0.734  1.00  0.00     0.299 C 
BRANCH  25  26
HETATM   26  C19 UNL     1      -4.281  -0.675   0.426  1.00  0.00     0.301 C 
BRANCH  26  27
HETATM   27  N4  UNL     1      -5.063  -0.877  -0.755  1.00  0.00     0.081 N 
HETATM   28  C20 UNL     1      -5.963  -1.997  -0.651  1.00  0.00     0.309 C 
HETATM   29  C21 UNL     1      -5.906   0.327  -0.889  1.00  0.00     0.309 C 
ENDBRANCH  26  27
ENDBRANCH  25  26
ENDBRANCH  23  25
ENDBRANCH  22  23
ENDBRANCH  21  22
ENDBRANCH  10  21
BRANCH   1  30
HETATM   30  O1  UNL     1      -1.313   1.933   0.737  1.00  0.00    -0.355 OA
HETATM   31  C1  UNL     1      -1.854   3.239   0.736  1.00  0.00     0.210 C 
ENDBRANCH   1  30
TORSDOF 9
