REMARK  2 active torsions:
REMARK  status: ('A' for Active; 'I' for Inactive)
REMARK    1  A    between atoms: O1_2  and  C2_3 
REMARK    2  A    between atoms: N3_10  and  C7_11 
ROOT
HETATM    1  C2  UNL     1       1.784   0.418   0.124  1.00  0.00     0.048 C 
HETATM    2  C3  UNL     1       1.707  -0.056   1.377  1.00  0.00     0.051 C 
HETATM    3  C4  UNL     1       1.486  -1.326   2.088  1.00  0.00     0.120 C 
HETATM    4  N1  UNL     1       1.225  -2.609   1.982  1.00  0.00    -0.254 NA
HETATM    5  C5  UNL     1       1.060  -3.110   0.639  1.00  0.00     0.228 C 
HETATM    6  N2  UNL     1       0.222  -2.287   0.247  1.00  0.00    -0.263 NA
HETATM    7  C6  UNL     1      -0.514  -1.976  -0.898  1.00  0.00     0.274 C 
HETATM    8  N3  UNL     1      -0.744  -0.532  -1.017  1.00  0.00    -0.362 N 
HETATM    9  C13 UNL     1       0.352  -0.079  -1.857  1.00  0.00     0.131 C 
HETATM   10  C14 UNL     1       1.676  -0.283  -1.172  1.00  0.00     0.084 C 
ENDROOT
BRANCH   8  11
HETATM   11  C7  UNL     1      -1.759   0.233  -0.387  1.00  0.00     0.033 A 
HETATM   12  C8  UNL     1      -1.951   1.580  -0.604  1.00  0.00     0.032 A 
HETATM   13  C9  UNL     1      -2.961   2.247   0.056  1.00  0.00     0.046 A 
HETATM   14  C10 UNL     1      -3.791   1.582   0.939  1.00  0.00     0.138 A 
HETATM   15  F1  UNL     1      -4.766   2.286   1.559  1.00  0.00    -0.204 F 
HETATM   16  C11 UNL     1      -3.576   0.235   1.138  1.00  0.00     0.074 A 
HETATM   17 CL1  UNL     1      -4.674  -0.523   2.271  1.00  0.00    -0.081 Cl
HETATM   18  C12 UNL     1      -2.563  -0.467   0.485  1.00  0.00     0.056 A 
ENDBRANCH   8  11
BRANCH   1  19
HETATM   19  O1  UNL     1       2.017   1.809   0.052  1.00  0.00    -0.360 OA
HETATM   20  C1  UNL     1       3.344   2.219  -0.213  1.00  0.00     0.209 C 
ENDBRANCH   1  19
TORSDOF 2
