REMARK  8 active torsions:
REMARK  status: ('A' for Active; 'I' for Inactive)
REMARK    1  A    between atoms: C2_2  and  C3_3 
REMARK    2  A    between atoms: C3_3  and  N1_4 
REMARK    3  A    between atoms: N1_4  and  C4_5 
REMARK    4  A    between atoms: C4_5  and  C5_6 
REMARK    5  A    between atoms: C5_6  and  O1_7 
REMARK    6  A    between atoms: O1_7  and  C6_8 
REMARK    7  A    between atoms: N2_12  and  C10_13 
REMARK    8  A    between atoms: C20_27  and  O2_28 
ROOT
HETATM    1  C6  UNL     1       0.648  -0.170  -0.853  1.00  0.00     0.182 C 
HETATM    2  C7  UNL     1      -0.300   0.005   0.222  1.00  0.00     0.005 C 
HETATM    3  C8  UNL     1      -1.235  -0.207   1.094  1.00  0.00    -0.008 C 
HETATM    4  C9  UNL     1      -2.281  -0.313   2.134  1.00  0.00     0.152 C 
HETATM    5  N2  UNL     1      -3.602  -0.567   1.673  1.00  0.00    -0.360 N 
HETATM    6  C16 UNL     1      -3.946  -1.829   1.047  1.00  0.00     0.264 C 
HETATM    7  N3  UNL     1      -3.442  -1.833  -0.293  1.00  0.00    -0.302 N 
HETATM    8  C17 UNL     1      -4.210  -2.231  -1.283  1.00  0.00     0.232 A 
HETATM    9  N4  UNL     1      -2.846  -1.767  -1.351  1.00  0.00    -0.196 NA
HETATM   10  C18 UNL     1      -2.181  -2.180  -2.422  1.00  0.00     0.110 C 
HETATM   11  C19 UNL     1      -1.091  -1.417  -1.836  1.00  0.00     0.056 C 
HETATM   12  C20 UNL     1       0.197  -1.036  -1.986  1.00  0.00     0.129 C 
ENDROOT
BRANCH   1  13
HETATM   13  O1  UNL     1       1.868  -0.699  -0.462  1.00  0.00    -0.377 OA
BRANCH  13  14
HETATM   14  C5  UNL     1       2.943   0.114  -0.673  1.00  0.00     0.188 C 
BRANCH  14  15
HETATM   15  C4  UNL     1       4.285  -0.451  -0.299  1.00  0.00     0.140 C 
BRANCH  15  16
HETATM   16  N1  UNL     1       5.375   0.461  -0.551  1.00  0.00    -0.419 N 
HETATM   17  H8  UNL     1       5.603   0.603  -1.539  1.00  0.00     0.153 HD
BRANCH  16  18
HETATM   18  C3  UNL     1       5.416   1.613   0.289  1.00  0.00     0.113 C 
BRANCH  18  19
HETATM   19  C2  UNL     1       6.580   2.534  -0.080  1.00  0.00     0.015 C 
HETATM   20  C1  UNL     1       7.892   1.817   0.056  1.00  0.00     0.006 C 
ENDBRANCH  18  19
ENDBRANCH  16  18
ENDBRANCH  15  16
ENDBRANCH  14  15
ENDBRANCH  13  14
ENDBRANCH   1  13
BRANCH  12  21
HETATM   21  O2  UNL     1       1.424  -1.042  -2.724  1.00  0.00    -0.378 OA
HETATM   22  C21 UNL     1       1.994  -2.276  -3.118  1.00  0.00     0.202 C 
ENDBRANCH  12  21
BRANCH   5  23
HETATM   23  C10 UNL     1      -4.668   0.368   1.787  1.00  0.00     0.033 A 
HETATM   24  C11 UNL     1      -4.651   1.521   2.577  1.00  0.00     0.032 A 
HETATM   25  C12 UNL     1      -5.698   2.406   2.650  1.00  0.00     0.046 A 
HETATM   26  C13 UNL     1      -6.841   2.213   1.945  1.00  0.00     0.138 A 
HETATM   27  F1  UNL     1      -7.847   3.099   2.040  1.00  0.00    -0.204 F 
HETATM   28  C14 UNL     1      -6.946   1.088   1.130  1.00  0.00     0.074 A 
HETATM   29 CL1  UNL     1      -8.415   0.861   0.245  1.00  0.00    -0.081 Cl
HETATM   30  C15 UNL     1      -5.855   0.251   1.110  1.00  0.00     0.056 A 
ENDBRANCH   5  23
TORSDOF 8
