REMARK  6 active torsions:
REMARK  status: ('A' for Active; 'I' for Inactive)
REMARK    1  A    between atoms: O1_2  and  C2_3 
REMARK    2  A    between atoms: C2_3  and  C3_4 
REMARK    3  A    between atoms: C3_4  and  N1_5 
REMARK    4  A    between atoms: C7_10  and  O3_11 
REMARK    5  A    between atoms: C13_18  and  N3_19 
REMARK    6  A    between atoms: C18_26  and  O4_27 
ROOT
HETATM    1  N1  UNL     1       2.893  -0.195  -0.868  1.00  0.00     0.095 N 
HETATM    2  C4  UNL     1       1.730   0.650  -0.639  1.00  0.00     0.298 C 
HETATM    3  C5  UNL     1       1.454   1.499  -1.834  1.00  0.00     0.198 C 
HETATM    4  O2  UNL     1       0.285   2.286  -1.657  1.00  0.00    -0.383 OA
HETATM    5  C6  UNL     1      -0.777   1.417  -1.542  1.00  0.00     0.231 C 
HETATM    6  C7  UNL     1      -2.045   2.156  -1.280  1.00  0.00     0.066 C 
HETATM    7  C9  UNL     1      -2.675   1.861  -0.118  1.00  0.00     0.012 C 
HETATM    8  C10 UNL     1      -2.301   0.920   0.953  1.00  0.00     0.068 C 
HETATM    9  C11 UNL     1      -3.218  -0.234   1.098  1.00  0.00    -0.024 A 
HETATM   10  C12 UNL     1      -3.061  -1.574   1.175  1.00  0.00     0.128 A 
HETATM   11  N2  UNL     1      -4.373  -2.166   1.313  1.00  0.00    -0.218 NA
HETATM   12  C13 UNL     1      -5.280  -1.257   1.321  1.00  0.00     0.104 A 
HETATM   13  C14 UNL     1      -4.665   0.077   1.182  1.00  0.00     0.116 A 
HETATM   14  N4  UNL     1      -1.931  -2.483   1.141  1.00  0.00    -0.371 N 
HETATM   15  C15 UNL     1      -0.604  -2.182   1.595  1.00  0.00     0.150 C 
HETATM   16  C16 UNL     1       0.326  -3.347   1.365  1.00  0.00     0.015 C 
HETATM   17  C17 UNL     1       1.382  -3.335   0.503  1.00  0.00     0.040 C 
HETATM   18 CL1  UNL     1       2.636  -4.416  -0.014  1.00  0.00    -0.086 Cl
HETATM   19  C18 UNL     1       1.645  -2.202  -0.409  1.00  0.00     0.193 C 
HETATM   20  C20 UNL     1       2.836  -1.385  -0.037  1.00  0.00     0.310 C 
HETATM   21  H24 UNL     1      -2.029  -3.447   0.757  1.00  0.00     0.161 HD
ENDROOT
BRANCH   1  22
HETATM   22  C3  UNL     1       4.104   0.532  -0.851  1.00  0.00     0.298 C 
BRANCH  22  23
HETATM   23  C2  UNL     1       4.528   1.119   0.451  1.00  0.00     0.197 C 
BRANCH  23  24
HETATM   24  O1  UNL     1       4.725   0.225   1.481  1.00  0.00    -0.394 OA
HETATM   25  C1  UNL     1       5.111   1.021   2.586  1.00  0.00     0.201 C 
ENDBRANCH  23  24
ENDBRANCH  22  23
ENDBRANCH   1  22
BRANCH  19  26
HETATM   26  O4  UNL     1       1.738  -2.657  -1.747  1.00  0.00    -0.383 OA
HETATM   27  C19 UNL     1       0.655  -2.276  -2.508  1.00  0.00     0.202 C 
ENDBRANCH  19  26
BRANCH   6  28
HETATM   28  O3  UNL     1      -2.588   3.086  -2.124  1.00  0.00    -0.358 OA
HETATM   29  C8  UNL     1      -2.366   4.481  -1.975  1.00  0.00     0.209 C 
ENDBRANCH   6  28
BRANCH  12  30
HETATM   30  N3  UNL     1      -6.685  -1.511   1.444  1.00  0.00    -0.387 N 
HETATM   31  H20 UNL     1      -6.853  -1.426   2.480  1.00  0.00     0.157 HD
HETATM   32  H21 UNL     1      -7.442  -1.731   0.766  1.00  0.00     0.157 HD
ENDBRANCH  12  30
TORSDOF 6
