REMARK  10 active torsions:
REMARK  status: ('A' for Active; 'I' for Inactive)
REMARK    1  A    between atoms: O1_2  and  C2_3 
REMARK    2  A    between atoms: C2_3  and  C3_4 
REMARK    3  A    between atoms: C3_4  and  N1_5 
REMARK    4  A    between atoms: N1_5  and  C4_6 
REMARK    5  A    between atoms: C4_6  and  C5_7 
REMARK    6  A    between atoms: C5_7  and  O2_8 
REMARK    7  A    between atoms: O2_8  and  C6_9 
REMARK    8  A    between atoms: C9_12  and  N2_13 
REMARK    9  A    between atoms: N2_13  and  C10_14 
REMARK   10  A    between atoms: C19_26  and  O3_27 
ROOT
HETATM    1  C6  UNL     1       0.816   0.218  -0.735  1.00  0.00     0.103 A 
HETATM    2  C7  UNL     1      -0.517   0.095  -0.346  1.00  0.00     0.057 A 
HETATM    3  C8  UNL     1      -1.577   0.581  -1.046  1.00  0.00     0.042 A 
HETATM    4  C9  UNL     1      -2.884   0.456  -0.658  1.00  0.00     0.142 A 
HETATM    5  N3  UNL     1      -3.814   0.996  -1.468  1.00  0.00    -0.224 NA
HETATM    6  C16 UNL     1      -3.533   1.636  -2.610  1.00  0.00     0.236 A 
HETATM    7  N4  UNL     1      -2.253   1.755  -2.986  1.00  0.00    -0.241 NA
HETATM    8  C17 UNL     1      -1.250   1.235  -2.221  1.00  0.00     0.075 A 
HETATM    9  C18 UNL     1       0.053   1.375  -2.634  1.00  0.00     0.072 A 
HETATM   10  C19 UNL     1       1.118   0.882  -1.924  1.00  0.00     0.103 A 
ENDROOT
BRANCH   1  11
HETATM   11  O2  UNL     1       1.837  -0.323   0.066  1.00  0.00    -0.347 OA
BRANCH  11  12
HETATM   12  C5  UNL     1       1.486  -0.962   1.248  1.00  0.00     0.195 C 
BRANCH  12  13
HETATM   13  C4  UNL     1       2.590  -1.531   2.061  1.00  0.00     0.140 C 
BRANCH  13  14
HETATM   14  N1  UNL     1       3.569  -0.609   2.508  1.00  0.00    -0.417 N 
HETATM   15  H8  UNL     1       3.331   0.052   3.239  1.00  0.00     0.153 HD
BRANCH  14  16
HETATM   16  C3  UNL     1       4.421  -0.057   1.472  1.00  0.00     0.140 C 
BRANCH  16  17
HETATM   17  C2  UNL     1       5.351  -1.099   0.915  1.00  0.00     0.186 C 
BRANCH  17  18
HETATM   18  O1  UNL     1       6.183  -0.634  -0.074  1.00  0.00    -0.394 OA
HETATM   19  C1  UNL     1       5.563  -0.182  -1.203  1.00  0.00     0.201 C 
ENDBRANCH  17  18
ENDBRANCH  16  17
ENDBRANCH  14  16
ENDBRANCH  13  14
ENDBRANCH  12  13
ENDBRANCH  11  12
ENDBRANCH   1  11
BRANCH  10  20
HETATM   20  O3  UNL     1       2.434   1.014  -2.321  1.00  0.00    -0.353 OA
HETATM   21  C20 UNL     1       2.679   1.712  -3.547  1.00  0.00     0.210 C 
ENDBRANCH  10  20
BRANCH   4  22
HETATM   22  N2  UNL     1      -3.207  -0.225   0.531  1.00  0.00    -0.340 N 
HETATM   23  H14 UNL     1      -2.477  -0.669   1.121  1.00  0.00     0.167 HD
BRANCH  22  24
HETATM   24  C10 UNL     1      -4.466  -0.447   1.154  1.00  0.00     0.033 A 
HETATM   25  C11 UNL     1      -4.706  -1.358   2.181  1.00  0.00     0.032 A 
HETATM   26  C12 UNL     1      -5.948  -1.515   2.747  1.00  0.00     0.044 A 
HETATM   27  C13 UNL     1      -7.028  -0.784   2.335  1.00  0.00     0.116 A 
HETATM   28  F1  UNL     1      -8.233  -0.973   2.921  1.00  0.00    -0.206 F 
HETATM   29  C14 UNL     1      -6.833   0.133   1.317  1.00  0.00     0.044 A 
HETATM   30  C15 UNL     1      -5.571   0.277   0.758  1.00  0.00     0.032 A 
ENDBRANCH  22  24
ENDBRANCH   4  22
TORSDOF 10
