REMARK  5 active torsions:
REMARK  status: ('A' for Active; 'I' for Inactive)
REMARK    1  A    between atoms: O1_2  and  C2_3 
REMARK    2  A    between atoms: C6_8  and  N2_9 
REMARK    3  A    between atoms: N2_9  and  C7_10 
REMARK    4  A    between atoms: C7_10  and  C8_11 
REMARK    5  A    between atoms: C10_14  and  O2_15 
ROOT
HETATM    1  C2  UNL     1       3.324  -2.164   0.713  1.00  0.00     0.181 C 
HETATM    2  C3  UNL     1       2.204  -2.880   0.600  1.00  0.00     0.082 C 
HETATM    3  C4  UNL     1       0.770  -2.662   0.566  1.00  0.00     0.115 C 
HETATM    4  N1  UNL     1       0.136  -1.538   0.642  1.00  0.00    -0.296 NA
HETATM    5  C5  UNL     1      -1.317  -1.607   0.586  1.00  0.00     0.201 C 
HETATM    6  C6  UNL     1      -1.987  -0.304   0.446  1.00  0.00     0.014 C 
HETATM    7  C9  UNL     1      -1.302   0.864   0.321  1.00  0.00     0.105 C 
HETATM    8  C10 UNL     1      -1.775   2.290   0.174  1.00  0.00     0.057 C 
HETATM    9  C11 UNL     1      -0.679   3.090   0.072  1.00  0.00    -0.026 C 
HETATM   10  C12 UNL     1      -0.731   4.575  -0.078  1.00  0.00     0.048 C 
HETATM   11  C13 UNL     1       0.747   2.756  -0.002  1.00  0.00     0.306 C 
HETATM   12  N3  UNL     1       1.079   1.368  -0.012  1.00  0.00     0.089 N 
HETATM   13  C14 UNL     1       2.549   1.348  -0.130  1.00  0.00     0.296 C 
HETATM   14  C15 UNL     1       3.114  -0.018  -0.272  1.00  0.00     0.207 C 
HETATM   15  O3  UNL     1       2.815  -0.854   0.822  1.00  0.00    -0.329 OA
HETATM   16  H20 UNL     1       0.765   1.006  -0.968  1.00  0.00     0.316 HD
ENDROOT
BRANCH   6  17
HETATM   17  N2  UNL     1      -3.384  -0.778   0.486  1.00  0.00    -0.393 N 
HETATM   18  H8  UNL     1      -3.899  -0.394   1.330  1.00  0.00     0.159 HD
BRANCH  17  19
HETATM   19  C7  UNL     1      -3.957  -1.651  -0.502  1.00  0.00     0.134 C 
BRANCH  19  20
HETATM   20  C8  UNL     1      -5.442  -1.832  -0.161  1.00  0.00     0.134 C 
HETATM   21 CL1  UNL     1      -6.219  -2.909  -1.332  1.00  0.00    -0.129 Cl
ENDBRANCH  19  20
ENDBRANCH  17  19
ENDBRANCH   6  17
BRANCH   8  22
HETATM   22  O2  UNL     1      -2.891   3.196   0.093  1.00  0.00    -0.364 OA
HETATM   23  H14 UNL     1      -3.648   2.942  -0.548  1.00  0.00     0.217 HD
ENDBRANCH   8  22
BRANCH   1  24
HETATM   24  O1  UNL     1       4.587  -2.701   0.709  1.00  0.00    -0.336 OA
HETATM   25  C1  UNL     1       5.676  -2.094   0.064  1.00  0.00     0.212 C 
ENDBRANCH   1  24
TORSDOF 5
