REMARK  7 active torsions:
REMARK  status: ('A' for Active; 'I' for Inactive)
REMARK    1  A    between atoms: O1_2  and  C2_3 
REMARK    2  A    between atoms: C2_3  and  C3_4 
REMARK    3  A    between atoms: C3_4  and  N1_5 
REMARK    4  A    between atoms: C11_16  and  N4_17 
REMARK    5  A    between atoms: N4_17  and  C12_18 
REMARK    6  A    between atoms: C21_29  and  C22_30 
REMARK    7  A    between atoms: C22_30  and  O3_31 
ROOT
HETATM    1  N1  UNL     1      -3.200  -0.930   0.052  1.00  0.00     0.103 N 
HETATM    2  C4  UNL     1      -2.364  -2.076  -0.096  1.00  0.00     0.300 C 
HETATM    3  C5  UNL     1      -1.395  -2.349   1.029  1.00  0.00     0.204 C 
HETATM    4  O2  UNL     1      -0.511  -1.325   1.288  1.00  0.00    -0.361 OA
HETATM    5  C6  UNL     1       0.804  -1.358   1.502  1.00  0.00     0.135 C 
HETATM    6  C7  UNL     1       1.840  -0.862   0.861  1.00  0.00     0.041 C 
HETATM    7  C8  UNL     1       2.115  -0.076  -0.330  1.00  0.00     0.040 A 
HETATM    8  C9  UNL     1       1.128   0.310  -1.237  1.00  0.00     0.072 A 
HETATM    9  N2  UNL     1       1.523   1.047  -2.288  1.00  0.00    -0.241 NA
HETATM   10  C10 UNL     1       2.776   1.415  -2.496  1.00  0.00     0.236 A 
HETATM   11  N3  UNL     1       3.688   1.029  -1.612  1.00  0.00    -0.224 NA
HETATM   12  C11 UNL     1       3.428   0.294  -0.526  1.00  0.00     0.142 A 
HETATM   13  C18 UNL     1      -0.214  -0.138  -0.961  1.00  0.00     0.037 C 
HETATM   14  C19 UNL     1      -1.222   0.455  -0.419  1.00  0.00    -0.046 C 
HETATM   15  C20 UNL     1      -0.445   1.691  -0.242  1.00  0.00     0.046 C 
HETATM   16  C21 UNL     1      -2.625   0.343   0.044  1.00  0.00     0.275 C 
ENDROOT
BRANCH  12  17
HETATM   17  N4  UNL     1       4.540  -0.032   0.290  1.00  0.00    -0.340 N 
HETATM   18  H15 UNL     1       4.458  -0.624   1.131  1.00  0.00     0.167 HD
BRANCH  17  19
HETATM   19  C12 UNL     1       5.885   0.380   0.106  1.00  0.00     0.035 A 
HETATM   20  C13 UNL     1       6.290   1.490  -0.596  1.00  0.00     0.032 A 
HETATM   21  C14 UNL     1       7.605   1.858  -0.786  1.00  0.00     0.046 A 
HETATM   22  C15 UNL     1       8.586   1.072  -0.243  1.00  0.00     0.138 A 
HETATM   23  F1  UNL     1       9.890   1.397  -0.406  1.00  0.00    -0.204 F 
HETATM   24  C16 UNL     1       8.272  -0.042   0.465  1.00  0.00     0.074 A 
HETATM   25 CL1  UNL     1       9.541  -1.045   1.156  1.00  0.00    -0.081 Cl
HETATM   26  C17 UNL     1       6.947  -0.363   0.624  1.00  0.00     0.056 A 
ENDBRANCH  17  19
ENDBRANCH  12  17
BRANCH  16  27
HETATM   27  C22 UNL     1      -3.393   1.290  -0.850  1.00  0.00     0.207 C 
BRANCH  27  28
HETATM   28  O3  UNL     1      -3.385   0.745  -2.160  1.00  0.00    -0.393 OA
HETATM   29  C23 UNL     1      -4.082   1.588  -2.992  1.00  0.00     0.201 C 
ENDBRANCH  27  28
ENDBRANCH  16  27
BRANCH   1  30
HETATM   30  C3  UNL     1      -4.118  -1.186   1.106  1.00  0.00     0.299 C 
BRANCH  30  31
HETATM   31  C2  UNL     1      -5.121  -0.107   1.349  1.00  0.00     0.197 C 
BRANCH  31  32
HETATM   32  O1  UNL     1      -5.978  -0.415   2.431  1.00  0.00    -0.394 OA
HETATM   33  C1  UNL     1      -6.695  -1.572   2.265  1.00  0.00     0.201 C 
ENDBRANCH  31  32
ENDBRANCH  30  31
ENDBRANCH   1  30
TORSDOF 7
