REMARK  5 active torsions:
REMARK  status: ('A' for Active; 'I' for Inactive)
REMARK    1  A    between atoms: O1_2  and  C2_3 
REMARK    2  A    between atoms: C6_9  and  N3_10 
REMARK    3  A    between atoms: N3_10  and  C7_11 
REMARK    4  A    between atoms: C7_11  and  C8_12 
REMARK    5  A    between atoms: C11_16  and  O2_17 
ROOT
HETATM    1  C2  UNL     1      -3.416  -2.489   0.592  1.00  0.00     0.070 C 
HETATM    2  C3  UNL     1      -2.584  -3.488   0.567  1.00  0.00     0.048 C 
HETATM    3  C4  UNL     1      -1.173  -3.570   0.844  1.00  0.00     0.092 C 
HETATM    4  N1  UNL     1      -0.748  -2.399   1.147  1.00  0.00    -0.162 NA
HETATM    5  C5  UNL     1       0.589  -2.077   1.480  1.00  0.00     0.196 A 
HETATM    6  N2  UNL     1       0.166  -1.351   0.540  1.00  0.00    -0.271 N 
HETATM    7  C6  UNL     1       0.791  -0.317  -0.197  1.00  0.00     0.257 C 
HETATM    8  C11 UNL     1       0.133   0.989  -0.227  1.00  0.00     0.111 C 
HETATM    9  C13 UNL     1      -0.963   1.734   0.033  1.00  0.00     0.036 C 
HETATM   10  C14 UNL     1      -1.176   3.215  -0.211  1.00  0.00     0.070 C 
HETATM   11  N4  UNL     1      -2.245   1.440   0.623  1.00  0.00    -0.370 N 
HETATM   12  C15 UNL     1      -3.586   1.065   0.258  1.00  0.00     0.290 C 
HETATM   13  O3  UNL     1      -3.707  -0.230  -0.184  1.00  0.00    -0.366 OA
HETATM   14  C16 UNL     1      -3.343  -1.065   0.897  1.00  0.00     0.234 C 
HETATM   15  H21 UNL     1      -2.029   1.563   1.660  1.00  0.00     0.161 HD
ENDROOT
BRANCH   7  16
HETATM   16  N3  UNL     1       2.185  -0.315   0.015  1.00  0.00    -0.392 N 
HETATM   17  H8  UNL     1       2.545  -0.161   0.954  1.00  0.00     0.155 HD
BRANCH  16  18
HETATM   18  C7  UNL     1       3.023  -0.056  -1.095  1.00  0.00     0.145 C 
BRANCH  18  19
HETATM   19  C8  UNL     1       4.483  -0.064  -0.691  1.00  0.00     0.011 C 
HETATM   20  C9  UNL     1       5.505   0.768  -0.700  1.00  0.00     0.005 C 
HETATM   21  C10 UNL     1       6.899   0.540  -0.238  1.00  0.00     0.061 C 
HETATM   22 CL1  UNL     1       5.046   2.340  -1.374  1.00  0.00    -0.090 Cl
ENDBRANCH  18  19
ENDBRANCH  16  18
ENDBRANCH   7  16
BRANCH   8  23
HETATM   23  O2  UNL     1       1.005   1.966  -0.767  1.00  0.00    -0.354 OA
HETATM   24  C12 UNL     1       1.694   2.785   0.177  1.00  0.00     0.209 C 
ENDBRANCH   8  23
BRANCH   1  25
HETATM   25  O1  UNL     1      -4.700  -2.861   0.248  1.00  0.00    -0.358 OA
HETATM   26  C1  UNL     1      -5.514  -2.060  -0.575  1.00  0.00     0.209 C 
ENDBRANCH   1  25
TORSDOF 5
