REMARK  12 active torsions:
REMARK  status: ('A' for Active; 'I' for Inactive)
REMARK    1  A    between atoms: C2_2  and  C3_3 
REMARK    2  A    between atoms: C3_3  and  C4_4 
REMARK    3  A    between atoms: C4_4  and  N1_5 
REMARK    4  A    between atoms: N1_5  and  C5_6 
REMARK    5  A    between atoms: N1_5  and  C8_10 
REMARK    6  A    between atoms: C5_6  and  C6_7 
REMARK    7  A    between atoms: C6_7  and  O1_8 
REMARK    8  A    between atoms: C8_10  and  C9_11 
REMARK    9  A    between atoms: C9_11  and  O2_12 
REMARK   10  A    between atoms: O2_12  and  C10_13 
REMARK   11  A    between atoms: C12_15  and  C13_16 
REMARK   12  A    between atoms: C13_16  and  O3_17 
ROOT
HETATM    1  C9  UNL     1       0.217   0.094   1.668  1.00  0.00     0.190 C 
ENDROOT
BRANCH   1   2
HETATM    2  C8  UNL     1      -0.908   0.577   0.847  1.00  0.00     0.143 C 
BRANCH   2   3
HETATM    3  N1  UNL     1      -1.761  -0.316   0.180  1.00  0.00    -0.408 N 
BRANCH   3   4
HETATM    4  C4  UNL     1      -2.734   0.285  -0.644  1.00  0.00     0.117 C 
BRANCH   4   5
HETATM    5  C3  UNL     1      -3.085   1.711  -0.247  1.00  0.00     0.019 C 
BRANCH   5   6
HETATM    6  C2  UNL     1      -4.151   2.269  -1.198  1.00  0.00    -0.003 C 
HETATM    7  C1  UNL     1      -4.527   3.670  -0.840  1.00  0.00     0.005 C 
ENDBRANCH   5   6
ENDBRANCH   4   5
ENDBRANCH   3   4
BRANCH   3   8
HETATM    8  C5  UNL     1      -1.322  -1.606  -0.025  1.00  0.00     0.143 C 
BRANCH   8   9
HETATM    9  C6  UNL     1      -2.360  -2.700   0.223  1.00  0.00     0.186 C 
BRANCH   9  10
HETATM   10  O1  UNL     1      -3.420  -2.522  -0.617  1.00  0.00    -0.394 OA
HETATM   11  C7  UNL     1      -4.442  -3.438  -0.508  1.00  0.00     0.201 C 
ENDBRANCH   9  10
ENDBRANCH   8   9
ENDBRANCH   3   8
ENDBRANCH   2   3
ENDBRANCH   1   2
BRANCH   1  12
HETATM   12  O2  UNL     1       1.211  -0.628   1.095  1.00  0.00    -0.363 OA
BRANCH  12  13
HETATM   13  C10 UNL     1       1.907   0.048   0.089  1.00  0.00     0.250 A 
HETATM   14  C11 UNL     1       3.356   0.167   0.357  1.00  0.00     0.112 A 
HETATM   15  C12 UNL     1       4.270  -0.411  -0.634  1.00  0.00     0.041 A 
HETATM   16  N2  UNL     1       3.857  -0.997  -1.691  1.00  0.00    -0.249 NA
HETATM   17  C15 UNL     1       2.459  -1.110  -1.948  1.00  0.00     0.229 A 
HETATM   18  N3  UNL     1       1.624  -0.634  -1.134  1.00  0.00    -0.251 NA
BRANCH  15  19
HETATM   19  C13 UNL     1       5.715  -0.287  -0.358  1.00  0.00     0.221 C 
BRANCH  19  20
HETATM   20  O3  UNL     1       6.119   1.062  -0.257  1.00  0.00    -0.390 OA
HETATM   21  C14 UNL     1       7.508   1.044   0.005  1.00  0.00     0.201 C 
ENDBRANCH  19  20
ENDBRANCH  15  19
ENDBRANCH  12  13
ENDBRANCH   1  12
TORSDOF 12
