REMARK  9 active torsions:
REMARK  status: ('A' for Active; 'I' for Inactive)
REMARK    1  A    between atoms: C2_2  and  C3_3 
REMARK    2  A    between atoms: C7_9  and  N3_10 
REMARK    3  A    between atoms: N3_10  and  C8_11 
REMARK    4  A    between atoms: C16_21  and  O1_22 
REMARK    5  A    between atoms: O1_22  and  C17_23 
REMARK    6  A    between atoms: C17_23  and  C18_24 
REMARK    7  A    between atoms: C18_24  and  O2_25 
REMARK    8  A    between atoms: C18_24  and  C19_26 
REMARK    9  A    between atoms: C19_26  and  N4_27 
ROOT
HETATM    1  C3  UNL     1       0.131  -2.388   1.084  1.00  0.00    -0.023 A 
HETATM    2  C4  UNL     1      -1.027  -2.942   1.584  1.00  0.00     0.042 A 
HETATM    3  C5  UNL     1      -2.227  -2.285   1.432  1.00  0.00     0.072 A 
HETATM    4  N1  UNL     1      -3.324  -2.888   1.949  1.00  0.00    -0.241 NA
HETATM    5  C6  UNL     1      -4.542  -2.285   1.830  1.00  0.00     0.236 A 
HETATM    6  N2  UNL     1      -4.620  -1.110   1.203  1.00  0.00    -0.224 NA
HETATM    7  C7  UNL     1      -3.595  -0.446   0.665  1.00  0.00     0.142 A 
HETATM    8  C14 UNL     1      -2.379  -1.072   0.797  1.00  0.00     0.041 A 
HETATM    9  C15 UNL     1      -1.188  -0.574   0.321  1.00  0.00     0.055 A 
HETATM   10  C16 UNL     1       0.048  -1.173   0.436  1.00  0.00     0.076 A 
ENDROOT
BRANCH  10  11
HETATM   11  O1  UNL     1       1.214  -0.637  -0.056  1.00  0.00    -0.348 OA
BRANCH  11  12
HETATM   12  C17 UNL     1       1.325   0.582  -0.739  1.00  0.00     0.209 C 
BRANCH  12  13
HETATM   13  C18 UNL     1       2.812   0.753  -1.084  1.00  0.00     0.170 C 
BRANCH  13  14
HETATM   14  O2  UNL     1       3.155  -0.331  -1.885  1.00  0.00    -0.392 OA
HETATM   15  H16 UNL     1       2.751  -1.167  -1.568  1.00  0.00     0.210 HD
ENDBRANCH  13  14
BRANCH  13  16
HETATM   16  C19 UNL     1       3.554   0.787   0.208  1.00  0.00     0.308 C 
BRANCH  16  17
HETATM   17  N4  UNL     1       4.967   0.872   0.131  1.00  0.00     0.116 N 
HETATM   18  C20 UNL     1       5.513   2.087  -0.374  1.00  0.00     0.301 C 
HETATM   19  C21 UNL     1       6.843   1.590  -0.957  1.00  0.00     0.200 C 
HETATM   20  O3  UNL     1       6.517   0.328  -1.429  1.00  0.00    -0.361 OA
HETATM   21  C22 UNL     1       5.667  -0.220  -0.452  1.00  0.00     0.440 C 
ENDBRANCH  16  17
ENDBRANCH  13  16
ENDBRANCH  12  13
ENDBRANCH  11  12
ENDBRANCH  10  11
BRANCH   1  22
HETATM   22  C2  UNL     1       1.426  -3.072   1.233  1.00  0.00     0.037 C 
HETATM   23  C1  UNL     1       1.804  -3.705  -0.093  1.00  0.00     0.010 C 
ENDBRANCH   1  22
BRANCH   7  24
HETATM   24  N3  UNL     1      -3.660   0.797  -0.004  1.00  0.00    -0.340 N 
HETATM   25  H8  UNL     1      -2.835   1.242  -0.405  1.00  0.00     0.167 HD
BRANCH  24  26
HETATM   26  C8  UNL     1      -4.802   1.602  -0.225  1.00  0.00     0.035 A 
HETATM   27  C9  UNL     1      -6.014   1.328   0.352  1.00  0.00     0.032 A 
HETATM   28  C10 UNL     1      -7.155   2.078   0.157  1.00  0.00     0.046 A 
HETATM   29  C11 UNL     1      -7.124   3.195  -0.670  1.00  0.00     0.138 A 
HETATM   30  F1  UNL     1      -8.188   3.971  -0.907  1.00  0.00    -0.204 F 
HETATM   31  C12 UNL     1      -5.919   3.496  -1.263  1.00  0.00     0.074 A 
HETATM   32 CL1  UNL     1      -5.798   4.886  -2.317  1.00  0.00    -0.081 Cl
HETATM   33  C13 UNL     1      -4.830   2.713  -1.028  1.00  0.00     0.056 A 
ENDBRANCH  24  26
ENDBRANCH   7  24
TORSDOF 9
