REMARK  8 active torsions:
REMARK  status: ('A' for Active; 'I' for Inactive)
REMARK    1  A    between atoms: N1_7  and  C6_8 
REMARK    2  A    between atoms: C6_8  and  C7_9 
REMARK    3  A    between atoms: C7_9  and  O2_10 
REMARK    4  A    between atoms: C7_9  and  C8_11 
REMARK    5  A    between atoms: C8_11  and  O3_12 
REMARK    6  A    between atoms: O3_12  and  C9_13 
REMARK    7  A    between atoms: C14_20  and  N4_21 
REMARK    8  A    between atoms: N4_21  and  C15_22 
ROOT
HETATM    1  C9  UNL     1      -0.913  -0.241   0.356  1.00  0.00     0.070 A 
HETATM    2  C10 UNL     1      -0.604  -0.633   1.635  1.00  0.00     0.039 A 
HETATM    3  C11 UNL     1      -1.360  -0.454   2.762  1.00  0.00     0.035 A 
HETATM    4  C12 UNL     1      -2.568   0.188   2.604  1.00  0.00     0.072 A 
HETATM    5  N2  UNL     1      -3.318   0.369   3.715  1.00  0.00    -0.241 NA
HETATM    6  C13 UNL     1      -4.511   0.992   3.643  1.00  0.00     0.236 A 
HETATM    7  N3  UNL     1      -4.934   1.425   2.443  1.00  0.00    -0.224 NA
HETATM    8  C14 UNL     1      -4.200   1.252   1.334  1.00  0.00     0.142 A 
HETATM    9  C21 UNL     1      -2.979   0.626   1.346  1.00  0.00     0.041 A 
HETATM   10  C22 UNL     1      -2.151   0.405   0.254  1.00  0.00     0.054 A 
ENDROOT
BRANCH   1  11
HETATM   11  O3  UNL     1      -0.369  -0.286  -0.881  1.00  0.00    -0.349 OA
BRANCH  11  12
HETATM   12  C8  UNL     1       0.862  -0.812  -1.230  1.00  0.00     0.209 C 
BRANCH  12  13
HETATM   13  C7  UNL     1       1.997  -0.051  -0.584  1.00  0.00     0.160 C 
BRANCH  13  14
HETATM   14  C6  UNL     1       3.326  -0.676  -0.975  1.00  0.00     0.151 C 
BRANCH  14  15
HETATM   15  N1  UNL     1       4.412   0.018  -0.375  1.00  0.00    -0.402 N 
HETATM   16  C2  UNL     1       5.629  -0.013  -1.123  1.00  0.00     0.099 C 
HETATM   17  C1  UNL     1       6.037   1.427  -1.422  1.00  0.00     0.034 C 
HETATM   18  C3  UNL     1       6.758  -0.695  -0.421  1.00  0.00     0.192 C 
HETATM   19  O1  UNL     1       6.300  -1.648   0.456  1.00  0.00    -0.388 OA
HETATM   20  C4  UNL     1       5.569  -1.097   1.501  1.00  0.00     0.187 C 
HETATM   21  C5  UNL     1       4.538  -0.099   1.044  1.00  0.00     0.143 C 
ENDBRANCH  14  15
ENDBRANCH  13  14
BRANCH  13  22
HETATM   22  O2  UNL     1       1.958   1.303  -1.015  1.00  0.00    -0.392 OA
HETATM   23  H14 UNL     1       1.657   1.317  -1.952  1.00  0.00     0.210 HD
ENDBRANCH  13  22
ENDBRANCH  12  13
ENDBRANCH  11  12
ENDBRANCH   1  11
BRANCH   8  24
HETATM   24  N4  UNL     1      -4.673   1.723   0.080  1.00  0.00    -0.340 N 
HETATM   25  H20 UNL     1      -4.497   2.610  -0.402  1.00  0.00     0.167 HD
BRANCH  24  26
HETATM   26  C15 UNL     1      -5.518   0.782  -0.572  1.00  0.00     0.035 A 
HETATM   27  C16 UNL     1      -5.797  -0.477  -0.086  1.00  0.00     0.032 A 
HETATM   28  C17 UNL     1      -6.610  -1.425  -0.663  1.00  0.00     0.046 A 
HETATM   29  C18 UNL     1      -7.211  -1.074  -1.862  1.00  0.00     0.138 A 
HETATM   30  F1  UNL     1      -8.024  -1.981  -2.468  1.00  0.00    -0.204 F 
HETATM   31  C19 UNL     1      -6.994   0.160  -2.426  1.00  0.00     0.074 A 
HETATM   32 CL1  UNL     1      -7.790   0.527  -3.934  1.00  0.00    -0.081 Cl
HETATM   33  C20 UNL     1      -6.156   1.048  -1.766  1.00  0.00     0.056 A 
ENDBRANCH  24  26
ENDBRANCH   8  24
TORSDOF 8
