REMARK  8 active torsions:
REMARK  status: ('A' for Active; 'I' for Inactive)
REMARK    1  A    between atoms: O1_2  and  C2_3 
REMARK    2  A    between atoms: N3_9  and  C6_10 
REMARK    3  A    between atoms: C14_20  and  O2_21 
REMARK    4  A    between atoms: O2_21  and  C15_22 
REMARK    5  A    between atoms: C15_22  and  C16_23 
REMARK    6  A    between atoms: C16_23  and  O3_24 
REMARK    7  A    between atoms: C16_23  and  C17_25 
REMARK    8  A    between atoms: C17_25  and  N4_26 
ROOT
HETATM    1  C2  UNL     1       0.877  -2.948  -0.119  1.00  0.00     0.117 A 
HETATM    2  C3  UNL     1       2.019  -3.413   0.415  1.00  0.00     0.134 A 
HETATM    3  N1  UNL     1       2.997  -2.410   0.764  1.00  0.00    -0.323 N 
HETATM    4  C4  UNL     1       4.297  -2.896   1.187  1.00  0.00     0.207 C 
HETATM    5  N2  UNL     1       5.357  -2.294   0.673  1.00  0.00    -0.265 NA
HETATM    6  C5  UNL     1       5.094  -1.224  -0.253  1.00  0.00     0.277 C 
HETATM    7  N3  UNL     1       4.025  -0.335   0.145  1.00  0.00    -0.337 N 
HETATM    8  C12 UNL     1       2.882  -0.966   0.720  1.00  0.00     0.220 A 
HETATM    9  C13 UNL     1       1.583  -0.631   0.088  1.00  0.00     0.059 A 
HETATM   10  C14 UNL     1       0.672  -1.513  -0.288  1.00  0.00     0.103 A 
ENDROOT
BRANCH  10  11
HETATM   11  O2  UNL     1      -0.559  -1.253  -0.873  1.00  0.00    -0.346 OA
BRANCH  11  12
HETATM   12  C15 UNL     1      -1.374  -0.157  -0.603  1.00  0.00     0.209 C 
BRANCH  12  13
HETATM   13  C16 UNL     1      -2.623  -0.122  -1.448  1.00  0.00     0.160 C 
BRANCH  13  14
HETATM   14  O3  UNL     1      -3.413  -1.250  -1.255  1.00  0.00    -0.392 OA
HETATM   15  H16 UNL     1      -2.952  -1.886  -0.670  1.00  0.00     0.210 HD
ENDBRANCH  13  14
BRANCH  13  16
HETATM   16  C17 UNL     1      -3.464   1.094  -1.130  1.00  0.00     0.150 C 
BRANCH  16  17
HETATM   17  N4  UNL     1      -3.967   1.143   0.198  1.00  0.00    -0.406 N 
HETATM   18  C18 UNL     1      -4.950   0.192   0.563  1.00  0.00     0.143 C 
HETATM   19  C19 UNL     1      -6.162   0.742   1.272  1.00  0.00     0.187 C 
HETATM   20  O4  UNL     1      -5.947   1.893   1.983  1.00  0.00    -0.388 OA
HETATM   21  C20 UNL     1      -5.418   2.877   1.146  1.00  0.00     0.187 C 
HETATM   22  C21 UNL     1      -4.001   2.410   0.833  1.00  0.00     0.143 C 
ENDBRANCH  16  17
ENDBRANCH  13  16
ENDBRANCH  12  13
ENDBRANCH  11  12
ENDBRANCH  10  11
BRANCH   1  23
HETATM   23  O1  UNL     1      -0.020  -3.950  -0.448  1.00  0.00    -0.352 OA
HETATM   24  C1  UNL     1       0.116  -4.634  -1.678  1.00  0.00     0.210 C 
ENDBRANCH   1  23
BRANCH   7  25
HETATM   25  C6  UNL     1       4.133   1.064  -0.039  1.00  0.00     0.035 A 
HETATM   26  C7  UNL     1       5.074   1.641  -0.863  1.00  0.00     0.032 A 
HETATM   27  C8  UNL     1       5.199   2.980  -1.039  1.00  0.00     0.046 A 
HETATM   28  C9  UNL     1       4.383   3.868  -0.397  1.00  0.00     0.138 A 
HETATM   29  F1  UNL     1       4.493   5.199  -0.558  1.00  0.00    -0.204 F 
HETATM   30  C10 UNL     1       3.425   3.343   0.439  1.00  0.00     0.074 A 
HETATM   31 CL1  UNL     1       2.355   4.468   1.283  1.00  0.00    -0.081 Cl
HETATM   32  C11 UNL     1       3.311   1.962   0.608  1.00  0.00     0.056 A 
ENDBRANCH   7  25
TORSDOF 8
