REMARK  8 active torsions:
REMARK  status: ('A' for Active; 'I' for Inactive)
REMARK    1  A    between atoms: O1_1  and  C1_2 
REMARK    2  A    between atoms: C1_2  and  C2_3 
REMARK    3  A    between atoms: C1_2  and  C18_24 
REMARK    4  A    between atoms: C2_3  and  O2_4 
REMARK    5  A    between atoms: O2_4  and  C3_5 
REMARK    6  A    between atoms: C3_5  and  C4_6 
REMARK    7  A    between atoms: C4_6  and  N2_11 
REMARK    8  A    between atoms: C18_24  and  N3_25 
ROOT
HETATM    1  C3  UNL     1      -1.142   0.691  -0.450  1.00  0.00     0.122 A 
HETATM    2  C4  UNL     1      -2.013  -0.361   0.049  1.00  0.00     0.131 A 
HETATM    3  C5  UNL     1      -3.154  -1.353   0.409  1.00  0.00     0.089 A 
HETATM    4  C6  UNL     1      -4.137  -1.173  -0.499  1.00  0.00     0.092 A 
HETATM    5  N1  UNL     1      -4.066  -2.151   0.447  1.00  0.00    -0.263 NA
HETATM    6  C7  UNL     1      -3.093  -2.314   1.341  1.00  0.00     0.163 A 
HETATM    7  N2  UNL     1      -2.532  -1.314   0.849  1.00  0.00    -0.272 NA
HETATM    8  C8  UNL     1      -2.784  -0.391  -0.194  1.00  0.00     0.073 A 
HETATM    9  C9  UNL     1      -2.451   0.659  -0.875  1.00  0.00     0.093 A 
HETATM   10  C10 UNL     1      -1.630   1.594  -1.310  1.00  0.00     0.137 A 
HETATM   11  O3  UNL     1      -2.159   2.584  -2.250  1.00  0.00    -0.369 OA
HETATM   12  C11 UNL     1      -3.181   2.119  -3.210  1.00  0.00     0.198 C 
HETATM   13  C12 UNL     1      -4.414   1.636  -2.596  1.00  0.00     0.024 C 
HETATM   14  C13 UNL     1      -4.596   0.277  -2.949  1.00  0.00     0.043 C 
HETATM   15 CL1  UNL     1      -3.426  -0.545  -4.004  1.00  0.00    -0.084 Cl
HETATM   16  C14 UNL     1      -5.533  -0.770  -2.467  1.00  0.00    -0.006 A 
HETATM   17  C15 UNL     1      -6.642  -1.374  -2.767  1.00  0.00     0.014 A 
HETATM   18  C16 UNL     1      -6.499  -2.140  -1.569  1.00  0.00     0.011 A 
HETATM   19  C17 UNL     1      -5.376  -1.572  -1.208  1.00  0.00    -0.019 A 
ENDROOT
BRANCH   1  20
HETATM   20  O2  UNL     1       0.148   1.066  -0.298  1.00  0.00    -0.372 OA
BRANCH  20  21
HETATM   21  C2  UNL     1       0.977   0.271   0.572  1.00  0.00     0.202 C 
BRANCH  21  22
HETATM   22  C1  UNL     1       2.401   0.851   0.540  1.00  0.00     0.159 C 
BRANCH  22  23
HETATM   23  O1  UNL     1       2.860   0.819  -0.797  1.00  0.00    -0.392 OA
HETATM   24  H1  UNL     1       2.595   1.633  -1.276  1.00  0.00     0.210 HD
ENDBRANCH  22  23
BRANCH  22  25
HETATM   25  C18 UNL     1       3.284  -0.118   1.281  1.00  0.00     0.150 C 
BRANCH  25  26
HETATM   26  N3  UNL     1       4.639   0.262   1.161  1.00  0.00    -0.406 N 
HETATM   27  C19 UNL     1       5.079   1.448   1.789  1.00  0.00     0.143 C 
HETATM   28  C20 UNL     1       5.600   1.190   3.197  1.00  0.00     0.187 C 
HETATM   29  O4  UNL     1       6.791   0.455   2.987  1.00  0.00    -0.388 OA
HETATM   30  C21 UNL     1       6.406  -0.780   2.532  1.00  0.00     0.187 C 
HETATM   31  C22 UNL     1       5.569  -0.814   1.309  1.00  0.00     0.143 C 
ENDBRANCH  25  26
ENDBRANCH  22  25
ENDBRANCH  21  22
ENDBRANCH  20  21
ENDBRANCH   1  20
TORSDOF 8
