REMARK  6 active torsions:
REMARK  status: ('A' for Active; 'I' for Inactive)
REMARK    1  A    between atoms: O1_1  and  C1_2 
REMARK    2  A    between atoms: C1_2  and  C2_3 
REMARK    3  A    between atoms: C1_2  and  C7_10 
REMARK    4  A    between atoms: C2_3  and  N1_4 
REMARK    5  A    between atoms: C13_19  and  N4_20 
REMARK    6  A    between atoms: N4_20  and  C14_21 
ROOT
HETATM    1  C7  UNL     1       1.486   0.961  -0.129  1.00  0.00     0.172 C 
HETATM    2  O3  UNL     1       0.587   1.787   0.633  1.00  0.00    -0.346 OA
HETATM    3  C8  UNL     1      -0.335   0.741   0.397  1.00  0.00     0.058 C 
HETATM    4  C9  UNL     1      -1.602   0.499   0.089  1.00  0.00     0.050 C 
HETATM    5  C10 UNL     1      -2.293  -0.742  -0.093  1.00  0.00     0.041 A 
HETATM    6  C11 UNL     1      -1.659  -1.948  -0.303  1.00  0.00     0.072 A 
HETATM    7  N2  UNL     1      -2.461  -3.041  -0.464  1.00  0.00    -0.241 NA
HETATM    8  C12 UNL     1      -3.801  -2.916  -0.416  1.00  0.00     0.236 A 
HETATM    9  N3  UNL     1      -4.339  -1.727  -0.211  1.00  0.00    -0.224 NA
HETATM   10  C13 UNL     1      -3.657  -0.591  -0.040  1.00  0.00     0.142 A 
HETATM   11  C20 UNL     1      -0.228  -2.282  -0.386  1.00  0.00     0.029 C 
HETATM   12  C21 UNL     1       0.748  -1.465   0.044  1.00  0.00    -0.010 C 
HETATM   13  C22 UNL     1       0.794  -0.159   0.656  1.00  0.00     0.097 C 
ENDROOT
BRANCH   1  14
HETATM   14  C1  UNL     1       2.920   1.219   0.252  1.00  0.00     0.176 C 
BRANCH  14  15
HETATM   15  O1  UNL     1       3.163   2.585  -0.015  1.00  0.00    -0.391 OA
HETATM   16  H1  UNL     1       2.482   2.979  -0.614  1.00  0.00     0.210 HD
ENDBRANCH  14  15
BRANCH  14  17
HETATM   17  C2  UNL     1       3.817   0.457  -0.691  1.00  0.00     0.306 C 
BRANCH  17  18
HETATM   18  N1  UNL     1       5.187   0.838  -0.400  1.00  0.00     0.095 N 
HETATM   19  C3  UNL     1       6.111   0.158  -1.274  1.00  0.00     0.298 C 
HETATM   20  C4  UNL     1       6.371  -1.212  -0.734  1.00  0.00     0.198 C 
HETATM   21  O2  UNL     1       7.117  -1.194   0.443  1.00  0.00    -0.388 OA
HETATM   22  C5  UNL     1       6.875  -0.036   1.183  1.00  0.00     0.198 C 
HETATM   23  C6  UNL     1       5.457   0.455   0.976  1.00  0.00     0.298 C 
ENDBRANCH  17  18
ENDBRANCH  14  17
ENDBRANCH   1  14
BRANCH  10  24
HETATM   24  N4  UNL     1      -4.305   0.652   0.166  1.00  0.00    -0.340 N 
HETATM   25  H16 UNL     1      -3.989   1.609   0.295  1.00  0.00     0.167 HD
BRANCH  24  26
HETATM   26  C14 UNL     1      -5.717   0.798   0.254  1.00  0.00     0.035 A 
HETATM   27  C15 UNL     1      -6.492   1.890  -0.111  1.00  0.00     0.032 A 
HETATM   28  C16 UNL     1      -7.846   2.002   0.002  1.00  0.00     0.046 A 
HETATM   29  C17 UNL     1      -8.531   0.940   0.527  1.00  0.00     0.138 A 
HETATM   30  F1  UNL     1      -9.872   1.058   0.636  1.00  0.00    -0.204 F 
HETATM   31  C18 UNL     1      -7.817  -0.180   0.912  1.00  0.00     0.074 A 
HETATM   32 CL1  UNL     1      -8.826  -1.470   1.570  1.00  0.00    -0.081 Cl
HETATM   33  C19 UNL     1      -6.452  -0.241   0.776  1.00  0.00     0.056 A 
ENDBRANCH  24  26
ENDBRANCH  10  24
TORSDOF 6
