REMARK  8 active torsions:
REMARK  status: ('A' for Active; 'I' for Inactive)
REMARK    1  A    between atoms: O1_2  and  C2_3 
REMARK    2  A    between atoms: C4_5  and  C5_6 
REMARK    3  A    between atoms: C5_6  and  O2_7 
REMARK    4  A    between atoms: C5_6  and  C6_8 
REMARK    5  A    between atoms: C6_8  and  N1_9 
REMARK    6  A    between atoms: C11_16  and  C12_17 
REMARK    7  A    between atoms: C15_22  and  N4_23 
REMARK    8  A    between atoms: N4_23  and  C16_24 
ROOT
HETATM    1  C2  UNL     1       0.646  -1.642   0.142  1.00  0.00     0.078 A 
HETATM    2  C3  UNL     1      -0.632  -1.310   0.216  1.00  0.00     0.043 A 
HETATM    3  C4  UNL     1      -0.747   0.097   0.609  1.00  0.00     0.178 A 
HETATM    4  O4  UNL     1       0.541   0.574   0.754  1.00  0.00    -0.363 OA
HETATM    5  C11 UNL     1       1.441  -0.427   0.495  1.00  0.00     0.217 A 
ENDROOT
BRANCH   5   6
HETATM    6  C12 UNL     1       2.342  -0.176  -0.643  1.00  0.00     0.041 A 
HETATM    7  C13 UNL     1       1.912  -0.233  -1.941  1.00  0.00     0.132 A 
HETATM    8  N2  UNL     1       2.697  -0.011  -3.012  1.00  0.00    -0.253 NA
HETATM    9  C14 UNL     1       4.010   0.291  -2.814  1.00  0.00     0.234 A 
HETATM   10  N3  UNL     1       4.464   0.355  -1.548  1.00  0.00    -0.224 NA
HETATM   11  C15 UNL     1       3.676   0.133  -0.481  1.00  0.00     0.140 A 
BRANCH  11  12
HETATM   12  N4  UNL     1       4.252   0.225   0.797  1.00  0.00    -0.339 N 
HETATM   13  H21 UNL     1       3.833   0.094   1.727  1.00  0.00     0.167 HD
BRANCH  12  14
HETATM   14  C16 UNL     1       5.624   0.542   0.997  1.00  0.00     0.061 A 
HETATM   15  C17 UNL     1       6.517   1.133   1.774  1.00  0.00     0.099 A 
HETATM   16 CL1  UNL     1       6.412   2.026   3.299  1.00  0.00    -0.079 Cl
HETATM   17  C18 UNL     1       7.637   0.795   0.934  1.00  0.00     0.142 A 
HETATM   18  F1  UNL     1       8.967   1.005   0.963  1.00  0.00    -0.204 F 
HETATM   19  C19 UNL     1       6.783   0.202   0.145  1.00  0.00     0.075 A 
ENDBRANCH  12  14
ENDBRANCH  11  12
ENDBRANCH   5   6
BRANCH   1  20
HETATM   20  O1  UNL     1       1.114  -2.874  -0.196  1.00  0.00    -0.357 OA
HETATM   21  C1  UNL     1       0.456  -3.781  -1.058  1.00  0.00     0.209 C 
ENDBRANCH   1  20
BRANCH   3  22
HETATM   22  C5  UNL     1      -1.434   0.984  -0.390  1.00  0.00     0.179 C 
BRANCH  22  23
HETATM   23  O2  UNL     1      -1.417   2.267   0.127  1.00  0.00    -0.391 OA
HETATM   24  H7  UNL     1      -0.886   2.357   0.962  1.00  0.00     0.210 HD
ENDBRANCH  22  23
BRANCH  22  25
HETATM   25  C6  UNL     1      -2.788   0.535  -0.778  1.00  0.00     0.307 C 
BRANCH  25  26
HETATM   26  N1  UNL     1      -3.784   0.472   0.233  1.00  0.00     0.095 N 
HETATM   27  C7  UNL     1      -5.021  -0.023  -0.408  1.00  0.00     0.298 C 
HETATM   28  C8  UNL     1      -5.939  -0.427   0.725  1.00  0.00     0.198 C 
HETATM   29  O3  UNL     1      -6.319   0.770   1.346  1.00  0.00    -0.388 OA
HETATM   30  C9  UNL     1      -5.232   1.447   1.863  1.00  0.00     0.198 C 
HETATM   31  C10 UNL     1      -4.163   1.747   0.803  1.00  0.00     0.298 C 
ENDBRANCH  25  26
ENDBRANCH  22  25
ENDBRANCH   3  22
TORSDOF 8
