REMARK  7 active torsions:
REMARK  status: ('A' for Active; 'I' for Inactive)
REMARK    1  A    between atoms: O1_2  and  C2_3 
REMARK    2  A    between atoms: C3_4  and  O2_5 
REMARK    3  A    between atoms: O2_5  and  C4_6 
REMARK    4  A    between atoms: C4_6  and  C5_7 
REMARK    5  A    between atoms: C5_7  and  O3_8 
REMARK    6  A    between atoms: C5_7  and  C6_9 
REMARK    7  A    between atoms: C6_9  and  N1_10 
ROOT
HETATM    1  C2  UNL     1      -1.357  -1.298  -1.078  1.00  0.00     0.110 A 
HETATM    2  C3  UNL     1      -0.971   0.021  -0.807  1.00  0.00     0.103 A 
HETATM    3  C11 UNL     1      -1.956   0.954  -0.618  1.00  0.00     0.055 A 
HETATM    4  C12 UNL     1      -3.184   0.535  -0.714  1.00  0.00     0.021 A 
HETATM    5  C13 UNL     1      -4.374   1.088  -0.546  1.00  0.00     0.052 A 
HETATM    6  N2  UNL     1      -5.714   0.986  -0.547  1.00  0.00    -0.245 NA
HETATM    7  C14 UNL     1      -6.188  -0.283  -0.853  1.00  0.00     0.234 A 
HETATM    8  N3  UNL     1      -5.091  -1.001  -1.037  1.00  0.00    -0.241 NA
HETATM    9  C15 UNL     1      -3.868  -0.603  -0.961  1.00  0.00     0.080 A 
HETATM   10  C16 UNL     1      -2.719  -1.322  -1.090  1.00  0.00     0.011 A 
HETATM   11  C17 UNL     1      -3.217  -2.703  -0.724  1.00  0.00     0.074 C 
HETATM   12  C18 UNL     1      -3.543  -2.566   0.771  1.00  0.00     0.022 C 
HETATM   13  C19 UNL     1      -3.581  -1.371   1.392  1.00  0.00     0.134 C 
HETATM   14  F1  UNL     1      -3.883  -2.081   2.545  1.00  0.00    -0.205 F 
HETATM   15  C20 UNL     1      -3.610  -0.092   2.168  1.00  0.00     0.069 C 
HETATM   16 CL1  UNL     1      -3.301  -0.024   3.942  1.00  0.00    -0.081 Cl
HETATM   17  C21 UNL     1      -3.807   1.208   1.760  1.00  0.00     0.006 C 
HETATM   18  C22 UNL     1      -4.091   2.143   0.514  1.00  0.00     0.089 C 
ENDROOT
BRANCH   2  19
HETATM   19  O2  UNL     1       0.326   0.400  -0.728  1.00  0.00    -0.346 OA
BRANCH  19  20
HETATM   20  C4  UNL     1       0.764   1.721  -0.459  1.00  0.00     0.209 C 
BRANCH  20  21
HETATM   21  C5  UNL     1       2.294   1.728  -0.461  1.00  0.00     0.160 C 
BRANCH  21  22
HETATM   22  O3  UNL     1       2.690   1.309  -1.727  1.00  0.00    -0.392 OA
HETATM   23  H7  UNL     1       2.081   0.613  -2.086  1.00  0.00     0.210 HD
ENDBRANCH  21  22
BRANCH  21  24
HETATM   24  C6  UNL     1       2.718   0.799   0.625  1.00  0.00     0.150 C 
BRANCH  24  25
HETATM   25  N1  UNL     1       4.091   0.558   0.786  1.00  0.00    -0.406 N 
HETATM   26  C7  UNL     1       4.935   1.592   1.243  1.00  0.00     0.143 C 
HETATM   27  C8  UNL     1       6.096   0.948   2.009  1.00  0.00     0.187 C 
HETATM   28  O4  UNL     1       6.114  -0.436   1.785  1.00  0.00    -0.388 OA
HETATM   29  C9  UNL     1       6.087  -0.693   0.409  1.00  0.00     0.187 C 
HETATM   30  C10 UNL     1       4.677  -0.425  -0.067  1.00  0.00     0.143 C 
ENDBRANCH  24  25
ENDBRANCH  21  24
ENDBRANCH  20  21
ENDBRANCH  19  20
ENDBRANCH   2  19
BRANCH   1  31
HETATM   31  O1  UNL     1      -0.444  -2.299  -1.277  1.00  0.00    -0.352 OA
HETATM   32  C1  UNL     1      -0.025  -2.487  -2.634  1.00  0.00     0.210 C 
ENDBRANCH   1  31
TORSDOF 7
