REMARK  6 active torsions:
REMARK  status: ('A' for Active; 'I' for Inactive)
REMARK    1  A    between atoms: N1_1  and  C1_2 
REMARK    2  A    between atoms: C1_2  and  C2_3 
REMARK    3  A    between atoms: C1_2  and  C4_6 
REMARK    4  A    between atoms: C2_3  and  C3_4 
REMARK    5  A    between atoms: C3_4  and  O1_5 
REMARK    6  A    between atoms: C4_6  and  C5_7 
ROOT
HETATM    1  C5  UNL     1       1.220  -0.857   1.178  1.00  0.00     0.032 C 
HETATM    2  C6  UNL     1       1.094  -2.378   1.209  1.00  0.00    -0.017 C 
HETATM    3  C7  UNL     1       0.300  -3.244   0.621  1.00  0.00     0.016 C 
HETATM    4  C8  UNL     1      -0.282  -4.518   0.247  1.00  0.00     0.117 C 
HETATM    5  N2  UNL     1      -1.243  -4.889  -0.527  1.00  0.00    -0.255 NA
HETATM    6  C9  UNL     1      -1.963  -3.877  -1.221  1.00  0.00     0.228 C 
HETATM    7  N3  UNL     1      -2.507  -2.751  -0.821  1.00  0.00    -0.263 NA
HETATM    8  C10 UNL     1      -3.198  -1.884  -1.756  1.00  0.00     0.275 C 
HETATM    9  N4  UNL     1      -3.064  -0.526  -1.256  1.00  0.00    -0.350 N 
HETATM   10  C11 UNL     1      -3.774   0.525  -0.560  1.00  0.00     0.041 A 
HETATM   11  C12 UNL     1      -4.915   0.992   0.073  1.00  0.00     0.030 A 
HETATM   12  C13 UNL     1      -4.894   2.289   0.565  1.00  0.00     0.002 A 
HETATM   13  C14 UNL     1      -3.831   3.163   0.481  1.00  0.00     0.001 A 
HETATM   14  C15 UNL     1      -2.689   2.672  -0.162  1.00  0.00     0.012 A 
HETATM   15  C16 UNL     1      -2.698   1.379  -0.657  1.00  0.00    -0.005 A 
HETATM   16  C17 UNL     1      -1.919   0.323  -1.362  1.00  0.00     0.144 A 
HETATM   17  C18 UNL     1      -0.741  -0.015  -0.600  1.00  0.00    -0.000 C 
HETATM   18  C19 UNL     1       0.147  -0.424   0.254  1.00  0.00    -0.020 C 
ENDROOT
BRANCH   1  19
HETATM   19  C4  UNL     1       2.603  -0.523   0.743  1.00  0.00     0.047 C 
BRANCH  19  20
HETATM   20  C1  UNL     1       2.985   0.910   0.696  1.00  0.00     0.221 C 
BRANCH  20  21
HETATM   21  N1  UNL     1       2.178   1.678  -0.202  1.00  0.00     0.083 N 
HETATM   22  H1  UNL     1       2.536   1.602  -1.185  1.00  0.00     0.313 HD
HETATM   23  H2  UNL     1       2.174   2.675   0.114  1.00  0.00     0.313 HD
ENDBRANCH  20  21
BRANCH  20  24
HETATM   24  C2  UNL     1       4.436   1.106   0.278  1.00  0.00     0.061 C 
BRANCH  24  25
HETATM   25  C3  UNL     1       4.811   2.568   0.359  1.00  0.00     0.166 C 
BRANCH  25  26
HETATM   26  O1  UNL     1       4.671   3.086   1.650  1.00  0.00    -0.401 OA
HETATM   27  H8  UNL     1       5.360   3.799   1.776  1.00  0.00     0.209 HD
ENDBRANCH  25  26
ENDBRANCH  24  25
ENDBRANCH  20  24
ENDBRANCH  19  20
ENDBRANCH   1  19
TORSDOF 6
