REMARK  3 active torsions:
REMARK  status: ('A' for Active; 'I' for Inactive)
REMARK    1  A    between atoms: C3_3  and  C4_5 
REMARK    2  A    between atoms: C7_8  and  N1_9 
REMARK    3  A    between atoms: C13_17  and  O3_18 
ROOT
HETATM    1  C4  UNL     1      -2.848  -0.837  -0.229  1.00  0.00     0.005 C 
HETATM    2  C5  UNL     1      -1.876  -0.055   0.078  1.00  0.00    -0.036 C 
HETATM    3  C6  UNL     1      -0.414  -0.282   0.182  1.00  0.00     0.038 C 
HETATM    4  C7  UNL     1       0.559   0.592   0.057  1.00  0.00     0.064 C 
HETATM    5  C13 UNL     1       1.326   1.820  -0.145  1.00  0.00     0.170 C 
HETATM    6  C14 UNL     1       0.594   3.057  -0.534  1.00  0.00     0.041 C 
HETATM    7  O4  UNL     1      -0.195   3.702   0.407  1.00  0.00     0.000 OA
HETATM    8  C15 UNL     1      -1.087   4.742   0.256  1.00  0.00     0.012 A 
HETATM    9  P1  UNL     1      -1.916   3.429   0.685  1.00  0.00    -0.060 P 
HETATM   10  C16 UNL     1      -3.653   3.062   0.983  1.00  0.00     0.036 A 
HETATM   11  C17 UNL     1      -3.543   1.727   0.746  1.00  0.00     0.014 A 
HETATM   12  C18 UNL     1      -2.134   1.350   0.397  1.00  0.00     0.124 A 
HETATM   13  N2  UNL     1      -4.462   0.682   0.758  1.00  0.00    -0.388 N 
HETATM   14  C19 UNL     1      -4.255  -0.614   0.158  1.00  0.00     0.162 C 
HETATM   15  H24 UNL     1      -5.327   0.928   1.245  1.00  0.00     0.159 HD
ENDROOT
BRANCH   4  16
HETATM   16  N1  UNL     1       1.727  -0.271   0.271  1.00  0.00    -0.258 N 
HETATM   17  C8  UNL     1       2.041  -0.449   1.667  1.00  0.00     0.182 C 
HETATM   18  C9  UNL     1       3.499  -0.564   1.962  1.00  0.00     0.189 C 
HETATM   19  O1  UNL     1       3.903  -1.851   1.612  1.00  0.00    -0.389 OA
HETATM   20  C10 UNL     1       4.796  -1.836   0.549  1.00  0.00     0.169 C 
HETATM   21  C11 UNL     1       4.083  -1.936  -0.784  1.00  0.00     0.055 C 
HETATM   22  C12 UNL     1       3.442  -0.654  -1.204  1.00  0.00     0.203 C 
HETATM   23  O2  UNL     1       2.089  -0.598  -0.958  1.00  0.00    -0.278 OA
ENDBRANCH   4  16
BRANCH   5  24
HETATM   24  O3  UNL     1       2.219   2.067   0.932  1.00  0.00    -0.389 OA
HETATM   25  H17 UNL     1       1.731   2.628   1.558  1.00  0.00     0.210 HD
ENDBRANCH   5  24
BRANCH   1  26
HETATM   26  C3  UNL     1      -2.401  -1.965  -1.013  1.00  0.00     0.120 C 
HETATM   27  C2  UNL     1      -3.263  -2.877  -1.419  1.00  0.00     0.012 C 
HETATM   28  C1  UNL     1      -2.835  -4.049  -2.238  1.00  0.00     0.039 C 
HETATM   29  F1  UNL     1      -1.178  -2.292  -1.454  1.00  0.00    -0.206 F 
ENDBRANCH   1  26
TORSDOF 3
