REMARK  1 active torsions:
REMARK  status: ('A' for Active; 'I' for Inactive)
REMARK    1  A    between atoms: O1_1  and  C1_2 
ROOT
HETATM    1  C1  UNL     1      -1.927  -0.679  -1.479  1.00  0.00     0.159 C 
HETATM    2  C2  UNL     1      -2.501   0.289  -0.461  1.00  0.00     0.147 C 
HETATM    3  N1  UNL     1      -3.911   0.236  -0.311  1.00  0.00    -0.418 N 
HETATM    4  C3  UNL     1      -4.386   0.969   0.811  1.00  0.00     0.117 C 
HETATM    5  C4  UNL     1      -4.224   2.450   0.803  1.00  0.00     0.048 C 
HETATM    6  C5  UNL     1      -2.843   2.950   0.890  1.00  0.00    -0.001 C 
HETATM    7  C6  UNL     1      -1.642   3.482   0.807  1.00  0.00     0.137 C 
HETATM    8  O2  UNL     1      -0.434   3.557   1.468  1.00  0.00    -0.334 OA
HETATM    9  C7  UNL     1       0.709   3.369   0.746  1.00  0.00     0.152 C 
HETATM   10  C8  UNL     1       1.583   2.433   0.312  1.00  0.00     0.013 C 
HETATM   11  C9  UNL     1       2.863   2.147  -0.487  1.00  0.00     0.051 C 
HETATM   12  C10 UNL     1       3.899   1.647   0.401  1.00  0.00     0.019 C 
HETATM   13  C11 UNL     1       4.328   0.368   0.389  1.00  0.00     0.119 A 
HETATM   14  C12 UNL     1       4.399  -1.029  -0.033  1.00  0.00     0.015 A 
HETATM   15 CL1  UNL     1       4.147  -0.167  -1.598  1.00  0.00    -0.176 Cl
HETATM   16  C13 UNL     1       4.402  -2.293  -0.479  1.00  0.00     0.051 C 
HETATM   17  C14 UNL     1       3.445  -2.667  -1.586  1.00  0.00     0.295 C 
HETATM   18  F1  UNL     1       3.578  -1.877  -2.657  1.00  0.00    -0.222 F 
HETATM   19  N2  UNL     1       2.131  -2.314  -0.927  1.00  0.00    -0.341 N 
HETATM   20  C15 UNL     1       1.581  -1.260  -0.108  1.00  0.00     0.140 A 
HETATM   21  N3  UNL     1       1.566  -0.004   0.055  1.00  0.00    -0.210 NA
HETATM   22  C16 UNL     1       1.194   1.025   0.698  1.00  0.00     0.159 A 
HETATM   23  N4  UNL     1       0.457   0.479   1.682  1.00  0.00    -0.240 NA
HETATM   24  C17 UNL     1       0.275  -0.841   1.789  1.00  0.00     0.134 A 
HETATM   25  C18 UNL     1       0.805  -1.809   0.924  1.00  0.00     0.029 A 
HETATM   26  C19 UNL     1       0.549  -3.240   1.076  1.00  0.00     0.041 C 
HETATM   27  C20 UNL     1      -0.739  -3.371   0.704  1.00  0.00     0.135 C 
HETATM   28  O3  UNL     1      -1.357  -2.162   0.316  1.00  0.00    -0.360 OA
HETATM   29  C21 UNL     1      -1.951  -2.090  -0.992  1.00  0.00     0.207 C 
HETATM   30  H5  UNL     1      -4.476   0.340  -1.161  1.00  0.00     0.153 HD
HETATM   31  H19 UNL     1       1.439  -3.067  -1.165  1.00  0.00     0.164 HD
ENDROOT
BRANCH   1  32
HETATM   32  O1  UNL     1      -2.455  -0.505  -2.729  1.00  0.00    -0.392 OA
HETATM   33  H1  UNL     1      -2.972  -1.319  -2.996  1.00  0.00     0.210 HD
ENDBRANCH   1  32
TORSDOF 1
