REMARK  7 active torsions:
REMARK  status: ('A' for Active; 'I' for Inactive)
REMARK    1  A    between atoms: O1_2  and  C2_3 
REMARK    2  A    between atoms: C6_9  and  N3_10 
REMARK    3  A    between atoms: N3_10  and  C7_11 
REMARK    4  A    between atoms: C15_21  and  O2_22 
REMARK    5  A    between atoms: O2_22  and  C16_23 
REMARK    6  A    between atoms: C16_23  and  C17_24 
REMARK    7  A    between atoms: C17_24  and  N4_25 
ROOT
HETATM    1  C2  UNL     1      -0.405  -2.215  -0.268  1.00  0.00     0.103 A 
HETATM    2  C3  UNL     1       0.732  -3.032  -0.322  1.00  0.00     0.072 A 
HETATM    3  C4  UNL     1       1.959  -2.401  -0.211  1.00  0.00     0.075 A 
HETATM    4  N1  UNL     1       3.055  -3.150  -0.261  1.00  0.00    -0.241 NA
HETATM    5  C5  UNL     1       4.276  -2.601  -0.158  1.00  0.00     0.236 A 
HETATM    6  N2  UNL     1       4.347  -1.272  -0.005  1.00  0.00    -0.224 NA
HETATM    7  C6  UNL     1       3.270  -0.473   0.050  1.00  0.00     0.142 A 
HETATM    8  C13 UNL     1       2.028  -1.027  -0.055  1.00  0.00     0.042 A 
HETATM    9  C14 UNL     1       0.921  -0.219  -0.000  1.00  0.00     0.057 A 
HETATM   10  C15 UNL     1      -0.323  -0.804  -0.106  1.00  0.00     0.103 A 
ENDROOT
BRANCH   7  11
HETATM   11  N3  UNL     1       3.451   0.903   0.200  1.00  0.00    -0.340 N 
HETATM   12  H6  UNL     1       2.715   1.606   0.352  1.00  0.00     0.167 HD
BRANCH  11  13
HETATM   13  C7  UNL     1       4.719   1.600   0.163  1.00  0.00     0.035 A 
HETATM   14  C8  UNL     1       5.676   1.065  -0.706  1.00  0.00     0.032 A 
HETATM   15  C9  UNL     1       6.891   1.711  -0.739  1.00  0.00     0.046 A 
HETATM   16  C10 UNL     1       7.260   2.822  -0.003  1.00  0.00     0.138 A 
HETATM   17  F1  UNL     1       8.460   3.423  -0.069  1.00  0.00    -0.204 F 
HETATM   18  C11 UNL     1       6.257   3.262   0.813  1.00  0.00     0.074 A 
HETATM   19 CL1  UNL     1       6.503   4.665   1.836  1.00  0.00    -0.081 Cl
HETATM   20  C12 UNL     1       4.976   2.712   0.948  1.00  0.00     0.056 A 
ENDBRANCH  11  13
ENDBRANCH   7  11
BRANCH  10  21
HETATM   21  O2  UNL     1      -1.524  -0.345  -0.089  1.00  0.00    -0.347 OA
BRANCH  21  22
HETATM   22  C16 UNL     1      -2.728   0.131  -0.070  1.00  0.00     0.206 C 
BRANCH  22  23
HETATM   23  C17 UNL     1      -3.086   0.912   1.192  1.00  0.00     0.299 C 
BRANCH  23  24
HETATM   24  N4  UNL     1      -4.459   1.340   1.173  1.00  0.00     0.090 N 
HETATM   25  C18 UNL     1      -5.359   0.204   1.290  1.00  0.00     0.272 C 
HETATM   26  C19 UNL     1      -6.338   0.248   0.166  1.00  0.00     0.032 C 
HETATM   27  C20 UNL     1      -5.836   1.294  -0.780  1.00  0.00     0.032 C 
HETATM   28  C21 UNL     1      -4.872   2.082   0.043  1.00  0.00     0.272 C 
ENDBRANCH  23  24
ENDBRANCH  22  23
ENDBRANCH  21  22
ENDBRANCH  10  21
BRANCH   1  29
HETATM   29  O1  UNL     1      -1.650  -2.812  -0.377  1.00  0.00    -0.353 OA
HETATM   30  C1  UNL     1      -1.784  -4.199  -0.512  1.00  0.00     0.210 C 
ENDBRANCH   1  29
TORSDOF 7
