REMARK  7 active torsions:
REMARK  status: ('A' for Active; 'I' for Inactive)
REMARK    1  A    between atoms: O1_2  and  C2_3 
REMARK    2  A    between atoms: C6_9  and  N3_10 
REMARK    3  A    between atoms: N3_10  and  C7_11 
REMARK    4  A    between atoms: C15_21  and  O2_22 
REMARK    5  A    between atoms: O2_22  and  C16_23 
REMARK    6  A    between atoms: C16_23  and  B1_24 
REMARK    7  A    between atoms: B1_24  and  N4_25 
ROOT
HETATM    1  C2  UNL     1      -1.021  -2.491   1.199  1.00  0.00     0.103 A 
HETATM    2  C3  UNL     1       0.009  -2.568   2.114  1.00  0.00     0.072 A 
HETATM    3  C4  UNL     1       1.149  -1.814   1.936  1.00  0.00     0.075 A 
HETATM    4  N1  UNL     1       2.103  -1.946   2.869  1.00  0.00    -0.241 NA
HETATM    5  C5  UNL     1       3.247  -1.248   2.774  1.00  0.00     0.236 A 
HETATM    6  N2  UNL     1       3.401  -0.427   1.732  1.00  0.00    -0.224 NA
HETATM    7  C6  UNL     1       2.504  -0.238   0.763  1.00  0.00     0.142 A 
HETATM    8  C13 UNL     1       1.342  -0.958   0.875  1.00  0.00     0.042 A 
HETATM    9  C14 UNL     1       0.290  -0.919  -0.001  1.00  0.00     0.057 A 
HETATM   10  C15 UNL     1      -0.874  -1.644   0.115  1.00  0.00     0.102 A 
ENDROOT
BRANCH   7  11
HETATM   11  N3  UNL     1       2.656   0.629  -0.345  1.00  0.00    -0.340 N 
HETATM   12  H6  UNL     1       1.918   0.734  -1.065  1.00  0.00     0.167 HD
BRANCH  11  13
HETATM   13  C7  UNL     1       3.739   1.470  -0.694  1.00  0.00     0.035 A 
HETATM   14  C8  UNL     1       3.788   2.305  -1.810  1.00  0.00     0.032 A 
HETATM   15  C9  UNL     1       4.863   3.104  -2.108  1.00  0.00     0.046 A 
HETATM   16  C10 UNL     1       5.980   3.127  -1.304  1.00  0.00     0.138 A 
HETATM   17  F1  UNL     1       6.964   3.943  -1.694  1.00  0.00    -0.204 F 
HETATM   18  C11 UNL     1       5.978   2.312  -0.180  1.00  0.00     0.074 A 
HETATM   19 CL1  UNL     1       7.413   2.385   0.792  1.00  0.00    -0.081 Cl
HETATM   20  C12 UNL     1       4.877   1.527   0.080  1.00  0.00     0.056 A 
ENDBRANCH  11  13
ENDBRANCH   7  11
BRANCH  10  21
HETATM   21  O2  UNL     1      -1.920  -1.602  -0.761  1.00  0.00    -0.356 OA
BRANCH  21  22
HETATM   22  C16 UNL     1      -2.034  -0.842  -1.924  1.00  0.00     0.138 C 
BRANCH  22  23
HETATM   23  B1  UNL     1      -1.951   0.708  -1.716  1.00  0.00     0.267 B 
HETATM   24  H13 UNL     1      -0.969   1.268  -2.126  1.00  0.00    -0.005 HD
BRANCH  23  25
HETATM   25  N4  UNL     1      -3.091   1.550  -1.183  1.00  0.00    -0.362 NA
HETATM   26  C17 UNL     1      -3.182   1.524   0.234  1.00  0.00     0.073 C 
HETATM   27  C18 UNL     1      -4.598   1.120   0.588  1.00  0.00     0.014 C 
HETATM   28  C19 UNL     1      -4.979   0.313  -0.657  1.00  0.00     0.014 C 
HETATM   29  C20 UNL     1      -4.341   1.129  -1.751  1.00  0.00     0.073 C 
ENDBRANCH  23  25
ENDBRANCH  22  23
ENDBRANCH  21  22
ENDBRANCH  10  21
BRANCH   1  30
HETATM   30  O1  UNL     1      -2.170  -3.249   1.375  1.00  0.00    -0.353 OA
HETATM   31  C1  UNL     1      -2.232  -4.087   2.514  1.00  0.00     0.210 C 
ENDBRANCH   1  30
TORSDOF 7
