REMARK  6 active torsions:
REMARK  status: ('A' for Active; 'I' for Inactive)
REMARK    1  A    between atoms: O1_2  and  C2_3 
REMARK    2  A    between atoms: C2_3  and  C13_17 
REMARK    3  A    between atoms: C3_4  and  C4_5 
REMARK    4  A    between atoms: C4_5  and  C5_6 
REMARK    5  A    between atoms: C6_7  and  N1_8 
REMARK    6  A    between atoms: N1_8  and  C7_9 
ROOT
HETATM    1  C2  UNL     1      -1.163   0.728   0.578  1.00  0.00     0.078 C 
HETATM    2  C3  UNL     1      -0.324   0.447   1.557  1.00  0.00     0.012 C 
ENDROOT
BRANCH   2   3
HETATM    3  C4  UNL     1       0.871   1.091   2.121  1.00  0.00     0.058 C 
BRANCH   3   4
HETATM    4  C5  UNL     1       1.168   2.347   1.400  1.00  0.00    -0.006 C 
HETATM    5  C6  UNL     1       2.319   2.505   0.767  1.00  0.00     0.084 C 
BRANCH   5   6
HETATM    6  N1  UNL     1       3.213   1.375   0.848  1.00  0.00    -0.366 N 
HETATM    7  H9  UNL     1       3.660   1.099   1.767  1.00  0.00     0.165 HD
BRANCH   6   8
HETATM    8  C7  UNL     1       3.798   0.349   0.021  1.00  0.00     0.033 A 
HETATM    9  C8  UNL     1       3.285  -0.898  -0.243  1.00  0.00     0.032 A 
HETATM   10  C9  UNL     1       3.958  -1.772  -1.055  1.00  0.00     0.046 A 
HETATM   11  C10 UNL     1       5.156  -1.340  -1.583  1.00  0.00     0.138 A 
HETATM   12  F1  UNL     1       5.823  -2.216  -2.393  1.00  0.00    -0.204 F 
HETATM   13  C11 UNL     1       5.722  -0.116  -1.362  1.00  0.00     0.074 A 
HETATM   14 CL1  UNL     1       7.255   0.372  -2.067  1.00  0.00    -0.081 Cl
HETATM   15  C12 UNL     1       5.016   0.751  -0.533  1.00  0.00     0.056 A 
ENDBRANCH   6   8
ENDBRANCH   5   6
ENDBRANCH   3   4
ENDBRANCH   2   3
BRANCH   1  16
HETATM   16  O1  UNL     1      -0.623   1.886   0.143  1.00  0.00    -0.357 OA
HETATM   17  C1  UNL     1      -1.188   2.748  -0.833  1.00  0.00     0.209 C 
ENDBRANCH   1  16
BRANCH   1  18
HETATM   18  C13 UNL     1      -2.248  -0.196   0.336  1.00  0.00     0.128 A 
HETATM   19  C14 UNL     1      -2.715   0.595  -0.715  1.00  0.00     0.028 A 
HETATM   20  C15 UNL     1      -3.663  -0.468  -0.722  1.00  0.00     0.024 A 
HETATM   21  C20 UNL     1      -3.887   0.421  -1.670  1.00  0.00     0.023 A 
HETATM   22  C16 UNL     1      -4.796  -0.805  -1.512  1.00  0.00    -0.014 A 
HETATM   23  C17 UNL     1      -5.026  -2.045  -0.691  1.00  0.00     0.014 C 
HETATM   24  C18 UNL     1      -3.884  -2.695  -0.003  1.00  0.00     0.027 C 
HETATM   25  C19 UNL     1      -3.451  -2.143   1.305  1.00  0.00     0.169 C 
HETATM   26  O2  UNL     1      -2.224  -1.342   1.268  1.00  0.00    -0.371 OA
ENDBRANCH   1  18
TORSDOF 6
