REMARK  5 active torsions:
REMARK  status: ('A' for Active; 'I' for Inactive)
REMARK    1  A    between atoms: O1_2  and  C2_3 
REMARK    2  A    between atoms: C2_3  and  C14_20 
REMARK    3  A    between atoms: C3_4  and  C4_5 
REMARK    4  A    between atoms: C6_7  and  N1_8 
REMARK    5  A    between atoms: N1_8  and  C7_9 
ROOT
HETATM    1  C4  UNL     1       1.017   1.456  -0.249  1.00  0.00     0.064 A 
HETATM    2  C5  UNL     1       1.907   0.411  -0.328  1.00  0.00     0.082 A 
HETATM    3  C6  UNL     1       3.264   0.545  -0.252  1.00  0.00     0.131 A 
HETATM    4  N2  UNL     1       3.642   1.819  -0.089  1.00  0.00    -0.224 NA
HETATM    5  C13 UNL     1       2.844   2.881  -0.003  1.00  0.00     0.235 A 
HETATM    6  N3  UNL     1       1.520   2.686  -0.085  1.00  0.00    -0.242 NA
ENDROOT
BRANCH   1   7
HETATM    7  C3  UNL     1      -0.428   1.290  -0.329  1.00  0.00     0.071 C 
HETATM    8  C2  UNL     1      -1.091   0.271   0.197  1.00  0.00     0.103 C 
BRANCH   8   9
HETATM    9  O1  UNL     1      -0.476  -0.738   0.874  1.00  0.00    -0.353 OA
HETATM   10  C1  UNL     1      -0.234  -0.850   2.239  1.00  0.00     0.210 C 
ENDBRANCH   8   9
BRANCH   8  11
HETATM   11  C14 UNL     1      -2.522   0.199   0.063  1.00  0.00     0.098 C 
HETATM   12  C15 UNL     1      -3.115  -0.839   0.609  1.00  0.00     0.019 C 
HETATM   13  C16 UNL     1      -4.495  -1.348   0.861  1.00  0.00     0.041 C 
HETATM   14  C17 UNL     1      -4.896  -2.136  -0.368  1.00  0.00     0.040 C 
HETATM   15  C21 UNL     1      -5.461  -0.183   0.789  1.00  0.00     0.281 C 
HETATM   16  C18 UNL     1      -5.165  -1.040  -1.361  1.00  0.00     0.273 C 
HETATM   17  N4  UNL     1      -5.762   0.025  -0.590  1.00  0.00     0.091 N 
HETATM   18  C19 UNL     1      -5.495   1.329  -1.110  1.00  0.00     0.299 C 
HETATM   19  C20 UNL     1      -4.286   2.019  -0.607  1.00  0.00     0.206 C 
HETATM   20  O2  UNL     1      -3.111   1.244  -0.632  1.00  0.00    -0.347 OA
ENDBRANCH   8  11
ENDBRANCH   1   7
BRANCH   3  21
HETATM   21  N1  UNL     1       4.114  -0.571  -0.340  1.00  0.00    -0.341 N 
HETATM   22  H6  UNL     1       3.641  -1.510  -0.475  1.00  0.00     0.167 HD
BRANCH  21  23
HETATM   23  C7  UNL     1       5.514  -0.615  -0.276  1.00  0.00     0.035 A 
HETATM   24  C8  UNL     1       6.219  -1.819  -0.372  1.00  0.00     0.032 A 
HETATM   25  C9  UNL     1       7.583  -1.913  -0.313  1.00  0.00     0.046 A 
HETATM   26  C10 UNL     1       8.350  -0.783  -0.151  1.00  0.00     0.138 A 
HETATM   27  F1  UNL     1       9.697  -0.902  -0.096  1.00  0.00    -0.204 F 
HETATM   28  C11 UNL     1       7.718   0.426  -0.051  1.00  0.00     0.074 A 
HETATM   29 CL1  UNL     1       8.696   1.863   0.155  1.00  0.00    -0.081 Cl
HETATM   30  C12 UNL     1       6.340   0.466  -0.116  1.00  0.00     0.056 A 
ENDBRANCH  21  23
ENDBRANCH   3  21
TORSDOF 5
