REMARK  9 active torsions:
REMARK  status: ('A' for Active; 'I' for Inactive)
REMARK    1  A    between atoms: O1_1  and  C1_2 
REMARK    2  A    between atoms: C1_2  and  C2_3 
REMARK    3  A    between atoms: C2_3  and  C3_4 
REMARK    4  A    between atoms: C7_8  and  O2_9 
REMARK    5  A    between atoms: O2_9  and  C8_10 
REMARK    6  A    between atoms: C9_12  and  P1_13 
REMARK    7  A    between atoms: C13_18  and  N2_19 
REMARK    8  A    between atoms: N2_19  and  C14_20 
REMARK    9  A    between atoms: C17_25  and  C18_26 
ROOT
HETATM    1  C1  UNL     1      -0.247  -1.433   0.267  1.00  0.00     0.113 C 
HETATM    2  C9  UNL     1       0.382  -2.616  -0.541  1.00  0.00    -0.023 C 
HETATM    3  C10 UNL     1       1.371  -3.108   0.241  1.00  0.00    -0.002 C 
HETATM    4  C11 UNL     1       1.295  -2.254   1.409  1.00  0.00     0.085 A 
HETATM    5  C12 UNL     1       2.567  -1.944   2.100  1.00  0.00     0.105 A 
HETATM    6  N1  UNL     1       2.842  -0.692   1.972  1.00  0.00    -0.246 NA
HETATM    7  C13 UNL     1       1.870   0.004   1.220  1.00  0.00     0.130 A 
HETATM    8  C19 UNL     1       0.951  -0.889   0.870  1.00  0.00     0.017 A 
ENDROOT
BRANCH   1   9
HETATM    9  O1  UNL     1      -1.043  -2.082   1.159  1.00  0.00    -0.380 OA
HETATM   10  H1  UNL     1      -1.176  -1.543   1.994  1.00  0.00     0.211 HD
ENDBRANCH   1   9
BRANCH   1  11
HETATM   11  C2  UNL     1      -0.930  -0.657  -0.781  1.00  0.00     0.055 C 
BRANCH  11  12
HETATM   12  C3  UNL     1      -1.857   0.421  -0.460  1.00  0.00     0.018 C 
HETATM   13  C4  UNL     1      -1.398   1.587   0.323  1.00  0.00     0.007 C 
HETATM   14  C5  UNL     1      -2.686   2.418   0.421  1.00  0.00     0.003 C 
HETATM   15  C6  UNL     1      -3.782   1.407   0.424  1.00  0.00     0.032 C 
HETATM   16  C7  UNL     1      -3.149   0.040   0.191  1.00  0.00     0.127 C 
BRANCH  16  17
HETATM   17  O2  UNL     1      -3.937  -0.663  -0.756  1.00  0.00    -0.365 OA
BRANCH  17  18
HETATM   18  C8  UNL     1      -5.177  -1.173  -0.469  1.00  0.00     0.340 C 
HETATM   19  S1  UNL     1      -6.522  -1.510   0.387  1.00  0.00    -0.166 SA
ENDBRANCH  17  18
ENDBRANCH  16  17
ENDBRANCH  11  12
ENDBRANCH   1  11
BRANCH   2  20
HETATM   20  P1  UNL     1      -0.015  -3.323  -2.212  1.00  0.00    -0.108 P 
HETATM   21  H13 UNL     1       0.197  -2.289  -3.206  1.00  0.00     0.059 HD
HETATM   22  H14 UNL     1      -1.334  -3.872  -2.208  1.00  0.00     0.059 HD
ENDBRANCH   2  20
BRANCH   7  23
HETATM   23  N2  UNL     1       1.779   1.345   0.849  1.00  0.00    -0.358 N 
HETATM   24  H18 UNL     1       1.473   2.258   1.265  1.00  0.00     0.162 HD
BRANCH  23  25
HETATM   25  C14 UNL     1       2.208   1.494  -0.420  1.00  0.00     0.089 A 
HETATM   26  C15 UNL     1       3.085   1.741  -0.773  1.00  0.00    -0.078 A 
HETATM   27  B1  UNL     1       4.667   2.187  -1.370  1.00  0.00     0.305 B 
HETATM   28  C18 UNL     1       3.691   1.899   0.297  1.00  0.00     0.052 A 
HETATM   29  C16 UNL     1       5.989   2.559  -1.836  1.00  0.00     0.113 A 
HETATM   30  C17 UNL     1       5.186   2.321  -0.356  1.00  0.00     0.018 A 
HETATM   31  F1  UNL     1       7.006   2.832  -1.096  1.00  0.00    -0.251 F 
HETATM   32 CL1  UNL     1       3.863   1.955   2.234  1.00  0.00    -0.124 Cl
ENDBRANCH  23  25
ENDBRANCH   7  23
TORSDOF 9
