REMARK  9 active torsions:
REMARK  status: ('A' for Active; 'I' for Inactive)
REMARK    1  A    between atoms: N1_2  and  C2_3 
REMARK    2  A    between atoms: C2_3  and  C3_4 
REMARK    3  A    between atoms: C3_4  and  O1_5 
REMARK    4  A    between atoms: C3_4  and  C4_6 
REMARK    5  A    between atoms: C4_6  and  O2_7 
REMARK    6  A    between atoms: O2_7  and  C5_8 
REMARK    7  A    between atoms: N3_12  and  C8_13 
REMARK    8  A    between atoms: C8_13  and  N4_14 
REMARK    9  A    between atoms: N4_14  and  C9_15 
ROOT
HETATM    1  C5  UNL     1      -1.721  -0.644  -0.859  1.00  0.00     0.075 C 
HETATM    2  C6  UNL     1      -1.128  -0.410   0.275  1.00  0.00     0.052 C 
HETATM    3  C7  UNL     1      -0.047  -0.199   1.189  1.00  0.00     0.261 C 
HETATM    4  N2  UNL     1       1.251  -0.127   1.368  1.00  0.00    -0.224 NA
HETATM    5  N3  UNL     1       2.062  -0.329   0.246  1.00  0.00    -0.255 N 
HETATM    6  S1  UNL     1       1.058  -0.339  -1.145  1.00  0.00     0.067 SA
HETATM    7  N5  UNL     1       1.797  -0.646  -2.675  1.00  0.00    -0.359 NA
HETATM    8  C15 UNL     1       1.057  -0.980  -3.714  1.00  0.00     0.343 C 
HETATM    9  C16 UNL     1      -0.183  -0.932  -2.988  1.00  0.00     0.012 C 
HETATM   10  C17 UNL     1      -1.273  -0.872  -2.252  1.00  0.00    -0.030 C 
HETATM   11  C18 UNL     1      -2.385  -1.137  -3.202  1.00  0.00     0.050 C 
ENDROOT
BRANCH   5  12
HETATM   12  C8  UNL     1       3.495  -0.497   0.327  1.00  0.00     0.274 C 
BRANCH  12  13
HETATM   13  N4  UNL     1       4.061   0.687   0.914  1.00  0.00    -0.372 N 
HETATM   14  H15 UNL     1       3.584   1.551   1.237  1.00  0.00     0.161 HD
BRANCH  13  15
HETATM   15  C9  UNL     1       5.490   0.663   1.071  1.00  0.00     0.031 A 
HETATM   16  C10 UNL     1       6.195   1.711   1.617  1.00  0.00     0.032 A 
HETATM   17  C11 UNL     1       7.555   1.784   1.811  1.00  0.00     0.046 A 
HETATM   18  C12 UNL     1       8.290   0.684   1.414  1.00  0.00     0.138 A 
HETATM   19  F1  UNL     1       9.635   0.574   1.526  1.00  0.00    -0.204 F 
HETATM   20  C13 UNL     1       7.653  -0.405   0.858  1.00  0.00     0.074 A 
HETATM   21 CL1  UNL     1       8.524  -1.830   0.331  1.00  0.00    -0.081 Cl
HETATM   22  C14 UNL     1       6.286  -0.419   0.689  1.00  0.00     0.056 A 
ENDBRANCH  13  15
ENDBRANCH  12  13
ENDBRANCH   5  12
BRANCH   1  23
HETATM   23  O2  UNL     1      -3.076  -0.672  -0.691  1.00  0.00    -0.348 OA
BRANCH  23  24
HETATM   24  C4  UNL     1      -3.766   0.406  -0.108  1.00  0.00     0.209 C 
BRANCH  24  25
HETATM   25  C3  UNL     1      -5.261   0.188  -0.216  1.00  0.00     0.170 C 
BRANCH  25  26
HETATM   26  C2  UNL     1      -6.063   1.116   0.630  1.00  0.00     0.302 C 
BRANCH  26  27
HETATM   27  N1  UNL     1      -5.579   1.133   2.001  1.00  0.00     0.081 N 
HETATM   28  C1  UNL     1      -5.826  -0.131   2.666  1.00  0.00     0.306 C 
HETATM   29  H4  UNL     1      -6.088   1.885   2.509  1.00  0.00     0.315 HD
ENDBRANCH  26  27
ENDBRANCH  25  26
BRANCH  25  30
HETATM   30  O1  UNL     1      -5.670   0.110  -1.540  1.00  0.00    -0.392 OA
HETATM   31  H8  UNL     1      -6.458  -0.490  -1.654  1.00  0.00     0.210 HD
ENDBRANCH  25  30
ENDBRANCH  24  25
ENDBRANCH  23  24
ENDBRANCH   1  23
TORSDOF 9
