REMARK  2 active torsions:
REMARK  status: ('A' for Active; 'I' for Inactive)
REMARK    1  A    between atoms: N1_1  and  C1_2 
REMARK    2  A    between atoms: C2_4  and  O2_5 
ROOT
HETATM    1  C1  UNL     1       0.316   0.635   1.263  1.00  0.00     0.399 C 
HETATM    2  O1  UNL     1      -0.373   1.795   0.876  1.00  0.00    -0.289 OA
HETATM    3  C2  UNL     1      -1.106   1.959  -0.284  1.00  0.00     0.196 C 
HETATM    4  C3  UNL     1      -1.849   0.969  -0.748  1.00  0.00     0.081 C 
HETATM    5  C4  UNL     1      -2.189  -0.409  -0.390  1.00  0.00     0.032 A 
HETATM    6  C5  UNL     1      -3.420  -0.758   0.181  1.00  0.00     0.133 A 
HETATM    7  N2  UNL     1      -3.712  -2.036   0.514  1.00  0.00    -0.253 NA
HETATM    8  C6  UNL     1      -2.751  -2.967   0.266  1.00  0.00     0.234 A 
HETATM    9  N3  UNL     1      -1.551  -2.679  -0.283  1.00  0.00    -0.224 NA
HETATM   10  C7  UNL     1      -1.268  -1.412  -0.610  1.00  0.00     0.141 A 
HETATM   11  N4  UNL     1      -0.011  -1.109  -1.195  1.00  0.00    -0.340 N 
HETATM   12  C8  UNL     1       1.225  -0.554  -0.781  1.00  0.00     0.046 A 
HETATM   13  C9  UNL     1       2.291  -0.870  -1.591  1.00  0.00     0.031 A 
HETATM   14  C10 UNL     1       3.533  -0.369  -1.260  1.00  0.00     0.023 A 
HETATM   15  C11 UNL     1       3.714   0.429  -0.149  1.00  0.00     0.033 A 
HETATM   16 BR2  UNL     1       5.462   1.074   0.227  1.00  0.00    -0.049 Br
HETATM   17  C12 UNL     1       2.625   0.728   0.642  1.00  0.00     0.064 A 
HETATM   18 CL1  UNL     1       2.954   1.741   2.019  1.00  0.00    -0.082 Cl
HETATM   19  C13 UNL     1       1.376   0.239   0.332  1.00  0.00     0.050 A 
HETATM   20  H7  UNL     1      -0.160  -1.418  -2.181  1.00  0.00     0.167 HD
ENDROOT
BRANCH   1  21
HETATM   21  N1  UNL     1       0.815   0.866   2.608  1.00  0.00     0.112 N 
HETATM   22  H1  UNL     1       0.583   1.823   2.953  1.00  0.00     0.316 HD
HETATM   23  H2  UNL     1       0.526   0.154   3.299  1.00  0.00     0.316 HD
ENDBRANCH   1  21
BRANCH   3  24
HETATM   24  O2  UNL     1      -1.183   3.085  -1.091  1.00  0.00    -0.246 OA
HETATM   25 BR1  UNL     1      -2.601   4.293  -0.794  1.00  0.00     0.108 Br
ENDBRANCH   3  24
TORSDOF 2
