REMARK  8 active torsions:
REMARK  status: ('A' for Active; 'I' for Inactive)
REMARK    1  A    between atoms: O1_2  and  C2_3 
REMARK    2  A    between atoms: C2_3  and  O2_20 
REMARK    3  A    between atoms: C3_4  and  C4_5 
REMARK    4  A    between atoms: C6_9  and  N3_10 
REMARK    5  A    between atoms: O2_20  and  C15_21 
REMARK    6  A    between atoms: C15_21  and  C16_22 
REMARK    7  A    between atoms: C16_22  and  N4_23 
REMARK    8  A    between atoms: N4_23  and  C17_24 
ROOT
HETATM    1  C4  UNL     1       1.983  -1.538  -0.622  1.00  0.00     0.072 A 
HETATM    2  N1  UNL     1       2.656  -1.998  -1.718  1.00  0.00    -0.241 NA
HETATM    3  C5  UNL     1       3.796  -1.440  -2.114  1.00  0.00     0.235 A 
HETATM    4  N2  UNL     1       4.275  -0.417  -1.417  1.00  0.00    -0.224 NA
HETATM    5  C6  UNL     1       3.674   0.087  -0.336  1.00  0.00     0.135 A 
HETATM    6  C13 UNL     1       2.494  -0.476   0.087  1.00  0.00     0.013 A 
HETATM    7  C14 UNL     1       1.899   0.137   1.282  1.00  0.00     0.055 C 
ENDROOT
BRANCH   1   8
HETATM    8  C3  UNL     1       0.753  -2.164  -0.175  1.00  0.00     0.096 C 
HETATM    9  C2  UNL     1      -0.473  -1.988   0.246  1.00  0.00     0.182 C 
BRANCH   9  10
HETATM   10  O1  UNL     1      -1.390  -2.995   0.598  1.00  0.00    -0.336 OA
HETATM   11  C1  UNL     1      -1.423  -4.133  -0.243  1.00  0.00     0.212 C 
ENDBRANCH   9  10
BRANCH   9  12
HETATM   12  O2  UNL     1      -1.532  -1.197   0.587  1.00  0.00    -0.329 OA
BRANCH  12  13
HETATM   13  C15 UNL     1      -2.460  -0.716  -0.396  1.00  0.00     0.207 C 
BRANCH  13  14
HETATM   14  C16 UNL     1      -3.688  -0.145   0.269  1.00  0.00     0.297 C 
BRANCH  14  15
HETATM   15  N4  UNL     1      -4.647   0.343  -0.691  1.00  0.00     0.094 N 
HETATM   16  H20 UNL     1      -4.940  -0.482  -1.282  1.00  0.00     0.316 HD
BRANCH  15  17
HETATM   17  C17 UNL     1      -5.836   0.870  -0.112  1.00  0.00     0.147 C 
HETATM   18  C18 UNL     1      -5.664   2.062   0.775  1.00  0.00     0.048 C 
HETATM   19  C19 UNL     1      -6.787   1.261  -1.228  1.00  0.00     0.048 C 
HETATM   20  C20 UNL     1      -6.598  -0.189   0.695  1.00  0.00     0.048 C 
ENDBRANCH  15  17
ENDBRANCH  14  15
ENDBRANCH  13  14
ENDBRANCH  12  13
ENDBRANCH   9  12
ENDBRANCH   1   8
BRANCH   5  21
HETATM   21  N3  UNL     1       4.423   1.176   0.213  1.00  0.00    -0.358 N 
HETATM   22  C7  UNL     1       4.890   1.038   1.586  1.00  0.00     0.152 C 
HETATM   23  C8  UNL     1       6.395   0.945   1.608  1.00  0.00    -0.004 C 
HETATM   24  C9  UNL     1       7.311   1.211   0.678  1.00  0.00     0.039 C 
HETATM   25  C10 UNL     1       7.134   1.692  -0.701  1.00  0.00     0.114 C 
HETATM   26  F1  UNL     1       8.303   1.566  -1.413  1.00  0.00    -0.206 F 
HETATM   27  C11 UNL     1       6.037   2.190  -1.255  1.00  0.00     0.035 C 
HETATM   28  C12 UNL     1       4.717   2.364  -0.550  1.00  0.00     0.155 C 
ENDBRANCH   5  21
TORSDOF 8
