REMARK  9 active torsions:
REMARK  status: ('A' for Active; 'I' for Inactive)
REMARK    1  A    between atoms: C2_2  and  C3_3 
REMARK    2  A    between atoms: C7_9  and  N3_10 
REMARK    3  A    between atoms: N3_10  and  C8_11 
REMARK    4  A    between atoms: C10_13  and  O1_14 
REMARK    5  A    between atoms: C15_20  and  O2_21 
REMARK    6  A    between atoms: O2_21  and  C16_22 
REMARK    7  A    between atoms: C16_22  and  C17_23 
REMARK    8  A    between atoms: C17_23  and  N4_24 
REMARK    9  A    between atoms: N4_24  and  C18_25 
ROOT
HETATM    1  C3  UNL     1      -0.478  -2.181  -2.717  1.00  0.00    -0.001 A 
HETATM    2  C4  UNL     1      -1.843  -2.396  -2.810  1.00  0.00     0.046 A 
HETATM    3  C5  UNL     1      -2.796  -1.673  -2.130  1.00  0.00     0.073 A 
HETATM    4  N1  UNL     1      -4.119  -1.897  -2.233  1.00  0.00    -0.241 NA
HETATM    5  C6  UNL     1      -5.025  -1.172  -1.556  1.00  0.00     0.235 A 
HETATM    6  N2  UNL     1      -4.594  -0.181  -0.741  1.00  0.00    -0.224 NA
HETATM    7  C7  UNL     1      -3.295   0.112  -0.579  1.00  0.00     0.138 A 
HETATM    8  C13 UNL     1      -2.407  -0.657  -1.291  1.00  0.00     0.041 A 
HETATM    9  C14 UNL     1      -1.049  -0.440  -1.195  1.00  0.00     0.055 A 
HETATM   10  C15 UNL     1      -0.055  -1.146  -1.862  1.00  0.00     0.080 A 
ENDROOT
BRANCH   7  11
HETATM   11  N3  UNL     1      -2.908   1.171   0.282  1.00  0.00    -0.363 N 
HETATM   12  H6  UNL     1      -1.981   1.523   0.522  1.00  0.00     0.162 HD
BRANCH  11  13
HETATM   13  C8  UNL     1      -3.998   1.872   0.931  1.00  0.00     0.134 A 
HETATM   14  C9  UNL     1      -3.543   2.997   1.790  1.00  0.00     0.040 A 
HETATM   15  C10 UNL     1      -3.915   2.822   3.053  1.00  0.00     0.085 A 
HETATM   16  C11 UNL     1      -4.657   1.549   3.134  1.00  0.00     0.065 A 
HETATM   17 CL1  UNL     1      -5.422   0.703   4.463  1.00  0.00    -0.082 Cl
HETATM   18  C12 UNL     1      -4.700   1.011   1.913  1.00  0.00     0.029 A 
BRANCH  15  19
HETATM   19  O1  UNL     1      -3.790   3.505   4.276  1.00  0.00    -0.359 OA
HETATM   20  H9  UNL     1      -4.591   3.829   4.791  1.00  0.00     0.217 HD
ENDBRANCH  15  19
ENDBRANCH  11  13
ENDBRANCH   7  11
BRANCH  10  21
HETATM   21  O2  UNL     1       1.273  -0.963  -1.795  1.00  0.00    -0.349 OA
BRANCH  21  22
HETATM   22  C16 UNL     1       2.111  -0.118  -1.106  1.00  0.00     0.195 C 
BRANCH  22  23
HETATM   23  C17 UNL     1       2.115  -0.247   0.393  1.00  0.00     0.141 C 
BRANCH  23  24
HETATM   24  N4  UNL     1       2.955   0.610   1.120  1.00  0.00    -0.412 N 
HETATM   25  H16 UNL     1       2.545   1.487   1.469  1.00  0.00     0.154 HD
BRANCH  24  26
HETATM   26  C18 UNL     1       4.345   0.512   1.096  1.00  0.00     0.014 C 
HETATM   27  C19 UNL     1       5.085   0.763  -0.166  1.00  0.00     0.037 C 
HETATM   28  C20 UNL     1       4.879   1.557   2.109  1.00  0.00     0.037 C 
HETATM   29  C21 UNL     1       4.861  -0.816   1.658  1.00  0.00     0.037 C 
ENDBRANCH  24  26
ENDBRANCH  23  24
ENDBRANCH  22  23
ENDBRANCH  21  22
ENDBRANCH  10  21
BRANCH   1  30
HETATM   30  C2  UNL     1       0.484  -2.964  -3.456  1.00  0.00     0.004 C 
HETATM   31  C1  UNL     1       0.204  -3.970  -4.302  1.00  0.00     0.012 C 
ENDBRANCH   1  30
TORSDOF 9
