REMARK  8 active torsions:
REMARK  status: ('A' for Active; 'I' for Inactive)
REMARK    1  A    between atoms: C2_2  and  C3_3 
REMARK    2  A    between atoms: C3_3  and  C4_4 
REMARK    3  A    between atoms: C4_4  and  C5_5 
REMARK    4  A    between atoms: C7_7  and  O1_8 
REMARK    5  A    between atoms: O1_8  and  C8_9 
REMARK    6  A    between atoms: C8_9  and  C9_10 
REMARK    7  A    between atoms: C11_12  and  C12_13 
REMARK    8  A    between atoms: C12_13  and  O3_15 
ROOT
HETATM    1  C5  UNL     1      -0.336  -1.826   0.975  1.00  0.00    -0.017 C 
HETATM    2  C6  UNL     1      -0.784  -1.001   2.085  1.00  0.00     0.107 C 
HETATM    3  C7  UNL     1      -0.625   0.447   1.764  1.00  0.00     0.068 C 
HETATM    4  C11 UNL     1       0.293   0.815   0.844  1.00  0.00     0.083 C 
HETATM    5  C14 UNL     1       0.980  -0.084  -0.021  1.00  0.00     0.034 A 
HETATM    6  C15 UNL     1       0.689  -1.447   0.032  1.00  0.00     0.095 A 
HETATM    7  O4  UNL     1       1.433  -2.076  -0.808  1.00  0.00    -0.304 OA
HETATM    8  C16 UNL     1       2.218  -1.202  -1.444  1.00  0.00     0.142 A 
HETATM    9  C17 UNL     1       1.949   0.065  -0.959  1.00  0.00     0.067 A 
HETATM   10  C18 UNL     1       2.642   1.226  -1.448  1.00  0.00     0.197 A 
HETATM   11  O5  UNL     1       2.516   2.402  -1.120  1.00  0.00    -0.286 OA
HETATM   12  C19 UNL     1       3.641   1.059  -2.485  1.00  0.00     0.029 A 
HETATM   13  C20 UNL     1       4.352   2.137  -3.042  1.00  0.00     0.016 A 
HETATM   14  C21 UNL     1       5.280   1.921  -4.035  1.00  0.00     0.001 A 
HETATM   15  C22 UNL     1       5.535   0.669  -4.500  1.00  0.00     0.001 A 
HETATM   16  C23 UNL     1       4.859  -0.395  -3.979  1.00  0.00     0.016 A 
HETATM   17  C24 UNL     1       3.923  -0.215  -2.986  1.00  0.00     0.031 A 
HETATM   18  C25 UNL     1       3.215  -1.387  -2.474  1.00  0.00     0.217 A 
HETATM   19  O6  UNL     1       3.505  -2.498  -2.953  1.00  0.00    -0.284 OA
ENDROOT
BRANCH   1  20
HETATM   20  C4  UNL     1      -0.994  -2.943   0.829  1.00  0.00     0.010 C 
BRANCH  20  21
HETATM   21  C3  UNL     1      -1.054  -4.124   0.000  1.00  0.00    -0.004 C 
BRANCH  21  22
HETATM   22  C2  UNL     1      -1.651  -5.259  -0.245  1.00  0.00    -0.031 C 
HETATM   23  C1  UNL     1      -2.811  -5.857   0.490  1.00  0.00     0.036 C 
ENDBRANCH  21  22
ENDBRANCH  20  21
ENDBRANCH   1  20
BRANCH   3  24
HETATM   24  O1  UNL     1      -1.461   1.330   2.466  1.00  0.00    -0.354 OA
BRANCH  24  25
HETATM   25  C8  UNL     1      -2.874   1.109   2.460  1.00  0.00     0.175 C 
BRANCH  25  26
HETATM   26  C9  UNL     1      -3.663   2.404   2.447  1.00  0.00     0.022 C 
HETATM   27  C10 UNL     1      -5.125   1.991   2.406  1.00  0.00     0.007 C 
ENDBRANCH  25  26
ENDBRANCH  24  25
ENDBRANCH   3  24
BRANCH   4  28
HETATM   28  C12 UNL     1       0.267   2.287   0.739  1.00  0.00     0.296 C 
HETATM   29  O2  UNL     1       0.543   3.449   0.383  1.00  0.00    -0.259 OA
BRANCH  28  30
HETATM   30  O3  UNL     1      -0.542   3.126   1.418  1.00  0.00    -0.322 OA
HETATM   31  C13 UNL     1      -0.687   4.494   1.432  1.00  0.00     0.213 C 
ENDBRANCH  28  30
ENDBRANCH   4  28
TORSDOF 8
