REMARK  1 active torsions:
REMARK  status: ('A' for Active; 'I' for Inactive)
REMARK    1  A    between atoms: O1_2  and  C2_3 
ROOT
HETATM    1  C2  UNL     1       4.391   0.360  -0.495  1.00  0.00     0.074 C 
HETATM    2  C3  UNL     1       4.418   1.756  -0.572  1.00  0.00     0.161 C 
HETATM    3  C4  UNL     1       3.402   2.708   0.062  1.00  0.00     0.165 C 
HETATM    4  N1  UNL     1       2.339   2.164   0.383  1.00  0.00    -0.415 NA
HETATM    5  C5  UNL     1       1.192   1.643   0.742  1.00  0.00     0.295 C 
HETATM    6  N2  UNL     1       0.236   2.152  -0.031  1.00  0.00    -0.240 NA
HETATM    7  C6  UNL     1      -1.063   1.585   0.386  1.00  0.00     0.125 C 
HETATM    8  C7  UNL     1      -1.267   2.042   1.832  1.00  0.00     0.065 C 
HETATM    9  C8  UNL     1      -1.442   0.252   0.048  1.00  0.00     0.085 C 
HETATM   10  C9  UNL     1      -1.214  -1.149   0.036  1.00  0.00     0.029 C 
HETATM   11  C10 UNL     1      -0.967  -1.878   1.280  1.00  0.00     0.038 C 
HETATM   12  C11 UNL     1      -2.736  -1.598  -0.396  1.00  0.00     0.064 C 
HETATM   13  C12 UNL     1      -3.736  -0.694   0.248  1.00  0.00    -0.081 C 
HETATM   14  C13 UNL     1      -4.831  -1.670  -0.222  1.00  0.00     0.043 C 
HETATM   15  C14 UNL     1      -4.667   0.037   0.838  1.00  0.00     0.004 C 
HETATM   16  C15 UNL     1      -4.405   1.490   0.794  1.00  0.00     0.017 C 
HETATM   17  C16 UNL     1      -3.308   1.992   0.247  1.00  0.00     0.085 C 
HETATM   18  N3  UNL     1      -2.085   2.378  -0.373  1.00  0.00    -0.372 N 
HETATM   19  N4  UNL     1      -0.503  -1.529  -1.147  1.00  0.00    -0.410 N 
HETATM   20  C17 UNL     1       0.755  -2.154  -1.150  1.00  0.00     0.141 C 
HETATM   21  C18 UNL     1       1.861  -1.309  -0.677  1.00  0.00     0.186 C 
HETATM   22  O2  UNL     1       3.176  -1.838  -0.661  1.00  0.00    -0.387 OA
HETATM   23  C19 UNL     1       3.844  -0.869   0.027  1.00  0.00     0.200 C 
HETATM   24  H23 UNL     1      -1.921   3.027  -1.155  1.00  0.00     0.161 HD
HETATM   25  H24 UNL     1      -1.101  -1.687  -1.966  1.00  0.00     0.154 HD
ENDROOT
BRANCH   1  26
HETATM   26  O1  UNL     1       5.540   0.629  -1.329  1.00  0.00    -0.387 OA
HETATM   27  C1  UNL     1       6.747   0.003  -1.007  1.00  0.00     0.202 C 
ENDBRANCH   1  26
TORSDOF 1
