REMARK  6 active torsions:
REMARK  status: ('A' for Active; 'I' for Inactive)
REMARK    1  A    between atoms: C2_2  and  C3_3 
REMARK    2  A    between atoms: C3_3  and  C5_5 
REMARK    3  A    between atoms: C6_7  and  C7_8 
REMARK    4  A    between atoms: C7_8  and  N1_9 
REMARK    5  A    between atoms: N1_9  and  C8_10 
REMARK    6  A    between atoms: C17_21  and  O2_22 
ROOT
HETATM    1  C8  UNL     1       0.937  -0.386   0.321  1.00  0.00     0.245 C 
HETATM    2  C9  UNL     1       1.008   0.653  -0.778  1.00  0.00     0.075 C 
HETATM    3  C10 UNL     1       0.831  -1.777  -0.270  1.00  0.00     0.095 C 
HETATM    4  C11 UNL     1      -0.539  -2.106  -0.869  1.00  0.00     0.022 C 
HETATM    5  C12 UNL     1      -0.854  -1.335  -2.080  1.00  0.00     0.037 C 
HETATM    6  C13 UNL     1      -0.375  -3.580  -1.339  1.00  0.00     0.037 C 
HETATM    7  N2  UNL     1      -1.421  -2.004   0.199  1.00  0.00    -0.411 N 
HETATM    8  C14 UNL     1      -2.783  -1.951   0.254  1.00  0.00     0.141 C 
HETATM    9  C15 UNL     1      -3.432  -0.675  -0.335  1.00  0.00     0.187 C 
HETATM   10  O1  UNL     1      -4.745  -0.615  -0.008  1.00  0.00    -0.383 OA
HETATM   11  C16 UNL     1      -5.351   0.547  -0.369  1.00  0.00     0.232 C 
HETATM   12  C17 UNL     1      -4.640   1.803  -0.063  1.00  0.00     0.070 C 
HETATM   13  C19 UNL     1      -3.663   2.551   0.376  1.00  0.00     0.047 C 
HETATM   14  C20 UNL     1      -2.354   2.594   0.966  1.00  0.00     0.212 C 
HETATM   15  N3  UNL     1      -1.170   2.306   1.467  1.00  0.00    -0.292 NA
HETATM   16  C21 UNL     1      -0.692   0.935   1.533  1.00  0.00     0.212 C 
HETATM   17  N4  UNL     1      -0.067  -0.134   1.311  1.00  0.00    -0.266 NA
HETATM   18  H21 UNL     1      -0.948  -2.304   1.115  1.00  0.00     0.154 HD
ENDROOT
BRANCH   1  19
HETATM   19  N1  UNL     1       2.225  -0.383   1.050  1.00  0.00     0.117 NA
HETATM   20  H9  UNL     1       2.032  -0.865   1.950  1.00  0.00     0.319 HD
BRANCH  19  21
HETATM   21  C7  UNL     1       3.342  -0.850   0.332  1.00  0.00     0.302 C 
BRANCH  21  22
HETATM   22  C6  UNL     1       3.727   0.070  -0.749  1.00  0.00     0.028 C 
HETATM   23  C5  UNL     1       4.950   0.618  -0.752  1.00  0.00     0.045 C 
HETATM   24 CL1  UNL     1       6.238   1.608  -1.353  1.00  0.00    -0.083 Cl
BRANCH  23  25
HETATM   25  C3  UNL     1       5.831   0.257   0.341  1.00  0.00     0.000 C 
HETATM   26  C4  UNL     1       6.858  -0.796   0.444  1.00  0.00     0.059 C 
BRANCH  25  27
HETATM   27  C2  UNL     1       5.835   0.886   1.513  1.00  0.00    -0.146 C 
HETATM   28  C1  UNL     1       5.549   1.668   2.530  1.00  0.00     0.097 C 
ENDBRANCH  25  27
ENDBRANCH  23  25
ENDBRANCH  21  22
ENDBRANCH  19  21
ENDBRANCH   1  19
BRANCH  12  29
HETATM   29  O2  UNL     1      -5.596   2.753  -0.527  1.00  0.00    -0.358 OA
HETATM   30  C18 UNL     1      -6.352   3.512   0.392  1.00  0.00     0.209 C 
ENDBRANCH  12  29
TORSDOF 6
