REMARK  9 active torsions:
REMARK  status: ('A' for Active; 'I' for Inactive)
REMARK    1  A    between atoms: C2_2  and  N1_5 
REMARK    2  A    between atoms: N1_5  and  C5_6 
REMARK    3  A    between atoms: C5_6  and  C6_7 
REMARK    4  A    between atoms: C6_7  and  O1_8 
REMARK    5  A    between atoms: O1_8  and  C7_9 
REMARK    6  A    between atoms: C12_16  and  O2_17 
REMARK    7  A    between atoms: O2_17  and  C13_18 
REMARK    8  A    between atoms: C13_18  and  N4_19 
REMARK    9  A    between atoms: N4_19  and  C14_20 
ROOT
HETATM    1  C7  UNL     1       0.191  -2.824  -0.207  1.00  0.00     0.102 C 
HETATM    2  C8  UNL     1      -0.087  -3.799  -1.063  1.00  0.00     0.034 C 
HETATM    3  C9  UNL     1       0.569  -4.927  -1.722  1.00  0.00     0.180 C 
HETATM    4  N2  UNL     1       1.645  -5.540  -1.031  1.00  0.00    -0.279 NA
HETATM    5  C10 UNL     1       2.648  -5.350  -0.248  1.00  0.00     0.227 C 
HETATM    6  N3  UNL     1       3.008  -4.051   0.261  1.00  0.00    -0.237 NA
HETATM    7  C11 UNL     1       2.437  -3.163   0.967  1.00  0.00     0.126 C 
HETATM    8  C12 UNL     1       1.430  -2.447   0.505  1.00  0.00     0.135 C 
ENDROOT
BRANCH   8   9
HETATM    9  O2  UNL     1       1.511  -1.085   0.703  1.00  0.00    -0.327 OA
BRANCH   9  10
HETATM   10  C13 UNL     1       1.599  -0.415   1.917  1.00  0.00     0.298 C 
BRANCH  10  11
HETATM   11  N4  UNL     1       1.670   1.031   1.763  1.00  0.00    -0.368 N 
HETATM   12  H21 UNL     1       0.986   1.717   2.152  1.00  0.00     0.161 HD
BRANCH  11  13
HETATM   13  C14 UNL     1       2.759   1.567   1.022  1.00  0.00     0.031 A 
HETATM   14  C15 UNL     1       2.929   2.922   0.811  1.00  0.00     0.032 A 
HETATM   15  C16 UNL     1       3.966   3.477   0.103  1.00  0.00     0.046 A 
HETATM   16  C17 UNL     1       4.922   2.628  -0.448  1.00  0.00     0.138 A 
HETATM   17  F1  UNL     1       5.981   3.091  -1.164  1.00  0.00    -0.204 F 
HETATM   18  C18 UNL     1       4.808   1.263  -0.273  1.00  0.00     0.074 A 
HETATM   19 CL1  UNL     1       6.010   0.166  -0.963  1.00  0.00    -0.081 Cl
HETATM   20  C19 UNL     1       3.738   0.783   0.452  1.00  0.00     0.056 A 
ENDBRANCH  11  13
ENDBRANCH  10  11
ENDBRANCH   9  10
ENDBRANCH   8   9
BRANCH   1  21
HETATM   21  O1  UNL     1      -0.841  -1.967   0.115  1.00  0.00    -0.347 OA
BRANCH  21  22
HETATM   22  C6  UNL     1      -1.125  -0.778  -0.565  1.00  0.00     0.205 C 
BRANCH  22  23
HETATM   23  C5  UNL     1      -2.335  -0.068   0.049  1.00  0.00     0.297 C 
BRANCH  23  24
HETATM   24  N1  UNL     1      -2.552   1.140  -0.711  1.00  0.00     0.094 N 
HETATM   25  H10 UNL     1      -1.702   1.661  -0.925  1.00  0.00     0.316 HD
BRANCH  24  26
HETATM   26  C2  UNL     1      -3.659   1.934  -0.266  1.00  0.00     0.147 C 
HETATM   27  C1  UNL     1      -4.971   1.228  -0.318  1.00  0.00     0.048 C 
HETATM   28  C3  UNL     1      -3.735   3.162  -1.145  1.00  0.00     0.048 C 
HETATM   29  C4  UNL     1      -3.459   2.431   1.162  1.00  0.00     0.048 C 
ENDBRANCH  24  26
ENDBRANCH  23  24
ENDBRANCH  22  23
ENDBRANCH  21  22
ENDBRANCH   1  21
TORSDOF 9
