REMARK  8 active torsions:
REMARK  status: ('A' for Active; 'I' for Inactive)
REMARK    1  A    between atoms: O1_2  and  C2_3 
REMARK    2  A    between atoms: C6_9  and  N3_10 
REMARK    3  A    between atoms: N3_10  and  C7_11 
REMARK    4  A    between atoms: C15_21  and  O2_22 
REMARK    5  A    between atoms: O2_22  and  C16_23 
REMARK    6  A    between atoms: C16_23  and  C17_24 
REMARK    7  A    between atoms: C17_24  and  N4_25 
REMARK    8  A    between atoms: N4_25  and  C18_26 
ROOT
HETATM    1  C2  UNL     1       0.148  -1.439   0.854  1.00  0.00     0.102 C 
HETATM    2  C3  UNL     1       0.559  -2.611   0.328  1.00  0.00     0.059 C 
HETATM    3  C4  UNL     1       0.307  -2.664  -1.033  1.00  0.00     0.121 C 
HETATM    4  N1  UNL     1       0.738  -1.697  -1.856  1.00  0.00    -0.254 NA
HETATM    5  C5  UNL     1       1.841  -0.969  -1.690  1.00  0.00     0.234 C 
HETATM    6  N2  UNL     1       2.622  -0.771  -0.620  1.00  0.00    -0.225 NA
HETATM    7  C6  UNL     1       2.918   0.444  -0.170  1.00  0.00     0.129 C 
HETATM    8  C13 UNL     1       1.716   1.023   0.135  1.00  0.00     0.053 C 
HETATM    9  C14 UNL     1       0.424   0.820  -0.261  1.00  0.00     0.043 C 
HETATM   10  C15 UNL     1      -0.214  -0.282   0.245  1.00  0.00     0.102 C 
ENDROOT
BRANCH   7  11
HETATM   11  N3  UNL     1       4.094   1.199   0.038  1.00  0.00    -0.341 N 
HETATM   12  H7  UNL     1       4.021   2.143   0.435  1.00  0.00     0.167 HD
BRANCH  11  13
HETATM   13  C7  UNL     1       5.396   0.727  -0.271  1.00  0.00     0.035 A 
HETATM   14  C8  UNL     1       6.524   1.489   0.044  1.00  0.00     0.032 A 
HETATM   15  C9  UNL     1       7.808   1.084  -0.237  1.00  0.00     0.046 A 
HETATM   16  C10 UNL     1       8.034  -0.121  -0.856  1.00  0.00     0.138 A 
HETATM   17  F1  UNL     1       9.309  -0.487  -1.117  1.00  0.00    -0.204 F 
HETATM   18  C11 UNL     1       6.951  -0.908  -1.187  1.00  0.00     0.074 A 
HETATM   19 CL1  UNL     1       7.280  -2.419  -1.970  1.00  0.00    -0.081 Cl
HETATM   20  C12 UNL     1       5.682  -0.469  -0.891  1.00  0.00     0.056 A 
ENDBRANCH  11  13
ENDBRANCH   7  11
BRANCH  10  21
HETATM   21  O2  UNL     1      -1.538  -0.670   0.340  1.00  0.00    -0.347 OA
BRANCH  21  22
HETATM   22  C16 UNL     1      -2.487   0.270  -0.205  1.00  0.00     0.195 C 
BRANCH  22  23
HETATM   23  C17 UNL     1      -3.830  -0.364   0.014  1.00  0.00     0.141 C 
BRANCH  23  24
HETATM   24  N4  UNL     1      -4.962   0.340  -0.431  1.00  0.00    -0.412 N 
HETATM   25  H17 UNL     1      -5.718  -0.278  -0.732  1.00  0.00     0.154 HD
BRANCH  24  26
HETATM   26  C18 UNL     1      -5.363   1.535   0.186  1.00  0.00     0.014 C 
HETATM   27  C19 UNL     1      -6.675   1.960  -0.511  1.00  0.00     0.037 C 
HETATM   28  C20 UNL     1      -5.662   1.477   1.648  1.00  0.00     0.037 C 
HETATM   29  C21 UNL     1      -4.428   2.725  -0.040  1.00  0.00     0.037 C 
ENDBRANCH  24  26
ENDBRANCH  23  24
ENDBRANCH  22  23
ENDBRANCH  21  22
ENDBRANCH  10  21
BRANCH   1  30
HETATM   30  O1  UNL     1       0.267  -1.946   2.129  1.00  0.00    -0.353 OA
HETATM   31  C1  UNL     1       0.695  -3.262   2.373  1.00  0.00     0.210 C 
ENDBRANCH   1  30
TORSDOF 8
