REMARK  6 active torsions:
REMARK  status: ('A' for Active; 'I' for Inactive)
REMARK    1  A    between atoms: C2_2  and  N1_3 
REMARK    2  A    between atoms: N1_3  and  C4_5 
REMARK    3  A    between atoms: C4_5  and  C5_6 
REMARK    4  A    between atoms: C9_10  and  N2_11 
REMARK    5  A    between atoms: N2_11  and  C10_12 
REMARK    6  A    between atoms: C11_13  and  C12_14 
ROOT
HETATM    1  C5  UNL     1      -1.559  -0.540   0.761  1.00  0.00     0.070 C 
HETATM    2  C6  UNL     1      -0.213  -0.279   0.889  1.00  0.00    -0.019 C 
HETATM    3  C7  UNL     1       0.708  -0.953   0.124  1.00  0.00     0.052 C 
HETATM    4  C8  UNL     1       0.449   0.703   1.797  1.00  0.00     0.020 C 
HETATM    5  C9  UNL     1       1.426   1.225   1.072  1.00  0.00     0.137 C 
HETATM    6  N3  UNL     1       2.151   2.232   1.757  1.00  0.00    -0.224 NA
HETATM    7  C14 UNL     1       2.017   3.463   1.304  1.00  0.00     0.234 C 
HETATM    8  N4  UNL     1       1.149   3.452   0.204  1.00  0.00    -0.254 NA
HETATM    9  C15 UNL     1      -0.031   3.025   0.119  1.00  0.00     0.120 C 
HETATM   10  C16 UNL     1      -1.281   2.447   0.474  1.00  0.00     0.053 C 
HETATM   11  C17 UNL     1      -1.669   2.059   1.656  1.00  0.00     0.072 C 
HETATM   12  C18 UNL     1      -3.009   1.536   1.348  1.00  0.00     0.239 C 
HETATM   13  O1  UNL     1      -2.813   0.106   1.009  1.00  0.00    -0.347 OA
HETATM   14  O2  UNL     1      -0.953   2.132   2.895  1.00  0.00    -0.348 OA
HETATM   15  C19 UNL     1       0.183   1.209   3.180  1.00  0.00     0.218 C 
ENDROOT
BRANCH   5  16
HETATM   16  N2  UNL     1       1.595   0.769  -0.266  1.00  0.00    -0.350 N 
HETATM   17  H14 UNL     1       1.799   0.442  -1.240  1.00  0.00     0.166 HD
BRANCH  16  18
HETATM   18  C10 UNL     1       3.059   0.779  -0.410  1.00  0.00     0.090 C 
HETATM   19  C11 UNL     1       4.241   0.171  -0.625  1.00  0.00     0.022 C 
BRANCH  19  20
HETATM   20  C12 UNL     1       5.659   0.230  -0.755  1.00  0.00     0.075 C 
HETATM   21  C13 UNL     1       6.149  -0.957  -0.996  1.00  0.00     0.267 C 
HETATM   22  F1  UNL     1       7.481  -0.962  -1.129  1.00  0.00    -0.173 F 
HETATM   23  F2  UNL     1       6.572  -2.190  -1.238  1.00  0.00    -0.173 F 
ENDBRANCH  19  20
ENDBRANCH  16  18
ENDBRANCH   5  16
BRANCH   1  24
HETATM   24  C4  UNL     1      -1.789  -1.885   0.201  1.00  0.00     0.181 C 
BRANCH  24  25
HETATM   25  N1  UNL     1      -2.520  -1.848  -1.023  1.00  0.00    -0.411 N 
HETATM   26  C3  UNL     1      -2.625  -0.611  -1.627  1.00  0.00     0.143 C 
BRANCH  25  27
HETATM   27  C2  UNL     1      -2.752  -3.055  -1.669  1.00  0.00     0.112 C 
HETATM   28  C1  UNL     1      -4.183  -3.321  -2.072  1.00  0.00     0.026 C 
ENDBRANCH  25  27
ENDBRANCH  24  25
ENDBRANCH   1  24
TORSDOF 6
