REMARK  6 active torsions:
REMARK  status: ('A' for Active; 'I' for Inactive)
REMARK    1  A    between atoms: C3_3  and  C4_4 
REMARK    2  A    between atoms: C4_4  and  C5_5 
REMARK    3  A    between atoms: C6_6  and  C8_9 
REMARK    4  A    between atoms: C8_9  and  C9_11 
REMARK    5  A    between atoms: C13_17  and  O1_18 
REMARK    6  A    between atoms: C14_19  and  O2_20 
ROOT
HETATM    1  C5  UNL     1       0.968   0.473   0.870  1.00  0.00     0.002 C 
HETATM    2  C6  UNL     1       2.021   0.224   0.106  1.00  0.00     0.067 C 
HETATM    3  C7  UNL     1       1.991   0.811  -1.204  1.00  0.00     0.101 C 
HETATM    4  N1  UNL     1       1.980   1.300  -2.259  1.00  0.00    -0.191 NA
ENDROOT
BRANCH   2   5
HETATM    5  C8  UNL     1       3.153  -0.588   0.536  1.00  0.00     0.077 C 
HETATM    6  N2  UNL     1       3.207  -1.128   1.706  1.00  0.00    -0.301 NA
HETATM    7  H7  UNL     1       2.396  -0.956   2.339  1.00  0.00     0.186 HD
BRANCH   5   8
HETATM    8  C9  UNL     1       4.280  -0.799  -0.409  1.00  0.00     0.251 C 
HETATM    9  C10 UNL     1       3.726  -1.464  -1.598  1.00  0.00     0.085 C 
HETATM   10  N3  UNL     1       3.274  -1.977  -2.529  1.00  0.00    -0.195 NA
HETATM   11  C11 UNL     1       4.919   0.474  -0.770  1.00  0.00     0.085 C 
HETATM   12  N4  UNL     1       5.428   1.489  -1.075  1.00  0.00    -0.195 NA
ENDBRANCH   5   8
ENDBRANCH   2   5
BRANCH   1  13
HETATM   13  C4  UNL     1      -0.142   1.295   0.390  1.00  0.00     0.066 C 
BRANCH  13  14
HETATM   14  C3  UNL     1      -1.438   0.575   0.376  1.00  0.00    -0.041 A 
HETATM   15  C2  UNL     1      -2.502   0.932   1.048  1.00  0.00     0.055 A 
HETATM   16  C1  UNL     1      -2.426   2.157   1.902  1.00  0.00     0.077 C 
HETATM   17  O3  UNL     1      -3.660   0.177   0.955  1.00  0.00    -0.291 OA
HETATM   18  C14 UNL     1      -3.651  -0.948   0.141  1.00  0.00     0.213 A 
HETATM   19  C13 UNL     1      -2.616  -1.357  -0.558  1.00  0.00     0.105 A 
HETATM   20  C12 UNL     1      -1.365  -0.596  -0.497  1.00  0.00     0.106 A 
BRANCH  18  21
HETATM   21  O2  UNL     1      -4.839  -1.675   0.079  1.00  0.00    -0.339 OA
HETATM   22  H12 UNL     1      -5.645  -1.196  -0.352  1.00  0.00     0.220 HD
ENDBRANCH  18  21
BRANCH  19  23
HETATM   23  O1  UNL     1      -2.622  -2.484  -1.368  1.00  0.00    -0.360 OA
HETATM   24  H11 UNL     1      -3.314  -3.216  -1.341  1.00  0.00     0.217 HD
ENDBRANCH  19  23
ENDBRANCH  13  14
ENDBRANCH   1  13
TORSDOF 6
