REMARK  10 active torsions:
REMARK  status: ('A' for Active; 'I' for Inactive)
REMARK    1  A    between atoms: C2_2  and  N1_3 
REMARK    2  A    between atoms: N1_3  and  C3_4 
REMARK    3  A    between atoms: N1_3  and  C5_6 
REMARK    4  A    between atoms: C5_6  and  C6_7 
REMARK    5  A    between atoms: C6_7  and  C7_8 
REMARK    6  A    between atoms: C7_8  and  O1_9 
REMARK    7  A    between atoms: O1_9  and  C8_10 
REMARK    8  A    between atoms: C11_13  and  N2_14 
REMARK    9  A    between atoms: N2_14  and  C12_15 
REMARK   10  A    between atoms: C20_26  and  O2_27 
ROOT
HETATM    1  C8  UNL     1       0.341   1.374  -1.080  1.00  0.00     0.103 C 
HETATM    2  C9  UNL     1       1.326   0.441  -1.423  1.00  0.00     0.051 C 
HETATM    3  C10 UNL     1       2.447   0.544  -0.486  1.00  0.00    -0.005 C 
HETATM    4  C11 UNL     1       3.011  -0.227   0.441  1.00  0.00     0.134 C 
HETATM    5  N3  UNL     1       2.920   0.265   1.839  1.00  0.00    -0.242 NA
HETATM    6  C18 UNL     1       2.234   1.440   1.922  1.00  0.00     0.129 C 
HETATM    7  C19 UNL     1       1.775   2.006   0.658  1.00  0.00    -0.000 C 
HETATM    8  C20 UNL     1       0.609   2.267   0.130  1.00  0.00     0.109 C 
HETATM    9  C22 UNL     1       2.960   2.047  -0.370  1.00  0.00     0.085 C 
ENDROOT
BRANCH   4  10
HETATM   10  N2  UNL     1       3.392  -1.355  -0.393  1.00  0.00    -0.341 N 
HETATM   11  H18 UNL     1       2.739  -1.896  -0.963  1.00  0.00     0.167 HD
BRANCH  10  12
HETATM   12  C12 UNL     1       4.794  -1.635  -0.303  1.00  0.00     0.035 A 
HETATM   13  C13 UNL     1       5.702  -0.765  -0.817  1.00  0.00     0.032 A 
HETATM   14  C14 UNL     1       7.046  -1.118  -0.679  1.00  0.00     0.046 A 
HETATM   15  C15 UNL     1       7.433  -2.286  -0.056  1.00  0.00     0.138 A 
HETATM   16  F1  UNL     1       8.767  -2.589   0.051  1.00  0.00    -0.204 F 
HETATM   17  C16 UNL     1       6.443  -3.110   0.436  1.00  0.00     0.074 A 
HETATM   18 CL1  UNL     1       6.972  -4.579   1.224  1.00  0.00    -0.081 Cl
HETATM   19  C17 UNL     1       5.081  -2.818   0.333  1.00  0.00     0.056 A 
ENDBRANCH  10  12
ENDBRANCH   4  10
BRANCH   1  20
HETATM   20  O1  UNL     1      -0.761   1.435  -1.809  1.00  0.00    -0.348 OA
BRANCH  20  21
HETATM   21  C7  UNL     1      -2.103   1.265  -1.278  1.00  0.00     0.177 C 
BRANCH  21  22
HETATM   22  C6  UNL     1      -1.994   0.274  -0.195  1.00  0.00     0.046 C 
BRANCH  22  23
HETATM   23  C5  UNL     1      -3.114  -0.120   0.656  1.00  0.00     0.119 C 
BRANCH  23  24
HETATM   24  N1  UNL     1      -4.286  -0.693   0.229  1.00  0.00    -0.413 N 
BRANCH  24  25
HETATM   25  C2  UNL     1      -5.055  -1.382   1.248  1.00  0.00     0.112 C 
HETATM   26  C1  UNL     1      -6.091  -0.504   1.869  1.00  0.00     0.026 C 
ENDBRANCH  24  25
BRANCH  24  27
HETATM   27  C3  UNL     1      -4.986  -0.379  -0.922  1.00  0.00     0.112 C 
HETATM   28  C4  UNL     1      -5.257  -1.684  -1.692  1.00  0.00     0.026 C 
ENDBRANCH  24  27
ENDBRANCH  23  24
ENDBRANCH  22  23
ENDBRANCH  21  22
ENDBRANCH  20  21
ENDBRANCH   1  20
BRANCH   8  29
HETATM   29  O2  UNL     1      -0.135   3.185   0.674  1.00  0.00    -0.352 OA
HETATM   30  C21 UNL     1      -0.157   3.772   1.912  1.00  0.00     0.210 C 
ENDBRANCH   8  29
TORSDOF 10
