REMARK  5 active torsions:
REMARK  status: ('A' for Active; 'I' for Inactive)
REMARK    1  A    between atoms: C2_2  and  C3_3 
REMARK    2  A    between atoms: C6_6  and  N1_7 
REMARK    3  A    between atoms: C12_14  and  C13_15 
REMARK    4  A    between atoms: C14_16  and  C15_18 
REMARK    5  A    between atoms: C17_21  and  O1_22 
ROOT
HETATM    1  C3  UNL     1      -3.017  -0.759  -0.011  1.00  0.00    -0.009 C 
HETATM    2  C4  UNL     1      -2.124  -1.936   0.351  1.00  0.00     0.033 C 
HETATM    3  C5  UNL     1      -0.811  -1.374   0.711  1.00  0.00    -0.001 C 
HETATM    4  C6  UNL     1       0.459  -1.117   0.715  1.00  0.00     0.011 C 
HETATM    5  C8  UNL     1       1.442  -0.284   1.429  1.00  0.00     0.092 C 
HETATM    6  C9  UNL     1       0.883   1.011   1.968  1.00  0.00     0.076 C 
HETATM    7  C10 UNL     1       1.175   1.967   0.867  1.00  0.00     0.040 C 
HETATM    8  N2  UNL     1       2.095   1.524   0.100  1.00  0.00    -0.257 NA
HETATM    9  C11 UNL     1       2.487   0.210   0.475  1.00  0.00     0.045 C 
HETATM   10  C12 UNL     1       3.567  -0.453   0.063  1.00  0.00     0.030 C 
HETATM   11  C16 UNL     1       0.602   3.274   0.540  1.00  0.00     0.084 C 
HETATM   12  C17 UNL     1      -0.308   3.875  -0.180  1.00  0.00     0.163 C 
HETATM   13  N3  UNL     1      -1.145   3.090  -1.025  1.00  0.00    -0.245 N 
HETATM   14  O2  UNL     1      -1.974   2.334  -1.821  1.00  0.00    -0.278 OA
HETATM   15  C19 UNL     1      -2.767   1.516  -0.990  1.00  0.00     0.202 C 
HETATM   16  C20 UNL     1      -2.226   0.129  -0.931  1.00  0.00     0.033 C 
HETATM   17  H25 UNL     1      -0.469   2.980  -1.812  1.00  0.00     0.196 HD
ENDROOT
BRANCH  10  18
HETATM   18  C13 UNL     1       3.789  -1.799   0.570  1.00  0.00     0.041 C 
HETATM   19  C14 UNL     1       4.819  -2.557   0.237  1.00  0.00     0.107 C 
HETATM   20  F1  UNL     1       5.044  -3.816   0.700  1.00  0.00    -0.210 F 
BRANCH  19  21
HETATM   21  C15 UNL     1       5.934  -2.226  -0.685  1.00  0.00     0.184 C 
HETATM   22 CL1  UNL     1       7.467  -2.312   0.216  1.00  0.00    -0.123 Cl
ENDBRANCH  19  21
ENDBRANCH  10  18
BRANCH   4  23
HETATM   23  N1  UNL     1       0.560  -2.013  -0.375  1.00  0.00    -0.397 N 
HETATM   24  C7  UNL     1       0.846  -3.429  -0.164  1.00  0.00     0.146 C 
HETATM   25  H10 UNL     1       0.484  -1.952  -1.427  1.00  0.00     0.158 HD
ENDBRANCH   4  23
BRANCH  12  26
HETATM   26  O1  UNL     1      -0.606   5.223  -0.259  1.00  0.00    -0.340 OA
HETATM   27  C18 UNL     1      -0.352   6.170   0.735  1.00  0.00     0.211 C 
ENDBRANCH  12  26
BRANCH   1  28
HETATM   28  C2  UNL     1      -4.387  -1.064  -0.441  1.00  0.00     0.000 C 
HETATM   29  C1  UNL     1      -4.470  -1.936  -1.676  1.00  0.00     0.005 C 
ENDBRANCH   1  28
TORSDOF 5
