REMARK  12 active torsions:
REMARK  status: ('A' for Active; 'I' for Inactive)
REMARK    1  A    between atoms: C2_2  and  C3_3 
REMARK    2  A    between atoms: C3_3  and  N1_4 
REMARK    3  A    between atoms: N1_4  and  C5_6 
REMARK    4  A    between atoms: C5_6  and  C6_7 
REMARK    5  A    between atoms: C6_7  and  O1_8 
REMARK    6  A    between atoms: O1_8  and  C7_9 
REMARK    7  A    between atoms: C10_12  and  N2_13 
REMARK    8  A    between atoms: C10_12  and  N4_16 
REMARK    9  A    between atoms: N2_13  and  C11_14 
REMARK   10  A    between atoms: C11_14  and  N3_15 
REMARK   11  A    between atoms: N4_16  and  C12_17 
REMARK   12  A    between atoms: C20_27  and  O2_28 
ROOT
HETATM    1  C7  UNL     1       0.635  -0.482  -0.873  1.00  0.00     0.075 C 
HETATM    2  C8  UNL     1      -0.419  -0.149  -0.106  1.00  0.00     0.046 C 
HETATM    3  C9  UNL     1      -1.834  -0.323  -0.462  1.00  0.00    -0.009 C 
HETATM    4  C10 UNL     1      -2.928  -0.129   0.226  1.00  0.00     0.145 C 
HETATM    5  C18 UNL     1      -2.030  -0.793  -1.881  1.00  0.00     0.045 C 
HETATM    6  C19 UNL     1      -0.969  -1.865  -2.078  1.00  0.00     0.043 C 
HETATM    7  C20 UNL     1       0.350  -1.078  -2.198  1.00  0.00     0.177 C 
ENDROOT
BRANCH   4   8
HETATM    8  N2  UNL     1      -4.172  -0.414  -0.459  1.00  0.00    -0.169 NA
BRANCH   8   9
HETATM    9  C11 UNL     1      -4.625  -1.608  -0.268  1.00  0.00     0.095 C 
BRANCH   9  10
HETATM   10  N3  UNL     1      -4.973  -2.821  -0.447  1.00  0.00    -0.241 NA
HETATM   11  H16 UNL     1      -4.479  -3.432  -1.130  1.00  0.00     0.199 HD
ENDBRANCH   9  10
ENDBRANCH   8   9
ENDBRANCH   4   8
BRANCH   4  12
HETATM   12  N4  UNL     1      -3.228   0.337   1.565  1.00  0.00    -0.340 N 
HETATM   13  H17 UNL     1      -2.528   0.103   2.330  1.00  0.00     0.167 HD
BRANCH  12  14
HETATM   14  C12 UNL     1      -4.468   1.085   1.722  1.00  0.00     0.035 A 
HETATM   15  C13 UNL     1      -4.621   2.406   1.367  1.00  0.00     0.032 A 
HETATM   16  C14 UNL     1      -5.838   3.019   1.532  1.00  0.00     0.046 A 
HETATM   17  C15 UNL     1      -6.869   2.258   2.056  1.00  0.00     0.138 A 
HETATM   18  F1  UNL     1      -8.066   2.875   2.212  1.00  0.00    -0.204 F 
HETATM   19  C16 UNL     1      -6.762   0.931   2.425  1.00  0.00     0.074 A 
HETATM   20 CL1  UNL     1      -8.168   0.114   3.070  1.00  0.00    -0.081 Cl
HETATM   21  C17 UNL     1      -5.505   0.335   2.245  1.00  0.00     0.056 A 
ENDBRANCH  12  14
ENDBRANCH   4  12
BRANCH   1  22
HETATM   22  O1  UNL     1       1.960  -0.254  -0.391  1.00  0.00    -0.351 OA
BRANCH  22  23
HETATM   23  C6  UNL     1       2.691  -1.332   0.083  1.00  0.00     0.195 C 
BRANCH  23  24
HETATM   24  C5  UNL     1       4.118  -1.181   0.386  1.00  0.00     0.143 C 
BRANCH  24  25
HETATM   25  N1  UNL     1       4.579  -0.270   1.342  1.00  0.00    -0.415 N 
HETATM   26  C4  UNL     1       4.089  -0.580   2.692  1.00  0.00     0.143 C 
BRANCH  25  27
HETATM   27  C3  UNL     1       4.574   1.123   1.086  1.00  0.00     0.116 C 
BRANCH  27  28
HETATM   28  C2  UNL     1       5.185   1.384  -0.290  1.00  0.00     0.015 C 
HETATM   29  C1  UNL     1       5.223   2.869  -0.523  1.00  0.00     0.006 C 
ENDBRANCH  27  28
ENDBRANCH  25  27
ENDBRANCH  24  25
ENDBRANCH  23  24
ENDBRANCH  22  23
ENDBRANCH   1  22
BRANCH   7  30
HETATM   30  O2  UNL     1       1.374  -1.905  -2.562  1.00  0.00    -0.384 OA
HETATM   31  C21 UNL     1       2.006  -1.592  -3.738  1.00  0.00     0.202 C 
ENDBRANCH   7  30
TORSDOF 12
