REMARK  9 active torsions:
REMARK  status: ('A' for Active; 'I' for Inactive)
REMARK    1  A    between atoms: B1_1  and  C1_2 
REMARK    2  A    between atoms: C2_4  and  C3_5 
REMARK    3  A    between atoms: C3_5  and  N1_6 
REMARK    4  A    between atoms: N1_6  and  C4_7 
REMARK    5  A    between atoms: C8_13  and  O1_14 
REMARK    6  A    between atoms: C10_16  and  O2_17 
REMARK    7  A    between atoms: O2_17  and  C11_18 
REMARK    8  A    between atoms: C11_18  and  C12_19 
REMARK    9  A    between atoms: C12_19  and  N4_20 
ROOT
HETATM    1  C4  UNL     1       3.617  -0.767  -0.130  1.00  0.00     0.137 A 
HETATM    2  N2  UNL     1       4.709  -1.454  -0.506  1.00  0.00    -0.224 NA
HETATM    3  C5  UNL     1       4.710  -2.760  -0.749  1.00  0.00     0.235 A 
HETATM    4  N3  UNL     1       3.590  -3.492  -0.630  1.00  0.00    -0.241 NA
HETATM    5  C6  UNL     1       2.463  -2.853  -0.256  1.00  0.00     0.075 A 
HETATM    6  C7  UNL     1       1.287  -3.590  -0.125  1.00  0.00     0.072 A 
HETATM    7  C8  UNL     1       0.114  -2.964   0.258  1.00  0.00     0.103 A 
HETATM    8  C10 UNL     1       0.136  -1.604   0.505  1.00  0.00     0.103 A 
HETATM    9  C18 UNL     1       1.310  -0.888   0.371  1.00  0.00     0.057 A 
HETATM   10  C19 UNL     1       2.465  -1.502  -0.005  1.00  0.00     0.041 A 
ENDROOT
BRANCH   1  11
HETATM   11  N1  UNL     1       3.706   0.630   0.109  1.00  0.00    -0.371 N 
HETATM   12  H6  UNL     1       2.946   1.267   0.400  1.00  0.00     0.161 HD
BRANCH  11  13
HETATM   13  C3  UNL     1       4.988   1.302  -0.057  1.00  0.00     0.149 C 
BRANCH  13  14
HETATM   14  C2  UNL     1       4.959   2.739   0.216  1.00  0.00    -0.002 C 
HETATM   15  C1  UNL     1       5.258   3.714  -0.619  1.00  0.00    -0.044 C 
HETATM   16 CL1  UNL     1       5.146   5.369  -0.050  1.00  0.00    -0.103 Cl
BRANCH  15  17
HETATM   17  B1  UNL     1       5.695   3.333  -2.068  1.00  0.00     0.189 B 
HETATM   18  H1  UNL     1       6.424   2.414  -2.305  1.00  0.00    -0.025 HD
HETATM   19  H2  UNL     1       5.500   4.068  -2.972  1.00  0.00    -0.025 HD
ENDBRANCH  15  17
ENDBRANCH  13  14
ENDBRANCH  11  13
ENDBRANCH   1  11
BRANCH   8  20
HETATM   20  O2  UNL     1      -1.052  -1.048   0.878  1.00  0.00    -0.347 OA
BRANCH  20  21
HETATM   21  C11 UNL     1      -1.366   0.260   1.192  1.00  0.00     0.206 C 
BRANCH  21  22
HETATM   22  C12 UNL     1      -2.796   0.500   1.562  1.00  0.00     0.299 C 
BRANCH  22  23
HETATM   23  N4  UNL     1      -3.753   0.177   0.572  1.00  0.00     0.090 N 
HETATM   24  C13 UNL     1      -5.088   0.436   1.008  1.00  0.00     0.272 C 
HETATM   25  C14 UNL     1      -5.877   1.382   0.165  1.00  0.00     0.030 C 
HETATM   26  C15 UNL     1      -5.058   2.603  -0.191  1.00  0.00     0.003 C 
HETATM   27  C16 UNL     1      -3.872   2.120  -0.958  1.00  0.00     0.030 C 
HETATM   28  C17 UNL     1      -3.541   0.676  -0.741  1.00  0.00     0.272 C 
ENDBRANCH  22  23
ENDBRANCH  21  22
ENDBRANCH  20  21
ENDBRANCH   8  20
BRANCH   7  29
HETATM   29  O1  UNL     1      -1.059  -3.710   0.385  1.00  0.00    -0.353 OA
HETATM   30  C9  UNL     1      -0.970  -5.094   0.108  1.00  0.00     0.210 C 
ENDBRANCH   7  29
TORSDOF 9
