REMARK  2 active torsions:
REMARK  status: ('A' for Active; 'I' for Inactive)
REMARK    1  A    between atoms: C4_5  and  N1_6 
REMARK    2  A    between atoms: N1_6  and  C5_7 
ROOT
HETATM    1  C5  UNL     1      -2.201  -1.100  -0.024  1.00  0.00     0.137 A 
HETATM    2  N2  UNL     1      -2.880  -2.139  -0.495  1.00  0.00    -0.224 NA
HETATM    3  C6  UNL     1      -2.290  -3.305  -0.773  1.00  0.00     0.235 A 
HETATM    4  N3  UNL     1      -0.953  -3.454  -0.573  1.00  0.00    -0.245 NA
HETATM    5  C7  UNL     1      -0.242  -2.411  -0.093  1.00  0.00     0.051 A 
HETATM    6  C8  UNL     1      -0.858  -1.142   0.213  1.00  0.00     0.013 A 
HETATM    7  C9  UNL     1       0.116  -0.137   0.724  1.00  0.00     0.044 C 
HETATM    8  C10 UNL     1       0.687   0.778  -0.317  1.00  0.00     0.005 C 
HETATM    9  C11 UNL     1       1.820   1.537   0.378  1.00  0.00     0.002 C 
HETATM   10  C12 UNL     1       2.638   2.378  -0.532  1.00  0.00     0.019 C 
HETATM   11  C13 UNL     1       3.906   2.820   0.120  1.00  0.00     0.113 C 
HETATM   12  N4  UNL     1       5.028   1.982   0.155  1.00  0.00    -0.419 N 
HETATM   13  C14 UNL     1       5.072   0.749   0.802  1.00  0.00     0.140 C 
HETATM   14  C15 UNL     1       4.475  -0.420  -0.004  1.00  0.00     0.186 C 
HETATM   15  O1  UNL     1       4.374  -1.532   0.720  1.00  0.00    -0.390 OA
HETATM   16  C16 UNL     1       3.743  -2.609   0.153  1.00  0.00     0.168 C 
HETATM   17  C17 UNL     1       2.403  -2.114  -0.364  1.00  0.00     0.007 C 
HETATM   18  C18 UNL     1       1.231  -2.623   0.135  1.00  0.00     0.080 C 
HETATM   19  H15 UNL     1       5.738   2.206  -0.554  1.00  0.00     0.153 HD
ENDROOT
BRANCH   1  20
HETATM   20  N1  UNL     1      -2.758   0.168   0.284  1.00  0.00    -0.344 N 
HETATM   21  H3  UNL     1      -2.290   1.007   0.671  1.00  0.00     0.167 HD
BRANCH  20  22
HETATM   22  C4  UNL     1      -4.149   0.323   0.031  1.00  0.00     0.012 A 
HETATM   23  C3  UNL     1      -4.408   0.726  -1.178  1.00  0.00     0.028 A 
HETATM   24  C2  UNL     1      -5.820   0.893  -1.463  1.00  0.00     0.041 A 
HETATM   25  C1  UNL     1      -6.599   0.603  -0.438  1.00  0.00     0.112 A 
HETATM   26  F1  UNL     1      -7.943   0.739  -0.641  1.00  0.00    -0.209 F 
HETATM   27  C20 UNL     1      -6.409   0.148   0.943  1.00  0.00     0.150 A 
HETATM   28  C19 UNL     1      -4.936  -0.020   1.230  1.00  0.00     0.084 A 
HETATM   29 CL1  UNL     1      -7.183   1.261   2.092  1.00  0.00    -0.117 Cl
ENDBRANCH  20  22
ENDBRANCH   1  20
TORSDOF 2
