REMARK  1 active torsions:
REMARK  status: ('A' for Active; 'I' for Inactive)
REMARK    1  A    between atoms: O1_2  and  C2_3 
ROOT
HETATM    1  C2  UNL     1      -3.933   0.304   0.286  1.00  0.00     0.103 A 
HETATM    2  C3  UNL     1      -4.419  -0.985   0.350  1.00  0.00     0.072 A 
HETATM    3  C4  UNL     1      -3.556  -2.055   0.104  1.00  0.00     0.075 A 
HETATM    4  N1  UNL     1      -4.138  -3.268   0.197  1.00  0.00    -0.241 NA
HETATM    5  C5  UNL     1      -3.333  -4.321  -0.030  1.00  0.00     0.236 A 
HETATM    6  N2  UNL     1      -2.054  -4.110  -0.322  1.00  0.00    -0.224 NA
HETATM    7  C6  UNL     1      -1.472  -2.883  -0.415  1.00  0.00     0.142 A 
HETATM    8  C7  UNL     1      -2.239  -1.775  -0.195  1.00  0.00     0.042 A 
HETATM    9  C8  UNL     1      -1.790  -0.490  -0.251  1.00  0.00     0.057 A 
HETATM   10  C9  UNL     1      -2.599   0.603  -0.016  1.00  0.00     0.103 A 
HETATM   11  O2  UNL     1      -2.190   1.794  -0.065  1.00  0.00    -0.348 OA
HETATM   12  C10 UNL     1      -1.761   3.043  -0.116  1.00  0.00     0.176 C 
HETATM   13  C11 UNL     1      -0.338   3.215  -0.647  1.00  0.00     0.027 C 
HETATM   14  C12 UNL     1       0.622   2.496   0.301  1.00  0.00     0.002 C 
HETATM   15  C13 UNL     1       2.026   2.542  -0.209  1.00  0.00     0.000 C 
HETATM   16  C14 UNL     1       2.936   1.827   0.764  1.00  0.00     0.002 C 
HETATM   17  C15 UNL     1       4.367   1.825   0.255  1.00  0.00     0.020 C 
HETATM   18  C16 UNL     1       4.445   1.062  -1.077  1.00  0.00     0.120 C 
HETATM   19  N3  UNL     1       4.109  -0.321  -0.935  1.00  0.00    -0.387 N 
HETATM   20  C17 UNL     1       3.213  -1.301  -0.504  1.00  0.00     0.069 A 
HETATM   21  C18 UNL     1       1.970  -1.558  -0.979  1.00  0.00     0.061 A 
HETATM   22  C19 UNL     1       1.226  -2.576  -0.427  1.00  0.00     0.035 A 
HETATM   23  C20 UNL     1       1.726  -3.362   0.624  1.00  0.00     0.032 A 
HETATM   24  C21 UNL     1       3.000  -3.161   1.172  1.00  0.00     0.047 A 
HETATM   25  C22 UNL     1       3.659  -2.117   0.545  1.00  0.00     0.142 A 
HETATM   26  F1  UNL     1       4.920  -1.884   1.045  1.00  0.00    -0.204 F 
HETATM   27  N4  UNL     1      -0.086  -3.040  -0.729  1.00  0.00    -0.340 N 
HETATM   28  H21 UNL     1       4.875  -0.949  -1.345  1.00  0.00     0.159 HD
HETATM   29  H25 UNL     1       0.224  -3.750  -1.428  1.00  0.00     0.167 HD
ENDROOT
BRANCH   1  30
HETATM   30  O1  UNL     1      -4.780   1.364   0.528  1.00  0.00    -0.353 OA
HETATM   31  C1  UNL     1      -6.137   1.293   0.846  1.00  0.00     0.210 C 
ENDBRANCH   1  30
TORSDOF 1
