REMARK  8 active torsions:
REMARK  status: ('A' for Active; 'I' for Inactive)
REMARK    1  A    between atoms: O1_2  and  C2_3 
REMARK    2  A    between atoms: C6_9  and  N3_10 
REMARK    3  A    between atoms: N3_10  and  C7_11 
REMARK    4  A    between atoms: C8_12  and  C9_13 
REMARK    5  A    between atoms: C13_18  and  O2_19 
REMARK    6  A    between atoms: O2_19  and  C14_20 
REMARK    7  A    between atoms: C14_20  and  C15_21 
REMARK    8  A    between atoms: C15_21  and  N4_22 
ROOT
HETATM    1  C2  UNL     1       0.381  -2.398  -1.086  1.00  0.00     0.103 A 
HETATM    2  C3  UNL     1       1.413  -3.114  -0.467  1.00  0.00     0.072 A 
HETATM    3  C4  UNL     1       2.318  -2.442   0.327  1.00  0.00     0.075 A 
HETATM    4  N1  UNL     1       3.352  -3.009   0.974  1.00  0.00    -0.241 NA
HETATM    5  C5  UNL     1       4.199  -2.281   1.734  1.00  0.00     0.236 A 
HETATM    6  N2  UNL     1       4.056  -0.952   1.885  1.00  0.00    -0.224 NA
HETATM    7  C6  UNL     1       3.045  -0.307   1.268  1.00  0.00     0.141 A 
HETATM    8  C11 UNL     1       2.201  -1.081   0.503  1.00  0.00     0.042 A 
HETATM    9  C12 UNL     1       1.170  -0.437  -0.130  1.00  0.00     0.057 A 
HETATM   10  C13 UNL     1       0.219  -1.012  -0.937  1.00  0.00     0.103 A 
ENDROOT
BRANCH  10  11
HETATM   11  O2  UNL     1      -0.859  -0.624  -1.649  1.00  0.00    -0.347 OA
BRANCH  11  12
HETATM   12  C14 UNL     1      -1.376   0.658  -1.737  1.00  0.00     0.206 C 
BRANCH  12  13
HETATM   13  C15 UNL     1      -1.885   1.212  -0.469  1.00  0.00     0.299 C 
BRANCH  13  14
HETATM   14  N4  UNL     1      -2.950   0.471   0.146  1.00  0.00     0.090 N 
HETATM   15  C16 UNL     1      -3.346   1.126   1.361  1.00  0.00     0.272 C 
HETATM   16  C17 UNL     1      -4.797   0.915   1.721  1.00  0.00     0.030 C 
HETATM   17  C18 UNL     1      -5.750   1.459   0.694  1.00  0.00     0.003 C 
HETATM   18  C19 UNL     1      -5.017   1.557  -0.642  1.00  0.00     0.030 C 
HETATM   19  C20 UNL     1      -4.115   0.321  -0.689  1.00  0.00     0.272 C 
ENDBRANCH  13  14
ENDBRANCH  12  13
ENDBRANCH  11  12
ENDBRANCH  10  11
BRANCH   1  20
HETATM   20  O1  UNL     1      -0.436  -3.242  -1.849  1.00  0.00    -0.353 OA
HETATM   21  C1  UNL     1      -0.237  -4.609  -1.968  1.00  0.00     0.210 C 
ENDBRANCH   1  20
BRANCH   7  22
HETATM   22  N3  UNL     1       2.843   1.118   1.385  1.00  0.00    -0.350 N 
HETATM   23  H6  UNL     1       2.264   1.395   2.212  1.00  0.00     0.166 HD
BRANCH  22  24
HETATM   24  C7  UNL     1       3.399   2.009   0.441  1.00  0.00     0.090 C 
HETATM   25  C8  UNL     1       4.604   2.311   0.029  1.00  0.00     0.018 C 
BRANCH  25  26
HETATM   26  C9  UNL     1       5.918   1.836   0.386  1.00  0.00     0.013 C 
HETATM   27  C10 UNL     1       7.112   2.172  -0.060  1.00  0.00     0.084 C 
HETATM   28 CL1  UNL     1       7.285   3.400  -1.310  1.00  0.00    -0.097 Cl
ENDBRANCH  25  26
ENDBRANCH  22  24
ENDBRANCH   7  22
TORSDOF 8
