REMARK  4 active torsions:
REMARK  status: ('A' for Active; 'I' for Inactive)
REMARK    1  A    between atoms: C7_7  and  O1_8 
REMARK    2  A    between atoms: O1_8  and  C8_9 
REMARK    3  A    between atoms: C8_9  and  C9_10 
REMARK    4  A    between atoms: C9_10  and  N1_11 
ROOT
HETATM    1  C1  UNL     1       6.121   2.004  -1.331  1.00  0.00    -0.004 A 
HETATM    2  C2  UNL     1       4.897   2.367  -1.042  1.00  0.00    -0.022 A 
HETATM    3  C3  UNL     1       3.773   1.608  -0.440  1.00  0.00     0.066 A 
HETATM    4  C4  UNL     1       4.204   0.233  -0.158  1.00  0.00    -0.048 A 
HETATM    5  C5  UNL     1       3.326  -0.596   0.384  1.00  0.00    -0.045 A 
HETATM    6  C6  UNL     1       1.986  -0.091   0.668  1.00  0.00     0.044 A 
HETATM    7  C7  UNL     1       1.069  -0.894   1.216  1.00  0.00     0.069 A 
HETATM    8  C15 UNL     1       1.414  -2.293   1.532  1.00  0.00     0.033 A 
HETATM    9  C16 UNL     1       2.642  -2.766   1.275  1.00  0.00    -0.019 A 
HETATM   10  C17 UNL     1       3.755  -1.988   0.671  1.00  0.00     0.066 A 
HETATM   11  C18 UNL     1       5.565  -0.191  -0.474  1.00  0.00     0.008 A 
HETATM   12  C19 UNL     1       6.460   0.621  -1.017  1.00  0.00     0.000 A 
ENDROOT
BRANCH   7  13
HETATM   13  O1  UNL     1      -0.223  -0.587   1.544  1.00  0.00    -0.350 OA
BRANCH  13  14
HETATM   14  C8  UNL     1      -1.232  -0.617   0.548  1.00  0.00     0.195 C 
BRANCH  14  15
HETATM   15  C9  UNL     1      -2.534  -0.236   1.213  1.00  0.00     0.143 C 
BRANCH  15  16
HETATM   16  N1  UNL     1      -3.646  -0.225   0.322  1.00  0.00    -0.410 N 
HETATM   17  C10 UNL     1      -4.826   0.141   1.021  1.00  0.00     0.117 C 
HETATM   18  C11 UNL     1      -6.075   0.218   0.217  1.00  0.00     0.019 C 
HETATM   19  C12 UNL     1      -5.852   0.233  -1.266  1.00  0.00     0.003 C 
HETATM   20  C13 UNL     1      -4.630   1.108  -1.498  1.00  0.00     0.019 C 
HETATM   21  C14 UNL     1      -3.445   0.346  -0.958  1.00  0.00     0.117 C 
ENDBRANCH  15  16
ENDBRANCH  14  15
ENDBRANCH  13  14
ENDBRANCH   7  13
TORSDOF 4
