REMARK  7 active torsions:
REMARK  status: ('A' for Active; 'I' for Inactive)
REMARK    1  A    between atoms: O1_2  and  C2_3 
REMARK    2  A    between atoms: C4_5  and  O2_6 
REMARK    3  A    between atoms: O2_6  and  C5_7 
REMARK    4  A    between atoms: C5_7  and  C6_8 
REMARK    5  A    between atoms: C6_8  and  N1_9 
REMARK    6  A    between atoms: C14_17  and  N2_18 
REMARK    7  A    between atoms: N2_18  and  C15_19 
ROOT
HETATM    1  C2  UNL     1       1.300   2.890   0.147  1.00  0.00     0.100 A 
HETATM    2  C3  UNL     1       0.169   2.147  -0.120  1.00  0.00     0.076 A 
HETATM    3  C4  UNL     1       0.252   0.777  -0.244  1.00  0.00     0.072 A 
HETATM    4  C12 UNL     1       1.511   0.192  -0.088  1.00  0.00     0.054 A 
HETATM    5  C13 UNL     1       2.641   0.926   0.178  1.00  0.00     0.044 A 
HETATM    6  C14 UNL     1       3.859   0.297   0.323  1.00  0.00     0.142 A 
HETATM    7  N3  UNL     1       4.970   1.019   0.586  1.00  0.00    -0.224 NA
HETATM    8  C20 UNL     1       4.863   2.376   0.703  1.00  0.00     0.236 A 
HETATM    9  N4  UNL     1       3.675   3.006   0.563  1.00  0.00    -0.238 NA
HETATM   10  C21 UNL     1       2.540   2.308   0.299  1.00  0.00     0.105 A 
ENDROOT
BRANCH   3  11
HETATM   11  O2  UNL     1      -0.775  -0.098  -0.506  1.00  0.00    -0.349 OA
BRANCH  11  12
HETATM   12  C5  UNL     1      -2.081   0.418  -0.679  1.00  0.00     0.206 C 
BRANCH  12  13
HETATM   13  C6  UNL     1      -3.064  -0.710  -0.956  1.00  0.00     0.299 C 
BRANCH  13  14
HETATM   14  N1  UNL     1      -4.388  -0.138  -1.128  1.00  0.00     0.090 N 
HETATM   15  C7  UNL     1      -4.894   0.419   0.109  1.00  0.00     0.272 C 
HETATM   16  C8  UNL     1      -6.238  -0.148   0.462  1.00  0.00     0.030 C 
HETATM   17  C9  UNL     1      -6.113  -1.637   0.619  1.00  0.00     0.003 C 
HETATM   18  C10 UNL     1      -5.620  -2.209  -0.693  1.00  0.00     0.030 C 
HETATM   19  C11 UNL     1      -5.308  -1.113  -1.690  1.00  0.00     0.272 C 
ENDBRANCH  13  14
ENDBRANCH  12  13
ENDBRANCH  11  12
ENDBRANCH   3  11
BRANCH   1  20
HETATM   20  O1  UNL     1       1.234   4.269   0.274  1.00  0.00    -0.353 OA
HETATM   21  C1  UNL     1      -0.017   4.910   0.124  1.00  0.00     0.210 C 
ENDBRANCH   1  20
BRANCH   6  22
HETATM   22  N2  UNL     1       4.035  -1.088   0.213  1.00  0.00    -0.340 N 
HETATM   23  H20 UNL     1       3.379  -1.875   0.022  1.00  0.00     0.167 HD
BRANCH  22  24
HETATM   24  C15 UNL     1       5.249  -1.816   0.348  1.00  0.00     0.034 A 
HETATM   25  C16 UNL     1       5.747  -2.351   1.474  1.00  0.00     0.045 A 
HETATM   26  C17 UNL     1       7.058  -3.056   1.254  1.00  0.00     0.240 A 
HETATM   27  F1  UNL     1       6.784  -4.392   1.504  1.00  0.00    -0.239 F 
HETATM   28  C18 UNL     1       7.248  -2.841  -0.216  1.00  0.00     0.051 A 
HETATM   29 CL1  UNL     1       8.553  -3.356  -1.274  1.00  0.00    -0.086 Cl
HETATM   30  C19 UNL     1       6.221  -2.146  -0.684  1.00  0.00     0.052 A 
ENDBRANCH  22  24
ENDBRANCH   6  22
TORSDOF 7
