REMARK  4 active torsions:
REMARK  status: ('A' for Active; 'I' for Inactive)
REMARK    1  A    between atoms: O1_2  and  C2_3 
REMARK    2  A    between atoms: C6_9  and  N3_10 
REMARK    3  A    between atoms: N3_10  and  C7_11 
REMARK    4  A    between atoms: C14_21  and  O2_22 
ROOT
HETATM    1  C2  UNL     1      -3.533  -0.300  -0.047  1.00  0.00     0.103 A 
HETATM    2  C3  UNL     1      -2.880  -1.511  -0.266  1.00  0.00     0.072 A 
HETATM    3  C4  UNL     1      -1.493  -1.623  -0.344  1.00  0.00     0.075 A 
HETATM    4  N1  UNL     1      -0.897  -2.808  -0.556  1.00  0.00    -0.241 NA
HETATM    5  C5  UNL     1       0.445  -2.846  -0.621  1.00  0.00     0.236 A 
HETATM    6  N2  UNL     1       1.163  -1.706  -0.472  1.00  0.00    -0.223 NA
HETATM    7  C6  UNL     1       0.570  -0.522  -0.260  1.00  0.00     0.143 A 
HETATM    8  C12 UNL     1      -0.794  -0.432  -0.187  1.00  0.00     0.042 A 
HETATM    9  C13 UNL     1      -1.404   0.783   0.031  1.00  0.00     0.057 A 
HETATM   10  C14 UNL     1      -2.788   0.852   0.102  1.00  0.00     0.102 A 
ENDROOT
BRANCH   7  11
HETATM   11  N3  UNL     1       1.427   0.586  -0.123  1.00  0.00    -0.327 N 
HETATM   12  H6  UNL     1       1.221   1.594   0.045  1.00  0.00     0.169 HD
BRANCH  11  13
HETATM   13  C7  UNL     1       2.837   0.419  -0.210  1.00  0.00     0.104 A 
HETATM   14  C8  UNL     1       3.386  -0.148  -1.272  1.00  0.00     0.051 A 
HETATM   15  C9  UNL     1       4.811  -0.358  -1.445  1.00  0.00     0.045 A 
HETATM   16  C10 UNL     1       5.575   0.061  -0.451  1.00  0.00     0.131 A 
HETATM   17  F1  UNL     1       6.912  -0.118  -0.578  1.00  0.00    -0.207 F 
HETATM   18  C11 UNL     1       5.158   0.717   0.815  1.00  0.00     0.243 A 
HETATM   19 CL1  UNL     1       5.666  -0.286   2.201  1.00  0.00    -0.095 Cl
HETATM   20  N4  UNL     1       3.715   0.844   0.816  1.00  0.00    -0.353 N 
HETATM   21  H10 UNL     1       3.323   1.296   1.669  1.00  0.00     0.163 HD
ENDBRANCH  11  13
ENDBRANCH   7  11
BRANCH  10  22
HETATM   22  O2  UNL     1      -3.466   2.044   0.319  1.00  0.00    -0.353 OA
HETATM   23  C15 UNL     1      -2.749   3.270   0.480  1.00  0.00     0.210 C 
ENDBRANCH  10  22
BRANCH   1  24
HETATM   24  O1  UNL     1      -4.916  -0.220   0.025  1.00  0.00    -0.353 OA
HETATM   25  C1  UNL     1      -5.779  -1.304  -0.108  1.00  0.00     0.210 C 
ENDBRANCH   1  24
TORSDOF 4
