REMARK  6 active torsions:
REMARK  status: ('A' for Active; 'I' for Inactive)
REMARK    1  A    between atoms: O1_2  and  C2_3 
REMARK    2  A    between atoms: C6_9  and  N3_10 
REMARK    3  A    between atoms: N3_10  and  C7_11 
REMARK    4  A    between atoms: C15_21  and  O2_22 
REMARK    5  A    between atoms: O2_22  and  C16_23 
REMARK    6  A    between atoms: C16_23  and  N4_24 
ROOT
HETATM    1  C2  UNL     1       0.696   3.165   0.398  1.00  0.00     0.103 A 
HETATM    2  C3  UNL     1      -0.517   3.775   0.632  1.00  0.00     0.072 A 
HETATM    3  C4  UNL     1      -1.658   3.026   0.542  1.00  0.00     0.075 A 
HETATM    4  N1  UNL     1      -2.826   3.666   0.780  1.00  0.00    -0.241 NA
HETATM    5  C5  UNL     1      -4.002   2.994   0.712  1.00  0.00     0.236 A 
HETATM    6  N2  UNL     1      -4.003   1.694   0.408  1.00  0.00    -0.224 NA
HETATM    7  C6  UNL     1      -2.900   0.981   0.158  1.00  0.00     0.142 A 
HETATM    8  C13 UNL     1      -1.716   1.683   0.233  1.00  0.00     0.042 A 
HETATM    9  C14 UNL     1      -0.474   1.133   0.011  1.00  0.00     0.057 A 
HETATM   10  C15 UNL     1       0.718   1.823   0.083  1.00  0.00     0.105 A 
ENDROOT
BRANCH   7  11
HETATM   11  N3  UNL     1      -2.874  -0.387  -0.163  1.00  0.00    -0.340 N 
HETATM   12  H6  UNL     1      -1.996  -0.874  -0.367  1.00  0.00     0.167 HD
BRANCH  11  13
HETATM   13  C7  UNL     1      -3.952  -1.272  -0.257  1.00  0.00     0.035 A 
HETATM   14  C8  UNL     1      -5.231  -0.952   0.127  1.00  0.00     0.032 A 
HETATM   15  C9  UNL     1      -6.310  -1.807   0.034  1.00  0.00     0.046 A 
HETATM   16  C10 UNL     1      -6.162  -3.078  -0.467  1.00  0.00     0.138 A 
HETATM   17  F1  UNL     1      -7.151  -3.963  -0.589  1.00  0.00    -0.204 F 
HETATM   18  C11 UNL     1      -4.902  -3.451  -0.866  1.00  0.00     0.074 A 
HETATM   19 CL1  UNL     1      -4.635  -5.046  -1.512  1.00  0.00    -0.081 Cl
HETATM   20  C12 UNL     1      -3.863  -2.566  -0.754  1.00  0.00     0.056 A 
ENDBRANCH  11  13
ENDBRANCH   7  11
BRANCH  10  21
HETATM   21  O2  UNL     1       1.955   1.236  -0.147  1.00  0.00    -0.319 OA
BRANCH  21  22
HETATM   22  C16 UNL     1       1.990  -0.119  -0.466  1.00  0.00     0.447 C 
BRANCH  22  23
HETATM   23  N4  UNL     1       3.319  -0.633  -0.686  1.00  0.00     0.111 N 
HETATM   24  C17 UNL     1       4.179  -0.495   0.457  1.00  0.00     0.275 C 
HETATM   25  C18 UNL     1       4.579  -1.823   1.043  1.00  0.00     0.030 C 
HETATM   26  C19 UNL     1       5.314  -2.691   0.049  1.00  0.00     0.003 C 
HETATM   27  C20 UNL     1       4.560  -2.677  -1.258  1.00  0.00     0.030 C 
HETATM   28  C21 UNL     1       3.225  -2.002  -1.153  1.00  0.00     0.275 C 
ENDBRANCH  22  23
ENDBRANCH  21  22
ENDBRANCH  10  21
BRANCH   1  29
HETATM   29  O1  UNL     1       1.888   3.870   0.473  1.00  0.00    -0.353 OA
HETATM   30  C1  UNL     1       1.867   5.266   0.801  1.00  0.00     0.210 C 
ENDBRANCH   1  29
TORSDOF 6
