REMARK  2 active torsions:
REMARK  status: ('A' for Active; 'I' for Inactive)
REMARK    1  A    between atoms: C2_2  and  O1_3 
REMARK    2  A    between atoms: C2_2  and  C4_5 
ROOT
HETATM    1  C4  UNL     1      -0.808   0.010  -0.481  1.00  0.00     0.215 C 
HETATM    2  O2  UNL     1      -0.096  -0.661   0.449  1.00  0.00    -0.374 OA
HETATM    3  C5  UNL     1       1.080  -1.141   0.204  1.00  0.00     0.173 C 
HETATM    4  C6  UNL     1       1.364  -2.372  -0.654  1.00  0.00     0.055 C 
HETATM    5  C7  UNL     1       2.905  -2.421  -0.468  1.00  0.00     0.002 C 
HETATM    6  C8  UNL     1       3.735  -1.550   0.154  1.00  0.00     0.069 C 
HETATM    7 CL1  UNL     1       5.264  -2.439  -0.129  1.00  0.00    -0.081 Cl
HETATM    8  C9  UNL     1       4.014  -0.276   0.815  1.00  0.00     0.139 C 
HETATM    9  F1  UNL     1       5.334  -0.217   1.257  1.00  0.00    -0.204 F 
HETATM   10  C10 UNL     1       3.435   0.886   1.170  1.00  0.00     0.063 C 
HETATM   11  C11 UNL     1       2.276   1.779   1.228  1.00  0.00     0.122 C 
HETATM   12  N1  UNL     1       1.148   1.604   0.790  1.00  0.00    -0.241 NA
HETATM   13  C12 UNL     1      -0.078   2.184   0.674  1.00  0.00     0.161 A 
HETATM   14  N2  UNL     1      -0.423   3.408   1.099  1.00  0.00    -0.222 NA
HETATM   15  C13 UNL     1      -1.643   3.944   0.929  1.00  0.00     0.235 A 
HETATM   16  N3  UNL     1      -2.601   3.243   0.302  1.00  0.00    -0.253 NA
HETATM   17  C14 UNL     1      -2.314   2.010  -0.145  1.00  0.00     0.132 A 
HETATM   18  C15 UNL     1      -1.072   1.430   0.013  1.00  0.00     0.042 A 
ENDROOT
BRANCH   1  19
HETATM   19  C2  UNL     1      -2.117  -0.653  -0.749  1.00  0.00     0.070 C 
HETATM   20  C1  UNL     1      -2.404  -1.086  -1.968  1.00  0.00     0.049 C 
BRANCH  19  21
HETATM   21  O1  UNL     1      -3.033  -0.817   0.281  1.00  0.00    -0.358 OA
HETATM   22  C3  UNL     1      -4.385  -1.119  -0.006  1.00  0.00     0.209 C 
ENDBRANCH  19  21
ENDBRANCH   1  19
TORSDOF 2
