REMARK  12 active torsions:
REMARK  status: ('A' for Active; 'I' for Inactive)
REMARK    1  A    between atoms: C3_3  and  C4_4 
REMARK    2  A    between atoms: C4_4  and  C5_5 
REMARK    3  A    between atoms: C5_5  and  C6_6 
REMARK    4  A    between atoms: C6_6  and  C7_7 
REMARK    5  A    between atoms: C7_7  and  O1_8 
REMARK    6  A    between atoms: C9_12  and  N3_13 
REMARK    7  A    between atoms: N3_13  and  C10_14 
REMARK    8  A    between atoms: C10_14  and  C11_15 
REMARK    9  A    between atoms: C12_16  and  C13_18 
REMARK   10  A    between atoms: C13_18  and  O2_19 
REMARK   11  A    between atoms: O2_19  and  C14_20 
REMARK   12  A    between atoms: C15_21  and  C16_22 
ROOT
HETATM    1  C1  UNL     1      -2.017  -1.277   2.160  1.00  0.00     0.055 C 
HETATM    2  C2  UNL     1      -2.237  -0.931   0.731  1.00  0.00     0.013 A 
HETATM    3  C3  UNL     1      -3.461  -0.649   0.158  1.00  0.00     0.075 A 
HETATM    4  N1  UNL     1      -3.601  -0.342  -1.140  1.00  0.00    -0.241 NA
HETATM    5  C8  UNL     1      -2.508  -0.306  -1.921  1.00  0.00     0.235 A 
HETATM    6  N2  UNL     1      -1.315  -0.577  -1.380  1.00  0.00    -0.224 NA
HETATM    7  C9  UNL     1      -1.122  -0.889  -0.088  1.00  0.00     0.133 A 
ENDROOT
BRANCH   7   8
HETATM    8  N3  UNL     1       0.160  -1.162   0.414  1.00  0.00    -0.371 N 
HETATM    9  H10 UNL     1       0.274  -1.403   1.433  1.00  0.00     0.161 HD
BRANCH   8  10
HETATM   10  C10 UNL     1       1.326  -1.122  -0.425  1.00  0.00     0.150 C 
BRANCH  10  11
HETATM   11  C11 UNL     1       1.491   0.227  -1.007  1.00  0.00     0.014 C 
HETATM   12  C12 UNL     1       2.524   1.079  -0.873  1.00  0.00     0.033 C 
HETATM   13 CL1  UNL     1       2.670   2.680  -1.593  1.00  0.00    -0.087 Cl
BRANCH  12  14
HETATM   14  C13 UNL     1       3.777   0.875  -0.095  1.00  0.00     0.225 C 
BRANCH  14  15
HETATM   15  O2  UNL     1       4.919   0.947  -0.949  1.00  0.00    -0.358 OA
BRANCH  15  16
HETATM   16  C14 UNL     1       6.193   0.784  -0.424  1.00  0.00     0.133 C 
HETATM   17  C15 UNL     1       7.063  -0.220  -0.375  1.00  0.00     0.028 C 
BRANCH  17  18
HETATM   18  C16 UNL     1       8.383  -0.037   0.292  1.00  0.00     0.251 C 
HETATM   19  F1  UNL     1       8.538  -0.921   1.342  1.00  0.00    -0.251 F 
ENDBRANCH  17  18
ENDBRANCH  15  16
ENDBRANCH  14  15
ENDBRANCH  12  14
ENDBRANCH  10  11
ENDBRANCH   8  10
ENDBRANCH   7   8
BRANCH   3  20
HETATM   20  C4  UNL     1      -4.613  -0.698   1.030  1.00  0.00     0.083 C 
BRANCH  20  21
HETATM   21  C5  UNL     1      -5.562   0.176   0.831  1.00  0.00    -0.145 C 
BRANCH  21  22
HETATM   22  C6  UNL     1      -6.492   0.988   0.369  1.00  0.00     0.097 C 
BRANCH  22  23
HETATM   23  C7  UNL     1      -7.417   0.466  -0.655  1.00  0.00     0.181 C 
BRANCH  23  24
HETATM   24  O1  UNL     1      -7.780  -0.829  -0.219  1.00  0.00    -0.400 OA
HETATM   25  H8  UNL     1      -6.966  -1.392  -0.388  1.00  0.00     0.209 HD
ENDBRANCH  23  24
ENDBRANCH  22  23
ENDBRANCH  21  22
ENDBRANCH  20  21
ENDBRANCH   3  20
TORSDOF 12
