REMARK  5 active torsions:
REMARK  status: ('A' for Active; 'I' for Inactive)
REMARK    1  A    between atoms: O1_2  and  C2_3 
REMARK    2  A    between atoms: C6_9  and  N3_10 
REMARK    3  A    between atoms: N3_10  and  C7_11 
REMARK    4  A    between atoms: C8_12  and  C9_13 
REMARK    5  A    between atoms: C9_13  and  C10_14 
ROOT
HETATM    1  C2  UNL     1      -3.152   0.219  -0.545  1.00  0.00     0.081 C 
HETATM    2  C3  UNL     1      -2.328   1.283  -0.776  1.00  0.00     0.059 C 
HETATM    3  C4  UNL     1      -1.550   2.304  -0.424  1.00  0.00     0.177 C 
HETATM    4  N1  UNL     1      -0.550   2.269  -1.424  1.00  0.00    -0.275 NA
HETATM    5  C5  UNL     1       0.739   2.469  -0.922  1.00  0.00     0.229 C 
HETATM    6  N2  UNL     1       0.951   1.590   0.025  1.00  0.00    -0.225 NA
HETATM    7  C6  UNL     1       0.836   0.259  -0.037  1.00  0.00     0.128 C 
HETATM    8  C11 UNL     1       0.194  -1.001   0.052  1.00  0.00     0.053 C 
HETATM    9  C12 UNL     1      -0.958  -1.457  -0.556  1.00  0.00     0.043 C 
HETATM   10  C13 UNL     1      -2.075  -0.654  -0.483  1.00  0.00     0.097 C 
HETATM   11  O2  UNL     1      -2.445  -1.178   0.614  1.00  0.00    -0.353 OA
HETATM   12  C14 UNL     1      -2.831  -1.727   1.763  1.00  0.00     0.210 C 
ENDROOT
BRANCH   1  13
HETATM   13  O1  UNL     1      -4.406  -0.061  -0.425  1.00  0.00    -0.357 OA
HETATM   14  C1  UNL     1      -5.618   0.534  -0.538  1.00  0.00     0.209 C 
ENDBRANCH   1  13
BRANCH   7  15
HETATM   15  N3  UNL     1       2.240   0.161  -0.420  1.00  0.00    -0.351 N 
HETATM   16  H7  UNL     1       2.299   0.076  -1.480  1.00  0.00     0.166 HD
BRANCH  15  17
HETATM   17  C7  UNL     1       3.577   0.166   0.188  1.00  0.00     0.090 C 
HETATM   18  C8  UNL     1       4.654  -0.475  -0.300  1.00  0.00     0.018 C 
BRANCH  18  19
HETATM   19  C9  UNL     1       5.490  -0.016   0.815  1.00  0.00     0.009 C 
BRANCH  19  20
HETATM   20  C10 UNL     1       6.458  -0.716   0.163  1.00  0.00     0.056 C 
HETATM   21 BR1  UNL     1       8.017  -0.484   1.256  1.00  0.00    -0.064 Br
ENDBRANCH  19  20
ENDBRANCH  18  19
ENDBRANCH  15  17
ENDBRANCH   7  15
TORSDOF 5
