REMARK  9 active torsions:
REMARK  status: ('A' for Active; 'I' for Inactive)
REMARK    1  A    between atoms: O1_2  and  C2_3 
REMARK    2  A    between atoms: C6_9  and  N3_10 
REMARK    3  A    between atoms: N3_10  and  C7_11 
REMARK    4  A    between atoms: C15_21  and  O2_22 
REMARK    5  A    between atoms: O2_22  and  C16_23 
REMARK    6  A    between atoms: C16_23  and  C17_24 
REMARK    7  A    between atoms: C17_24  and  O3_25 
REMARK    8  A    between atoms: C17_24  and  C18_26 
REMARK    9  A    between atoms: C18_26  and  N4_27 
ROOT
HETATM    1  C2  UNL     1       1.985  -1.179  -1.686  1.00  0.00     0.103 A 
HETATM    2  C3  UNL     1       1.739  -2.503  -2.046  1.00  0.00     0.072 A 
HETATM    3  C4  UNL     1       0.547  -3.035  -1.603  1.00  0.00     0.075 A 
HETATM    4  N1  UNL     1       0.248  -4.291  -1.909  1.00  0.00    -0.241 NA
HETATM    5  C5  UNL     1      -0.896  -4.862  -1.506  1.00  0.00     0.236 A 
HETATM    6  N2  UNL     1      -1.794  -4.188  -0.772  1.00  0.00    -0.224 NA
HETATM    7  C6  UNL     1      -1.550  -2.898  -0.424  1.00  0.00     0.142 A 
HETATM    8  C13 UNL     1      -0.371  -2.337  -0.850  1.00  0.00     0.042 A 
HETATM    9  C14 UNL     1      -0.074  -1.033  -0.525  1.00  0.00     0.057 A 
HETATM   10  C15 UNL     1       1.093  -0.443  -0.933  1.00  0.00     0.103 A 
ENDROOT
BRANCH   7  11
HETATM   11  N3  UNL     1      -2.524  -2.230   0.348  1.00  0.00    -0.340 N 
HETATM   12  H6  UNL     1      -3.399  -2.721   0.631  1.00  0.00     0.167 HD
BRANCH  11  13
HETATM   13  C7  UNL     1      -2.877  -1.045   0.982  1.00  0.00     0.035 A 
HETATM   14  C8  UNL     1      -2.517  -0.802   2.308  1.00  0.00     0.032 A 
HETATM   15  C9  UNL     1      -2.839   0.368   2.991  1.00  0.00     0.046 A 
HETATM   16  C10 UNL     1      -3.545   1.268   2.243  1.00  0.00     0.138 A 
HETATM   17  F1  UNL     1      -3.883   2.435   2.875  1.00  0.00    -0.204 F 
HETATM   18  C11 UNL     1      -3.960   1.157   0.941  1.00  0.00     0.074 A 
HETATM   19 CL1  UNL     1      -4.860   2.392   0.106  1.00  0.00    -0.081 Cl
HETATM   20  C12 UNL     1      -3.596  -0.044   0.333  1.00  0.00     0.056 A 
ENDBRANCH  11  13
ENDBRANCH   7  11
BRANCH  10  21
HETATM   21  O2  UNL     1       1.430   0.876  -0.623  1.00  0.00    -0.346 OA
BRANCH  21  22
HETATM   22  C16 UNL     1       0.519   1.644   0.152  1.00  0.00     0.209 C 
BRANCH  22  23
HETATM   23  C17 UNL     1       1.028   3.036   0.397  1.00  0.00     0.170 C 
BRANCH  23  24
HETATM   24  O3  UNL     1       1.234   3.723  -0.777  1.00  0.00    -0.392 OA
HETATM   25  H14 UNL     1       1.305   4.691  -0.662  1.00  0.00     0.210 HD
ENDBRANCH  23  24
BRANCH  23  26
HETATM   26  C18 UNL     1       2.236   3.014   1.309  1.00  0.00     0.300 C 
BRANCH  26  27
HETATM   27  N4  UNL     1       2.639   4.349   1.692  1.00  0.00     0.080 N 
HETATM   28  H17 UNL     1       1.740   4.892   1.785  1.00  0.00     0.312 HD
HETATM   29  H18 UNL     1       3.094   4.375   2.619  1.00  0.00     0.312 HD
ENDBRANCH  26  27
ENDBRANCH  23  26
ENDBRANCH  22  23
ENDBRANCH  21  22
ENDBRANCH  10  21
BRANCH   1  30
HETATM   30  O1  UNL     1       3.152  -0.604  -2.099  1.00  0.00    -0.353 OA
HETATM   31  C1  UNL     1       4.147  -1.213  -2.861  1.00  0.00     0.210 C 
ENDBRANCH   1  30
TORSDOF 9
