REMARK  3 active torsions:
REMARK  status: ('A' for Active; 'I' for Inactive)
REMARK    1  A    between atoms: O1_2  and  C2_3 
REMARK    2  A    between atoms: N3_10  and  C7_11 
REMARK    3  A    between atoms: C14_19  and  O2_20 
ROOT
HETATM    1  C2  UNL     1      -1.838  -0.397  -0.178  1.00  0.00     0.115 A 
HETATM    2  C3  UNL     1      -0.565  -0.243  -0.138  1.00  0.00     0.047 A 
HETATM    3  C4  UNL     1       0.015   0.400   0.829  1.00  0.00     0.102 A 
HETATM    4  C5  UNL     1      -0.860   0.943   1.839  1.00  0.00     0.090 A 
HETATM    5  N1  UNL     1      -0.306   1.598   2.812  1.00  0.00    -0.238 NA
HETATM    6  C6  UNL     1       1.130   1.735   2.815  1.00  0.00     0.256 A 
HETATM    7  N2  UNL     1       1.909   1.250   1.915  1.00  0.00    -0.160 NA
HETATM    8  N3  UNL     1       1.427   0.526   0.820  1.00  0.00    -0.230 N 
HETATM    9  C13 UNL     1      -2.303   0.787   1.805  1.00  0.00     0.073 A 
HETATM   10  C14 UNL     1      -2.808   0.109   0.786  1.00  0.00     0.104 A 
ENDROOT
BRANCH   8  11
HETATM   11  C7  UNL     1       2.324   0.023  -0.148  1.00  0.00     0.059 A 
HETATM   12  C8  UNL     1       2.171  -0.891  -1.136  1.00  0.00     0.034 A 
HETATM   13  C9  UNL     1       3.133  -1.290  -2.036  1.00  0.00     0.044 A 
HETATM   14  C10 UNL     1       4.390  -0.730  -1.961  1.00  0.00     0.116 A 
HETATM   15  F1  UNL     1       5.374  -1.065  -2.798  1.00  0.00    -0.206 F 
HETATM   16  C11 UNL     1       4.626   0.206  -0.985  1.00  0.00     0.044 A 
HETATM   17  C12 UNL     1       3.619   0.557  -0.119  1.00  0.00     0.034 A 
ENDBRANCH   8  11
BRANCH   1  18
HETATM   18  O1  UNL     1      -2.402  -1.122  -1.245  1.00  0.00    -0.352 OA
HETATM   19  C1  UNL     1      -1.712  -2.173  -1.896  1.00  0.00     0.210 C 
ENDBRANCH   1  18
BRANCH  10  20
HETATM   20  O2  UNL     1      -4.168  -0.069   0.705  1.00  0.00    -0.353 OA
HETATM   21  C15 UNL     1      -5.033   1.059   0.699  1.00  0.00     0.210 C 
ENDBRANCH  10  20
TORSDOF 3
