REMARK  3 active torsions:
REMARK  status: ('A' for Active; 'I' for Inactive)
REMARK    1  A    between atoms: C2_2  and  O1_3 
REMARK    2  A    between atoms: C11_13  and  O3_14 
REMARK    3  A    between atoms: C12_16  and  O4_17 
ROOT
HETATM    1  C1  UNL     1       3.499  -0.251   1.685  1.00  0.00     0.076 C 
HETATM    2  C2  UNL     1       2.871   0.702   0.731  1.00  0.00     0.042 C 
HETATM    3  C3  UNL     1       2.546   0.313  -0.520  1.00  0.00    -0.049 C 
HETATM    4  C4  UNL     1       2.881  -1.093  -0.785  1.00  0.00     0.042 C 
HETATM    5  C5  UNL     1       1.666  -1.972  -0.744  1.00  0.00     0.007 C 
HETATM    6  C6  UNL     1       0.398  -2.411  -0.606  1.00  0.00     0.077 C 
HETATM    7  C7  UNL     1      -0.949  -1.998  -0.280  1.00  0.00     0.165 C 
HETATM    8  O2  UNL     1      -1.083  -3.248  -0.521  1.00  0.00    -0.292 OA
HETATM    9  C8  UNL     1      -2.015  -1.104   0.099  1.00  0.00     0.021 A 
HETATM   10  C9  UNL     1      -3.063  -1.843   0.592  1.00  0.00     0.019 A 
HETATM   11  C10 UNL     1      -4.226  -1.254   1.038  1.00  0.00     0.044 A 
HETATM   12  C11 UNL     1      -4.234   0.119   0.942  1.00  0.00     0.145 A 
HETATM   13  C12 UNL     1      -3.212   0.891   0.456  1.00  0.00     0.111 A 
HETATM   14  C13 UNL     1      -2.074   0.269   0.024  1.00  0.00     0.015 A 
HETATM   15  C14 UNL     1      -0.978   1.162  -0.483  1.00  0.00     0.210 C 
HETATM   16  O5  UNL     1      -0.353   0.542  -1.483  1.00  0.00    -0.386 OA
HETATM   17  C15 UNL     1       0.714   1.022  -2.125  1.00  0.00     0.172 C 
HETATM   18  C16 UNL     1       1.946   1.353  -1.378  1.00  0.00     0.063 C 
ENDROOT
BRANCH   2  19
HETATM   19  O1  UNL     1       2.643   1.990   1.194  1.00  0.00    -0.365 OA
HETATM   20  H4  UNL     1       3.359   2.413   1.777  1.00  0.00     0.217 HD
ENDBRANCH   2  19
BRANCH  13  21
HETATM   21  O4  UNL     1      -3.319   2.281   0.400  1.00  0.00    -0.357 OA
HETATM   22  H11 UNL     1      -2.543   2.859   0.678  1.00  0.00     0.217 HD
ENDBRANCH  13  21
BRANCH  12  23
HETATM   23  O3  UNL     1      -5.370   0.769   1.372  1.00  0.00    -0.153 OA
HETATM   24  F1  UNL     1      -5.433   2.095   1.302  1.00  0.00    -0.042 F 
ENDBRANCH  12  23
TORSDOF 3
