REMARK  6 active torsions:
REMARK  status: ('A' for Active; 'I' for Inactive)
REMARK    1  A    between atoms: C11_15  and  O1_16 
REMARK    2  A    between atoms: C15_21  and  C16_22 
REMARK    3  A    between atoms: C16_22  and  C17_23 
REMARK    4  A    between atoms: C17_23  and  O2_24 
REMARK    5  A    between atoms: C17_23  and  C18_25 
REMARK    6  A    between atoms: C18_25  and  N4_26 
ROOT
HETATM    1  C1  UNL     1       0.711  -0.168  -2.585  1.00  0.00     0.074 A 
HETATM    2  C2  UNL     1       0.709  -1.198  -1.826  1.00  0.00    -0.029 A 
HETATM    3  C3  UNL     1       0.778  -2.358  -0.970  1.00  0.00     0.119 C 
HETATM    4  F1  UNL     1       2.077  -2.584  -1.282  1.00  0.00    -0.206 F 
HETATM    5  C4  UNL     1       0.146  -3.210  -0.237  1.00  0.00     0.040 C 
HETATM    6  C5  UNL     1      -1.302  -3.215   0.013  1.00  0.00     0.003 C 
HETATM    7  C6  UNL     1      -2.575  -2.783  -0.071  1.00  0.00     0.132 C 
HETATM    8  N1  UNL     1      -3.376  -1.724  -0.671  1.00  0.00    -0.364 N 
HETATM    9  C7  UNL     1      -3.590  -0.441  -0.023  1.00  0.00     0.138 A 
HETATM   10  N2  UNL     1      -4.768  -0.315   0.582  1.00  0.00    -0.224 NA
HETATM   11  C8  UNL     1      -5.151   0.793   1.242  1.00  0.00     0.235 A 
HETATM   12  N3  UNL     1      -4.344   1.862   1.331  1.00  0.00    -0.241 NA
HETATM   13  C9  UNL     1      -3.135   1.764   0.725  1.00  0.00     0.074 A 
HETATM   14  C10 UNL     1      -2.283   2.867   0.801  1.00  0.00     0.070 A 
HETATM   15  C11 UNL     1      -1.014   2.879   0.208  1.00  0.00     0.078 A 
HETATM   16  C12 UNL     1      -0.541   1.787  -0.489  1.00  0.00    -0.003 A 
HETATM   17  C13 UNL     1      -1.486   0.813  -0.465  1.00  0.00     0.032 A 
HETATM   18  C14 UNL     1      -2.736   0.637   0.048  1.00  0.00     0.039 A 
HETATM   19  P1  UNL     1       1.033   1.565  -1.349  1.00  0.00    -0.103 P 
HETATM   20  C15 UNL     1       1.700  -0.185  -1.204  1.00  0.00     0.043 A 
HETATM   21  H6  UNL     1      -3.911  -1.674  -1.591  1.00  0.00     0.162 HD
HETATM   22  H11 UNL     1       2.042   2.505  -1.066  1.00  0.00     0.059 HD
ENDROOT
BRANCH  20  23
HETATM   23  C16 UNL     1       1.676  -0.497   0.327  1.00  0.00     0.047 C 
BRANCH  23  24
HETATM   24  C17 UNL     1       2.588   0.390   1.107  1.00  0.00     0.146 C 
BRANCH  24  25
HETATM   25  O2  UNL     1       2.287   1.739   1.023  1.00  0.00    -0.394 OA
HETATM   26  H16 UNL     1       3.069   2.319   1.102  1.00  0.00     0.210 HD
ENDBRANCH  24  25
BRANCH  24  27
HETATM   27  C18 UNL     1       4.052   0.138   0.791  1.00  0.00     0.298 C 
BRANCH  27  28
HETATM   28  N4  UNL     1       4.398  -1.254   0.869  1.00  0.00     0.080 N 
HETATM   29  H19 UNL     1       4.102  -1.619   1.810  1.00  0.00     0.312 HD
HETATM   30  H20 UNL     1       5.416  -1.339   0.749  1.00  0.00     0.312 HD
ENDBRANCH  27  28
ENDBRANCH  24  27
ENDBRANCH  23  24
ENDBRANCH  20  23
BRANCH  15  31
HETATM   31  O1  UNL     1      -0.128   3.973   0.264  1.00  0.00    -0.360 OA
HETATM   32  H9  UNL     1       0.105   4.270   1.204  1.00  0.00     0.217 HD
ENDBRANCH  15  31
TORSDOF 6
