REMARK  0 active torsions:
REMARK  status: ('A' for Active; 'I' for Inactive)
ROOT
HETATM    1  C1  UNL     1       4.838  -0.915   0.261  1.00  0.00     0.000 C 
HETATM    2  O1  UNL     1       3.637  -0.371   0.791  1.00  0.00     0.000 OA
HETATM    3  C2  UNL     1       3.220   0.862   0.356  1.00  0.00    -0.068 A 
HETATM    4  C3  UNL     1       2.242   0.429   1.120  1.00  0.00     0.058 A 
HETATM    5  C4  UNL     1       1.507  -0.490   2.012  1.00  0.00     0.225 C 
HETATM    6  C5  UNL     1       2.348  -1.728   2.339  1.00  0.00     0.043 C 
HETATM    7  N1  UNL     1       0.306  -0.869   1.331  1.00  0.00     0.090 N 
HETATM    8  C6  UNL     1      -0.531  -1.819   1.989  1.00  0.00     0.296 C 
HETATM    9  C7  UNL     1      -1.738  -2.057   1.038  1.00  0.00     0.205 C 
HETATM   10  O2  UNL     1      -1.193  -2.528  -0.173  1.00  0.00    -0.354 OA
HETATM   11  C8  UNL     1      -1.814  -2.564  -1.397  1.00  0.00     0.044 C 
HETATM   12  C9  UNL     1      -1.396  -3.865  -1.969  1.00  0.00     0.076 C 
HETATM   13  C10 UNL     1      -2.611  -1.777  -2.085  1.00  0.00     0.063 C 
HETATM   14  C11 UNL     1      -3.206  -0.491  -1.863  1.00  0.00     0.084 A 
HETATM   15  N2  UNL     1      -4.222  -0.745  -1.102  1.00  0.00    -0.243 NA
HETATM   16  C12 UNL     1      -4.942   0.435  -0.781  1.00  0.00     0.230 A 
HETATM   17  N3  UNL     1      -4.371   1.418  -1.346  1.00  0.00    -0.249 NA
HETATM   18  C13 UNL     1      -3.210   0.929  -2.090  1.00  0.00     0.282 A 
HETATM   19  N4  UNL     1      -2.002   1.567  -1.544  1.00  0.00    -0.268 NA
HETATM   20  C14 UNL     1      -2.195   2.758  -1.003  1.00  0.00     0.116 C 
HETATM   21  C15 UNL     1      -1.395   3.782  -0.351  1.00  0.00     0.062 C 
HETATM   22  C16 UNL     1      -0.285   4.299   0.106  1.00  0.00     0.135 C 
HETATM   23  F1  UNL     1      -0.189   5.504   0.722  1.00  0.00    -0.205 F 
HETATM   24  C17 UNL     1       1.072   3.791   0.082  1.00  0.00     0.053 A 
HETATM   25 CL1  UNL     1       2.469   4.611   0.743  1.00  0.00    -0.172 Cl
HETATM   26  C18 UNL     1       2.056   2.954  -0.176  1.00  0.00     0.122 A 
HETATM   27  C19 UNL     1       3.303   2.139  -0.376  1.00  0.00     0.060 C 
HETATM   28  H9  UNL     1       0.457  -1.119   0.338  1.00  0.00     0.316 HD
ENDROOT
TORSDOF 0
