REMARK  8 active torsions:
REMARK  status: ('A' for Active; 'I' for Inactive)
REMARK    1  A    between atoms: O1_2  and  C2_3 
REMARK    2  A    between atoms: C6_9  and  N3_10 
REMARK    3  A    between atoms: N3_10  and  C7_11 
REMARK    4  A    between atoms: C7_11  and  C8_12 
REMARK    5  A    between atoms: C8_12  and  C9_13 
REMARK    6  A    between atoms: C12_18  and  C13_19 
REMARK    7  A    between atoms: C13_19  and  N4_20 
REMARK    8  A    between atoms: N4_20  and  C14_21 
ROOT
HETATM    1  C2  UNL     1      -0.605  -0.191  -1.906  1.00  0.00     0.078 A 
HETATM    2  C3  UNL     1       0.559   0.325  -2.437  1.00  0.00     0.070 A 
HETATM    3  C4  UNL     1       1.623   0.595  -1.620  1.00  0.00     0.074 A 
HETATM    4  N1  UNL     1       2.762   1.103  -2.162  1.00  0.00    -0.241 NA
HETATM    5  C5  UNL     1       3.805   1.364  -1.343  1.00  0.00     0.235 A 
HETATM    6  N2  UNL     1       3.766   1.144  -0.020  1.00  0.00    -0.224 NA
HETATM    7  C6  UNL     1       2.689   0.652   0.564  1.00  0.00     0.137 A 
HETATM    8  C10 UNL     1       1.618   0.381  -0.258  1.00  0.00     0.039 A 
HETATM    9  C11 UNL     1       0.458  -0.130   0.247  1.00  0.00     0.029 A 
HETATM   10  C12 UNL     1      -0.647  -0.421  -0.527  1.00  0.00    -0.006 A 
ENDROOT
BRANCH   7  11
HETATM   11  N3  UNL     1       2.654   0.418   1.986  1.00  0.00    -0.373 N 
HETATM   12  H6  UNL     1       1.851   0.036   2.518  1.00  0.00     0.161 HD
BRANCH  11  13
HETATM   13  C7  UNL     1       3.848   0.745   2.742  1.00  0.00     0.131 C 
BRANCH  13  14
HETATM   14  C8  UNL     1       5.047   0.010   2.328  1.00  0.00     0.073 C 
BRANCH  14  15
HETATM   15  C9  UNL     1       5.133  -0.883   1.369  1.00  0.00     0.230 A 
HETATM   16  F1  UNL     1       6.366  -1.458   1.145  1.00  0.00    -0.282 F 
HETATM   17 CL1  UNL     1       6.684  -1.638   1.052  1.00  0.00    -0.010 Cl
ENDBRANCH  14  15
ENDBRANCH  13  14
ENDBRANCH  11  13
ENDBRANCH   7  11
BRANCH  10  18
HETATM   18  C13 UNL     1      -1.936  -0.977  -0.035  1.00  0.00     0.156 C 
BRANCH  18  19
HETATM   19  N4  UNL     1      -2.973  -0.010   0.046  1.00  0.00    -0.414 N 
HETATM   20  H13 UNL     1      -2.951   0.778  -0.600  1.00  0.00     0.153 HD
BRANCH  19  21
HETATM   21  C14 UNL     1      -4.245  -0.465   0.502  1.00  0.00     0.068 C 
HETATM   22  C15 UNL     1      -5.284   0.636   0.563  1.00  0.00     0.031 C 
HETATM   23  C16 UNL     1      -4.078  -0.981   1.917  1.00  0.00     0.031 C 
ENDBRANCH  19  21
ENDBRANCH  18  19
ENDBRANCH  10  18
BRANCH   1  24
HETATM   24  O1  UNL     1      -1.688  -0.466  -2.735  1.00  0.00    -0.355 OA
HETATM   25  C1  UNL     1      -1.598  -0.218  -4.121  1.00  0.00     0.210 C 
ENDBRANCH   1  24
TORSDOF 8
