REMARK  7 active torsions:
REMARK  status: ('A' for Active; 'I' for Inactive)
REMARK    1  A    between atoms: C6_8  and  N3_9 
REMARK    2  A    between atoms: N3_9  and  C7_10 
REMARK    3  A    between atoms: C15_20  and  O1_21 
REMARK    4  A    between atoms: O1_21  and  C16_22 
REMARK    5  A    between atoms: C16_22  and  C17_23 
REMARK    6  A    between atoms: C17_23  and  N4_24 
REMARK    7  A    between atoms: N4_24  and  C18_25 
ROOT
HETATM    1  C1  UNL     1      -1.716   3.068  -0.566  1.00  0.00     0.051 C 
HETATM    2  C2  UNL     1      -0.443   2.271  -0.392  1.00  0.00    -0.026 A 
HETATM    3  C3  UNL     1       0.722   2.942  -0.790  1.00  0.00     0.042 A 
HETATM    4  C4  UNL     1       1.881   2.245  -0.637  1.00  0.00     0.072 A 
HETATM    5  N1  UNL     1       2.998   2.917  -1.040  1.00  0.00    -0.241 NA
HETATM    6  C5  UNL     1       4.180   2.283  -0.922  1.00  0.00     0.236 A 
HETATM    7  N2  UNL     1       4.281   1.022  -0.423  1.00  0.00    -0.224 NA
HETATM    8  C6  UNL     1       3.196   0.338  -0.016  1.00  0.00     0.142 A 
HETATM    9  C13 UNL     1       1.964   0.970  -0.129  1.00  0.00     0.041 A 
HETATM   10  C14 UNL     1       0.797   0.358   0.248  1.00  0.00     0.055 A 
HETATM   11  C15 UNL     1      -0.432   0.968   0.135  1.00  0.00     0.075 A 
ENDROOT
BRANCH   8  12
HETATM   12  N3  UNL     1       3.320  -0.997   0.537  1.00  0.00    -0.340 N 
HETATM   13  H6  UNL     1       2.592  -1.599   0.909  1.00  0.00     0.167 HD
BRANCH  12  14
HETATM   14  C7  UNL     1       4.723  -1.347   0.473  1.00  0.00     0.035 A 
HETATM   15  C8  UNL     1       5.582  -1.597   1.515  1.00  0.00     0.032 A 
HETATM   16  C9  UNL     1       6.906  -1.904   1.230  1.00  0.00     0.046 A 
HETATM   17  C10 UNL     1       7.378  -1.965  -0.052  1.00  0.00     0.138 A 
HETATM   18  F1  UNL     1       8.681  -2.264  -0.341  1.00  0.00    -0.204 F 
HETATM   19  C11 UNL     1       6.561  -1.724  -1.137  1.00  0.00     0.074 A 
HETATM   20 CL1  UNL     1       7.113  -1.792  -2.806  1.00  0.00    -0.081 Cl
HETATM   21  C12 UNL     1       5.239  -1.419  -0.819  1.00  0.00     0.056 A 
ENDBRANCH  12  14
ENDBRANCH   8  12
BRANCH  11  22
HETATM   22  O1  UNL     1      -1.607   0.562   0.429  1.00  0.00    -0.349 OA
BRANCH  22  23
HETATM   23  C16 UNL     1      -2.808   0.143   0.730  1.00  0.00     0.205 C 
BRANCH  23  24
HETATM   24  C17 UNL     1      -3.316  -1.111   0.002  1.00  0.00     0.296 C 
BRANCH  24  25
HETATM   25  N4  UNL     1      -4.643  -1.488   0.392  1.00  0.00     0.089 N 
HETATM   26  H15 UNL     1      -4.826  -2.414  -0.074  1.00  0.00     0.316 HD
BRANCH  25  27
HETATM   27  C18 UNL     1      -5.687  -0.601  -0.019  1.00  0.00     0.212 C 
HETATM   28  C19 UNL     1      -7.003  -1.174   0.512  1.00  0.00     0.042 C 
HETATM   29  C20 UNL     1      -5.839  -0.507  -1.517  1.00  0.00     0.042 C 
ENDBRANCH  25  27
ENDBRANCH  24  25
ENDBRANCH  23  24
ENDBRANCH  22  23
ENDBRANCH  11  22
TORSDOF 7
