REMARK  3 active torsions:
REMARK  status: ('A' for Active; 'I' for Inactive)
REMARK    1  A    between atoms: O1_2  and  C2_3 
REMARK    2  A    between atoms: C9_12  and  N3_13 
REMARK    3  A    between atoms: N3_13  and  C10_14 
ROOT
HETATM    1  C2  UNL     1      -0.746   1.396  -0.181  1.00  0.00     0.096 C 
HETATM    2  C3  UNL     1      -1.972   1.359   0.450  1.00  0.00     0.058 C 
HETATM    3  C4  UNL     1      -2.600   0.687   1.461  1.00  0.00     0.121 C 
HETATM    4  N1  UNL     1      -2.810  -0.613   1.688  1.00  0.00    -0.254 NA
HETATM    5  C5  UNL     1      -3.923  -1.241   1.282  1.00  0.00     0.232 C 
HETATM    6  N2  UNL     1      -3.550  -1.444   0.025  1.00  0.00    -0.254 NA
HETATM    7  C6  UNL     1      -2.674  -2.439  -0.295  1.00  0.00     0.118 C 
HETATM    8  C7  UNL     1      -1.889  -1.846  -1.282  1.00  0.00     0.022 C 
HETATM    9  C8  UNL     1      -1.462  -0.534  -1.513  1.00  0.00     0.034 C 
HETATM   10  C9  UNL     1      -0.502   0.351  -1.050  1.00  0.00     0.066 C 
ENDROOT
BRANCH  10  11
HETATM   11  N3  UNL     1       0.746  -0.018  -1.628  1.00  0.00    -0.354 N 
HETATM   12  H10 UNL     1       0.882  -0.030  -2.660  1.00  0.00     0.166 HD
BRANCH  11  13
HETATM   13  C10 UNL     1       1.822  -0.377  -0.799  1.00  0.00     0.034 A 
HETATM   14  C11 UNL     1       1.736  -0.392   0.577  1.00  0.00     0.032 A 
HETATM   15  C12 UNL     1       2.799  -0.746   1.401  1.00  0.00     0.046 A 
HETATM   16  C13 UNL     1       4.012  -1.104   0.827  1.00  0.00     0.138 A 
HETATM   17  F1  UNL     1       5.086  -1.459   1.564  1.00  0.00    -0.204 F 
HETATM   18  C14 UNL     1       4.160  -1.108  -0.557  1.00  0.00     0.074 A 
HETATM   19 CL1  UNL     1       5.653  -1.546  -1.371  1.00  0.00    -0.081 Cl
HETATM   20  C15 UNL     1       3.047  -0.741  -1.309  1.00  0.00     0.056 A 
ENDBRANCH  11  13
ENDBRANCH  10  11
BRANCH   1  21
HETATM   21  O1  UNL     1       0.285   2.321  -0.081  1.00  0.00    -0.354 OA
HETATM   22  C1  UNL     1       0.259   3.454   0.732  1.00  0.00     0.210 C 
ENDBRANCH   1  21
TORSDOF 3
