REMARK  7 active torsions:
REMARK  status: ('A' for Active; 'I' for Inactive)
REMARK    1  A    between atoms: B1_2  and  C2_3 
REMARK    2  A    between atoms: N1_6  and  C5_7 
REMARK    3  A    between atoms: C12_16  and  O1_17 
REMARK    4  A    between atoms: O1_17  and  C13_18 
REMARK    5  A    between atoms: C13_18  and  C14_19 
REMARK    6  A    between atoms: C14_19  and  N2_20 
REMARK    7  A    between atoms: N2_20  and  C15_21 
ROOT
HETATM    1  C2  UNL     1       1.076  -0.412  -0.902  1.00  0.00    -0.069 A 
HETATM    2  C3  UNL     1       2.369  -0.438  -0.656  1.00  0.00     0.024 A 
HETATM    3  C4  UNL     1       2.878   0.426   0.403  1.00  0.00     0.033 A 
HETATM    4  N1  UNL     1       4.090   0.573   0.822  1.00  0.00    -0.281 NA
HETATM    5  C10 UNL     1       2.050   1.343   1.238  1.00  0.00     0.088 A 
HETATM    6  C11 UNL     1       0.637   1.213   0.795  1.00  0.00     0.015 A 
HETATM    7  C12 UNL     1       0.160   0.441  -0.156  1.00  0.00     0.060 A 
ENDROOT
BRANCH   4   8
HETATM    8  C5  UNL     1       5.145  -0.176   0.220  1.00  0.00     0.158 A 
HETATM    9  C6  UNL     1       6.307  -0.130   1.169  1.00  0.00     0.048 A 
HETATM   10  C7  UNL     1       7.348   0.595   0.728  1.00  0.00     0.136 A 
HETATM   11  F1  UNL     1       8.543   0.848   1.317  1.00  0.00    -0.205 F 
HETATM   12  C8  UNL     1       6.938   1.103  -0.594  1.00  0.00     0.070 A 
HETATM   13 CL1  UNL     1       7.920   2.117  -1.633  1.00  0.00    -0.081 Cl
HETATM   14  C9  UNL     1       5.702   0.675  -0.889  1.00  0.00     0.031 A 
ENDBRANCH   4   8
BRANCH   1  15
HETATM   15  B1  UNL     1       0.550  -1.341  -2.036  1.00  0.00     0.193 B 
HETATM   16  C1  UNL     1       0.148  -2.848  -1.834  1.00  0.00    -0.053 C 
HETATM   17  H4  UNL     1       0.595  -0.869  -3.137  1.00  0.00    -0.021 HD
ENDBRANCH   1  15
BRANCH   7  18
HETATM   18  O1  UNL     1      -1.208   0.464  -0.420  1.00  0.00    -0.350 OA
BRANCH  18  19
HETATM   19  C13 UNL     1      -2.032   0.153   0.714  1.00  0.00     0.205 C 
BRANCH  19  20
HETATM   20  C14 UNL     1      -3.501   0.192   0.379  1.00  0.00     0.296 C 
BRANCH  20  21
HETATM   21  N2  UNL     1      -4.286  -0.133   1.569  1.00  0.00     0.089 N 
HETATM   22  H16 UNL     1      -4.101   0.642   2.254  1.00  0.00     0.316 HD
BRANCH  21  23
HETATM   23  C15 UNL     1      -5.689  -0.083   1.199  1.00  0.00     0.212 C 
HETATM   24  C16 UNL     1      -6.030   1.323   0.700  1.00  0.00     0.042 C 
HETATM   25  C17 UNL     1      -5.989  -1.092   0.121  1.00  0.00     0.042 C 
ENDBRANCH  21  23
ENDBRANCH  20  21
ENDBRANCH  19  20
ENDBRANCH  18  19
ENDBRANCH   7  18
TORSDOF 7
