REMARK  5 active torsions:
REMARK  status: ('A' for Active; 'I' for Inactive)
REMARK    1  A    between atoms: N1_5  and  C5_6 
REMARK    2  A    between atoms: C11_14  and  O1_15 
REMARK    3  A    between atoms: O1_15  and  C12_16 
REMARK    4  A    between atoms: C12_16  and  C13_17 
REMARK    5  A    between atoms: C13_17  and  N4_18 
ROOT
HETATM    1  C5  UNL     1      -2.073  -1.010  -0.849  1.00  0.00     0.142 A 
HETATM    2  N2  UNL     1      -3.163  -1.475  -1.437  1.00  0.00    -0.224 NA
HETATM    3  C6  UNL     1      -3.006  -2.556  -2.257  1.00  0.00     0.236 A 
HETATM    4  N3  UNL     1      -1.832  -3.197  -2.525  1.00  0.00    -0.241 NA
HETATM    5  C7  UNL     1      -0.721  -2.711  -1.915  1.00  0.00     0.072 A 
HETATM    6  C8  UNL     1       0.525  -3.242  -2.076  1.00  0.00     0.042 A 
HETATM    7  C9  UNL     1       1.654  -2.719  -1.428  1.00  0.00    -0.026 A 
HETATM    8  C10 UNL     1       2.955  -3.406  -1.699  1.00  0.00     0.051 C 
HETATM    9  C11 UNL     1       1.447  -1.631  -0.612  1.00  0.00     0.075 A 
HETATM   10  C17 UNL     1       0.211  -1.059  -0.418  1.00  0.00     0.055 A 
HETATM   11  C18 UNL     1      -0.862  -1.621  -1.084  1.00  0.00     0.041 A 
ENDROOT
BRANCH   1  12
HETATM   12  N1  UNL     1      -2.276   0.120  -0.007  1.00  0.00    -0.331 N 
HETATM   13  C4  UNL     1      -1.785   1.509  -0.036  1.00  0.00     0.155 C 
HETATM   14  C3  UNL     1      -3.050   2.313  -0.237  1.00  0.00    -0.005 C 
HETATM   15  C2  UNL     1      -4.274   1.884   0.131  1.00  0.00    -0.082 C 
HETATM   16  C1  UNL     1      -5.591   2.573  -0.010  1.00  0.00     0.043 C 
HETATM   17  C20 UNL     1      -4.466   0.564   0.769  1.00  0.00     0.092 C 
HETATM   18  C19 UNL     1      -3.145  -0.092   1.138  1.00  0.00     0.277 C 
HETATM   19  F1  UNL     1      -2.658   0.555   2.250  1.00  0.00    -0.226 F 
ENDBRANCH   1  12
BRANCH   9  20
HETATM   20  O1  UNL     1       2.681  -1.262  -0.065  1.00  0.00    -0.349 OA
BRANCH  20  21
HETATM   21  C12 UNL     1       3.013  -0.323   0.753  1.00  0.00     0.196 C 
BRANCH  21  22
HETATM   22  C13 UNL     1       3.384   0.724   1.664  1.00  0.00     0.156 C 
BRANCH  22  23
HETATM   23  N4  UNL     1       4.386   1.650   1.073  1.00  0.00    -0.348 N 
HETATM   24  C14 UNL     1       4.085   2.755   0.382  1.00  0.00     0.111 A 
HETATM   25  C15 UNL     1       5.243   3.371  -0.019  1.00  0.00     0.135 A 
HETATM   26  N5  UNL     1       6.251   2.591   0.459  1.00  0.00    -0.255 NA
HETATM   27  C16 UNL     1       5.723   1.550   1.119  1.00  0.00     0.209 A 
ENDBRANCH  22  23
ENDBRANCH  21  22
ENDBRANCH  20  21
ENDBRANCH   9  20
TORSDOF 5
