REMARK  7 active torsions:
REMARK  status: ('A' for Active; 'I' for Inactive)
REMARK    1  A    between atoms: O1_2  and  C2_3 
REMARK    2  A    between atoms: C6_8  and  N2_10 
REMARK    3  A    between atoms: N2_10  and  C7_11 
REMARK    4  A    between atoms: C15_20  and  O2_21 
REMARK    5  A    between atoms: O2_21  and  C16_22 
REMARK    6  A    between atoms: C16_22  and  C17_23 
REMARK    7  A    between atoms: C17_23  and  N3_24 
ROOT
HETATM    1  C2  UNL     1       1.424  -0.260  -1.031  1.00  0.00     0.118 C 
HETATM    2  C3  UNL     1       0.378  -0.502  -1.803  1.00  0.00     0.155 C 
HETATM    3  N1  UNL     1      -1.034  -0.571  -1.651  1.00  0.00    -0.270 NA
HETATM    4  C4  UNL     1      -1.891  -0.412  -0.702  1.00  0.00     0.127 C 
HETATM    5  C5  UNL     1      -1.679  -0.068   0.697  1.00  0.00     0.002 C 
HETATM    6  C6  UNL     1      -2.798  -0.359   1.381  1.00  0.00     0.112 C 
HETATM    7 CL1  UNL     1      -3.003  -0.106   3.125  1.00  0.00    -0.064 Cl
HETATM    8  C13 UNL     1      -0.736   0.472   1.675  1.00  0.00     0.073 C 
HETATM    9  C14 UNL     1       0.693   0.320   1.329  1.00  0.00     0.018 C 
HETATM   10  C15 UNL     1       1.579   0.057   0.384  1.00  0.00     0.100 C 
ENDROOT
BRANCH   6  11
HETATM   11  N2  UNL     1      -4.088  -0.892   1.130  1.00  0.00    -0.346 N 
HETATM   12  H6  UNL     1      -4.392  -1.876   1.358  1.00  0.00     0.167 HD
BRANCH  11  13
HETATM   13  C7  UNL     1      -5.325  -0.493   0.579  1.00  0.00     0.033 A 
HETATM   14  C8  UNL     1      -5.830  -0.659  -0.680  1.00  0.00     0.032 A 
HETATM   15  C9  UNL     1      -7.073  -0.185  -1.040  1.00  0.00     0.044 A 
HETATM   16  C10 UNL     1      -7.850   0.486  -0.107  1.00  0.00     0.116 A 
HETATM   17  F1  UNL     1      -9.036   0.895  -0.589  1.00  0.00    -0.206 F 
HETATM   18  C11 UNL     1      -7.378   0.675   1.173  1.00  0.00     0.044 A 
HETATM   19  C12 UNL     1      -6.124   0.186   1.505  1.00  0.00     0.032 A 
ENDBRANCH  11  13
ENDBRANCH   6  11
BRANCH  10  20
HETATM   20  O2  UNL     1       2.915   0.072   0.745  1.00  0.00    -0.347 OA
BRANCH  20  21
HETATM   21  C16 UNL     1       3.581   1.335   0.803  1.00  0.00     0.196 C 
BRANCH  21  22
HETATM   22  C17 UNL     1       5.020   1.074   1.152  1.00  0.00     0.156 C 
BRANCH  22  23
HETATM   23  N3  UNL     1       5.614   0.236   0.138  1.00  0.00    -0.348 N 
HETATM   24  C18 UNL     1       6.214   0.757  -0.949  1.00  0.00     0.111 A 
HETATM   25  C19 UNL     1       6.686  -0.261  -1.739  1.00  0.00     0.135 A 
HETATM   26  N4  UNL     1       6.363  -1.421  -1.113  1.00  0.00    -0.255 NA
HETATM   27  C20 UNL     1       5.709  -1.098   0.031  1.00  0.00     0.209 A 
ENDBRANCH  22  23
ENDBRANCH  21  22
ENDBRANCH  20  21
ENDBRANCH  10  20
BRANCH   1  28
HETATM   28  O1  UNL     1       2.655  -0.309  -1.668  1.00  0.00    -0.352 OA
HETATM   29  C1  UNL     1       3.033  -1.547  -2.240  1.00  0.00     0.210 C 
ENDBRANCH   1  28
TORSDOF 7
