REMARK  6 active torsions:
REMARK  status: ('A' for Active; 'I' for Inactive)
REMARK    1  A    between atoms: C1_2  and  C2_3 
REMARK    2  A    between atoms: C6_8  and  N3_9 
REMARK    3  A    between atoms: N3_9  and  C7_10 
REMARK    4  A    between atoms: C7_10  and  C8_11 
REMARK    5  A    between atoms: C9_12  and  C10_14 
REMARK    6  A    between atoms: C10_14  and  C11_15 
ROOT
HETATM    1  C2  UNL     1      -4.088   1.538   0.657  1.00  0.00     0.008 C 
HETATM    2  C3  UNL     1      -2.899   1.923   1.167  1.00  0.00    -0.001 C 
HETATM    3  C4  UNL     1      -1.623   1.311   0.947  1.00  0.00     0.056 C 
HETATM    4  C5  UNL     1      -0.419   1.910   1.576  1.00  0.00     0.101 C 
HETATM    5  N2  UNL     1       0.657   1.288   1.127  1.00  0.00    -0.245 NA
HETATM    6  C6  UNL     1       0.608   0.007   0.453  1.00  0.00     0.152 C 
HETATM    7  C12 UNL     1      -0.563  -0.659   0.234  1.00  0.00     0.092 C 
HETATM    8  C13 UNL     1      -1.507  -0.164   1.330  1.00  0.00     0.082 C 
HETATM    9  O1  UNL     1      -0.675  -1.524  -0.793  1.00  0.00    -0.350 OA
HETATM   10  C14 UNL     1      -1.404  -2.651  -1.051  1.00  0.00     0.195 C 
HETATM   11  C15 UNL     1      -2.643  -2.326  -1.943  1.00  0.00     0.156 C 
HETATM   12  N4  UNL     1      -3.469  -1.410  -1.140  1.00  0.00    -0.347 N 
HETATM   13  C16 UNL     1      -4.455  -1.802  -0.316  1.00  0.00     0.210 A 
HETATM   14  N5  UNL     1      -4.753  -0.666   0.345  1.00  0.00    -0.242 NA
HETATM   15  C17 UNL     1      -3.925   0.311  -0.134  1.00  0.00     0.085 A 
HETATM   16  C18 UNL     1      -3.070  -0.127  -1.119  1.00  0.00     0.124 A 
ENDROOT
BRANCH   6  17
HETATM   17  N3  UNL     1       1.866  -0.559  -0.033  1.00  0.00    -0.369 N 
HETATM   18  H6  UNL     1       1.790  -1.229  -0.831  1.00  0.00     0.161 HD
BRANCH  17  19
HETATM   19  C7  UNL     1       3.073  -0.151   0.614  1.00  0.00     0.150 C 
BRANCH  19  20
HETATM   20  C8  UNL     1       4.290  -0.778   0.050  1.00  0.00     0.012 C 
HETATM   21  C9  UNL     1       5.423  -0.389  -0.530  1.00  0.00     0.012 C 
HETATM   22 CL1  UNL     1       6.711  -1.434  -1.104  1.00  0.00    -0.089 Cl
BRANCH  21  23
HETATM   23  C10 UNL     1       5.909   0.983  -0.847  1.00  0.00     0.082 C 
BRANCH  23  24
HETATM   24  C11 UNL     1       7.215   1.289  -0.151  1.00  0.00     0.227 C 
HETATM   25  F1  UNL     1       8.129   0.356  -0.593  1.00  0.00    -0.255 F 
ENDBRANCH  23  24
ENDBRANCH  21  23
ENDBRANCH  19  20
ENDBRANCH  17  19
ENDBRANCH   6  17
BRANCH   1  26
HETATM   26  C1  UNL     1      -5.315   2.244   0.945  1.00  0.00     0.120 C 
HETATM   27  N1  UNL     1      -6.400   1.816   0.420  1.00  0.00    -0.311 NA
HETATM   28  H1  UNL     1      -6.362   0.981  -0.193  1.00  0.00     0.186 HD
ENDBRANCH   1  26
TORSDOF 6
