REMARK  7 active torsions:
REMARK  status: ('A' for Active; 'I' for Inactive)
REMARK    1  A    between atoms: N1_2  and  C2_3 
REMARK    2  A    between atoms: C2_3  and  C3_4 
REMARK    3  A    between atoms: C3_4  and  O1_5 
REMARK    4  A    between atoms: O1_5  and  C4_6 
REMARK    5  A    between atoms: C7_9  and  N2_10 
REMARK    6  A    between atoms: N2_10  and  C8_11 
REMARK    7  A    between atoms: C17_24  and  O2_25 
ROOT
HETATM    1  C4  UNL     1      -1.562  -0.802  -0.328  1.00  0.00     0.103 A 
HETATM    2  C5  UNL     1      -0.488  -1.133   0.380  1.00  0.00     0.054 A 
HETATM    3  C6  UNL     1       0.748  -0.456   0.066  1.00  0.00     0.012 A 
HETATM    4  C7  UNL     1       1.778  -0.818   0.852  1.00  0.00     0.102 C 
HETATM    5  C14 UNL     1       0.912   0.555  -0.963  1.00  0.00     0.083 A 
HETATM    6  N3  UNL     1       2.047   1.129  -1.192  1.00  0.00    -0.173 NA
HETATM    7  C15 UNL     1       2.060   2.095  -2.230  1.00  0.00     0.206 C 
HETATM    8  N4  UNL     1       2.065   2.911  -3.078  1.00  0.00    -0.170 NA
HETATM    9  C16 UNL     1      -0.350   0.852  -1.700  1.00  0.00     0.073 A 
HETATM   10  C17 UNL     1      -1.471   0.191  -1.362  1.00  0.00     0.103 A 
ENDROOT
BRANCH   4  11
HETATM   11  N2  UNL     1       3.072  -0.337   0.783  1.00  0.00    -0.365 N 
HETATM   12  H11 UNL     1       2.588   0.544   1.102  1.00  0.00     0.165 HD
BRANCH  11  13
HETATM   13  C8  UNL     1       4.363   0.129   0.711  1.00  0.00     0.033 A 
HETATM   14  C9  UNL     1       5.185  -0.980   0.432  1.00  0.00     0.032 A 
HETATM   15  C10 UNL     1       6.563  -0.845   0.289  1.00  0.00     0.046 A 
HETATM   16  C11 UNL     1       7.032   0.444   0.440  1.00  0.00     0.138 A 
HETATM   17  F1  UNL     1       8.342   0.692   0.333  1.00  0.00    -0.204 F 
HETATM   18  C12 UNL     1       6.264   1.538   0.711  1.00  0.00     0.074 A 
HETATM   19 CL1  UNL     1       6.860   3.169   0.910  1.00  0.00    -0.081 Cl
HETATM   20  C13 UNL     1       4.919   1.365   0.846  1.00  0.00     0.056 A 
ENDBRANCH  11  13
ENDBRANCH   4  11
BRANCH  10  21
HETATM   21  O2  UNL     1      -2.433   0.720  -2.253  1.00  0.00    -0.353 OA
HETATM   22  C18 UNL     1      -2.760  -0.154  -3.329  1.00  0.00     0.210 C 
ENDBRANCH  10  21
BRANCH   1  23
HETATM   23  O1  UNL     1      -2.840  -1.268  -0.247  1.00  0.00    -0.347 OA
BRANCH  23  24
HETATM   24  C3  UNL     1      -3.647  -1.157   0.915  1.00  0.00     0.205 C 
BRANCH  24  25
HETATM   25  C2  UNL     1      -4.405   0.165   0.892  1.00  0.00     0.295 C 
BRANCH  25  26
HETATM   26  N1  UNL     1      -5.252   0.358   2.018  1.00  0.00     0.081 N 
HETATM   27  C1  UNL     1      -6.410  -0.481   2.096  1.00  0.00     0.306 C 
HETATM   28  H4  UNL     1      -5.563   1.355   2.024  1.00  0.00     0.315 HD
ENDBRANCH  25  26
ENDBRANCH  24  25
ENDBRANCH  23  24
ENDBRANCH   1  23
TORSDOF 7
