REMARK  3 active torsions:
REMARK  status: ('A' for Active; 'I' for Inactive)
REMARK    1  A    between atoms: O1_2  and  C2_3 
REMARK    2  A    between atoms: C7_10  and  N3_11 
REMARK    3  A    between atoms: N3_11  and  C8_12 
ROOT
HETATM    1  C2  UNL     1      -0.552  -1.491  -0.768  1.00  0.00    -0.004 C 
HETATM    2  C3  UNL     1       0.067  -0.345  -0.568  1.00  0.00     0.036 C 
HETATM    3  C4  UNL     1      -0.093   0.943   0.087  1.00  0.00     0.040 A 
HETATM    4  C5  UNL     1      -0.826   2.070  -0.079  1.00  0.00     0.072 A 
HETATM    5  N1  UNL     1      -0.788   3.118   0.745  1.00  0.00    -0.241 NA
HETATM    6  C6  UNL     1       0.015   3.092   1.817  1.00  0.00     0.236 A 
HETATM    7  N2  UNL     1       0.805   2.011   2.094  1.00  0.00    -0.224 NA
HETATM    8  C7  UNL     1       0.724   0.976   1.220  1.00  0.00     0.142 A 
HETATM    9  C14 UNL     1      -1.791   2.470  -1.131  1.00  0.00     0.030 C 
HETATM   10  C15 UNL     1      -3.092   2.419  -1.310  1.00  0.00     0.005 C 
HETATM   11  C16 UNL     1      -3.950   1.818  -0.247  1.00  0.00     0.297 C 
HETATM   12  N4  UNL     1      -4.648   0.642  -0.757  1.00  0.00     0.086 N 
HETATM   13  C17 UNL     1      -3.682  -0.412  -1.042  1.00  0.00     0.260 C 
HETATM   14  C18 UNL     1      -3.045  -0.931   0.228  1.00  0.00    -0.016 C 
HETATM   15  B1  UNL     1      -1.960  -2.009  -0.295  1.00  0.00     0.226 B 
HETATM   16  H14 UNL     1      -5.259   0.305  -0.002  1.00  0.00     0.316 HD
HETATM   17  H19 UNL     1      -2.366  -2.996  -0.840  1.00  0.00    -0.019 HD
ENDROOT
BRANCH   8  18
HETATM   18  N3  UNL     1       1.591  -0.100   1.571  1.00  0.00    -0.340 N 
HETATM   19  H6  UNL     1       1.004  -0.729   2.118  1.00  0.00     0.167 HD
BRANCH  18  20
HETATM   20  C8  UNL     1       2.960  -0.201   1.203  1.00  0.00     0.035 A 
HETATM   21  C9  UNL     1       3.671  -1.287   1.669  1.00  0.00     0.032 A 
HETATM   22  C10 UNL     1       5.023  -1.434   1.344  1.00  0.00     0.046 A 
HETATM   23  C11 UNL     1       5.586  -0.438   0.542  1.00  0.00     0.138 A 
HETATM   24  F1  UNL     1       6.891  -0.610   0.247  1.00  0.00    -0.204 F 
HETATM   25  C12 UNL     1       4.853   0.637   0.090  1.00  0.00     0.074 A 
HETATM   26 CL1  UNL     1       5.650   1.854  -0.921  1.00  0.00    -0.081 Cl
HETATM   27  C13 UNL     1       3.514   0.780   0.413  1.00  0.00     0.056 A 
ENDBRANCH  18  20
ENDBRANCH   8  18
BRANCH   1  28
HETATM   28  O1  UNL     1       0.156  -2.425  -1.538  1.00  0.00    -0.373 OA
HETATM   29  C1  UNL     1       0.635  -3.632  -0.980  1.00  0.00     0.208 C 
ENDBRANCH   1  28
TORSDOF 3
