REMARK  4 active torsions:
REMARK  status: ('A' for Active; 'I' for Inactive)
REMARK    1  A    between atoms: O1_2  and  C2_3 
REMARK    2  A    between atoms: C7_10  and  N3_11 
REMARK    3  A    between atoms: N3_11  and  C8_12 
REMARK    4  A    between atoms: C16_20  and  O2_21 
ROOT
HETATM    1  C2  UNL     1      -2.864   0.918   0.423  1.00  0.00     0.076 C 
HETATM    2  C3  UNL     1      -2.667   1.976  -0.336  1.00  0.00     0.038 C 
HETATM    3  C4  UNL     1      -1.423   2.553  -0.816  1.00  0.00     0.327 C 
HETATM    4  N1  UNL     1      -0.530   3.254  -1.359  1.00  0.00    -0.413 NA
HETATM    5  C5  UNL     1       0.869   2.962  -1.252  1.00  0.00     0.090 C 
HETATM    6  C6  UNL     1       1.455   2.378  -0.230  1.00  0.00     0.105 C 
HETATM    7  N2  UNL     1       0.756   1.951   0.924  1.00  0.00    -0.351 N 
HETATM    8  C7  UNL     1       0.227   0.670   1.223  1.00  0.00     0.104 C 
HETATM    9  C15 UNL     1      -0.849  -0.075   1.312  1.00  0.00     0.060 C 
HETATM   10  C16 UNL     1      -2.300  -0.204   1.188  1.00  0.00     0.203 C 
HETATM   11  H8  UNL     1       0.752   2.830   1.468  1.00  0.00     0.166 HD
ENDROOT
BRANCH   8  12
HETATM   12  N3  UNL     1       1.528   0.183   1.523  1.00  0.00    -0.343 N 
HETATM   13  H9  UNL     1       2.106   0.228   2.403  1.00  0.00     0.167 HD
BRANCH  12  14
HETATM   14  C8  UNL     1       2.198  -0.502   0.460  1.00  0.00     0.034 A 
HETATM   15  C9  UNL     1       1.565  -0.664  -0.762  1.00  0.00     0.029 A 
HETATM   16  C10 UNL     1       2.128  -1.311  -1.852  1.00  0.00     0.003 A 
HETATM   17  C11 UNL     1       3.399  -1.833  -1.727  1.00  0.00     0.007 A 
HETATM   18  C12 UNL     1       4.056  -1.690  -0.528  1.00  0.00    -0.060 A 
HETATM   19  C13 UNL     1       5.431  -2.242  -0.362  1.00  0.00     0.048 C 
HETATM   20  C14 UNL     1       3.469  -1.041   0.536  1.00  0.00     0.036 A 
ENDBRANCH  12  14
ENDBRANCH   8  12
BRANCH  10  21
HETATM   21  O2  UNL     1      -2.693  -1.425   0.624  1.00  0.00    -0.380 OA
HETATM   22  C17 UNL     1      -3.385  -2.180   1.554  1.00  0.00     0.202 C 
ENDBRANCH  10  21
BRANCH   1  23
HETATM   23  O1  UNL     1      -4.229   0.714   0.641  1.00  0.00    -0.357 OA
HETATM   24  C1  UNL     1      -5.102   0.495  -0.435  1.00  0.00     0.209 C 
ENDBRANCH   1  23
TORSDOF 4
