REMARK  7 active torsions:
REMARK  status: ('A' for Active; 'I' for Inactive)
REMARK    1  A    between atoms: O1_2  and  C2_3 
REMARK    2  A    between atoms: N1_7  and  C6_8 
REMARK    3  A    between atoms: C6_8  and  C7_9 
REMARK    4  A    between atoms: N2_10  and  C8_11 
REMARK    5  A    between atoms: C8_11  and  N3_12 
REMARK    6  A    between atoms: N3_12  and  C9_13 
REMARK    7  A    between atoms: C17_21  and  O2_22 
ROOT
HETATM    1  C6  UNL     1       0.633   1.643  -1.184  1.00  0.00     0.195 C 
ENDROOT
BRANCH   1   2
HETATM    2  N1  UNL     1       1.927   1.246  -1.700  1.00  0.00    -0.289 NA
HETATM    3  C5  UNL     1       2.857   0.824  -0.910  1.00  0.00     0.035 A 
HETATM    4  C4  UNL     1       4.087   0.479  -1.675  1.00  0.00     0.088 A 
HETATM    5  C16 UNL     1       2.792   0.676   0.542  1.00  0.00     0.066 A 
HETATM    6  C3  UNL     1       5.152  -0.006  -0.755  1.00  0.00     0.019 A 
HETATM    7  C2  UNL     1       5.102  -0.143   0.561  1.00  0.00     0.098 A 
HETATM    8  C17 UNL     1       3.842   0.226   1.212  1.00  0.00     0.103 A 
BRANCH   7   9
HETATM    9  O1  UNL     1       6.099  -0.596   1.415  1.00  0.00    -0.353 OA
HETATM   10  C1  UNL     1       7.418  -0.084   1.357  1.00  0.00     0.210 C 
ENDBRANCH   7   9
BRANCH   8  11
HETATM   11  O2  UNL     1       3.617   0.145   2.586  1.00  0.00    -0.353 OA
HETATM   12  C18 UNL     1       3.466  -1.061   3.274  1.00  0.00     0.210 C 
ENDBRANCH   8  11
ENDBRANCH   1   2
BRANCH   1  13
HETATM   13  C7  UNL     1      -0.222   0.430  -1.051  1.00  0.00     0.107 C 
HETATM   14  N2  UNL     1      -1.416  -0.016  -1.263  1.00  0.00    -0.285 NA
BRANCH  14  15
HETATM   15  C8  UNL     1      -2.324   0.955  -1.844  1.00  0.00     0.269 C 
BRANCH  15  16
HETATM   16  N3  UNL     1      -3.635   0.381  -2.069  1.00  0.00    -0.372 N 
HETATM   17  H12 UNL     1      -4.026   0.345  -3.016  1.00  0.00     0.161 HD
BRANCH  16  18
HETATM   18  C9  UNL     1      -4.382  -0.133  -0.972  1.00  0.00     0.029 A 
HETATM   19  C10 UNL     1      -3.899  -0.107   0.320  1.00  0.00     0.029 A 
HETATM   20  C11 UNL     1      -4.659  -0.620   1.363  1.00  0.00     0.003 A 
HETATM   21  C12 UNL     1      -5.919  -1.174   1.162  1.00  0.00     0.007 A 
HETATM   22  C13 UNL     1      -6.370  -1.186  -0.127  1.00  0.00    -0.060 A 
HETATM   23  C14 UNL     1      -7.719  -1.775  -0.373  1.00  0.00     0.048 C 
HETATM   24  C15 UNL     1      -5.631  -0.682  -1.175  1.00  0.00     0.036 A 
ENDBRANCH  16  18
ENDBRANCH  15  16
ENDBRANCH  14  15
ENDBRANCH   1  13
TORSDOF 7
