REMARK  7 active torsions:
REMARK  status: ('A' for Active; 'I' for Inactive)
REMARK    1  A    between atoms: C1_2  and  C2_3 
REMARK    2  A    between atoms: C1_2  and  C10_12 
REMARK    3  A    between atoms: C2_3  and  C3_4 
REMARK    4  A    between atoms: C3_4  and  C4_5 
REMARK    5  A    between atoms: C7_8  and  O2_9 
REMARK    6  A    between atoms: C11_13  and  O3_14 
REMARK    7  A    between atoms: O3_14  and  O4_15 
ROOT
HETATM    1  O1  UNL     1      -1.256  -1.442   1.674  1.00  0.00    -0.293 OA
HETATM    2  C1  UNL     1      -0.910  -0.709   0.687  1.00  0.00     0.160 C 
ENDROOT
BRANCH   2   3
HETATM    3  C2  UNL     1       0.550  -0.900   0.676  1.00  0.00     0.088 C 
BRANCH   3   4
HETATM    4  C3  UNL     1       1.127  -0.126  -0.486  1.00  0.00     0.046 C 
BRANCH   4   5
HETATM    5  C4  UNL     1       2.603  -0.261  -0.563  1.00  0.00    -0.058 A 
HETATM    6  C5  UNL     1       3.413   0.647   0.111  1.00  0.00     0.010 A 
HETATM    7  C6  UNL     1       4.788   0.584   0.085  1.00  0.00     0.037 A 
HETATM    8  C7  UNL     1       5.360  -0.441  -0.654  1.00  0.00     0.065 A 
HETATM    9  C8  UNL     1       4.619  -1.378  -1.349  1.00  0.00     0.037 A 
HETATM   10  C9  UNL     1       3.229  -1.246  -1.273  1.00  0.00     0.010 A 
BRANCH   8  11
HETATM   11  O2  UNL     1       6.751  -0.539  -0.706  1.00  0.00    -0.361 OA
HETATM   12  H7  UNL     1       7.334   0.115  -0.201  1.00  0.00     0.217 HD
ENDBRANCH   8  11
ENDBRANCH   4   5
ENDBRANCH   3   4
ENDBRANCH   2   3
BRANCH   2  13
HETATM   13  C10 UNL     1      -1.984  -0.017  -0.002  1.00  0.00     0.050 C 
HETATM   14  C11 UNL     1      -3.163  -0.280   0.533  1.00  0.00     0.119 C 
HETATM   15  C12 UNL     1      -4.594   0.124   0.270  1.00  0.00     0.238 C 
HETATM   16  O5  UNL     1      -4.554   1.224  -0.599  1.00  0.00    -0.356 OA
HETATM   17  C13 UNL     1      -3.678   2.131  -0.004  1.00  0.00     0.438 C 
HETATM   18  N1  UNL     1      -2.420   2.216  -0.704  1.00  0.00     0.110 N 
HETATM   19  C14 UNL     1      -1.984   0.893  -1.146  1.00  0.00     0.317 C 
HETATM   20  H15 UNL     1      -1.693   2.535  -0.003  1.00  0.00     0.319 HD
BRANCH  14  21
HETATM   21  O3  UNL     1      -3.291  -1.127   1.623  1.00  0.00    -0.202 OA
BRANCH  21  22
HETATM   22  O4  UNL     1      -3.985  -2.259   1.435  1.00  0.00    -0.245 OA
HETATM   23  H10 UNL     1      -4.111  -2.470   0.479  1.00  0.00     0.254 HD
ENDBRANCH  21  22
ENDBRANCH  14  21
ENDBRANCH   2  13
TORSDOF 7
