REMARK  5 active torsions:
REMARK  status: ('A' for Active; 'I' for Inactive)
REMARK    1  A    between atoms: O1_2  and  C2_3 
REMARK    2  A    between atoms: C6_9  and  N3_10 
REMARK    3  A    between atoms: N3_10  and  C7_11 
REMARK    4  A    between atoms: C8_12  and  C9_13 
REMARK    5  A    between atoms: C13_18  and  O2_19 
ROOT
HETATM    1  C2  UNL     1      -2.402   0.284   0.406  1.00  0.00     0.103 A 
HETATM    2  C3  UNL     1      -2.014   0.075   1.736  1.00  0.00     0.072 A 
HETATM    3  C4  UNL     1      -0.740  -0.457   1.980  1.00  0.00     0.075 A 
HETATM    4  N1  UNL     1      -0.369  -0.660   3.223  1.00  0.00    -0.241 NA
HETATM    5  C5  UNL     1       0.831  -1.170   3.524  1.00  0.00     0.236 A 
HETATM    6  N2  UNL     1       1.658  -1.471   2.493  1.00  0.00    -0.224 NA
HETATM    7  C6  UNL     1       1.255  -1.254   1.234  1.00  0.00     0.141 A 
HETATM    8  C11 UNL     1       0.035  -0.735   0.878  1.00  0.00     0.042 A 
HETATM    9  C12 UNL     1      -0.295  -0.550  -0.430  1.00  0.00     0.057 A 
HETATM   10  C13 UNL     1      -1.546  -0.028  -0.651  1.00  0.00     0.102 A 
ENDROOT
BRANCH   7  11
HETATM   11  N3  UNL     1       2.265  -1.634   0.273  1.00  0.00    -0.350 N 
HETATM   12  H6  UNL     1       2.919  -1.982  -0.404  1.00  0.00     0.166 HD
BRANCH  11  13
HETATM   13  C7  UNL     1       3.090  -0.439   0.249  1.00  0.00     0.089 C 
HETATM   14  C8  UNL     1       3.374   0.470  -0.700  1.00  0.00     0.014 C 
BRANCH  14  15
HETATM   15  C9  UNL     1       3.047   0.732  -2.092  1.00  0.00    -0.004 C 
HETATM   16  C10 UNL     1       3.347   1.647  -3.014  1.00  0.00     0.259 C 
HETATM   17 CL1  UNL     1       2.599   1.393  -4.569  1.00  0.00    -0.251 Cl
ENDBRANCH  14  15
ENDBRANCH  11  13
ENDBRANCH   7  11
BRANCH  10  18
HETATM   18  O2  UNL     1      -2.004   0.208  -1.937  1.00  0.00    -0.353 OA
HETATM   19  C14 UNL     1      -1.223  -0.071  -3.083  1.00  0.00     0.210 C 
ENDBRANCH  10  18
BRANCH   1  20
HETATM   20  O1  UNL     1      -3.645   0.806   0.125  1.00  0.00    -0.353 OA
HETATM   21  C1  UNL     1      -4.535   1.134   1.180  1.00  0.00     0.210 C 
ENDBRANCH   1  20
TORSDOF 5
