REMARK  8 active torsions:
REMARK  status: ('A' for Active; 'I' for Inactive)
REMARK    1  A    between atoms: O1_2  and  C2_3 
REMARK    2  A    between atoms: C3_4  and  C4_5 
REMARK    3  A    between atoms: C5_6  and  C6_7 
REMARK    4  A    between atoms: C6_7  and  C7_8 
REMARK    5  A    between atoms: C7_8  and  P1_9 
REMARK    6  A    between atoms: P1_9  and  O2_10 
REMARK    7  A    between atoms: C10_15  and  N3_16 
REMARK    8  A    between atoms: N3_16  and  C11_17 
ROOT
HETATM    1  C4  UNL     1       0.806   0.545   0.784  1.00  0.00     0.041 A 
HETATM    2  C5  UNL     1       2.033   0.104   1.170  1.00  0.00     0.079 A 
HETATM    3  N1  UNL     1       2.189  -1.216   1.361  1.00  0.00    -0.241 NA
HETATM    4  C9  UNL     1       1.148  -2.046   1.167  1.00  0.00     0.236 A 
HETATM    5  N2  UNL     1      -0.044  -1.574   0.787  1.00  0.00    -0.224 NA
HETATM    6  C10 UNL     1      -0.262  -0.277   0.582  1.00  0.00     0.142 A 
ENDROOT
BRANCH   6   7
HETATM    7  N3  UNL     1      -1.501   0.277   0.181  1.00  0.00    -0.340 N 
HETATM    8  H11 UNL     1      -1.574   1.311   0.049  1.00  0.00     0.167 HD
BRANCH   7   9
HETATM    9  C11 UNL     1      -2.728  -0.376  -0.087  1.00  0.00     0.034 A 
HETATM   10  C12 UNL     1      -3.888   0.313  -0.464  1.00  0.00     0.029 A 
HETATM   11  C13 UNL     1      -5.076  -0.301  -0.726  1.00  0.00     0.003 A 
HETATM   12  C14 UNL     1      -5.201  -1.661  -0.631  1.00  0.00     0.007 A 
HETATM   13  C15 UNL     1      -4.088  -2.402  -0.261  1.00  0.00    -0.060 A 
HETATM   14  C16 UNL     1      -4.262  -3.869  -0.169  1.00  0.00     0.048 C 
HETATM   15  C17 UNL     1      -2.929  -1.737  -0.012  1.00  0.00     0.036 A 
ENDBRANCH   7   9
ENDBRANCH   6   7
BRANCH   1  16
HETATM   16  C3  UNL     1       0.633   1.962   0.578  1.00  0.00     0.041 C 
HETATM   17  C2  UNL     1       1.536   2.898   0.726  1.00  0.00     0.135 C 
BRANCH  17  18
HETATM   18  O1  UNL     1       1.815   4.235   0.656  1.00  0.00    -0.368 OA
HETATM   19  C1  UNL     1       1.089   5.020  -0.303  1.00  0.00     0.208 C 
ENDBRANCH  17  18
ENDBRANCH   1  16
BRANCH   2  20
HETATM   20  C6  UNL     1       3.225   0.893   1.410  1.00  0.00     0.091 C 
BRANCH  20  21
HETATM   21  C7  UNL     1       3.999   0.810   0.336  1.00  0.00    -0.086 C 
BRANCH  21  22
HETATM   22  P1  UNL     1       5.263   0.695  -0.741  1.00  0.00     0.163 P 
BRANCH  22  23
HETATM   23  O2  UNL     1       6.240  -0.759  -0.602  1.00  0.00    -0.350 OA
HETATM   24  C8  UNL     1       5.710  -1.621  -1.589  1.00  0.00     0.209 C 
ENDBRANCH  22  23
ENDBRANCH  21  22
ENDBRANCH  20  21
ENDBRANCH   2  20
TORSDOF 8
