REMARK  7 active torsions:
REMARK  status: ('A' for Active; 'I' for Inactive)
REMARK    1  A    between atoms: O1_2  and  C2_3 
REMARK    2  A    between atoms: C2_3  and  C3_4 
REMARK    3  A    between atoms: C3_4  and  C4_5 
REMARK    4  A    between atoms: C4_5  and  C6_7 
REMARK    5  A    between atoms: C6_7  and  N1_8 
REMARK    6  A    between atoms: N1_8  and  C7_9 
REMARK    7  A    between atoms: C11_15  and  O2_16 
ROOT
HETATM    1  C7  UNL     1       0.848   0.994  -1.399  1.00  0.00     0.224 A 
HETATM    2  N2  UNL     1       0.538   1.544  -2.605  1.00  0.00    -0.218 NA
HETATM    3  C8  UNL     1       1.499   1.549  -3.544  1.00  0.00     0.235 A 
HETATM    4  N3  UNL     1       2.757   1.046  -3.376  1.00  0.00    -0.241 NA
HETATM    5  C9  UNL     1       3.063   0.486  -2.140  1.00  0.00     0.074 A 
HETATM    6  C10 UNL     1       4.329  -0.009  -1.942  1.00  0.00     0.069 A 
HETATM    7  C11 UNL     1       4.606  -0.547  -0.663  1.00  0.00     0.070 A 
HETATM    8  C13 UNL     1       3.604  -0.536   0.271  1.00  0.00     0.038 A 
HETATM    9  C14 UNL     1       2.340  -0.051   0.094  1.00  0.00     0.020 A 
HETATM   10  C15 UNL     1       2.088   0.478  -1.177  1.00  0.00     0.045 A 
ENDROOT
BRANCH   1  11
HETATM   11  N1  UNL     1      -0.289   1.019  -0.414  1.00  0.00    -0.068 N 
HETATM   12  H12 UNL     1       0.257   1.901   0.054  1.00  0.00     0.268 HD
BRANCH  11  13
HETATM   13  C6  UNL     1      -1.541   0.048  -0.379  1.00  0.00     0.601 C 
BRANCH  13  14
HETATM   14  C4  UNL     1      -2.465   0.686   0.249  1.00  0.00     0.000 C 
HETATM   15  C5  UNL     1      -3.476   1.520   1.004  1.00  0.00     0.018 C 
BRANCH  14  16
HETATM   16  C3  UNL     1      -3.337  -0.536   0.023  1.00  0.00     0.038 C 
BRANCH  16  17
HETATM   17  C2  UNL     1      -3.806  -1.217   1.256  1.00  0.00     0.167 C 
BRANCH  17  18
HETATM   18  O1  UNL     1      -4.658  -0.595   2.101  1.00  0.00    -0.396 OA
HETATM   19  C1  UNL     1      -5.919  -0.393   1.583  1.00  0.00     0.201 C 
ENDBRANCH  17  18
ENDBRANCH  16  17
ENDBRANCH  14  16
ENDBRANCH  13  14
ENDBRANCH  11  13
ENDBRANCH   1  11
BRANCH   7  20
HETATM   20  O2  UNL     1       5.884  -1.006  -0.564  1.00  0.00    -0.356 OA
HETATM   21  C12 UNL     1       6.525  -1.599   0.517  1.00  0.00     0.210 C 
ENDBRANCH   7  20
TORSDOF 7
