REMARK  8 active torsions:
REMARK  status: ('A' for Active; 'I' for Inactive)
REMARK    1  A    between atoms: N1_2  and  C3_4 
REMARK    2  A    between atoms: C3_4  and  C4_5 
REMARK    3  A    between atoms: C4_5  and  C5_6 
REMARK    4  A    between atoms: C5_6  and  O1_7 
REMARK    5  A    between atoms: O1_7  and  C6_8 
REMARK    6  A    between atoms: C9_11  and  N2_12 
REMARK    7  A    between atoms: N2_12  and  C10_13 
REMARK    8  A    between atoms: C10_13  and  C11_14 
ROOT
HETATM    1  C6  UNL     1       0.302  -2.070   0.831  1.00  0.00     0.108 A 
HETATM    2  C7  UNL     1      -0.577  -1.039   0.622  1.00  0.00     0.057 A 
HETATM    3  C8  UNL     1      -1.831  -1.118   0.070  1.00  0.00     0.041 A 
HETATM    4  C9  UNL     1      -2.542   0.053  -0.046  1.00  0.00     0.137 A 
HETATM    5  N3  UNL     1      -3.759  -0.117  -0.597  1.00  0.00    -0.224 NA
HETATM    6  C13 UNL     1      -4.232  -1.308  -0.994  1.00  0.00     0.235 A 
HETATM    7  N4  UNL     1      -3.500  -2.416  -0.859  1.00  0.00    -0.241 NA
HETATM    8  C14 UNL     1      -2.271  -2.358  -0.321  1.00  0.00     0.075 A 
HETATM    9  C15 UNL     1      -1.453  -3.481  -0.151  1.00  0.00     0.077 A 
HETATM   10  C16 UNL     1      -0.180  -3.330   0.420  1.00  0.00     0.151 A 
HETATM   11  F1  UNL     1       0.398  -4.558   0.470  1.00  0.00    -0.203 F 
ENDROOT
BRANCH   1  12
HETATM   12  O1  UNL     1       1.521  -2.299   1.320  1.00  0.00    -0.348 OA
BRANCH  12  13
HETATM   13  C5  UNL     1       2.517  -1.577   1.849  1.00  0.00     0.177 C 
BRANCH  13  14
HETATM   14  C4  UNL     1       3.260  -0.554   1.084  1.00  0.00     0.057 C 
BRANCH  14  15
HETATM   15  C3  UNL     1       2.524   0.589   0.504  1.00  0.00     0.273 C 
BRANCH  15  16
HETATM   16  N1  UNL     1       3.454   1.476  -0.176  1.00  0.00     0.080 N 
HETATM   17  C1  UNL     1       4.022   0.873  -1.364  1.00  0.00     0.309 C 
HETATM   18  C2  UNL     1       4.549   1.867   0.688  1.00  0.00     0.309 C 
ENDBRANCH  15  16
ENDBRANCH  14  15
ENDBRANCH  13  14
ENDBRANCH  12  13
ENDBRANCH   1  12
BRANCH   4  19
HETATM   19  N2  UNL     1      -2.088   1.345   0.356  1.00  0.00    -0.374 N 
HETATM   20  H14 UNL     1      -1.178   1.546   0.778  1.00  0.00     0.161 HD
BRANCH  19  21
HETATM   21  C10 UNL     1      -2.997   2.448   0.145  1.00  0.00     0.127 C 
BRANCH  21  22
HETATM   22  C11 UNL     1      -4.269   2.258   0.907  1.00  0.00     0.025 C 
HETATM   23  C12 UNL     1      -5.573   2.154   0.633  1.00  0.00     0.177 C 
HETATM   24  I1  UNL     1      -6.876   2.170  -1.052  1.00  0.00    -0.188 I 
ENDBRANCH  21  22
ENDBRANCH  19  21
ENDBRANCH   4  19
TORSDOF 8
