REMARK  8 active torsions:
REMARK  status: ('A' for Active; 'I' for Inactive)
REMARK    1  A    between atoms: O1_2  and  C2_3 
REMARK    2  A    between atoms: C6_9  and  N3_10 
REMARK    3  A    between atoms: N3_10  and  C7_11 
REMARK    4  A    between atoms: C13_18  and  O2_19 
REMARK    5  A    between atoms: O2_19  and  C14_20 
REMARK    6  A    between atoms: C14_20  and  C15_21 
REMARK    7  A    between atoms: C15_21  and  C16_22 
REMARK    8  A    between atoms: C16_22  and  N4_23 
ROOT
HETATM    1  C2  UNL     1      -0.926  -2.018   0.042  1.00  0.00     0.103 A 
HETATM    2  C3  UNL     1       0.273  -2.640   0.322  1.00  0.00     0.072 A 
HETATM    3  C4  UNL     1       1.444  -1.918   0.320  1.00  0.00     0.075 A 
HETATM    4  N1  UNL     1       2.588  -2.592   0.603  1.00  0.00    -0.241 NA
HETATM    5  C5  UNL     1       3.781  -1.943   0.619  1.00  0.00     0.235 A 
HETATM    6  N2  UNL     1       3.771  -0.636   0.347  1.00  0.00    -0.224 NA
HETATM    7  C6  UNL     1       2.706   0.117   0.058  1.00  0.00     0.138 A 
HETATM    8  C11 UNL     1       1.513  -0.568   0.050  1.00  0.00     0.041 A 
HETATM    9  C12 UNL     1       0.293  -0.003  -0.222  1.00  0.00     0.057 A 
HETATM   10  C13 UNL     1      -0.903  -0.667  -0.235  1.00  0.00     0.103 A 
ENDROOT
BRANCH   7  11
HETATM   11  N3  UNL     1       2.727   1.506  -0.228  1.00  0.00    -0.367 N 
HETATM   12  H6  UNL     1       1.841   2.013  -0.422  1.00  0.00     0.161 HD
BRANCH  11  13
HETATM   13  C7  UNL     1       3.867   2.383  -0.289  1.00  0.00     0.112 A 
HETATM   14  C8  UNL     1       4.762   2.545   0.821  1.00  0.00     0.059 A 
HETATM   15  C9  UNL     1       6.177   2.172   0.763  1.00  0.00     0.091 A 
HETATM   16  C10 UNL     1       5.253   1.909  -0.390  1.00  0.00     0.086 A 
HETATM   17  F1  UNL     1       7.417   2.073   1.356  1.00  0.00    -0.214 F 
ENDBRANCH  11  13
ENDBRANCH   7  11
BRANCH  10  18
HETATM   18  O2  UNL     1      -2.115  -0.024  -0.522  1.00  0.00    -0.348 OA
BRANCH  18  19
HETATM   19  C14 UNL     1      -2.216   1.332  -0.815  1.00  0.00     0.177 C 
BRANCH  19  20
HETATM   20  C15 UNL     1      -3.695   1.647  -1.067  1.00  0.00     0.042 C 
BRANCH  20  21
HETATM   21  C16 UNL     1      -4.440   1.295   0.203  1.00  0.00     0.102 C 
BRANCH  21  22
HETATM   22  N4  UNL     1      -5.858   1.590  -0.020  1.00  0.00    -0.260 NA
HETATM   23 BR1  UNL     1      -6.068   3.419  -0.417  1.00  0.00     0.009 Br
HETATM   24  H16 UNL     1      -6.256   0.965  -0.736  1.00  0.00     0.135 HD
ENDBRANCH  21  22
ENDBRANCH  20  21
ENDBRANCH  19  20
ENDBRANCH  18  19
ENDBRANCH  10  18
BRANCH   1  25
HETATM   25  O1  UNL     1      -2.127  -2.713   0.034  1.00  0.00    -0.353 OA
HETATM   26  C1  UNL     1      -2.063  -4.093   0.327  1.00  0.00     0.210 C 
ENDBRANCH   1  25
TORSDOF 8
