REMARK  6 active torsions:
REMARK  status: ('A' for Active; 'I' for Inactive)
REMARK    1  A    between atoms: N1_2  and  C3_4 
REMARK    2  A    between atoms: C3_4  and  C4_5 
REMARK    3  A    between atoms: C4_5  and  C5_6 
REMARK    4  A    between atoms: C5_6  and  O1_7 
REMARK    5  A    between atoms: O1_7  and  C6_8 
REMARK    6  A    between atoms: C6_8  and  C7_9 
ROOT
HETATM    1  C7  UNL     1       0.745  -1.249   0.465  1.00  0.00     0.089 C 
HETATM    2  C8  UNL     1       0.663   0.031   1.189  1.00  0.00     0.023 C 
HETATM    3 CL1  UNL     1      -0.377   0.204   2.616  1.00  0.00    -0.088 Cl
HETATM    4  C9  UNL     1       1.238   1.210   1.020  1.00  0.00     0.037 C 
HETATM    5  C10 UNL     1       2.197   1.764   0.056  1.00  0.00     0.029 A 
HETATM    6  C11 UNL     1       1.966   3.111  -0.066  1.00  0.00     0.133 A 
HETATM    7  N2  UNL     1       2.734   3.825  -0.904  1.00  0.00    -0.253 NA
HETATM    8  C12 UNL     1       3.735   3.294  -1.645  1.00  0.00     0.234 A 
HETATM    9  N3  UNL     1       3.996   1.964  -1.553  1.00  0.00    -0.224 NA
HETATM   10  C13 UNL     1       3.238   1.240  -0.723  1.00  0.00     0.141 A 
HETATM   11  N4  UNL     1       3.764  -0.099  -0.859  1.00  0.00    -0.340 N 
HETATM   12  C14 UNL     1       3.346  -1.356  -0.285  1.00  0.00     0.041 A 
HETATM   13  C15 UNL     1       4.466  -2.150  -0.343  1.00  0.00     0.033 A 
HETATM   14  C16 UNL     1       4.399  -3.456   0.143  1.00  0.00     0.044 A 
HETATM   15  C17 UNL     1       3.222  -3.930   0.670  1.00  0.00     0.117 A 
HETATM   16  F1  UNL     1       3.077  -5.190   1.162  1.00  0.00    -0.206 F 
HETATM   17  C18 UNL     1       2.142  -3.074   0.693  1.00  0.00     0.052 A 
HETATM   18  C19 UNL     1       2.111  -1.757   0.233  1.00  0.00    -0.017 A 
HETATM   19  H19 UNL     1       4.598  -0.204  -1.478  1.00  0.00     0.167 HD
ENDROOT
BRANCH   1  20
HETATM   20  C6  UNL     1       0.138  -1.011  -0.899  1.00  0.00     0.182 C 
BRANCH  20  21
HETATM   21  O1  UNL     1      -1.169  -0.608  -0.863  1.00  0.00    -0.390 OA
BRANCH  21  22
HETATM   22  C5  UNL     1      -2.069  -1.464  -0.291  1.00  0.00     0.169 C 
BRANCH  22  23
HETATM   23  C4  UNL     1      -3.469  -0.834  -0.358  1.00  0.00     0.056 C 
BRANCH  23  24
HETATM   24  C3  UNL     1      -3.404   0.458   0.402  1.00  0.00     0.273 C 
BRANCH  24  25
HETATM   25  N1  UNL     1      -4.629   1.187   0.446  1.00  0.00     0.080 N 
HETATM   26  C1  UNL     1      -5.067   1.738  -0.795  1.00  0.00     0.309 C 
HETATM   27  C2  UNL     1      -4.522   2.247   1.429  1.00  0.00     0.309 C 
ENDBRANCH  24  25
ENDBRANCH  23  24
ENDBRANCH  22  23
ENDBRANCH  21  22
ENDBRANCH  20  21
ENDBRANCH   1  20
TORSDOF 6
