REMARK  2 active torsions:
REMARK  status: ('A' for Active; 'I' for Inactive)
REMARK    1  A    between atoms: N1_2  and  C2_3 
REMARK    2  A    between atoms: C2_3  and  C3_4 
ROOT
HETATM    1  C3  UNL     1       2.688  -0.062  -0.107  1.00  0.00    -0.026 C 
HETATM    2  C4  UNL     1       2.057  -0.661   0.920  1.00  0.00     0.039 C 
HETATM    3  C5  UNL     1       0.724  -1.280   1.005  1.00  0.00     0.069 A 
HETATM    4  N2  UNL     1       0.992  -2.374   1.790  1.00  0.00    -0.241 NA
HETATM    5  C6  UNL     1       0.006  -3.233   2.092  1.00  0.00     0.235 A 
HETATM    6  N3  UNL     1      -1.227  -2.999   1.615  1.00  0.00    -0.229 NA
HETATM    7  C7  UNL     1      -1.495  -1.910   0.833  1.00  0.00     0.117 A 
HETATM    8  C8  UNL     1      -0.539  -0.967   0.468  1.00  0.00     0.025 A 
HETATM    9  C9  UNL     1      -1.005   0.140  -0.402  1.00  0.00     0.045 C 
HETATM   10  C10 UNL     1      -1.793  -0.396  -1.576  1.00  0.00     0.026 C 
HETATM   11  C11 UNL     1       0.266   0.771  -1.059  1.00  0.00     0.185 C 
HETATM   12  O1  UNL     1       1.005  -0.165  -1.736  1.00  0.00    -0.386 OA
HETATM   13  C12 UNL     1       2.343   0.223  -1.539  1.00  0.00     0.203 C 
HETATM   14  C13 UNL     1      -1.629   1.298   0.266  1.00  0.00     0.213 C 
HETATM   15  F1  UNL     1      -1.154   1.307   1.595  1.00  0.00    -0.243 F 
HETATM   16  C14 UNL     1      -3.058   1.491   0.247  1.00  0.00    -0.049 C 
HETATM   17  C15 UNL     1      -3.399   2.951   0.462  1.00  0.00     0.046 C 
HETATM   18  C16 UNL     1      -4.223   0.879   0.234  1.00  0.00     0.006 C 
HETATM   19  C17 UNL     1      -4.918  -0.390   0.242  1.00  0.00     0.012 C 
HETATM   20  C18 UNL     1      -4.228  -1.518   0.316  1.00  0.00     0.064 C 
HETATM   21  N4  UNL     1      -2.848  -1.821   0.404  1.00  0.00    -0.253 NA
HETATM   22  H23 UNL     1      -2.971  -1.226   1.298  1.00  0.00     0.134 HD
ENDROOT
BRANCH   1  23
HETATM   23  C2  UNL     1       4.026   0.414   0.273  1.00  0.00     0.305 C 
BRANCH  23  24
HETATM   24  N1  UNL     1       5.061  -0.224  -0.555  1.00  0.00     0.083 N 
HETATM   25  C1  UNL     1       6.350   0.277  -0.137  1.00  0.00     0.307 C 
HETATM   26  H4  UNL     1       5.024  -1.236  -0.363  1.00  0.00     0.315 HD
ENDBRANCH  23  24
ENDBRANCH   1  23
TORSDOF 2
