REMARK  2 active torsions:
REMARK  status: ('A' for Active; 'I' for Inactive)
REMARK    1  A    between atoms: N1_2  and  C2_3 
REMARK    2  A    between atoms: C13_17  and  O2_18 
ROOT
HETATM    1  C2  UNL     1       3.450   0.175  -0.497  1.00  0.00     0.030 C 
HETATM    2  C3  UNL     1       2.994  -1.082  -0.376  1.00  0.00     0.059 C 
HETATM    3  C4  UNL     1       1.625  -1.437   0.107  1.00  0.00     0.070 A 
HETATM    4  N2  UNL     1       1.839  -2.752   0.218  1.00  0.00    -0.241 NA
HETATM    5  C5  UNL     1       0.924  -3.621   0.646  1.00  0.00     0.235 A 
HETATM    6  N3  UNL     1      -0.330  -3.201   1.011  1.00  0.00    -0.224 NA
HETATM    7  C6  UNL     1      -0.485  -1.842   0.875  1.00  0.00     0.144 A 
HETATM    8  C7  UNL     1       0.390  -0.797   0.431  1.00  0.00     0.027 A 
HETATM    9  C8  UNL     1       0.138   0.664   0.244  1.00  0.00     0.080 C 
HETATM   10  C9  UNL     1       0.997   1.190  -0.929  1.00  0.00     0.182 C 
HETATM   11  O1  UNL     1       1.902   2.037  -0.390  1.00  0.00    -0.384 OA
HETATM   12  C10 UNL     1       3.178   1.593  -0.345  1.00  0.00     0.224 C 
HETATM   13  C11 UNL     1      -1.210   1.108  -0.104  1.00  0.00    -0.039 C 
HETATM   14  C12 UNL     1      -1.293   2.451  -0.774  1.00  0.00     0.047 C 
HETATM   15  C13 UNL     1      -2.541   0.829  -0.112  1.00  0.00     0.083 C 
HETATM   16  C15 UNL     1      -3.062  -0.240   0.738  1.00  0.00     0.052 C 
HETATM   17  C16 UNL     1      -4.018  -0.995   0.166  1.00  0.00     0.018 C 
HETATM   18  C17 UNL     1      -3.755  -2.485   0.194  1.00  0.00     0.018 C 
HETATM   19  C18 UNL     1      -2.591  -2.919   0.771  1.00  0.00     0.098 C 
HETATM   20  N4  UNL     1      -1.838  -1.847   1.335  1.00  0.00    -0.287 N 
HETATM   21  C19 UNL     1      -2.617  -0.822   2.144  1.00  0.00     0.292 C 
HETATM   22  F1  UNL     1      -1.795   0.046   2.764  1.00  0.00    -0.194 F 
HETATM   23 CL1  UNL     1      -3.903  -1.532   3.010  1.00  0.00    -0.054 Cl
ENDROOT
BRANCH   1  24
HETATM   24  N1  UNL     1       4.807   0.083  -0.991  1.00  0.00    -0.396 N 
HETATM   25  C1  UNL     1       5.927   0.282  -0.071  1.00  0.00     0.146 C 
HETATM   26  H4  UNL     1       4.924  -0.127  -2.008  1.00  0.00     0.159 HD
ENDBRANCH   1  24
BRANCH  15  27
HETATM   27  O2  UNL     1      -3.648   1.277  -0.729  1.00  0.00    -0.355 OA
HETATM   28  C14 UNL     1      -4.288   2.493  -0.791  1.00  0.00     0.210 C 
ENDBRANCH  15  27
TORSDOF 2
