REMARK  8 active torsions:
REMARK  status: ('A' for Active; 'I' for Inactive)
REMARK    1  A    between atoms: N1_2  and  C2_3 
REMARK    2  A    between atoms: C6_9  and  N4_10 
REMARK    3  A    between atoms: N4_10  and  C7_11 
REMARK    4  A    between atoms: C15_21  and  O1_22 
REMARK    5  A    between atoms: O1_22  and  C16_23 
REMARK    6  A    between atoms: C16_23  and  C17_24 
REMARK    7  A    between atoms: C17_24  and  C18_25 
REMARK    8  A    between atoms: C18_25  and  N5_26 
ROOT
HETATM    1  C2  UNL     1       0.262   2.855  -0.475  1.00  0.00     0.063 A 
HETATM    2  C3  UNL     1       1.569   3.236  -0.809  1.00  0.00     0.064 A 
HETATM    3  C4  UNL     1       2.460   2.256  -1.162  1.00  0.00     0.074 A 
HETATM    4  N2  UNL     1       3.729   2.555  -1.511  1.00  0.00    -0.241 NA
HETATM    5  C5  UNL     1       4.625   1.622  -1.875  1.00  0.00     0.236 A 
HETATM    6  N3  UNL     1       4.234   0.322  -1.889  1.00  0.00    -0.224 NA
HETATM    7  C6  UNL     1       2.984  -0.067  -1.552  1.00  0.00     0.142 A 
HETATM    8  C13 UNL     1       2.115   0.924  -1.193  1.00  0.00     0.042 A 
HETATM    9  C14 UNL     1       0.829   0.602  -0.858  1.00  0.00     0.057 A 
HETATM   10  C15 UNL     1      -0.134   1.513  -0.494  1.00  0.00     0.096 A 
ENDROOT
BRANCH   7  11
HETATM   11  N4  UNL     1       2.585  -1.451  -1.571  1.00  0.00    -0.340 N 
HETATM   12  H7  UNL     1       2.004  -2.077  -2.162  1.00  0.00     0.167 HD
BRANCH  11  13
HETATM   13  C7  UNL     1       3.279  -1.882  -0.384  1.00  0.00     0.035 A 
HETATM   14  C8  UNL     1       2.808  -2.085   0.892  1.00  0.00     0.032 A 
HETATM   15  C9  UNL     1       3.662  -2.520   1.883  1.00  0.00     0.046 A 
HETATM   16  C10 UNL     1       4.997  -2.764   1.641  1.00  0.00     0.138 A 
HETATM   17  F1  UNL     1       5.818  -3.193   2.629  1.00  0.00    -0.204 F 
HETATM   18  C11 UNL     1       5.548  -2.587   0.392  1.00  0.00     0.074 A 
HETATM   19 CL1  UNL     1       7.236  -2.875  -0.001  1.00  0.00    -0.081 Cl
HETATM   20  C12 UNL     1       4.643  -2.145  -0.583  1.00  0.00     0.056 A 
ENDBRANCH  11  13
ENDBRANCH   7  11
BRANCH  10  21
HETATM   21  O1  UNL     1      -1.452   1.367  -0.133  1.00  0.00    -0.349 OA
BRANCH  21  22
HETATM   22  C16 UNL     1      -2.045   0.103  -0.113  1.00  0.00     0.177 C 
BRANCH  22  23
HETATM   23  C17 UNL     1      -3.506   0.155   0.300  1.00  0.00     0.057 C 
BRANCH  23  24
HETATM   24  C18 UNL     1      -4.024  -1.254   0.221  1.00  0.00     0.273 C 
BRANCH  24  25
HETATM   25  N5  UNL     1      -5.425  -1.401   0.582  1.00  0.00     0.080 N 
HETATM   26  C19 UNL     1      -5.776  -2.793   0.220  1.00  0.00     0.309 C 
HETATM   27  C20 UNL     1      -5.461  -1.328   2.066  1.00  0.00     0.309 C 
ENDBRANCH  24  25
ENDBRANCH  23  24
ENDBRANCH  22  23
ENDBRANCH  21  22
ENDBRANCH  10  21
BRANCH   1  28
HETATM   28  N1  UNL     1      -0.594   3.931  -0.135  1.00  0.00    -0.392 N 
HETATM   29  C1  UNL     1      -0.362   5.364  -0.072  1.00  0.00     0.146 C 
HETATM   30  H4  UNL     1      -1.584   3.713   0.134  1.00  0.00     0.159 HD
ENDBRANCH   1  28
TORSDOF 8
