REMARK  8 active torsions:
REMARK  status: ('A' for Active; 'I' for Inactive)
REMARK    1  A    between atoms: C2_2  and  N1_3 
REMARK    2  A    between atoms: N1_3  and  C4_5 
REMARK    3  A    between atoms: C4_5  and  C5_6 
REMARK    4  A    between atoms: C5_6  and  O1_7 
REMARK    5  A    between atoms: O1_7  and  C6_8 
REMARK    6  A    between atoms: C10_13  and  C11_14 
REMARK    7  A    between atoms: C12_15  and  C13_16 
REMARK    8  A    between atoms: C17_23  and  O2_24 
ROOT
HETATM    1  C6  UNL     1      -1.541  -1.270  -0.439  1.00  0.00     0.175 C 
HETATM    2  C7  UNL     1      -0.392  -0.480  -0.969  1.00  0.00     0.024 C 
HETATM    3  C8  UNL     1       0.660   0.013  -1.573  1.00  0.00     0.086 C 
HETATM    4  N2  UNL     1       1.769   0.599  -2.177  1.00  0.00    -0.373 N 
HETATM    5  C9  UNL     1       3.085   0.508  -1.694  1.00  0.00     0.119 C 
HETATM    6  C10 UNL     1       4.299   0.271  -1.246  1.00  0.00     0.073 C 
HETATM    7  N3  UNL     1       4.048  -1.133  -1.313  1.00  0.00    -0.241 NA
HETATM    8  C14 UNL     1       3.530  -1.851  -0.417  1.00  0.00     0.232 C 
HETATM    9  N4  UNL     1       2.966  -2.905   0.426  1.00  0.00    -0.258 NA
HETATM   10  C15 UNL     1       1.643  -2.981   0.582  1.00  0.00     0.099 C 
HETATM   11  C16 UNL     1       0.171  -3.171   0.835  1.00  0.00     0.150 C 
HETATM   12  C17 UNL     1      -0.923  -2.447   0.383  1.00  0.00     0.081 C 
HETATM   13  H14 UNL     1       1.515   1.116  -3.045  1.00  0.00     0.164 HD
ENDROOT
BRANCH   1  14
HETATM   14  O1  UNL     1      -2.307  -0.547   0.424  1.00  0.00    -0.378 OA
BRANCH  14  15
HETATM   15  C5  UNL     1      -3.657  -0.531   0.083  1.00  0.00     0.188 C 
BRANCH  15  16
HETATM   16  C4  UNL     1      -4.477   0.270   1.043  1.00  0.00     0.147 C 
BRANCH  16  17
HETATM   17  N1  UNL     1      -3.972   1.631   1.026  1.00  0.00    -0.396 N 
HETATM   18  C3  UNL     1      -4.149   2.444  -0.160  1.00  0.00     0.148 C 
BRANCH  17  19
HETATM   19  C2  UNL     1      -3.287   2.380   2.017  1.00  0.00     0.058 C 
HETATM   20  C1  UNL     1      -4.380   2.857   2.605  1.00  0.00     0.049 C 
ENDBRANCH  17  19
ENDBRANCH  16  17
ENDBRANCH  15  16
ENDBRANCH  14  15
ENDBRANCH   1  14
BRANCH  12  21
HETATM   21  O2  UNL     1      -1.955  -3.198   1.010  1.00  0.00    -0.387 OA
HETATM   22  C18 UNL     1      -2.215  -4.505   0.530  1.00  0.00     0.202 C 
ENDBRANCH  12  21
BRANCH   6  23
HETATM   23  C11 UNL     1       5.536   0.894  -0.803  1.00  0.00     0.030 C 
HETATM   24  C12 UNL     1       5.662   2.206  -0.779  1.00  0.00    -0.009 C 
BRANCH  24  25
HETATM   25  C13 UNL     1       6.940   2.814  -0.322  1.00  0.00     0.142 C 
HETATM   26 CL1  UNL     1       6.600   3.827   1.089  1.00  0.00    -0.126 Cl
ENDBRANCH  24  25
ENDBRANCH   6  23
TORSDOF 8
