REMARK  0 active torsions:
REMARK  status: ('A' for Active; 'I' for Inactive)
ROOT
HETATM    1  C1  UNL     1      -3.600   1.031   0.389  1.00  0.00     0.018 C 
HETATM    2  C2  UNL     1      -4.500   0.283   0.986  1.00  0.00     0.132 C 
HETATM    3  N1  UNL     1      -4.558  -1.113   0.787  1.00  0.00    -0.255 NA
HETATM    4  C3  UNL     1      -3.601  -1.752   0.189  1.00  0.00     0.210 C 
HETATM    5  N2  UNL     1      -2.510  -0.931  -0.240  1.00  0.00    -0.335 N 
HETATM    6  C4  UNL     1      -1.588  -1.878  -0.871  1.00  0.00     0.203 C 
HETATM    7  S1  UNL     1      -0.387  -2.441   0.409  1.00  0.00    -0.144 SA
HETATM    8  C5  UNL     1       0.105  -0.967   1.341  1.00  0.00     0.115 C 
HETATM    9  C6  UNL     1       0.468   0.155   0.467  1.00  0.00    -0.031 A 
HETATM   10  C7  UNL     1      -0.172   1.251  -0.131  1.00  0.00    -0.045 A 
HETATM   11  C8  UNL     1       0.454   2.184  -0.927  1.00  0.00     0.009 A 
HETATM   12  C9  UNL     1       1.805   2.057  -1.171  1.00  0.00     0.013 A 
HETATM   13  C10 UNL     1       2.504   1.004  -0.619  1.00  0.00    -0.025 A 
HETATM   14  C11 UNL     1       3.853   0.883  -0.879  1.00  0.00     0.012 A 
HETATM   15  C12 UNL     1       4.587  -0.160  -0.356  1.00  0.00     0.001 A 
HETATM   16  C13 UNL     1       3.898  -1.068   0.436  1.00  0.00     0.001 A 
HETATM   17  C14 UNL     1       2.563  -0.925   0.678  1.00  0.00     0.013 A 
HETATM   18  C15 UNL     1       1.812   0.110   0.167  1.00  0.00    -0.018 A 
HETATM   19  C16 UNL     1      -1.624   1.654  -0.078  1.00  0.00     0.097 C 
HETATM   20  C17 UNL     1      -2.492   0.455  -0.022  1.00  0.00     0.030 C 
ENDROOT
TORSDOF 0
