REMARK  9 active torsions:
REMARK  status: ('A' for Active; 'I' for Inactive)
REMARK    1  A    between atoms: O1_2  and  C2_3 
REMARK    2  A    between atoms: C3_4  and  O2_5 
REMARK    3  A    between atoms: C6_8  and  C8_10 
REMARK    4  A    between atoms: C8_10  and  N1_11 
REMARK    5  A    between atoms: N1_11  and  C9_12 
REMARK    6  A    between atoms: C12_15  and  O3_16 
REMARK    7  A    between atoms: C14_18  and  C15_19 
REMARK    8  A    between atoms: C15_19  and  O4_20 
REMARK    9  A    between atoms: C16_21  and  O5_22 
ROOT
HETATM    1  C8  UNL     1       0.181  -1.260  -0.158  1.00  0.00     0.136 C 
ENDROOT
BRANCH   1   2
HETATM    2  C6  UNL     1       1.131  -0.396   0.596  1.00  0.00     0.022 A 
HETATM    3  C5  UNL     1       0.872   1.028   0.318  1.00  0.00    -0.010 A 
HETATM    4  C4  UNL     1       1.598   1.998  -0.214  1.00  0.00     0.036 A 
HETATM    5  C3  UNL     1       2.954   1.595  -0.618  1.00  0.00     0.097 A 
HETATM    6  C2  UNL     1       3.270   0.331  -0.396  1.00  0.00     0.108 A 
HETATM    7  C16 UNL     1       2.543  -0.799   0.189  1.00  0.00     0.191 A 
HETATM    8  C7  UNL     1       1.029  -0.591   2.096  1.00  0.00     0.024 C 
BRANCH   5   9
HETATM    9  O2  UNL     1       3.796   2.512  -1.185  1.00  0.00    -0.358 OA
HETATM   10  H4  UNL     1       3.699   2.715  -2.183  1.00  0.00     0.217 HD
ENDBRANCH   5   9
BRANCH   6  11
HETATM   11  O1  UNL     1       4.584   0.051  -0.822  1.00  0.00    -0.355 OA
HETATM   12  C1  UNL     1       5.655  -0.126   0.071  1.00  0.00     0.209 C 
ENDBRANCH   6  11
BRANCH   7  13
HETATM   13  O5  UNL     1       3.197  -1.384   1.247  1.00  0.00    -0.388 OA
HETATM   14  H21 UNL     1       2.624  -2.107   1.607  1.00  0.00     0.210 HD
ENDBRANCH   7  13
ENDBRANCH   1   2
BRANCH   1  15
HETATM   15  N1  UNL     1      -1.204  -1.106   0.076  1.00  0.00    -0.388 N 
HETATM   16  H12 UNL     1      -1.479  -1.869   0.745  1.00  0.00     0.159 HD
BRANCH  15  17
HETATM   17  C9  UNL     1      -2.271  -0.262  -0.303  1.00  0.00     0.036 A 
HETATM   18  C10 UNL     1      -2.169   0.788  -1.212  1.00  0.00     0.032 A 
HETATM   19  C11 UNL     1      -3.172   1.624  -1.643  1.00  0.00     0.039 A 
HETATM   20  C12 UNL     1      -4.404   1.360  -1.091  1.00  0.00     0.066 A 
HETATM   21  C13 UNL     1      -4.585   0.356  -0.201  1.00  0.00     0.048 A 
HETATM   22  C14 UNL     1      -3.559  -0.459   0.207  1.00  0.00    -0.006 A 
BRANCH  20  23
HETATM   23  O3  UNL     1      -5.498   2.134  -1.446  1.00  0.00    -0.361 OA
HETATM   24  H15 UNL     1      -6.289   2.243  -0.797  1.00  0.00     0.217 HD
ENDBRANCH  20  23
BRANCH  22  25
HETATM   25  C15 UNL     1      -3.792  -1.551   1.184  1.00  0.00     0.205 C 
BRANCH  25  26
HETATM   26  O4  UNL     1      -3.297  -1.172   2.453  1.00  0.00    -0.396 OA
HETATM   27  H19 UNL     1      -2.900  -1.963   2.888  1.00  0.00     0.209 HD
ENDBRANCH  25  26
ENDBRANCH  22  25
ENDBRANCH  15  17
ENDBRANCH   1  15
TORSDOF 9
