REMARK  5 active torsions:
REMARK  status: ('A' for Active; 'I' for Inactive)
REMARK    1  A    between atoms: N1_1  and  C1_2 
REMARK    2  A    between atoms: C2_4  and  N3_5 
REMARK    3  A    between atoms: C3_6  and  C4_7 
REMARK    4  A    between atoms: C12_16  and  C13_17 
REMARK    5  A    between atoms: C13_17  and  C14_18 
ROOT
HETATM    1  C1  UNL     1      -1.590   1.806   1.762  1.00  0.00     0.127 C 
HETATM    2  N2  UNL     1      -2.286   0.747   2.003  1.00  0.00    -0.213 NA
HETATM    3  C2  UNL     1      -1.928  -0.286   1.094  1.00  0.00     0.159 C 
HETATM    4  C10 UNL     1      -0.993   0.137   0.276  1.00  0.00     0.022 C 
HETATM    5  C11 UNL     1      -0.024   0.073  -0.817  1.00  0.00     0.038 C 
HETATM    6  C12 UNL     1       0.987   0.950  -0.559  1.00  0.00     0.011 C 
HETATM    7  N4  UNL     1       0.657   1.590   0.717  1.00  0.00    -0.377 N 
HETATM    8  C24 UNL     1      -0.772   1.596   0.595  1.00  0.00     0.188 C 
HETATM    9  H18 UNL     1       1.453   1.856   1.335  1.00  0.00     0.160 HD
ENDROOT
BRANCH   6  10
HETATM   10  C13 UNL     1       2.182   1.162  -1.468  1.00  0.00     0.096 C 
BRANCH  10  11
HETATM   11  C14 UNL     1       3.464   0.895  -0.767  1.00  0.00    -0.042 A 
HETATM   12  C15 UNL     1       4.194   2.014  -0.344  1.00  0.00     0.008 A 
HETATM   13  C16 UNL     1       5.399   1.979   0.327  1.00  0.00     0.001 A 
HETATM   14  C17 UNL     1       5.928   0.741   0.604  1.00  0.00     0.012 A 
HETATM   15  C18 UNL     1       5.241  -0.389   0.205  1.00  0.00    -0.025 A 
HETATM   16  C19 UNL     1       5.782  -1.638   0.486  1.00  0.00     0.012 A 
HETATM   17  C23 UNL     1       4.037  -0.318  -0.465  1.00  0.00    -0.019 A 
HETATM   18  C20 UNL     1       5.079  -2.761   0.074  1.00  0.00     0.001 A 
HETATM   19  C21 UNL     1       3.870  -2.664  -0.599  1.00  0.00     0.001 A 
HETATM   20  C22 UNL     1       3.331  -1.426  -0.878  1.00  0.00     0.013 A 
ENDBRANCH  10  11
ENDBRANCH   6  10
BRANCH   3  21
HETATM   21  N3  UNL     1      -2.350  -1.623   0.894  1.00  0.00    -0.240 NA
HETATM   22  C3  UNL     1      -3.500  -1.956   0.437  1.00  0.00     0.130 C 
BRANCH  22  23
HETATM   23  C4  UNL     1      -4.790  -1.515  -0.054  1.00  0.00    -0.017 A 
HETATM   24  C5  UNL     1      -5.070  -0.178  -0.128  1.00  0.00     0.013 A 
HETATM   25  C6  UNL     1      -6.303   0.222  -0.599  1.00  0.00     0.002 A 
HETATM   26  C7  UNL     1      -7.186  -0.769  -0.970  1.00  0.00     0.019 A 
HETATM   27  C8  UNL     1      -6.875  -2.112  -0.885  1.00  0.00     0.011 A 
HETATM   28 BR1  UNL     1      -8.167  -3.431  -1.425  1.00  0.00    -0.051 Br
HETATM   29  C9  UNL     1      -5.633  -2.542  -0.412  1.00  0.00     0.032 A 
ENDBRANCH  22  23
ENDBRANCH   3  21
BRANCH   1  30
HETATM   30  N1  UNL     1      -1.404   3.131   2.226  1.00  0.00    -0.385 N 
HETATM   31  H1  UNL     1      -2.038   3.978   2.192  1.00  0.00     0.157 HD
HETATM   32  H2  UNL     1      -0.548   3.478   2.701  1.00  0.00     0.157 HD
ENDBRANCH   1  30
TORSDOF 5
