REMARK  3 active torsions:
REMARK  status: ('A' for Active; 'I' for Inactive)
REMARK    1  A    between atoms: N2_5  and  C4_6 
REMARK    2  A    between atoms: C11_14  and  C12_15 
REMARK    3  A    between atoms: C12_15  and  C13_16 
ROOT
HETATM    1  C1  UNL     1       1.981  -1.405   3.513  1.00  0.00     0.089 C 
HETATM    2  C2  UNL     1       1.817  -1.525   2.043  1.00  0.00     0.087 C 
HETATM    3  N1  UNL     1       3.031  -1.621   1.641  1.00  0.00    -0.259 NA
HETATM    4  C3  UNL     1       3.358  -1.757   0.268  1.00  0.00     0.275 C 
HETATM    5  N2  UNL     1       3.142  -0.589  -0.542  1.00  0.00    -0.361 N 
HETATM    6  C9  UNL     1       2.411  -0.385  -1.777  1.00  0.00     0.152 C 
HETATM    7  C10 UNL     1       0.968  -0.543  -1.686  1.00  0.00     0.002 C 
HETATM    8  C11 UNL     1      -0.120  -0.818  -0.991  1.00  0.00    -0.039 C 
HETATM    9  C23 UNL     1       0.117  -1.186   0.395  1.00  0.00     0.293 C 
HETATM   10  N3  UNL     1       0.463  -1.493   1.589  1.00  0.00    -0.376 NA
ENDROOT
BRANCH   8  11
HETATM   11  C12 UNL     1      -1.554  -0.869  -1.314  1.00  0.00     0.079 C 
BRANCH  11  12
HETATM   12  C13 UNL     1      -2.385   0.068  -0.550  1.00  0.00    -0.043 A 
HETATM   13  C14 UNL     1      -2.043   0.962   0.412  1.00  0.00     0.008 A 
HETATM   14  C15 UNL     1      -2.928   1.793   1.058  1.00  0.00     0.001 A 
HETATM   15  C16 UNL     1      -4.274   1.717   0.707  1.00  0.00     0.012 A 
HETATM   16  C17 UNL     1      -4.657   0.819  -0.267  1.00  0.00    -0.025 A 
HETATM   17  C18 UNL     1      -6.007   0.824  -0.540  1.00  0.00     0.012 A 
HETATM   18  C22 UNL     1      -3.731  -0.014  -0.908  1.00  0.00    -0.019 A 
HETATM   19  C19 UNL     1      -6.483  -0.043  -1.503  1.00  0.00     0.001 A 
HETATM   20  C20 UNL     1      -5.600  -0.879  -2.155  1.00  0.00     0.001 A 
HETATM   21  C21 UNL     1      -4.250  -0.875  -1.874  1.00  0.00     0.013 A 
ENDBRANCH  11  12
ENDBRANCH   8  11
BRANCH   5  22
HETATM   22  C4  UNL     1       3.827   0.569  -0.005  1.00  0.00     0.027 A 
HETATM   23  C5  UNL     1       5.108   0.561   0.399  1.00  0.00     0.026 A 
HETATM   24  C6  UNL     1       5.566   1.850   0.900  1.00  0.00    -0.001 A 
HETATM   25  C7  UNL     1       4.507   2.632   0.780  1.00  0.00    -0.005 A 
HETATM   26  C8  UNL     1       3.318   1.947   0.214  1.00  0.00     0.130 A 
HETATM   27 BR1  UNL     1       1.820   2.008   1.425  1.00  0.00    -0.080 Br
ENDBRANCH   5  22
TORSDOF 3
