REMARK  5 active torsions:
REMARK  status: ('A' for Active; 'I' for Inactive)
REMARK    1  A    between atoms: C7_7  and  C8_8 
REMARK    2  A    between atoms: N1_10  and  C10_11 
REMARK    3  A    between atoms: C11_12  and  C12_13 
REMARK    4  A    between atoms: C13_14  and  C14_15 
REMARK    5  A    between atoms: C16_19  and  N3_20 
ROOT
HETATM    1  C8  UNL     1       0.605  -1.453  -1.207  1.00  0.00     0.134 C 
HETATM    2  C9  UNL     1      -0.681  -0.751  -1.476  1.00  0.00     0.154 C 
HETATM    3  N1  UNL     1      -1.627  -0.641  -0.408  1.00  0.00    -0.369 N 
HETATM    4  C15 UNL     1      -2.456  -1.773   0.046  1.00  0.00     0.292 C 
HETATM    5  N2  UNL     1      -1.781  -2.969   0.154  1.00  0.00    -0.086 NA
HETATM    6  C16 UNL     1      -1.480  -3.813   1.030  1.00  0.00     0.718 C 
HETATM    7  N4  UNL     1      -0.758  -4.718   0.165  1.00  0.00    -0.059 NA
HETATM    8  C17 UNL     1       0.122  -4.191  -0.613  1.00  0.00     0.223 C 
HETATM    9  N5  UNL     1       0.471  -2.791  -0.724  1.00  0.00    -0.374 N 
HETATM   10  H21 UNL     1       0.947  -2.988   0.192  1.00  0.00     0.161 HD
ENDROOT
BRANCH   1  11
HETATM   11  C7  UNL     1       1.408  -0.699  -0.190  1.00  0.00    -0.023 A 
HETATM   12  C6  UNL     1       2.387   0.208  -0.512  1.00  0.00    -0.017 A 
HETATM   13  C5  UNL     1       2.651   0.437  -1.845  1.00  0.00     0.013 A 
HETATM   14  C21 UNL     1       3.155   0.931   0.372  1.00  0.00    -0.019 A 
HETATM   15  C4  UNL     1       3.612   1.323  -2.289  1.00  0.00     0.001 A 
HETATM   16  C3  UNL     1       4.374   2.041  -1.372  1.00  0.00     0.007 A 
HETATM   17  C2  UNL     1       4.119   1.820  -0.035  1.00  0.00    -0.051 A 
HETATM   18  C1  UNL     1       4.906   2.561   0.985  1.00  0.00     0.049 C 
HETATM   19  C20 UNL     1       2.885   0.694   1.725  1.00  0.00     0.013 A 
HETATM   20  C19 UNL     1       1.910  -0.208   2.156  1.00  0.00     0.002 A 
HETATM   21  C18 UNL     1       1.206  -0.873   1.164  1.00  0.00     0.010 A 
ENDBRANCH   1  11
BRANCH   3  22
HETATM   22  C10 UNL     1      -1.806   0.612   0.276  1.00  0.00     0.087 C 
HETATM   23  C11 UNL     1      -2.723   1.494   0.014  1.00  0.00     0.017 C 
BRANCH  23  24
HETATM   24  C12 UNL     1      -3.827   1.703  -0.883  1.00  0.00    -0.002 C 
HETATM   25  C13 UNL     1      -4.770   2.569  -1.178  1.00  0.00    -0.016 C 
BRANCH  25  26
HETATM   26  C14 UNL     1      -5.250   3.877  -0.732  1.00  0.00     0.112 C 
HETATM   27 BR1  UNL     1      -4.223   4.600   0.746  1.00  0.00    -0.092 Br
ENDBRANCH  25  26
ENDBRANCH  23  24
ENDBRANCH   3  22
BRANCH   6  28
HETATM   28  N3  UNL     1      -1.557  -4.196   2.397  1.00  0.00    -0.231 N 
HETATM   29  H18 UNL     1      -2.163  -5.014   2.623  1.00  0.00     0.174 HD
HETATM   30  H19 UNL     1      -1.121  -3.824   3.264  1.00  0.00     0.174 HD
ENDBRANCH   6  28
TORSDOF 5
