REMARK  7 active torsions:
REMARK  status: ('A' for Active; 'I' for Inactive)
REMARK    1  A    between atoms: C2_2  and  C3_3 
REMARK    2  A    between atoms: C7_8  and  C8_9 
REMARK    3  A    between atoms: C8_9  and  C9_10 
REMARK    4  A    between atoms: C11_12  and  O1_13 
REMARK    5  A    between atoms: C13_15  and  O2_16 
REMARK    6  A    between atoms: C15_18  and  O3_19 
REMARK    7  A    between atoms: C20_25  and  N2_26 
ROOT
HETATM    1  C3  UNL     1       4.753  -1.005   0.618  1.00  0.00     0.050 C 
HETATM    2  C4  UNL     1       4.589  -1.656  -0.594  1.00  0.00     0.037 C 
HETATM    3 BR1  UNL     1       5.775  -3.049  -0.776  1.00  0.00    -0.049 Br
HETATM    4  C5  UNL     1       3.564  -1.236  -1.623  1.00  0.00     0.019 C 
HETATM    5  C6  UNL     1       2.496  -0.393  -1.645  1.00  0.00    -0.003 C 
HETATM    6  C7  UNL     1       1.343   0.034  -0.849  1.00  0.00     0.063 C 
HETATM    7  C18 UNL     1       1.385  -0.339   0.580  1.00  0.00     0.045 C 
HETATM    8  C19 UNL     1       2.549   0.367   0.618  1.00  0.00     0.127 C 
HETATM    9  N1  UNL     1       2.389   1.605  -0.189  1.00  0.00    -0.217 NA
HETATM   10  C20 UNL     1       1.181   1.536  -0.658  1.00  0.00     0.116 C 
HETATM   11  N3  UNL     1       3.899   0.108   1.158  1.00  0.00    -0.340 N 
HETATM   12  H22 UNL     1       4.193   0.742   1.881  1.00  0.00     0.167 HD
ENDROOT
BRANCH   6  13
HETATM   13  C8  UNL     1       0.148  -0.545  -1.578  1.00  0.00     0.064 C 
BRANCH  13  14
HETATM   14  C9  UNL     1      -1.170  -0.298  -1.033  1.00  0.00    -0.051 A 
HETATM   15  C10 UNL     1      -1.970   0.786  -1.338  1.00  0.00     0.047 A 
HETATM   16  C11 UNL     1      -3.230   1.059  -0.853  1.00  0.00     0.104 A 
HETATM   17  C13 UNL     1      -3.772   0.159   0.040  1.00  0.00     0.135 A 
HETATM   18  C15 UNL     1      -3.054  -0.959   0.411  1.00  0.00     0.104 A 
HETATM   19  C17 UNL     1      -1.811  -1.148  -0.121  1.00  0.00     0.047 A 
BRANCH  16  20
HETATM   20  O1  UNL     1      -3.954   2.163  -1.213  1.00  0.00    -0.353 OA
HETATM   21  C12 UNL     1      -3.432   3.091  -2.114  1.00  0.00     0.210 C 
ENDBRANCH  16  20
BRANCH  17  22
HETATM   22  O2  UNL     1      -5.035   0.389   0.555  1.00  0.00    -0.351 OA
HETATM   23  C14 UNL     1      -5.290   1.114   1.729  1.00  0.00     0.210 C 
ENDBRANCH  17  22
BRANCH  18  24
HETATM   24  O3  UNL     1      -3.647  -1.812   1.300  1.00  0.00    -0.353 OA
HETATM   25  C16 UNL     1      -3.134  -2.995   1.824  1.00  0.00     0.210 C 
ENDBRANCH  18  24
ENDBRANCH  13  14
ENDBRANCH   6  13
BRANCH  10  26
HETATM   26  N2  UNL     1       0.476   2.767  -0.730  1.00  0.00    -0.386 N 
HETATM   27  H20 UNL     1       0.872   3.498  -1.358  1.00  0.00     0.157 HD
HETATM   28  H21 UNL     1      -0.383   2.895  -0.174  1.00  0.00     0.157 HD
ENDBRANCH  10  26
BRANCH   1  29
HETATM   29  C2  UNL     1       5.799  -1.335   1.487  1.00  0.00     0.021 C 
HETATM   30  C1  UNL     1       6.180  -0.904   2.649  1.00  0.00     0.013 C 
ENDBRANCH   1  29
TORSDOF 7
