REMARK  9 active torsions:
REMARK  status: ('A' for Active; 'I' for Inactive)
REMARK    1  A    between atoms: N1_1  and  C1_2 
REMARK    2  A    between atoms: C1_2  and  C12_19 
REMARK    3  A    between atoms: C2_3  and  S1_4 
REMARK    4  A    between atoms: C4_7  and  N3_8 
REMARK    5  A    between atoms: C5_10  and  N5_11 
REMARK    6  A    between atoms: N5_11  and  C6_12 
REMARK    7  A    between atoms: C6_12  and  C11_18 
REMARK    8  A    between atoms: C8_14  and  C9_15 
REMARK    9  A    between atoms: C12_19  and  C13_20 
ROOT
HETATM    1  S1  UNL     1       0.198  -0.042  -1.710  1.00  0.00    -0.094 SA
HETATM    2  C3  UNL     1       0.666  -0.268  -3.263  1.00  0.00     0.146 C 
HETATM    3  N2  UNL     1       0.731  -1.523  -3.542  1.00  0.00    -0.054 NA
HETATM    4  C4  UNL     1       0.834  -2.563  -2.623  1.00  0.00     0.719 C 
HETATM    5  N4  UNL     1       0.164  -2.605  -1.518  1.00  0.00    -0.070 NA
HETATM    6  C5  UNL     1      -0.763  -1.534  -1.164  1.00  0.00     0.286 C 
ENDROOT
BRANCH   1   7
HETATM    7  C2  UNL     1       1.556   0.350  -0.604  1.00  0.00     0.069 C 
HETATM    8  C1  UNL     1       1.617   0.222   0.692  1.00  0.00     0.013 C 
BRANCH   8   9
HETATM    9  N1  UNL     1       0.523  -0.284   1.432  1.00  0.00    -0.402 N 
HETATM   10  H1  UNL     1      -0.485  -0.030   1.618  1.00  0.00     0.156 HD
HETATM   11  H2  UNL     1      -0.193  -0.763   2.018  1.00  0.00     0.156 HD
ENDBRANCH   8   9
BRANCH   8  12
HETATM   12  C12 UNL     1       2.709   0.523   1.612  1.00  0.00     0.095 C 
BRANCH  12  13
HETATM   13  C13 UNL     1       2.302   1.542   2.608  1.00  0.00    -0.052 A 
HETATM   14  C14 UNL     1       1.825   1.115   3.848  1.00  0.00     0.009 A 
HETATM   15  C15 UNL     1       1.425   1.966   4.833  1.00  0.00     0.024 A 
HETATM   16  C16 UNL     1       1.467   3.332   4.660  1.00  0.00     0.034 A 
HETATM   17 CL1  UNL     1       0.944   4.399   5.934  1.00  0.00    -0.084 Cl
HETATM   18  C17 UNL     1       1.940   3.746   3.428  1.00  0.00     0.024 A 
HETATM   19  C18 UNL     1       2.344   2.908   2.436  1.00  0.00     0.009 A 
ENDBRANCH  12  13
ENDBRANCH   8  12
ENDBRANCH   1   7
BRANCH   6  20
HETATM   20  N5  UNL     1      -1.941  -1.732  -1.961  1.00  0.00    -0.381 N 
HETATM   21  H7  UNL     1      -2.005  -2.664  -2.376  1.00  0.00     0.157 HD
BRANCH  20  22
HETATM   22  C6  UNL     1      -2.977  -0.586  -2.132  1.00  0.00     0.050 A 
HETATM   23  C7  UNL     1      -3.186   0.970  -1.772  1.00  0.00     0.036 A 
HETATM   24  C8  UNL     1      -3.962   0.324  -2.316  1.00  0.00     0.023 A 
BRANCH  24  25
HETATM   25  C9  UNL     1      -4.690  -0.312  -2.832  1.00  0.00     0.047 A 
HETATM   26  C10 UNL     1      -5.486  -1.044  -3.409  1.00  0.00     0.053 A 
HETATM   27 BR1  UNL     1      -6.667   0.347  -3.539  1.00  0.00    -0.141 Br
HETATM   28  C11 UNL     1      -4.105  -1.419  -2.888  1.00  0.00     0.057 A 
ENDBRANCH  24  25
ENDBRANCH  20  22
ENDBRANCH   6  20
BRANCH   4  29
HETATM   29  N3  UNL     1       1.698  -3.668  -2.848  1.00  0.00    -0.231 N 
HETATM   30  H4  UNL     1       2.209  -3.781  -3.766  1.00  0.00     0.174 HD
HETATM   31  H5  UNL     1       2.300  -4.508  -2.901  1.00  0.00     0.174 HD
ENDBRANCH   4  29
TORSDOF 9
