REMARK  8 active torsions:
REMARK  status: ('A' for Active; 'I' for Inactive)
REMARK    1  A    between atoms: C2_2  and  N1_3 
REMARK    2  A    between atoms: C2_2  and  C3_4 
REMARK    3  A    between atoms: C3_4  and  C4_5 
REMARK    4  A    between atoms: C4_5  and  C5_6 
REMARK    5  A    between atoms: C6_7  and  N2_8 
REMARK    6  A    between atoms: N2_8  and  C7_9 
REMARK    7  A    between atoms: C8_11  and  N4_12 
REMARK    8  A    between atoms: C14_19  and  C15_20 
ROOT
HETATM    1  C7  UNL     1      -0.656  -1.011   1.521  1.00  0.00     0.143 A 
HETATM    2  N3  UNL     1      -0.342  -2.212   1.958  1.00  0.00    -0.200 NA
HETATM    3  C8  UNL     1      -0.281  -3.378   1.386  1.00  0.00     0.201 A 
HETATM    4  N5  UNL     1      -0.631  -3.402  -0.058  1.00  0.00    -0.221 NA
HETATM    5  C9  UNL     1      -0.957  -2.201  -0.495  1.00  0.00     0.068 A 
HETATM    6  C10 UNL     1      -0.995  -1.011   0.170  1.00  0.00     0.036 A 
HETATM    7  C11 UNL     1      -1.335   0.321  -0.180  1.00  0.00     0.013 C 
HETATM    8  C12 UNL     1      -0.816   0.996  -1.231  1.00  0.00    -0.021 C 
HETATM    9  C13 UNL     1      -1.164   2.406  -1.596  1.00  0.00     0.065 C 
HETATM   10  C14 UNL     1      -2.133   2.294  -2.758  1.00  0.00    -0.056 C 
HETATM   11  C17 UNL     1      -2.397   1.041  -3.070  1.00  0.00     0.009 C 
HETATM   12  C18 UNL     1      -2.067  -0.319  -2.692  1.00  0.00     0.316 C 
HETATM   13  N6  UNL     1      -2.005  -1.541  -2.640  1.00  0.00    -0.433 NA
HETATM   14  C19 UNL     1      -1.347  -2.520  -1.856  1.00  0.00     0.164 C 
ENDROOT
BRANCH   1  15
HETATM   15  N2  UNL     1      -0.600   0.127   2.421  1.00  0.00    -0.350 N 
HETATM   16  H11 UNL     1      -0.485  -0.077   3.433  1.00  0.00     0.166 HD
BRANCH  15  17
HETATM   17  C6  UNL     1      -0.705   1.469   1.963  1.00  0.00     0.090 C 
HETATM   18  C5  UNL     1       0.638   1.582   1.780  1.00  0.00     0.017 C 
BRANCH  18  19
HETATM   19  C4  UNL     1       2.005   1.088   1.812  1.00  0.00    -0.001 C 
BRANCH  19  20
HETATM   20  C3  UNL     1       3.304   0.988   1.698  1.00  0.00     0.008 C 
BRANCH  20  21
HETATM   21  C2  UNL     1       3.963  -0.310   2.136  1.00  0.00     0.236 C 
HETATM   22  C1  UNL     1       5.058   0.020   3.109  1.00  0.00     0.046 C 
BRANCH  21  23
HETATM   23  N1  UNL     1       2.951  -1.091   2.793  1.00  0.00     0.086 N 
HETATM   24  H5  UNL     1       3.254  -2.102   2.848  1.00  0.00     0.313 HD
HETATM   25  H6  UNL     1       2.766  -0.700   3.754  1.00  0.00     0.313 HD
ENDBRANCH  21  23
ENDBRANCH  20  21
ENDBRANCH  19  20
ENDBRANCH  18  19
ENDBRANCH  15  17
ENDBRANCH   1  15
BRANCH   3  26
HETATM   26  N4  UNL     1       0.091  -4.403   2.261  1.00  0.00    -0.271 NA
HETATM   27  H12 UNL     1      -0.014  -5.241   2.772  1.00  0.00     0.127 HD
HETATM   28  H13 UNL     1      -0.828  -4.971   2.128  1.00  0.00     0.127 HD
ENDBRANCH   3  26
BRANCH  10  29
HETATM   29  C15 UNL     1      -2.873   3.275  -3.610  1.00  0.00     0.019 C 
HETATM   30  C16 UNL     1      -3.758   3.155  -4.599  1.00  0.00     0.085 C 
HETATM   31 CL1  UNL     1      -4.566   1.875  -5.459  1.00  0.00    -0.097 Cl
ENDBRANCH  10  29
TORSDOF 8
