REMARK  4 active torsions:
REMARK  status: ('A' for Active; 'I' for Inactive)
REMARK    1  A    between atoms: N1_1  and  C1_2 
REMARK    2  A    between atoms: C2_4  and  N3_5 
REMARK    3  A    between atoms: N3_5  and  C3_6 
REMARK    4  A    between atoms: C10_14  and  C11_15 
ROOT
HETATM    1  C1  UNL     1      -0.942   3.343  -0.024  1.00  0.00     0.719 A 
HETATM    2  N2  UNL     1      -1.359   2.135  -0.245  1.00  0.00    -0.075 NA
HETATM    3  C2  UNL     1      -0.492   1.005  -0.354  1.00  0.00     0.265 A 
HETATM    4  C9  UNL     1       0.916   1.426  -0.164  1.00  0.00     0.060 A 
HETATM    5  C10 UNL     1       2.206   1.105  -0.099  1.00  0.00     0.058 A 
HETATM    6  N4  UNL     1       2.718   2.409   0.147  1.00  0.00    -0.339 N 
HETATM    7  C17 UNL     1       1.338   2.803   0.087  1.00  0.00     0.159 A 
HETATM    8  N5  UNL     1       0.442   3.722   0.153  1.00  0.00    -0.045 NA
HETATM    9  H13 UNL     1       3.669   2.843   0.296  1.00  0.00     0.167 HD
ENDROOT
BRANCH   3  10
HETATM   10  N3  UNL     1      -0.872  -0.075   0.520  1.00  0.00    -0.363 N 
HETATM   11  H4  UNL     1      -0.274  -0.406   1.311  1.00  0.00     0.162 HD
BRANCH  10  12
HETATM   12  C3  UNL     1      -2.103  -0.701   0.289  1.00  0.00     0.031 A 
HETATM   13  C4  UNL     1      -2.905  -0.276  -0.746  1.00  0.00     0.029 A 
HETATM   14  C5  UNL     1      -4.127  -0.902  -0.985  1.00  0.00     0.004 A 
HETATM   15  C6  UNL     1      -4.580  -1.947  -0.219  1.00  0.00     0.019 A 
HETATM   16  C7  UNL     1      -3.759  -2.373   0.831  1.00  0.00     0.013 A 
HETATM   17 BR1  UNL     1      -4.456  -3.830   1.849  1.00  0.00    -0.051 Br
HETATM   18  C8  UNL     1      -2.545  -1.749   1.066  1.00  0.00     0.048 A 
ENDBRANCH  10  12
ENDBRANCH   3  10
BRANCH   1  19
HETATM   19  N1  UNL     1      -1.923   4.350   0.057  1.00  0.00    -0.231 N 
HETATM   20  H1  UNL     1      -1.994   4.848   0.978  1.00  0.00     0.174 HD
HETATM   21  H2  UNL     1      -2.618   5.108   0.218  1.00  0.00     0.174 HD
ENDBRANCH   1  19
BRANCH   5  22
HETATM   22  C11 UNL     1       2.763  -0.238  -0.256  1.00  0.00    -0.009 A 
HETATM   23  C12 UNL     1       2.414  -1.229  -1.149  1.00  0.00     0.015 A 
HETATM   24  C13 UNL     1       3.067  -2.469  -1.115  1.00  0.00     0.024 A 
HETATM   25  C14 UNL     1       4.068  -2.706  -0.187  1.00  0.00     0.034 A 
HETATM   26 CL1  UNL     1       4.843  -4.281  -0.195  1.00  0.00    -0.084 Cl
HETATM   27  C15 UNL     1       4.428  -1.722   0.713  1.00  0.00     0.024 A 
HETATM   28  C16 UNL     1       3.782  -0.509   0.673  1.00  0.00     0.015 A 
ENDBRANCH   5  22
TORSDOF 4
