REMARK  5 active torsions:
REMARK  status: ('A' for Active; 'I' for Inactive)
REMARK    1  A    between atoms: C2_2  and  C3_3 
REMARK    2  A    between atoms: C2_2  and  N1_5 
REMARK    3  A    between atoms: N1_5  and  C4_6 
REMARK    4  A    between atoms: C6_8  and  C7_9 
REMARK    5  A    between atoms: C7_9  and  C9_11 
ROOT
HETATM    1  C4  UNL     1      -1.902   0.111  -0.924  1.00  0.00     0.151 C 
HETATM    2  C5  UNL     1      -0.561   0.243  -0.939  1.00  0.00     0.084 C 
HETATM    3  C6  UNL     1       0.481  -0.685  -1.390  1.00  0.00     0.067 C 
HETATM    4  N2  UNL     1       0.203  -1.473  -2.398  1.00  0.00    -0.266 NA
HETATM    5  C15 UNL     1      -0.988  -1.636  -3.213  1.00  0.00     0.322 C 
HETATM    6  N3  UNL     1      -2.176  -1.790  -2.373  1.00  0.00    -0.169 NA
HETATM    7  N4  UNL     1      -2.580  -1.071  -1.408  1.00  0.00    -0.135 NA
ENDROOT
BRANCH   3   8
HETATM    8  C7  UNL     1       1.770  -0.800  -0.740  1.00  0.00    -0.007 C 
HETATM    9  C8  UNL     1       2.501  -1.663  -1.425  1.00  0.00     0.026 C 
BRANCH   8  10
HETATM   10  C9  UNL     1       2.379  -0.215   0.414  1.00  0.00    -0.024 A 
HETATM   11  C10 UNL     1       1.823   0.569   1.389  1.00  0.00     0.014 A 
HETATM   12  C11 UNL     1       2.447   1.155   2.463  1.00  0.00     0.024 A 
HETATM   13  C12 UNL     1       3.798   0.904   2.543  1.00  0.00     0.034 A 
HETATM   14 CL1  UNL     1       4.705   1.598   3.870  1.00  0.00    -0.084 Cl
HETATM   15  C13 UNL     1       4.469   0.136   1.633  1.00  0.00     0.024 A 
HETATM   16  C14 UNL     1       3.754  -0.405   0.594  1.00  0.00     0.014 A 
ENDBRANCH   8  10
ENDBRANCH   3   8
BRANCH   1  17
HETATM   17  N1  UNL     1      -2.531   1.293  -0.384  1.00  0.00    -0.343 N 
HETATM   18  H5  UNL     1      -2.154   2.202  -0.730  1.00  0.00     0.167 HD
BRANCH  17  19
HETATM   19  C2  UNL     1      -3.570   0.993   0.538  1.00  0.00     0.011 C 
HETATM   20  C1  UNL     1      -4.777   1.485   0.319  1.00  0.00     0.039 C 
BRANCH  19  21
HETATM   21  C3  UNL     1      -3.297   0.141   1.724  1.00  0.00     0.141 C 
HETATM   22 BR1  UNL     1      -1.940   0.919   2.865  1.00  0.00    -0.090 Br
ENDBRANCH  19  21
ENDBRANCH  17  19
ENDBRANCH   1  17
TORSDOF 5
