REMARK  3 active torsions:
REMARK  status: ('A' for Active; 'I' for Inactive)
REMARK    1  A    between atoms: O1_2  and  C2_3 
REMARK    2  A    between atoms: C3_4  and  O2_5 
REMARK    3  A    between atoms: C7_9  and  O3_10 
ROOT
HETATM    1  C2  UNL     1       3.029   0.277   0.116  1.00  0.00     0.135 A 
HETATM    2  C3  UNL     1       2.936  -0.592  -0.952  1.00  0.00     0.104 A 
HETATM    3  C4  UNL     1       1.713  -0.992  -1.449  1.00  0.00     0.077 A 
HETATM    4  C5  UNL     1       0.548  -0.528  -0.883  1.00  0.00     0.091 A 
HETATM    5  C6  UNL     1       0.601   0.342   0.187  1.00  0.00     0.084 A 
HETATM    6  C7  UNL     1       1.854   0.733   0.673  1.00  0.00     0.119 A 
HETATM    7  C8  UNL     1      -0.450   0.957   0.943  1.00  0.00     0.194 C 
HETATM    8  O4  UNL     1      -0.328   1.533   2.046  1.00  0.00    -0.287 OA
HETATM    9  C9  UNL     1      -1.887   1.140   0.767  1.00  0.00    -0.004 C 
HETATM   10  C10 UNL     1      -2.490   1.759  -0.294  1.00  0.00     0.014 C 
HETATM   11  C11 UNL     1      -3.486   1.238  -1.296  1.00  0.00     0.037 C 
HETATM   12  C12 UNL     1      -3.429  -0.119  -1.223  1.00  0.00     0.071 C 
HETATM   13  C13 UNL     1      -3.979  -0.910  -0.092  1.00  0.00     0.033 C 
HETATM   14  C14 UNL     1      -3.700  -0.492   1.167  1.00  0.00    -0.019 C 
HETATM   15  C15 UNL     1      -2.870   0.606   1.791  1.00  0.00     0.070 C 
HETATM   16  O5  UNL     1      -2.831  -0.993  -2.207  1.00  0.00    -0.326 OA
HETATM   17  C16 UNL     1      -1.408  -0.641  -2.432  1.00  0.00     0.351 C 
HETATM   18  O6  UNL     1      -0.766  -0.777  -1.197  1.00  0.00    -0.325 OA
ENDROOT
BRANCH   1  19
HETATM   19  O1  UNL     1       4.295   0.623   0.548  1.00  0.00    -0.351 OA
HETATM   20  C1  UNL     1       5.007  -0.091   1.533  1.00  0.00     0.210 C 
ENDBRANCH   1  19
BRANCH   2  21
HETATM   21  O2  UNL     1       4.040  -1.109  -1.584  1.00  0.00    -0.358 OA
HETATM   22  H4  UNL     1       4.803  -0.548  -1.915  1.00  0.00     0.217 HD
ENDBRANCH   2  21
BRANCH   6  23
HETATM   23  O3  UNL     1       2.081   1.610   1.752  1.00  0.00    -0.357 OA
HETATM   24  H6  UNL     1       2.449   1.194   2.586  1.00  0.00     0.218 HD
ENDBRANCH   6  23
TORSDOF 3
