REMARK  6 active torsions:
REMARK  status: ('A' for Active; 'I' for Inactive)
REMARK    1  A    between atoms: O1_2  and  C2_3 
REMARK    2  A    between atoms: N1_6  and  C5_7 
REMARK    3  A    between atoms: C5_7  and  N2_8 
REMARK    4  A    between atoms: N2_8  and  C6_9 
REMARK    5  A    between atoms: C13_17  and  C14_18 
REMARK    6  A    between atoms: C19_25  and  N5_26 
ROOT
HETATM    1  C2  UNL     1      -0.679  -0.420  -1.685  1.00  0.00     0.074 A 
HETATM    2  C3  UNL     1       0.169   0.442  -2.225  1.00  0.00     0.030 A 
HETATM    3  C4  UNL     1       1.128   1.303  -1.525  1.00  0.00     0.154 A 
HETATM    4  N1  UNL     1       1.103   1.152  -0.081  1.00  0.00    -0.370 N 
HETATM    5  C12 UNL     1       0.205   0.237   0.509  1.00  0.00     0.098 A 
HETATM    6  C13 UNL     1      -0.614  -0.486  -0.230  1.00  0.00     0.005 A 
ENDROOT
BRANCH   6   7
HETATM    7  C14 UNL     1      -1.534  -1.432   0.466  1.00  0.00     0.118 C 
HETATM    8  C15 UNL     1      -1.384  -1.304   1.965  1.00  0.00    -0.007 C 
HETATM    9  C16 UNL     1      -2.237  -0.555   2.680  1.00  0.00     0.026 C 
HETATM   10  C17 UNL     1      -3.601  -0.866   2.286  1.00  0.00     0.056 C 
HETATM   11  N3  UNL     1      -3.438  -1.813   1.350  1.00  0.00    -0.235 NA
HETATM   12  C20 UNL     1      -4.958  -0.366   2.593  1.00  0.00     0.228 C 
HETATM   13  C18 UNL     1      -2.942  -1.091   0.170  1.00  0.00     0.157 C 
HETATM   14  N4  UNL     1      -4.002  -0.593  -0.410  1.00  0.00    -0.047 NA
HETATM   15  C19 UNL     1      -4.918   0.388   0.183  1.00  0.00     0.717 C 
HETATM   16  N6  UNL     1      -5.532   0.237   1.349  1.00  0.00    -0.100 NA
BRANCH  15  17
HETATM   17  N5  UNL     1      -5.135   1.582  -0.599  1.00  0.00    -0.231 N 
HETATM   18  H18 UNL     1      -5.168   1.460  -1.615  1.00  0.00     0.174 HD
HETATM   19  H19 UNL     1      -5.240   2.459  -0.060  1.00  0.00     0.174 HD
ENDBRANCH  15  17
ENDBRANCH   6   7
BRANCH   1  20
HETATM   20  O1  UNL     1      -1.562  -1.207  -2.412  1.00  0.00    -0.356 OA
HETATM   21  C1  UNL     1      -2.216  -0.750  -3.578  1.00  0.00     0.210 C 
ENDBRANCH   1  20
BRANCH   4  22
HETATM   22  C5  UNL     1       2.074   2.047   0.507  1.00  0.00     0.246 C 
BRANCH  22  23
HETATM   23  N2  UNL     1       3.413   1.844   0.035  1.00  0.00    -0.374 N 
HETATM   24  H9  UNL     1       3.886   2.636  -0.497  1.00  0.00     0.161 HD
BRANCH  23  25
HETATM   25  C6  UNL     1       4.204   0.690   0.194  1.00  0.00     0.030 A 
HETATM   26  C7  UNL     1       3.816  -0.447   0.857  1.00  0.00     0.029 A 
HETATM   27  C8  UNL     1       4.582  -1.580   1.012  1.00  0.00     0.004 A 
HETATM   28  C9  UNL     1       5.841  -1.618   0.477  1.00  0.00     0.019 A 
HETATM   29  C10 UNL     1       6.289  -0.505  -0.201  1.00  0.00     0.013 A 
HETATM   30 BR1  UNL     1       8.030  -0.508  -0.962  1.00  0.00    -0.051 Br
HETATM   31  C11 UNL     1       5.479   0.598  -0.324  1.00  0.00     0.048 A 
ENDBRANCH  23  25
ENDBRANCH  22  23
ENDBRANCH   4  22
TORSDOF 6
