REMARK  3 active torsions:
REMARK  status: ('A' for Active; 'I' for Inactive)
REMARK    1  A    between atoms: C3_3  and  N1_4 
REMARK    2  A    between atoms: N1_4  and  C4_5 
REMARK    3  A    between atoms: N3_15  and  C12_16 
ROOT
HETATM    1  C1  UNL     1      -0.684   0.731   1.296  1.00  0.00     0.071 C 
HETATM    2  C2  UNL     1      -0.580   0.471  -0.148  1.00  0.00     0.038 A 
HETATM    3  C3  UNL     1       0.508   0.696  -0.868  1.00  0.00     0.052 A 
HETATM    4  C10 UNL     1       0.649   0.447  -2.327  1.00  0.00     0.209 A 
HETATM    5  N2  UNL     1      -0.535  -0.080  -2.925  1.00  0.00    -0.278 NA
HETATM    6  C11 UNL     1      -1.599  -0.303  -2.236  1.00  0.00     0.208 A 
HETATM    7  N3  UNL     1      -1.707  -0.055  -0.839  1.00  0.00    -0.310 N 
ENDROOT
BRANCH   3   8
HETATM    8  N1  UNL     1       1.717   1.217  -0.343  1.00  0.00    -0.357 N 
HETATM    9  H4  UNL     1       1.621   2.253  -0.418  1.00  0.00     0.166 HD
BRANCH   8  10
HETATM   10  C4  UNL     1       2.819   0.521   0.170  1.00  0.00     0.033 A 
HETATM   11  C5  UNL     1       2.791  -0.843   0.200  1.00  0.00     0.029 A 
HETATM   12  C6  UNL     1       3.915  -1.471   0.721  1.00  0.00     0.004 A 
HETATM   13  C7  UNL     1       4.992  -0.745   1.181  1.00  0.00     0.019 A 
HETATM   14  C8  UNL     1       4.994   0.653   1.139  1.00  0.00     0.013 A 
HETATM   15 BR1  UNL     1       6.463   1.702   1.763  1.00  0.00    -0.051 Br
HETATM   16  C9  UNL     1       3.869   1.297   0.616  1.00  0.00     0.048 A 
ENDBRANCH   8  10
ENDBRANCH   3   8
BRANCH   7  17
HETATM   17  C12 UNL     1      -2.947  -0.349  -0.204  1.00  0.00     0.041 A 
HETATM   18  C13 UNL     1      -3.889   0.536  -0.525  1.00  0.00     0.029 A 
HETATM   19  C14 UNL     1      -5.132   0.169   0.165  1.00  0.00     0.023 A 
HETATM   20  C15 UNL     1      -4.894  -0.929   0.881  1.00  0.00     0.036 A 
HETATM   21 CL1  UNL     1      -5.970  -1.863   1.927  1.00  0.00    -0.087 Cl
HETATM   22  C16 UNL     1      -3.479  -1.361   0.713  1.00  0.00     0.177 A 
HETATM   23 CL2  UNL     1      -3.475  -2.960  -0.056  1.00  0.00    -0.112 Cl
ENDBRANCH   7  17
TORSDOF 3
