REMARK  8 active torsions:
REMARK  status: ('A' for Active; 'I' for Inactive)
REMARK    1  A    between atoms: C2_2  and  C3_3 
REMARK    2  A    between atoms: C3_3  and  N1_4 
REMARK    3  A    between atoms: C3_3  and  C13_19 
REMARK    4  A    between atoms: N1_4  and  C4_5 
REMARK    5  A    between atoms: C6_7  and  N2_8 
REMARK    6  A    between atoms: N2_8  and  C7_9 
REMARK    7  A    between atoms: C12_16  and  N4_17 
REMARK    8  A    between atoms: C20_26  and  O1_27 
ROOT
HETATM    1  C4  UNL     1       0.699  -0.979   0.678  1.00  0.00     0.146 A 
HETATM    2  C5  UNL     1       1.883  -0.242   0.571  1.00  0.00     0.101 A 
HETATM    3  C6  UNL     1       3.083  -0.795   0.882  1.00  0.00     0.147 A 
HETATM    4  N3  UNL     1       3.099  -2.074   1.296  1.00  0.00    -0.046 NA
HETATM    5  C12 UNL     1       1.988  -2.819   1.414  1.00  0.00     0.724 A 
HETATM    6  N5  UNL     1       0.811  -2.248   1.100  1.00  0.00    -0.046 NA
ENDROOT
BRANCH   1   7
HETATM    7  N1  UNL     1      -0.565  -0.381   0.346  1.00  0.00    -0.365 N 
HETATM    8  H5  UNL     1      -0.573   0.592   0.031  1.00  0.00     0.161 HD
BRANCH   7   9
HETATM    9  C3  UNL     1      -1.742  -1.215   0.485  1.00  0.00     0.119 C 
BRANCH   9  10
HETATM   10  C2  UNL     1      -1.610  -2.386  -0.392  1.00  0.00    -0.011 C 
HETATM   11  C1  UNL     1      -2.049  -3.588  -0.041  1.00  0.00     0.009 C 
ENDBRANCH   9  10
BRANCH   9  12
HETATM   12  C13 UNL     1      -2.995  -0.401   0.246  1.00  0.00     0.091 C 
HETATM   13  C14 UNL     1      -2.978   0.728   1.198  1.00  0.00    -0.017 C 
HETATM   14  C15 UNL     1      -3.525   1.932   1.384  1.00  0.00    -0.026 C 
HETATM   15  C16 UNL     1      -4.505   2.734   0.606  1.00  0.00     0.054 C 
HETATM   16  C17 UNL     1      -3.989   3.093  -0.750  1.00  0.00    -0.023 C 
HETATM   17  C18 UNL     1      -3.564   2.370  -1.798  1.00  0.00    -0.001 C 
HETATM   18  C19 UNL     1      -3.438   0.935  -2.022  1.00  0.00     0.032 C 
HETATM   19  C20 UNL     1      -3.216  -0.060  -1.149  1.00  0.00     0.053 C 
BRANCH  19  20
HETATM   20  O1  UNL     1      -3.185  -1.253  -1.894  1.00  0.00    -0.364 OA
HETATM   21  H22 UNL     1      -4.053  -1.655  -2.218  1.00  0.00     0.217 HD
ENDBRANCH  19  20
ENDBRANCH   9  12
ENDBRANCH   7   9
ENDBRANCH   1   7
BRANCH   3  22
HETATM   22  N2  UNL     1       4.301  -0.074   0.784  1.00  0.00    -0.363 N 
HETATM   23  H7  UNL     1       5.207  -0.525   1.030  1.00  0.00     0.162 HD
BRANCH  22  24
HETATM   24  C7  UNL     1       4.310   1.307   0.339  1.00  0.00     0.130 A 
HETATM   25  C8  UNL     1       5.719   1.836   0.325  1.00  0.00     0.003 A 
HETATM   26  C9  UNL     1       6.178   2.054  -0.915  1.00  0.00     0.017 A 
HETATM   27  C10 UNL     1       5.095   1.680  -1.798  1.00  0.00     0.009 A 
HETATM   28 BR1  UNL     1       5.361   1.850  -3.694  1.00  0.00    -0.051 Br
HETATM   29  C11 UNL     1       4.031   1.256  -1.135  1.00  0.00     0.021 A 
ENDBRANCH  22  24
ENDBRANCH   3  22
BRANCH   5  30
HETATM   30  N4  UNL     1       2.001  -4.186   1.857  1.00  0.00    -0.231 N 
HETATM   31  H12 UNL     1       2.171  -5.116   1.376  1.00  0.00     0.174 HD
HETATM   32  H13 UNL     1       1.787  -4.181   2.885  1.00  0.00     0.174 HD
ENDBRANCH   5  30
TORSDOF 8
