REMARK  4 active torsions:
REMARK  status: ('A' for Active; 'I' for Inactive)
REMARK    1  A    between atoms: O1_2  and  C2_3 
REMARK    2  A    between atoms: C12_13  and  N1_14 
REMARK    3  A    between atoms: N1_14  and  C13_15 
REMARK    4  A    between atoms: C19_23  and  N3_24 
ROOT
HETATM    1  C2  UNL     1       4.011  -0.795   1.071  1.00  0.00     0.068 A 
HETATM    2  C3  UNL     1       5.081  -0.343   0.317  1.00  0.00     0.039 A 
HETATM    3  C4  UNL     1       4.868   0.513  -0.744  1.00  0.00     0.040 A 
HETATM    4  C5  UNL     1       3.548   0.877  -0.993  1.00  0.00     0.076 A 
HETATM    5  C6  UNL     1       2.462   0.439  -0.254  1.00  0.00    -0.009 A 
HETATM    6  C7  UNL     1       2.720  -0.415   0.796  1.00  0.00     0.047 A 
HETATM    7  C8  UNL     1       1.133   0.962  -0.707  1.00  0.00     0.095 C 
HETATM    8  C9  UNL     1       0.828   2.276  -0.084  1.00  0.00    -0.011 C 
HETATM    9  C10 UNL     1      -0.360   2.780   0.199  1.00  0.00     0.001 C 
HETATM   10  C11 UNL     1      -1.646   2.180  -0.029  1.00  0.00     0.051 C 
HETATM   11  C12 UNL     1      -2.097   1.049  -0.537  1.00  0.00     0.147 C 
HETATM   12  N2  UNL     1      -1.779  -0.217  -1.140  1.00  0.00    -0.045 NA
HETATM   13  C19 UNL     1      -0.870  -0.358  -2.040  1.00  0.00     0.722 C 
HETATM   14  N4  UNL     1       0.111   0.364  -2.803  1.00  0.00    -0.069 NA
HETATM   15  C20 UNL     1       1.070   0.997  -2.179  1.00  0.00     0.068 C 
HETATM   16  C21 UNL     1       2.146   1.775  -2.819  1.00  0.00     0.232 C 
HETATM   17  O2  UNL     1       3.337   1.738  -2.060  1.00  0.00    -0.345 OA
ENDROOT
BRANCH  11  18
HETATM   18  N1  UNL     1      -3.464   0.621  -0.681  1.00  0.00    -0.340 N 
HETATM   19  H11 UNL     1      -4.228   0.783  -1.403  1.00  0.00     0.167 HD
BRANCH  18  20
HETATM   20  C13 UNL     1      -4.315  -0.205   0.126  1.00  0.00     0.035 A 
HETATM   21  C14 UNL     1      -4.423  -1.586  -0.021  1.00  0.00     0.029 A 
HETATM   22  C15 UNL     1      -5.256  -2.332   0.782  1.00  0.00     0.004 A 
HETATM   23  C16 UNL     1      -5.991  -1.676   1.748  1.00  0.00     0.019 A 
HETATM   24  C17 UNL     1      -5.950  -0.314   1.968  1.00  0.00     0.013 A 
HETATM   25 BR1  UNL     1      -6.964   0.576   3.298  1.00  0.00    -0.051 Br
HETATM   26  C18 UNL     1      -5.090   0.389   1.125  1.00  0.00     0.048 A 
ENDBRANCH  18  20
ENDBRANCH  11  18
BRANCH  13  27
HETATM   27  N3  UNL     1      -0.969  -1.774  -2.282  1.00  0.00    -0.231 N 
HETATM   28  H16 UNL     1      -1.401  -2.643  -2.654  1.00  0.00     0.174 HD
HETATM   29  H17 UNL     1      -0.296  -2.512  -1.970  1.00  0.00     0.174 HD
ENDBRANCH  13  27
BRANCH   1  30
HETATM   30  O1  UNL     1       4.212  -1.663   2.148  1.00  0.00    -0.356 OA
HETATM   31  C1  UNL     1       5.574  -2.038   2.404  1.00  0.00     0.210 C 
ENDBRANCH   1  30
TORSDOF 4
