REMARK  9 active torsions:
REMARK  status: ('A' for Active; 'I' for Inactive)
REMARK    1  A    between atoms: C2_2  and  C3_3 
REMARK    2  A    between atoms: C3_3  and  C4_4 
REMARK    3  A    between atoms: C4_4  and  C5_5 
REMARK    4  A    between atoms: C5_5  and  N1_6 
REMARK    5  A    between atoms: N1_6  and  C6_7 
REMARK    6  A    between atoms: C9_10  and  N2_11 
REMARK    7  A    between atoms: N2_11  and  C10_12 
REMARK    8  A    between atoms: C10_12  and  C11_13 
REMARK    9  A    between atoms: C17_19  and  N3_20 
ROOT
HETATM    1  C6  UNL     1       1.652  -0.586  -0.419  1.00  0.00     0.021 C 
HETATM    2  C7  UNL     1       1.630   0.739  -0.380  1.00  0.00     0.007 C 
HETATM    3  C8  UNL     1       0.319   1.369   0.008  1.00  0.00     0.106 C 
HETATM    4  C9  UNL     1      -0.805   0.615  -0.641  1.00  0.00     0.098 C 
HETATM    5  N4  UNL     1      -0.705  -0.653  -0.656  1.00  0.00    -0.271 NA
HETATM    6  C18 UNL     1       0.418  -1.382  -0.087  1.00  0.00     0.207 C 
ENDROOT
BRANCH   4   7
HETATM    7  N2  UNL     1      -1.955   1.203  -1.230  1.00  0.00    -0.374 N 
HETATM    8  H12 UNL     1      -1.815   2.207  -1.563  1.00  0.00     0.161 HD
BRANCH   7   9
HETATM    9  C10 UNL     1      -3.213   0.579  -1.398  1.00  0.00     0.162 C 
BRANCH   9  10
HETATM   10  C11 UNL     1      -3.913   0.118  -0.197  1.00  0.00    -0.008 A 
HETATM   11  C12 UNL     1      -4.517   1.045   0.640  1.00  0.00    -0.052 A 
HETATM   12  C13 UNL     1      -4.412   2.485   0.271  1.00  0.00     0.049 C 
HETATM   13  C14 UNL     1      -5.196   0.616   1.786  1.00  0.00     0.007 A 
HETATM   14  C15 UNL     1      -5.306  -0.707   2.148  1.00  0.00     0.003 A 
HETATM   15  C16 UNL     1      -4.712  -1.607   1.324  1.00  0.00     0.029 A 
HETATM   16  C17 UNL     1      -4.042  -1.198   0.193  1.00  0.00     0.034 A 
BRANCH  16  17
HETATM   17  N3  UNL     1      -3.460  -2.217  -0.609  1.00  0.00    -0.399 N 
HETATM   18  H21 UNL     1      -2.831  -3.016  -0.724  1.00  0.00     0.156 HD
HETATM   19  H22 UNL     1      -3.671  -2.378  -1.637  1.00  0.00     0.156 HD
ENDBRANCH  16  17
ENDBRANCH   9  10
ENDBRANCH   7   9
ENDBRANCH   4   7
BRANCH   1  20
HETATM   20  N1  UNL     1       2.913  -1.115  -0.791  1.00  0.00    -0.391 N 
HETATM   21  H8  UNL     1       2.867  -1.314  -1.820  1.00  0.00     0.159 HD
BRANCH  20  22
HETATM   22  C5  UNL     1       4.029  -1.324   0.126  1.00  0.00     0.137 C 
BRANCH  22  23
HETATM   23  C4  UNL     1       4.524  -0.023   0.558  1.00  0.00     0.086 C 
BRANCH  23  24
HETATM   24  C3  UNL     1       5.709   0.375   0.114  1.00  0.00    -0.170 C 
BRANCH  24  25
HETATM   25  C2  UNL     1       6.983   0.512  -0.228  1.00  0.00     0.062 C 
HETATM   26  C1  UNL     1       7.998  -0.074   0.677  1.00  0.00     0.023 C 
ENDBRANCH  24  25
ENDBRANCH  23  24
ENDBRANCH  22  23
ENDBRANCH  20  22
ENDBRANCH   1  20
TORSDOF 9
