REMARK  1 active torsions:
REMARK  status: ('A' for Active; 'I' for Inactive)
REMARK    1  A    between atoms: C13_16  and  O1_17 
ROOT
HETATM    1  C1  UNL     1       3.393   1.776   1.289  1.00  0.00     0.038 C 
HETATM    2  C2  UNL     1       2.746   0.474   1.033  1.00  0.00    -0.004 C 
HETATM    3  C3  UNL     1       1.907   0.118   0.035  1.00  0.00     0.028 C 
HETATM    4  C4  UNL     1       1.848   1.419  -0.700  1.00  0.00     0.087 C 
HETATM    5  C5  UNL     1       1.210   1.887  -1.831  1.00  0.00    -0.017 C 
HETATM    6 BR1  UNL     1       1.786   3.688  -1.926  1.00  0.00    -0.059 Br
HETATM    7  C6  UNL     1       0.230   1.448  -2.963  1.00  0.00     0.103 C 
HETATM    8  C7  UNL     1      -0.049   0.003  -2.584  1.00  0.00     0.051 A 
HETATM    9  N1  UNL     1       0.666  -0.778  -3.390  1.00  0.00    -0.245 NA
HETATM   10  C8  UNL     1       0.885  -2.078  -3.192  1.00  0.00     0.235 A 
HETATM   11  N2  UNL     1       0.296  -2.551  -2.043  1.00  0.00    -0.223 NA
HETATM   12  C9  UNL     1      -0.366  -1.655  -1.375  1.00  0.00     0.152 A 
HETATM   13  C10 UNL     1      -0.725  -0.328  -1.396  1.00  0.00     0.024 A 
HETATM   14  C11 UNL     1      -1.637   0.415  -0.586  1.00  0.00     0.077 C 
HETATM   15  C12 UNL     1      -2.052   1.777  -0.981  1.00  0.00     0.022 C 
HETATM   16  C13 UNL     1      -1.377   0.269   0.866  1.00  0.00     0.052 C 
HETATM   17  C15 UNL     1      -1.540  -0.841   1.657  1.00  0.00     0.032 C 
HETATM   18  C16 UNL     1      -1.618  -2.237   0.987  1.00  0.00     0.127 C 
HETATM   19  C17 UNL     1      -1.362  -3.294   1.973  1.00  0.00     0.038 C 
HETATM   20  N3  UNL     1      -0.567  -2.092  -0.042  1.00  0.00    -0.270 N 
HETATM   21  N4  UNL     1       0.729  -2.369   0.492  1.00  0.00    -0.144 NA
HETATM   22  N5  UNL     1       1.544  -1.270   0.229  1.00  0.00    -0.307 N 
HETATM   23  H21 UNL     1       0.598  -2.387   1.528  1.00  0.00     0.173 HD
HETATM   24  H22 UNL     1       2.381  -1.882   0.110  1.00  0.00     0.182 HD
ENDROOT
BRANCH  16  25
HETATM   25  O1  UNL     1      -0.897   1.446   1.519  1.00  0.00    -0.360 OA
HETATM   26  C14 UNL     1      -1.612   2.093   2.527  1.00  0.00     0.209 C 
ENDBRANCH  16  25
TORSDOF 1
