REMARK  7 active torsions:
REMARK  status: ('A' for Active; 'I' for Inactive)
REMARK    1  A    between atoms: O1_2  and  C2_3 
REMARK    2  A    between atoms: C2_3  and  C3_4 
REMARK    3  A    between atoms: C3_4  and  C4_5 
REMARK    4  A    between atoms: C3_4  and  C5_7 
REMARK    5  A    between atoms: C5_7  and  C6_8 
REMARK    6  A    between atoms: N1_12  and  C10_13 
REMARK    7  A    between atoms: C16_21  and  N3_22 
ROOT
HETATM    1  C6  UNL     1       1.649  -0.211   1.016  1.00  0.00    -0.077 C 
HETATM    2  C7  UNL     1       0.667  -1.152   1.010  1.00  0.00     0.012 C 
HETATM    3  C8  UNL     1      -0.631  -0.506   0.757  1.00  0.00    -0.029 A 
HETATM    4  C9  UNL     1      -1.732  -0.905   0.162  1.00  0.00     0.126 A 
HETATM    5  N1  UNL     1      -2.759   0.074   0.140  1.00  0.00    -0.243 N 
HETATM    6  N2  UNL     1      -2.577   1.336   0.706  1.00  0.00    -0.154 NA
HETATM    7  C16 UNL     1      -1.468   1.677   1.281  1.00  0.00     0.127 A 
HETATM    8  C17 UNL     1      -0.337   0.812   1.444  1.00  0.00     0.095 A 
HETATM    9  C18 UNL     1       0.963   1.128   0.784  1.00  0.00     0.051 C 
ENDROOT
BRANCH   1  10
HETATM   10  C5  UNL     1       3.063  -0.550   1.244  1.00  0.00     0.048 C 
BRANCH  10  11
HETATM   11  C3  UNL     1       3.895  -0.175   0.082  1.00  0.00     0.014 C 
BRANCH  11  12
HETATM   12  C2  UNL     1       5.299  -0.505   0.469  1.00  0.00     0.179 C 
BRANCH  12  13
HETATM   13  O1  UNL     1       6.239  -0.216  -0.502  1.00  0.00    -0.395 OA
HETATM   14  C1  UNL     1       6.085  -0.937  -1.674  1.00  0.00     0.201 C 
ENDBRANCH  12  13
ENDBRANCH  11  12
BRANCH  11  15
HETATM   15  C4  UNL     1       3.211   0.332  -0.940  1.00  0.00     0.245 C 
HETATM   16 CL1  UNL     1       2.780   1.036  -2.506  1.00  0.00    -0.254 Cl
ENDBRANCH  11  15
ENDBRANCH  10  11
ENDBRANCH   1  10
BRANCH   7  17
HETATM   17  N3  UNL     1      -1.272   2.962   1.857  1.00  0.00    -0.385 N 
HETATM   18  H15 UNL     1      -1.437   3.378   2.815  1.00  0.00     0.157 HD
HETATM   19  H16 UNL     1      -0.880   3.475   1.035  1.00  0.00     0.157 HD
ENDBRANCH   7  17
BRANCH   5  20
HETATM   20  C10 UNL     1      -4.003  -0.229  -0.471  1.00  0.00     0.059 A 
HETATM   21  C11 UNL     1      -4.326  -1.426  -1.067  1.00  0.00     0.031 A 
HETATM   22  C12 UNL     1      -5.551  -1.676  -1.650  1.00  0.00     0.004 A 
HETATM   23  C13 UNL     1      -6.514  -0.718  -1.655  1.00  0.00     0.019 A 
HETATM   24  C14 UNL     1      -6.276   0.513  -1.079  1.00  0.00     0.013 A 
HETATM   25 BR1  UNL     1      -7.557   1.923  -1.034  1.00  0.00    -0.051 Br
HETATM   26  C15 UNL     1      -5.023   0.700  -0.510  1.00  0.00     0.050 A 
ENDBRANCH   5  20
TORSDOF 7
