REMARK  5 active torsions:
REMARK  status: ('A' for Active; 'I' for Inactive)
REMARK    1  A    between atoms: O1_2  and  C2_3 
REMARK    2  A    between atoms: C3_4  and  O2_5 
REMARK    3  A    between atoms: C6_9  and  C7_10 
REMARK    4  A    between atoms: C8_12  and  C9_13 
REMARK    5  A    between atoms: C12_16  and  O5_17 
ROOT
HETATM    1  C2  UNL     1      -1.716  -0.786   0.196  1.00  0.00     0.090 C 
HETATM    2  C3  UNL     1      -2.968  -1.110  -0.168  1.00  0.00     0.097 C 
HETATM    3  C4  UNL     1      -3.771  -0.577  -1.289  1.00  0.00     0.063 C 
HETATM    4  C5  UNL     1      -3.540   0.601  -1.895  1.00  0.00     0.138 C 
HETATM    5  O3  UNL     1      -2.543   1.532  -1.613  1.00  0.00    -0.350 OA
HETATM    6  C6  UNL     1      -1.586   1.537  -0.539  1.00  0.00     0.203 C 
HETATM    7  C8  UNL     1      -0.890   0.223  -0.520  1.00  0.00     0.114 C 
ENDROOT
BRANCH   7   8
HETATM    8  C9  UNL     1       0.462   0.214   0.026  1.00  0.00    -0.044 A 
HETATM    9  C10 UNL     1       1.484  -0.271  -0.772  1.00  0.00     0.011 A 
HETATM   10  C11 UNL     1       2.819  -0.325  -0.353  1.00  0.00     0.037 A 
HETATM   11  C12 UNL     1       3.151   0.122   0.909  1.00  0.00     0.068 A 
HETATM   12  C14 UNL     1       2.156   0.616   1.737  1.00  0.00     0.037 A 
HETATM   13  C15 UNL     1       0.861   0.643   1.268  1.00  0.00     0.011 A 
BRANCH  11  14
HETATM   14  O5  UNL     1       4.433   0.123   1.442  1.00  0.00    -0.356 OA
HETATM   15  C13 UNL     1       5.489  -0.360   0.665  1.00  0.00     0.210 C 
ENDBRANCH  11  14
ENDBRANCH   7   8
BRANCH   1  16
HETATM   16  O1  UNL     1      -1.118  -1.393   1.285  1.00  0.00    -0.357 OA
HETATM   17  C1  UNL     1      -1.641  -1.255   2.578  1.00  0.00     0.209 C 
ENDBRANCH   1  16
BRANCH   6  18
HETATM   18  C7  UNL     1      -0.683   2.693  -0.797  1.00  0.00     0.264 C 
HETATM   19  O4  UNL     1      -1.009   3.286  -1.819  1.00  0.00    -0.304 OA
ENDBRANCH   6  18
BRANCH   2  20
HETATM   20  O2  UNL     1      -3.704  -2.070   0.540  1.00  0.00    -0.358 OA
HETATM   21  H4  UNL     1      -3.337  -3.006   0.532  1.00  0.00     0.217 HD
ENDBRANCH   2  20
TORSDOF 5
