REMARK  3 active torsions:
REMARK  status: ('A' for Active; 'I' for Inactive)
REMARK    1  A    between atoms: C5_5  and  C6_6 
REMARK    2  A    between atoms: C6_6  and  O1_7 
REMARK    3  A    between atoms: C12_13  and  N1_14 
ROOT
HETATM    1  C1  UNL     1      -2.653  -2.851   3.283  1.00  0.00     0.048 C 
HETATM    2  C2  UNL     1      -1.582  -2.693   2.303  1.00  0.00    -0.061 C 
HETATM    3  C3  UNL     1      -1.702  -1.422   2.243  1.00  0.00     0.007 C 
HETATM    4  C4  UNL     1      -1.900  -0.016   2.233  1.00  0.00     0.005 C 
HETATM    5  C5  UNL     1      -1.522   1.140   1.769  1.00  0.00    -0.056 C 
HETATM    6  C7  UNL     1      -0.427   1.503   0.885  1.00  0.00     0.042 C 
HETATM    7  C8  UNL     1      -0.938   2.167  -0.362  1.00  0.00     0.061 C 
HETATM    8  C9  UNL     1       0.211   2.556  -1.235  1.00  0.00     0.006 C 
HETATM    9  C10 UNL     1       1.308   1.824  -1.001  1.00  0.00     0.037 C 
HETATM   10  C11 UNL     1       2.065   1.389  -2.138  1.00  0.00     0.009 C 
HETATM   11  C12 UNL     1       2.435   0.240  -2.757  1.00  0.00     0.153 C 
HETATM   12  N4  UNL     1       1.786  -0.623  -1.864  1.00  0.00    -0.245 NA
HETATM   13  C14 UNL     1       1.944  -1.896  -1.797  1.00  0.00     0.093 C 
HETATM   14  C15 UNL     1       1.167  -2.638  -0.788  1.00  0.00     0.051 C 
HETATM   15  C16 UNL     1       0.397  -3.043   0.149  1.00  0.00     0.051 C 
HETATM   16  C17 UNL     1      -0.033  -4.250   0.855  1.00  0.00    -0.010 C 
HETATM   17 BR1  UNL     1       0.299  -6.172   0.864  1.00  0.00    -0.056 Br
HETATM   18  C18 UNL     1      -0.930  -3.839   1.780  1.00  0.00     0.021 C 
HETATM   19  C19 UNL     1       2.231   2.847  -2.351  1.00  0.00     0.162 C 
HETATM   20  N5  UNL     1       0.845   3.352  -2.253  1.00  0.00    -0.389 N 
HETATM   21  H20 UNL     1       0.154   4.068  -2.651  1.00  0.00     0.159 HD
ENDROOT
BRANCH  11  22
HETATM   22  N1  UNL     1       3.247   0.399  -3.942  1.00  0.00    -0.215 N 
HETATM   23  C13 UNL     1       2.845   1.160  -4.901  1.00  0.00     0.322 A 
HETATM   24  N2  UNL     1       3.682   0.327  -4.286  1.00  0.00    -0.049 NA
HETATM   25  N3  UNL     1       3.970   0.824  -5.509  1.00  0.00    -0.155 NA
ENDBRANCH  11  22
BRANCH   5  26
HETATM   26  C6  UNL     1      -2.316   2.254   2.287  1.00  0.00     0.198 C 
BRANCH  26  27
HETATM   27  O1  UNL     1      -1.515   3.161   2.975  1.00  0.00    -0.397 OA
HETATM   28  H8  UNL     1      -2.013   3.985   3.157  1.00  0.00     0.209 HD
ENDBRANCH  26  27
ENDBRANCH   5  26
TORSDOF 3
