REMARK  5 active torsions:
REMARK  status: ('A' for Active; 'I' for Inactive)
REMARK    1  A    between atoms: N1_1  and  N2_2 
REMARK    2  A    between atoms: N3_4  and  C2_5 
REMARK    3  A    between atoms: C10_14  and  C11_15 
REMARK    4  A    between atoms: C11_15  and  C12_16 
REMARK    5  A    between atoms: C15_19  and  C16_20 
ROOT
HETATM    1  N2  UNL     1      -3.083   2.030  -2.520  1.00  0.00    -0.216 N 
HETATM    2  C1  UNL     1      -4.199   1.836  -1.607  1.00  0.00     0.291 C 
HETATM    3  N3  UNL     1      -3.701   0.945  -0.537  1.00  0.00    -0.346 N 
HETATM    4  C8  UNL     1      -2.279   1.059  -0.320  1.00  0.00     0.183 A 
HETATM    5  C9  UNL     1      -1.693   0.315   0.771  1.00  0.00     0.031 A 
HETATM    6  C10 UNL     1      -0.795  -0.583   0.326  1.00  0.00     0.013 A 
HETATM    7  N4  UNL     1      -0.724  -0.535  -1.095  1.00  0.00    -0.344 N 
HETATM    8  C24 UNL     1      -1.642   0.458  -1.540  1.00  0.00     0.152 A 
HETATM    9  N5  UNL     1      -2.106   1.007  -2.622  1.00  0.00    -0.144 NA
HETATM   10  H22 UNL     1      -0.202  -1.012  -1.842  1.00  0.00     0.167 HD
ENDROOT
BRANCH   6  11
HETATM   11  C11 UNL     1       0.083  -1.585   1.003  1.00  0.00     0.095 C 
BRANCH  11  12
HETATM   12  C12 UNL     1       1.513  -1.347   0.747  1.00  0.00    -0.052 A 
HETATM   13  C13 UNL     1       2.119  -0.504   1.684  1.00  0.00     0.008 A 
HETATM   14  C14 UNL     1       3.443  -0.171   1.604  1.00  0.00     0.013 A 
HETATM   15  C15 UNL     1       4.236  -0.656   0.591  1.00  0.00    -0.026 A 
HETATM   16  C22 UNL     1       3.645  -1.501  -0.354  1.00  0.00     0.013 A 
HETATM   17  C23 UNL     1       2.307  -1.834  -0.269  1.00  0.00     0.008 A 
BRANCH  15  18
HETATM   18  C16 UNL     1       5.659  -0.347   0.436  1.00  0.00    -0.026 A 
HETATM   19  C17 UNL     1       6.502  -1.289  -0.132  1.00  0.00     0.012 A 
HETATM   20  C18 UNL     1       7.861  -1.052  -0.305  1.00  0.00     0.001 A 
HETATM   21  C19 UNL     1       8.376   0.168   0.107  1.00  0.00     0.000 A 
HETATM   22  C20 UNL     1       7.567   1.128   0.676  1.00  0.00     0.001 A 
HETATM   23  C21 UNL     1       6.222   0.841   0.825  1.00  0.00     0.012 A 
ENDBRANCH  15  18
ENDBRANCH  11  12
ENDBRANCH   6  11
BRANCH   3  24
HETATM   24  C2  UNL     1      -4.688   0.147   0.104  1.00  0.00     0.033 A 
HETATM   25  C3  UNL     1      -6.008   0.502  -0.075  1.00  0.00     0.029 A 
HETATM   26  C4  UNL     1      -7.028  -0.236   0.515  1.00  0.00     0.004 A 
HETATM   27  C5  UNL     1      -6.780  -1.343   1.298  1.00  0.00     0.019 A 
HETATM   28  C6  UNL     1      -5.460  -1.705   1.484  1.00  0.00     0.013 A 
HETATM   29 BR1  UNL     1      -5.044  -3.224   2.554  1.00  0.00    -0.051 Br
HETATM   30  C7  UNL     1      -4.472  -0.956   0.887  1.00  0.00     0.048 A 
ENDBRANCH   3  24
BRANCH   1  31
HETATM   31  N1  UNL     1      -2.998   3.226  -3.278  1.00  0.00    -0.229 NA
HETATM   32  H1  UNL     1      -3.898   3.322  -3.778  1.00  0.00     0.144 HD
HETATM   33  H2  UNL     1      -2.813   4.036  -2.645  1.00  0.00     0.144 HD
ENDBRANCH   1  31
TORSDOF 5
