REMARK  4 active torsions:
REMARK  status: ('A' for Active; 'I' for Inactive)
REMARK    1  A    between atoms: C2_2  and  C3_3 
REMARK    2  A    between atoms: C9_9  and  C10_10 
REMARK    3  A    between atoms: C14_14  and  C15_15 
REMARK    4  A    between atoms: C21_23  and  N2_24 
ROOT
HETATM    1  C10 UNL     1      -1.128  -0.038  -0.399  1.00  0.00    -0.045 A 
HETATM    2  C11 UNL     1       0.151  -0.378  -0.402  1.00  0.00    -0.028 A 
HETATM    3  C12 UNL     1       0.738  -1.654  -0.815  1.00  0.00     0.051 C 
HETATM    4  C13 UNL     1       0.809   0.795   0.146  1.00  0.00     0.072 A 
HETATM    5  C14 UNL     1       2.123   0.834   0.235  1.00  0.00     0.113 A 
HETATM    6  N1  UNL     1       2.914   1.911   0.755  1.00  0.00    -0.060 NA
HETATM    7  C21 UNL     1       2.535   3.059   1.237  1.00  0.00     0.722 A 
HETATM    8  N3  UNL     1       1.238   3.599   1.399  1.00  0.00    -0.058 NA
HETATM    9  C22 UNL     1       0.087   3.109   1.090  1.00  0.00     0.230 A 
HETATM   10  N4  UNL     1      -0.088   1.840   0.486  1.00  0.00    -0.335 N 
HETATM   11  C23 UNL     1      -1.384   1.349   0.067  1.00  0.00     0.165 A 
ENDROOT
BRANCH   1  12
HETATM   12  C9  UNL     1      -2.256  -0.900  -0.826  1.00  0.00     0.047 C 
HETATM   13  C3  UNL     1      -3.246  -1.171   0.281  1.00  0.00     0.027 C 
HETATM   14  C4  UNL     1      -4.119   0.014   0.492  1.00  0.00    -0.066 A 
HETATM   15  C5  UNL     1      -4.986   1.068   0.527  1.00  0.00    -0.010 A 
HETATM   16  C6  UNL     1      -5.026   0.306  -0.637  1.00  0.00     0.060 A 
HETATM   17  C7  UNL     1      -4.189   0.430  -1.843  1.00  0.00    -0.017 C 
HETATM   18  C8  UNL     1      -2.961  -0.114  -1.905  1.00  0.00    -0.020 C 
BRANCH  13  19
HETATM   19  C2  UNL     1      -2.624  -1.592   1.539  1.00  0.00    -0.019 C 
HETATM   20  C1  UNL     1      -2.807  -2.749   2.219  1.00  0.00     0.029 C 
ENDBRANCH  13  19
ENDBRANCH   1  12
BRANCH   5  21
HETATM   21  C15 UNL     1       3.083  -0.182  -0.169  1.00  0.00    -0.003 A 
HETATM   22  C16 UNL     1       3.446  -0.748  -1.405  1.00  0.00     0.014 A 
HETATM   23  C17 UNL     1       4.406  -1.726  -1.493  1.00  0.00     0.002 A 
HETATM   24  C18 UNL     1       5.059  -2.202  -0.378  1.00  0.00     0.019 A 
HETATM   25  C19 UNL     1       4.750  -1.689   0.863  1.00  0.00     0.011 A 
HETATM   26 BR1  UNL     1       5.667  -2.365   2.375  1.00  0.00    -0.051 Br
HETATM   27  C20 UNL     1       3.772  -0.693   0.949  1.00  0.00     0.033 A 
ENDBRANCH   5  21
BRANCH   7  28
HETATM   28  N2  UNL     1       3.500   3.999   1.707  1.00  0.00    -0.231 N 
HETATM   29  H17 UNL     1       3.732   4.126   2.705  1.00  0.00     0.174 HD
HETATM   30  H18 UNL     1       3.701   4.316   0.720  1.00  0.00     0.174 HD
ENDBRANCH   7  28
TORSDOF 4
