REMARK  5 active torsions:
REMARK  status: ('A' for Active; 'I' for Inactive)
REMARK    1  A    between atoms: C2_2  and  C3_3 
REMARK    2  A    between atoms: C2_2  and  C6_7 
REMARK    3  A    between atoms: C3_3  and  C4_4 
REMARK    4  A    between atoms: C9_12  and  N3_13 
REMARK    5  A    between atoms: C14_19  and  N4_20 
ROOT
HETATM    1  C6  UNL     1       0.313  -0.408   1.567  1.00  0.00     0.030 A 
HETATM    2  C7  UNL     1       0.924  -0.871   2.706  1.00  0.00     0.133 A 
HETATM    3  N1  UNL     1       0.229  -1.793   3.368  1.00  0.00    -0.253 NA
HETATM    4  C8  UNL     1      -0.967  -2.237   2.959  1.00  0.00     0.234 A 
HETATM    5  N2  UNL     1      -1.528  -1.755   1.837  1.00  0.00    -0.223 NA
HETATM    6  C9  UNL     1      -0.889  -0.803   1.091  1.00  0.00     0.144 A 
ENDROOT
BRANCH   6   7
HETATM    7  N3  UNL     1      -1.697  -0.446  -0.011  1.00  0.00    -0.313 N 
HETATM    8  C10 UNL     1      -2.455   0.760  -0.290  1.00  0.00     0.160 A 
HETATM    9  C11 UNL     1      -3.136   0.690  -1.585  1.00  0.00    -0.005 A 
HETATM   10  C12 UNL     1      -3.155  -0.273  -2.479  1.00  0.00     0.020 A 
HETATM   11  C13 UNL     1      -2.374  -1.465  -2.132  1.00  0.00     0.054 A 
HETATM   12 BR1  UNL     1      -2.398  -2.867  -3.422  1.00  0.00    -0.047 Br
HETATM   13  C14 UNL     1      -1.700  -1.523  -0.971  1.00  0.00     0.120 A 
BRANCH  13  14
HETATM   14  N4  UNL     1      -1.008  -2.775  -0.836  1.00  0.00    -0.384 N 
HETATM   15  H15 UNL     1      -1.139  -3.554  -0.183  1.00  0.00     0.157 HD
HETATM   16  H16 UNL     1      -0.205  -3.024  -1.484  1.00  0.00     0.157 HD
ENDBRANCH  13  14
ENDBRANCH   6   7
BRANCH   1  17
HETATM   17  C2  UNL     1       0.960   0.583   0.727  1.00  0.00    -0.063 C 
HETATM   18  C1  UNL     1       1.024   1.360  -0.307  1.00  0.00     0.039 C 
BRANCH  17  19
HETATM   19  C3  UNL     1       2.269   1.091   1.126  1.00  0.00     0.055 C 
BRANCH  19  20
HETATM   20  C4  UNL     1       2.923   2.066   0.223  1.00  0.00     0.082 C 
HETATM   21  C5  UNL     1       3.218   1.601  -1.161  1.00  0.00     0.027 C 
HETATM   22 CL1  UNL     1       4.470   2.523   1.020  1.00  0.00    -0.125 Cl
ENDBRANCH  19  20
ENDBRANCH  17  19
ENDBRANCH   1  17
TORSDOF 5
