REMARK  4 active torsions:
REMARK  status: ('A' for Active; 'I' for Inactive)
REMARK    1  A    between atoms: C11_14  and  C13_16 
REMARK    2  A    between atoms: C13_16  and  C14_17 
REMARK    3  A    between atoms: C14_17  and  C17_20 
REMARK    4  A    between atoms: C22_25  and  N3_26 
ROOT
HETATM    1  C1  UNL     1       5.503  -1.292  -1.530  1.00  0.00     0.021 C 
HETATM    2  C2  UNL     1       4.933  -0.254  -0.939  1.00  0.00    -0.037 C 
HETATM    3  C3  UNL     1       5.717   0.441   0.078  1.00  0.00     0.027 C 
HETATM    4  C4  UNL     1       5.418   1.248   1.085  1.00  0.00     0.011 C 
HETATM    5 BR1  UNL     1       6.837   1.922   2.165  1.00  0.00    -0.051 Br
HETATM    6  C5  UNL     1       4.048   1.666   1.433  1.00  0.00     0.020 C 
HETATM    7  C6  UNL     1       2.860   1.327   0.915  1.00  0.00     0.012 C 
HETATM    8  C7  UNL     1       2.674   0.389  -0.202  1.00  0.00    -0.016 A 
HETATM    9  C8  UNL     1       1.599  -0.377  -0.307  1.00  0.00     0.024 A 
HETATM   10  C9  UNL     1       1.736  -1.178  -1.519  1.00  0.00     0.129 A 
HETATM   11  N1  UNL     1       2.859  -0.875  -2.085  1.00  0.00    -0.258 NA
HETATM   12  C10 UNL     1       3.570   0.136  -1.329  1.00  0.00     0.176 A 
HETATM   13  N2  UNL     1       0.454  -1.758  -1.189  1.00  0.00    -0.361 N 
HETATM   14  C11 UNL     1       0.249  -1.008   0.011  1.00  0.00     0.063 A 
HETATM   15  C12 UNL     1       0.304  -1.751   1.328  1.00  0.00     0.044 C 
HETATM   16  H7  UNL     1      -0.037  -2.489  -1.756  1.00  0.00     0.162 HD
ENDROOT
BRANCH  14  17
HETATM   17  C13 UNL     1      -0.770   0.065  -0.126  1.00  0.00     0.075 C 
BRANCH  17  18
HETATM   18  C14 UNL     1      -2.186  -0.373   0.105  1.00  0.00    -0.047 C 
HETATM   19  C15 UNL     1      -2.484  -1.650   0.199  1.00  0.00    -0.023 C 
HETATM   20  C16 UNL     1      -3.449  -2.746   0.387  1.00  0.00     0.036 C 
BRANCH  18  21
HETATM   21  C17 UNL     1      -3.038   0.821   0.248  1.00  0.00    -0.004 A 
HETATM   22  C18 UNL     1      -2.647   2.107  -0.058  1.00  0.00     0.014 A 
HETATM   23  C19 UNL     1      -3.412   3.230   0.102  1.00  0.00     0.001 A 
HETATM   24  C20 UNL     1      -4.687   3.141   0.606  1.00  0.00     0.002 A 
HETATM   25  C21 UNL     1      -5.124   1.880   0.926  1.00  0.00     0.030 A 
HETATM   26  C22 UNL     1      -4.296   0.798   0.737  1.00  0.00     0.036 A 
BRANCH  26  27
HETATM   27  N3  UNL     1      -4.975  -0.352   1.180  1.00  0.00    -0.398 N 
HETATM   28  H21 UNL     1      -5.189  -0.437   2.203  1.00  0.00     0.156 HD
HETATM   29  H22 UNL     1      -5.467  -1.181   1.510  1.00  0.00     0.156 HD
ENDBRANCH  26  27
ENDBRANCH  18  21
ENDBRANCH  17  18
ENDBRANCH  14  17
TORSDOF 4
