REMARK  4 active torsions:
REMARK  status: ('A' for Active; 'I' for Inactive)
REMARK    1  A    between atoms: C3_3  and  N1_4 
REMARK    2  A    between atoms: N1_4  and  C4_5 
REMARK    3  A    between atoms: C5_7  and  N3_8 
REMARK    4  A    between atoms: N5_10  and  C6_11 
ROOT
HETATM    1  N1  UNL     1       0.043  -0.371  -1.078  1.00  0.00    -0.345 N 
HETATM    2  H4  UNL     1       0.057   0.211  -1.953  1.00  0.00     0.167 HD
ENDROOT
BRANCH   1   3
HETATM    3  C3  UNL     1       1.349  -0.849  -0.691  1.00  0.00     0.017 C 
HETATM    4  C2  UNL     1       1.621  -2.111  -0.965  1.00  0.00    -0.057 C 
HETATM    5  C1  UNL     1       0.691  -3.030  -1.623  1.00  0.00     0.046 C 
HETATM    6  C22 UNL     1       2.979  -2.499  -0.531  1.00  0.00     0.063 C 
HETATM    7  C21 UNL     1       3.813  -1.381  -0.129  1.00  0.00    -0.014 C 
HETATM    8  C14 UNL     1       3.585  -0.123   0.125  1.00  0.00    -0.044 C 
HETATM    9  C13 UNL     1       2.161   0.194  -0.041  1.00  0.00     0.096 C 
HETATM   10  C15 UNL     1       4.456   0.951   0.502  1.00  0.00    -0.012 A 
HETATM   11  C16 UNL     1       3.922   2.194   0.774  1.00  0.00     0.013 A 
HETATM   12  C20 UNL     1       5.820   0.953   0.635  1.00  0.00     0.021 A 
HETATM   13  C17 UNL     1       4.625   3.306   1.133  1.00  0.00     0.001 A 
HETATM   14  C18 UNL     1       5.990   3.234   1.248  1.00  0.00     0.001 A 
HETATM   15  C19 UNL     1       6.592   2.033   0.993  1.00  0.00     0.020 A 
HETATM   16 BR1  UNL     1       6.843  -0.604   0.311  1.00  0.00    -0.050 Br
ENDBRANCH   1   3
BRANCH   1  17
HETATM   17  C4  UNL     1      -1.140  -0.660  -0.344  1.00  0.00     0.143 A 
HETATM   18  N2  UNL     1      -1.125  -1.649   0.454  1.00  0.00    -0.046 NA
HETATM   19  C5  UNL     1      -2.293  -1.979   1.214  1.00  0.00     0.738 A 
HETATM   20  N4  UNL     1      -3.377  -1.256   1.082  1.00  0.00     0.021 NA
HETATM   21  N5  UNL     1      -3.448  -0.173   0.231  1.00  0.00    -0.247 N 
HETATM   22  C12 UNL     1      -2.307   0.221  -0.570  1.00  0.00     0.231 A 
BRANCH  19  23
HETATM   23  N3  UNL     1      -2.425  -3.050   2.141  1.00  0.00    -0.230 N 
HETATM   24  H5  UNL     1      -3.030  -3.776   1.728  1.00  0.00     0.174 HD
HETATM   25  H6  UNL     1      -2.037  -3.193   3.085  1.00  0.00     0.174 HD
ENDBRANCH  19  23
BRANCH  21  26
HETATM   26  C6  UNL     1      -4.645   0.587   0.117  1.00  0.00     0.053 A 
HETATM   27  C7  UNL     1      -5.769   0.250   0.864  1.00  0.00     0.031 A 
HETATM   28  C8  UNL     1      -6.966   0.943   0.803  1.00  0.00     0.002 A 
HETATM   29  C9  UNL     1      -7.037   2.017  -0.039  1.00  0.00     0.000 A 
HETATM   30  C10 UNL     1      -5.933   2.395  -0.810  1.00  0.00     0.002 A 
HETATM   31  C11 UNL     1      -4.738   1.674  -0.727  1.00  0.00     0.031 A 
ENDBRANCH  21  26
ENDBRANCH   1  17
TORSDOF 4
