REMARK  8 active torsions:
REMARK  status: ('A' for Active; 'I' for Inactive)
REMARK    1  A    between atoms: N1_1  and  C1_2 
REMARK    2  A    between atoms: C1_2  and  C2_3 
REMARK    3  A    between atoms: C3_4  and  C4_5 
REMARK    4  A    between atoms: C5_6  and  C6_8 
REMARK    5  A    between atoms: C6_8  and  C7_9 
REMARK    6  A    between atoms: C7_9  and  C8_10 
REMARK    7  A    between atoms: C10_12  and  N2_13 
REMARK    8  A    between atoms: N2_13  and  C11_14 
ROOT
HETATM    1  C8  UNL     1       0.500  -1.067  -0.339  1.00  0.00    -0.074 A 
HETATM    2  C9  UNL     1       1.128   0.067  -0.090  1.00  0.00     0.032 A 
HETATM    3  C10 UNL     1       2.403   0.249  -0.768  1.00  0.00     0.029 A 
HETATM    4  C17 UNL     1       2.528  -0.864  -1.466  1.00  0.00     0.007 A 
HETATM    5  C18 UNL     1       1.401  -1.803  -1.299  1.00  0.00     0.063 A 
ENDROOT
BRANCH   1   6
HETATM    6  C7  UNL     1      -0.708  -1.850  -0.040  1.00  0.00     0.040 C 
BRANCH   6   7
HETATM    7  C6  UNL     1      -1.711  -1.194   0.861  1.00  0.00     0.055 C 
BRANCH   7   8
HETATM    8  C5  UNL     1      -2.352   0.013   0.319  1.00  0.00     0.012 C 
HETATM    9  C4  UNL     1      -3.702  -0.046   0.193  1.00  0.00     0.019 C 
HETATM   10 CL1  UNL     1      -1.932   1.610  -0.259  1.00  0.00    -0.089 Cl
BRANCH   9  11
HETATM   11  C3  UNL     1      -4.951  -0.805   0.352  1.00  0.00    -0.001 C 
HETATM   12  C2  UNL     1      -6.265  -1.004   0.285  1.00  0.00     0.003 C 
BRANCH  12  13
HETATM   13  C1  UNL     1      -7.183   0.024  -0.218  1.00  0.00     0.294 C 
BRANCH  13  14
HETATM   14  N1  UNL     1      -8.123   0.349   0.842  1.00  0.00     0.081 N 
HETATM   15  H1  UNL     1      -8.860   1.008   0.497  1.00  0.00     0.313 HD
HETATM   16  H2  UNL     1      -7.621   0.790   1.648  1.00  0.00     0.313 HD
ENDBRANCH  13  14
ENDBRANCH  12  13
ENDBRANCH   9  11
ENDBRANCH   7   8
ENDBRANCH   6   7
ENDBRANCH   1   6
BRANCH   3  17
HETATM   17  N2  UNL     1       3.202   1.409  -0.610  1.00  0.00    -0.356 N 
HETATM   18  H13 UNL     1       2.721   2.314  -0.806  1.00  0.00     0.166 HD
BRANCH  17  19
HETATM   19  C11 UNL     1       4.554   1.377  -0.219  1.00  0.00     0.033 A 
HETATM   20  C12 UNL     1       5.215   0.219   0.043  1.00  0.00     0.029 A 
HETATM   21  C13 UNL     1       6.548   0.212   0.427  1.00  0.00     0.004 A 
HETATM   22  C14 UNL     1       7.286   1.384   0.566  1.00  0.00     0.019 A 
HETATM   23  C15 UNL     1       6.591   2.563   0.293  1.00  0.00     0.013 A 
HETATM   24 BR1  UNL     1       7.514   4.230   0.454  1.00  0.00    -0.051 Br
HETATM   25  C16 UNL     1       5.264   2.531  -0.087  1.00  0.00     0.048 A 
ENDBRANCH  17  19
ENDBRANCH   3  17
TORSDOF 8
