REMARK  2 active torsions:
REMARK  status: ('A' for Active; 'I' for Inactive)
REMARK    1  A    between atoms: B1_1  and  C1_2 
REMARK    2  A    between atoms: C16_19  and  N2_20 
ROOT
HETATM    1  C1  UNL     1       3.530  -1.752  -1.773  1.00  0.00    -0.061 C 
HETATM    2  C2  UNL     1       2.404  -1.341  -1.254  1.00  0.00     0.015 C 
HETATM    3  C3  UNL     1       1.226  -1.799  -1.997  1.00  0.00     0.007 C 
HETATM    4  C4  UNL     1      -0.052  -2.010  -2.384  1.00  0.00     0.019 C 
HETATM    5  C5  UNL     1      -1.396  -1.588  -1.835  1.00  0.00    -0.010 C 
HETATM    6  C6  UNL     1      -2.466  -1.089  -1.147  1.00  0.00     0.058 C 
HETATM    7  C7  UNL     1      -2.536  -0.281   0.107  1.00  0.00    -0.023 A 
HETATM    8  C8  UNL     1      -3.773  -0.695   0.602  1.00  0.00     0.018 A 
HETATM    9 BR1  UNL     1      -4.614  -2.058  -0.428  1.00  0.00    -0.051 Br
HETATM   10  C9  UNL     1      -4.456  -0.296   1.757  1.00  0.00     0.019 A 
HETATM   11  C10 UNL     1      -3.714   0.644   2.433  1.00  0.00     0.002 A 
HETATM   12  C11 UNL     1      -2.488   1.151   2.084  1.00  0.00     0.014 A 
HETATM   13  C12 UNL     1      -1.955   0.679   0.960  1.00  0.00     0.001 A 
HETATM   14  C13 UNL     1      -0.634   1.178   0.649  1.00  0.00     0.090 A 
HETATM   15  C14 UNL     1       0.403   0.309   0.447  1.00  0.00     0.084 A 
HETATM   16  C15 UNL     1       1.703   0.570   0.098  1.00  0.00     0.149 A 
HETATM   17  N1  UNL     1       1.944   1.881  -0.047  1.00  0.00    -0.045 NA
HETATM   18  C16 UNL     1       0.956   2.816   0.144  1.00  0.00     0.722 A 
HETATM   19  N3  UNL     1      -0.338   2.473   0.492  1.00  0.00    -0.062 NA
HETATM   20  N4  UNL     1       2.542  -0.528  -0.120  1.00  0.00    -0.342 N 
HETATM   21  H14 UNL     1       3.176  -0.535   0.672  1.00  0.00     0.167 HD
ENDROOT
BRANCH   1  22
HETATM   22  B1  UNL     1       4.917  -1.419  -1.196  1.00  0.00     0.164 B 
HETATM   23  H1  UNL     1       5.389  -2.003  -0.263  1.00  0.00    -0.027 HD
HETATM   24  H2  UNL     1       5.422  -0.345  -1.382  1.00  0.00    -0.027 HD
ENDBRANCH   1  22
BRANCH  18  25
HETATM   25  N2  UNL     1       1.326   4.199  -0.035  1.00  0.00    -0.231 N 
HETATM   26  H12 UNL     1       1.378   5.006   0.642  1.00  0.00     0.174 HD
HETATM   27  H13 UNL     1       1.592   4.470  -0.999  1.00  0.00     0.174 HD
ENDBRANCH  18  25
TORSDOF 2
