REMARK  6 active torsions:
REMARK  status: ('A' for Active; 'I' for Inactive)
REMARK    1  A    between atoms: N1_1  and  C1_2 
REMARK    2  A    between atoms: C2_4  and  C3_5 
REMARK    3  A    between atoms: N4_15  and  C11_16 
REMARK    4  A    between atoms: C11_16  and  C12_17 
REMARK    5  A    between atoms: C13_18  and  C14_19 
REMARK    6  A    between atoms: C19_24  and  N5_25 
ROOT
HETATM    1  C1  UNL     1       2.240  -2.588   0.672  1.00  0.00     0.722 A 
HETATM    2  N2  UNL     1       3.392  -1.862   0.584  1.00  0.00    -0.062 NA
HETATM    3  C2  UNL     1       3.274  -0.632   0.050  1.00  0.00     0.098 A 
HETATM    4  C9  UNL     1       2.046  -0.156  -0.375  1.00  0.00     0.036 A 
HETATM    5  C10 UNL     1       0.892  -0.928  -0.268  1.00  0.00     0.155 A 
HETATM    6  N3  UNL     1       1.020  -2.153   0.266  1.00  0.00    -0.045 NA
HETATM    7  N4  UNL     1       0.186   0.151  -0.851  1.00  0.00    -0.356 N 
HETATM    8  C23 UNL     1       1.361   1.003  -0.990  1.00  0.00     0.169 A 
ENDROOT
BRANCH   7   9
HETATM    9  C11 UNL     1      -1.123   0.532  -1.258  1.00  0.00     0.164 C 
BRANCH   9  10
HETATM   10  C12 UNL     1      -2.077  -0.548  -0.934  1.00  0.00    -0.029 A 
HETATM   11  C13 UNL     1      -3.171  -0.636  -0.149  1.00  0.00    -0.014 A 
HETATM   12  C20 UNL     1      -3.998  -1.850   0.012  1.00  0.00     0.214 A 
HETATM   13  O1  UNL     1      -3.469  -2.978  -0.669  1.00  0.00    -0.358 OA
HETATM   14  C21 UNL     1      -2.350  -2.905  -1.485  1.00  0.00     0.135 A 
HETATM   15  C22 UNL     1      -1.669  -1.786  -1.634  1.00  0.00     0.033 A 
BRANCH  11  16
HETATM   16  C14 UNL     1      -3.571   0.555   0.589  1.00  0.00    -0.001 A 
HETATM   17  C15 UNL     1      -2.567   1.169   1.350  1.00  0.00     0.014 A 
HETATM   18  C16 UNL     1      -2.822   2.323   2.064  1.00  0.00     0.001 A 
HETATM   19  C17 UNL     1      -4.089   2.853   2.010  1.00  0.00     0.002 A 
HETATM   20  C18 UNL     1      -5.113   2.289   1.279  1.00  0.00     0.030 A 
HETATM   21  C19 UNL     1      -4.838   1.131   0.567  1.00  0.00     0.036 A 
BRANCH  21  22
HETATM   22  N5  UNL     1      -5.868   0.524  -0.197  1.00  0.00    -0.398 N 
HETATM   23  H13 UNL     1      -6.793   0.063   0.002  1.00  0.00     0.156 HD
HETATM   24  H14 UNL     1      -5.551   0.595  -1.194  1.00  0.00     0.156 HD
ENDBRANCH  21  22
ENDBRANCH  11  16
ENDBRANCH   9  10
ENDBRANCH   7   9
BRANCH   3  25
HETATM   25  C3  UNL     1       4.485   0.201  -0.076  1.00  0.00    -0.005 A 
HETATM   26  C4  UNL     1       5.423   0.303   0.930  1.00  0.00     0.014 A 
HETATM   27  C5  UNL     1       6.528   1.126   0.722  1.00  0.00     0.002 A 
HETATM   28  C6  UNL     1       6.729   1.848  -0.450  1.00  0.00     0.019 A 
HETATM   29  C7  UNL     1       5.790   1.738  -1.441  1.00  0.00     0.011 A 
HETATM   30 BR1  UNL     1       6.080   2.742  -3.045  1.00  0.00    -0.051 Br
HETATM   31  C8  UNL     1       4.682   0.916  -1.236  1.00  0.00     0.032 A 
ENDBRANCH   3  25
BRANCH   1  32
HETATM   32  N1  UNL     1       2.197  -3.920   1.218  1.00  0.00    -0.231 N 
HETATM   33  H1  UNL     1       2.252  -4.407   2.162  1.00  0.00     0.174 HD
HETATM   34  H2  UNL     1       2.074  -4.601   0.440  1.00  0.00     0.174 HD
ENDBRANCH   1  32
TORSDOF 6
