REMARK  7 active torsions:
REMARK  status: ('A' for Active; 'I' for Inactive)
REMARK    1  A    between atoms: N1_1  and  C1_2 
REMARK    2  A    between atoms: C2_4  and  N3_5 
REMARK    3  A    between atoms: N3_5  and  C3_6 
REMARK    4  A    between atoms: N4_11  and  C7_12 
REMARK    5  A    between atoms: C7_12  and  C8_13 
REMARK    6  A    between atoms: C8_13  and  C9_14 
REMARK    7  A    between atoms: C12_17  and  C13_18 
ROOT
HETATM    1  C1  UNL     1       3.578  -0.641  -0.885  1.00  0.00     0.723 C 
HETATM    2  N2  UNL     1       4.605  -0.148  -0.443  1.00  0.00    -0.046 NA
HETATM    3  C2  UNL     1       5.820  -0.327   0.085  1.00  0.00     0.140 C 
HETATM    4  C4  UNL     1       5.322  -0.294   1.296  1.00  0.00     0.025 C 
HETATM    5  C5  UNL     1       4.336  -0.195   2.364  1.00  0.00     0.051 C 
HETATM    6  C6  UNL     1       2.906  -0.361   2.003  1.00  0.00     0.127 C 
HETATM    7  N4  UNL     1       2.448   0.473   0.957  1.00  0.00    -0.374 N 
HETATM    8  C22 UNL     1       2.808   1.416  -0.039  1.00  0.00     0.225 C 
HETATM    9  N5  UNL     1       3.392   0.761  -0.969  1.00  0.00    -0.058 NA
ENDROOT
BRANCH   7  10
HETATM   10  C7  UNL     1       1.040   0.307   0.809  1.00  0.00     0.128 C 
BRANCH  10  11
HETATM   11  C8  UNL     1       0.352   1.056  -0.274  1.00  0.00     0.058 C 
BRANCH  11  12
HETATM   12  C9  UNL     1      -1.116   0.772  -0.301  1.00  0.00    -0.057 A 
HETATM   13  C10 UNL     1      -2.102   1.445   0.377  1.00  0.00     0.007 A 
HETATM   14  C11 UNL     1      -3.428   1.068   0.256  1.00  0.00     0.009 A 
HETATM   15  C12 UNL     1      -3.763  -0.011  -0.569  1.00  0.00    -0.045 A 
HETATM   16  C20 UNL     1      -2.763  -0.682  -1.248  1.00  0.00     0.009 A 
HETATM   17  C21 UNL     1      -1.449  -0.273  -1.099  1.00  0.00     0.007 A 
BRANCH  15  18
HETATM   18  C13 UNL     1      -5.216  -0.317  -0.613  1.00  0.00     0.012 A 
HETATM   19  C14 UNL     1      -5.924  -0.337   0.693  1.00  0.00    -0.012 A 
HETATM   20  C15 UNL     1      -7.136   0.091   0.921  1.00  0.00    -0.003 A 
HETATM   21  C16 UNL     1      -7.920   0.648  -0.156  1.00  0.00    -0.004 A 
HETATM   22  C17 UNL     1      -7.367   0.701  -1.343  1.00  0.00    -0.021 A 
HETATM   23  C18 UNL     1      -6.004   0.249  -1.723  1.00  0.00     0.026 A 
HETATM   24  C19 UNL     1      -5.728  -1.196  -1.719  1.00  0.00     0.029 A 
ENDBRANCH  15  18
ENDBRANCH  11  12
ENDBRANCH  10  11
ENDBRANCH   7  10
BRANCH   1  25
HETATM   25  N1  UNL     1       2.432  -1.304  -1.378  1.00  0.00    -0.231 N 
HETATM   26  H1  UNL     1       2.328  -2.023  -0.601  1.00  0.00     0.174 HD
HETATM   27  H2  UNL     1       1.960  -1.034  -2.265  1.00  0.00     0.174 HD
ENDBRANCH   1  25
BRANCH   3  28
HETATM   28  N3  UNL     1       7.086  -0.483  -0.470  1.00  0.00    -0.349 N 
HETATM   29  H3  UNL     1       6.943  -1.160  -1.263  1.00  0.00     0.163 HD
BRANCH  28  30
HETATM   30  C3  UNL     1       8.229   0.224   0.073  1.00  0.00     0.346 C 
HETATM   31  F1  UNL     1       7.965   1.571  -0.031  1.00  0.00    -0.234 F 
ENDBRANCH  28  30
ENDBRANCH   3  28
TORSDOF 7
