REMARK  2 active torsions:
REMARK  status: ('A' for Active; 'I' for Inactive)
REMARK    1  A    between atoms: N1_1  and  C1_2 
REMARK    2  A    between atoms: N2_8  and  C6_9 
ROOT
HETATM    1  C6  UNL     1      -0.965   0.156  -1.043  1.00  0.00     0.238 C 
HETATM    2  N3  UNL     1      -0.637   1.527  -0.814  1.00  0.00    -0.273 NA
HETATM    3  C7  UNL     1       0.533   2.092  -0.777  1.00  0.00     0.111 C 
HETATM    4  C8  UNL     1       1.430   1.216  -1.527  1.00  0.00     0.126 C 
HETATM    5  C9  UNL     1       1.116  -0.119  -1.029  1.00  0.00     0.068 C 
HETATM    6  C10 UNL     1      -0.063  -0.842  -0.509  1.00  0.00    -0.037 C 
HETATM    7  C11 UNL     1       0.589  -1.957   0.037  1.00  0.00    -0.015 C 
HETATM    8  C12 UNL     1       2.003  -2.476   0.464  1.00  0.00     0.068 C 
HETATM    9  C13 UNL     1       2.902  -1.298   0.748  1.00  0.00    -0.031 A 
HETATM   10  C14 UNL     1       3.138  -0.788  -0.500  1.00  0.00     0.038 A 
HETATM   11  C15 UNL     1       3.316   0.447   0.045  1.00  0.00     0.029 A 
HETATM   12  C16 UNL     1       3.367   1.243   1.146  1.00  0.00     0.031 A 
HETATM   13  C17 UNL     1       3.101   0.405   2.253  1.00  0.00     0.026 A 
HETATM   14  C18 UNL     1       2.838  -0.979   2.092  1.00  0.00     0.040 A 
HETATM   15 CL1  UNL     1       2.500  -2.008   3.455  1.00  0.00    -0.084 Cl
HETATM   16  N4  UNL     1       2.910   1.278  -1.151  1.00  0.00    -0.380 N 
HETATM   17  H18 UNL     1       3.851   1.670  -1.359  1.00  0.00     0.160 HD
ENDROOT
BRANCH   1  18
HETATM   18  N2  UNL     1      -2.346  -0.056  -0.639  1.00  0.00    -0.341 N 
HETATM   19  C1  UNL     1      -2.953   0.948   0.199  1.00  0.00     0.095 A 
HETATM   20  C2  UNL     1      -4.186   0.996   0.669  1.00  0.00     0.048 A 
HETATM   21 BR1  UNL     1      -4.788   2.419   1.750  1.00  0.00    -0.048 Br
HETATM   22  C3  UNL     1      -5.060  -0.111   0.316  1.00  0.00     0.020 A 
HETATM   23  C4  UNL     1      -4.512  -1.026  -0.429  1.00  0.00    -0.006 A 
HETATM   24  C5  UNL     1      -3.163  -1.196  -1.011  1.00  0.00     0.154 A 
BRANCH  19  25
HETATM   25  N1  UNL     1      -2.153   2.080   0.603  1.00  0.00    -0.288 NA
HETATM   26  H1  UNL     1      -1.578   2.016   1.467  1.00  0.00     0.125 HD
HETATM   27  H2  UNL     1      -1.484   2.547   1.254  1.00  0.00     0.125 HD
ENDBRANCH  19  25
ENDBRANCH   1  18
TORSDOF 2
