REMARK  6 active torsions:
REMARK  status: ('A' for Active; 'I' for Inactive)
REMARK    1  A    between atoms: N1_1  and  C1_2 
REMARK    2  A    between atoms: C1_2  and  N2_3 
REMARK    3  A    between atoms: C1_2  and  C2_4 
REMARK    4  A    between atoms: C2_4  and  N4_17 
REMARK    5  A    between atoms: C5_7  and  C6_8 
REMARK    6  A    between atoms: C6_8  and  C7_9 
ROOT
HETATM    1  C2  UNL     1      -1.538   0.235   0.547  1.00  0.00     0.086 C 
HETATM    2  C3  UNL     1      -0.245   0.338   0.299  1.00  0.00    -0.012 C 
HETATM    3  C4  UNL     1       0.574   0.109  -0.886  1.00  0.00     0.035 C 
HETATM    4  C5  UNL     1       1.766   0.666  -0.748  1.00  0.00     0.010 C 
HETATM    5  N3  UNL     1       1.787   1.289   0.537  1.00  0.00    -0.389 N 
HETATM    6  C12 UNL     1       0.691   0.771   1.369  1.00  0.00     0.160 C 
HETATM    7  H13 UNL     1       2.473   2.019   0.876  1.00  0.00     0.159 HD
ENDROOT
BRANCH   1   8
HETATM    8  C1  UNL     1      -2.219   0.506   1.815  1.00  0.00     0.496 C 
BRANCH   8   9
HETATM    9  N1  UNL     1      -3.193   1.558   1.630  1.00  0.00     0.117 N 
HETATM   10  H1  UNL     1      -2.798   2.397   1.158  1.00  0.00     0.316 HD
HETATM   11  H2  UNL     1      -3.692   1.804   2.510  1.00  0.00     0.316 HD
ENDBRANCH   8   9
BRANCH   8  12
HETATM   12  N2  UNL     1      -2.982  -0.672   2.259  1.00  0.00     0.117 N 
HETATM   13  H4  UNL     1      -2.334  -1.318   2.758  1.00  0.00     0.316 HD
HETATM   14  H5  UNL     1      -3.771  -0.403   2.882  1.00  0.00     0.316 HD
ENDBRANCH   8  12
ENDBRANCH   1   8
BRANCH   1  15
HETATM   15  N4  UNL     1      -2.542  -0.166  -0.377  1.00  0.00    -0.331 N 
HETATM   16  C13 UNL     1      -2.947  -1.528  -0.393  1.00  0.00     0.092 A 
HETATM   17  C14 UNL     1      -3.878  -1.824  -1.272  1.00  0.00    -0.004 A 
HETATM   18  C15 UNL     1      -4.562  -0.936  -2.246  1.00  0.00     0.076 A 
HETATM   19  C16 UNL     1      -4.007   0.431  -2.076  1.00  0.00     0.008 A 
HETATM   20 BR1  UNL     1      -4.768   1.742  -3.256  1.00  0.00    -0.054 Br
HETATM   21  C17 UNL     1      -3.076   0.838  -1.230  1.00  0.00     0.111 A 
ENDBRANCH   1  15
BRANCH   4  22
HETATM   22  C6  UNL     1       2.882   0.656  -1.732  1.00  0.00     0.096 C 
BRANCH  22  23
HETATM   23  C7  UNL     1       4.063   0.006  -1.134  1.00  0.00    -0.035 A 
HETATM   24  C8  UNL     1       5.233   0.604  -0.972  1.00  0.00    -0.014 A 
HETATM   25  C9  UNL     1       6.164  -0.389  -0.335  1.00  0.00     0.056 A 
HETATM   26  C10 UNL     1       5.307  -1.598  -0.188  1.00  0.00     0.001 A 
HETATM   27  C11 UNL     1       4.093  -1.369  -0.650  1.00  0.00     0.036 A 
HETATM   28 CL1  UNL     1       2.822  -2.572  -0.636  1.00  0.00    -0.084 Cl
ENDBRANCH  22  23
ENDBRANCH   4  22
TORSDOF 6
