REMARK  0 active torsions:
REMARK  status: ('A' for Active; 'I' for Inactive)
ROOT
HETATM    1 BR1  UNL     1      -1.624  -4.770   1.882  1.00  0.00    -0.091 Br
HETATM    2  C1  UNL     1      -1.507  -3.246   0.744  1.00  0.00     0.005 C 
HETATM    3  C2  UNL     1      -2.781  -3.269   0.301  1.00  0.00     0.011 C 
HETATM    4  B1  UNL     1      -3.865  -2.526  -0.686  1.00  0.00     0.195 B 
HETATM    5  C3  UNL     1      -4.067  -0.970  -0.209  1.00  0.00    -0.109 A 
HETATM    6  C4  UNL     1      -5.110  -0.889   0.742  1.00  0.00    -0.008 A 
HETATM    7  C5  UNL     1      -5.113   0.281   1.488  1.00  0.00    -0.000 A 
HETATM    8  C6  UNL     1      -4.098   1.137   1.165  1.00  0.00     0.008 A 
HETATM    9  C7  UNL     1      -3.081   1.062   0.242  1.00  0.00    -0.045 A 
HETATM   10  C8  UNL     1      -2.042   1.983   0.216  1.00  0.00     0.013 A 
HETATM   11  C9  UNL     1      -1.202   1.303  -0.725  1.00  0.00    -0.056 A 
HETATM   12  C10 UNL     1      -1.765   0.148  -1.166  1.00  0.00     0.039 A 
HETATM   13  C11 UNL     1      -2.649  -0.908  -1.345  1.00  0.00     0.018 A 
HETATM   14  C12 UNL     1      -3.032  -0.020  -0.510  1.00  0.00     0.013 A 
HETATM   15  C13 UNL     1       0.233   1.636  -1.108  1.00  0.00     0.157 C 
HETATM   16  N1  UNL     1       1.203   0.719  -0.626  1.00  0.00    -0.381 N 
HETATM   17  C14 UNL     1       2.440   1.278  -1.230  1.00  0.00     0.142 C 
HETATM   18  C15 UNL     1       2.810   2.549  -0.571  1.00  0.00     0.139 C 
HETATM   19  N2  UNL     1       4.169   2.913  -0.882  1.00  0.00    -0.397 N 
HETATM   20  C16 UNL     1       4.846   1.938  -0.102  1.00  0.00     0.083 C 
HETATM   21  C17 UNL     1       4.758   0.807   0.543  1.00  0.00     0.016 C 
HETATM   22  C18 UNL     1       4.504  -0.500   1.242  1.00  0.00    -0.002 C 
HETATM   23  C19 UNL     1       3.451  -1.331   1.380  1.00  0.00    -0.015 C 
HETATM   24  C20 UNL     1       2.060  -1.262   0.854  1.00  0.00     0.064 A 
HETATM   25  C21 UNL     1       1.558  -0.407   0.170  1.00  0.00    -0.001 A 
HETATM   26  C22 UNL     1       0.566  -1.456   0.429  1.00  0.00     0.050 A 
HETATM   27  C23 UNL     1      -0.179  -2.500   0.773  1.00  0.00     0.016 C 
HETATM   28  H2  UNL     1      -4.795  -3.176  -0.816  1.00  0.00    -0.021 HD
HETATM   29  H15 UNL     1       4.918   3.453  -1.324  1.00  0.00     0.158 HD
ENDROOT
TORSDOF 0
