REMARK  8 active torsions:
REMARK  status: ('A' for Active; 'I' for Inactive)
REMARK    1  A    between atoms: O1_2  and  C2_3 
REMARK    2  A    between atoms: C4_5  and  C5_6 
REMARK    3  A    between atoms: C6_8  and  O3_9 
REMARK    4  A    between atoms: O3_9  and  C7_10 
REMARK    5  A    between atoms: C7_10  and  C8_11 
REMARK    6  A    between atoms: C11_14  and  O4_15 
REMARK    7  A    between atoms: C13_17  and  O5_18 
REMARK    8  A    between atoms: C15_20  and  O6_21 
ROOT
HETATM    1  C2  UNL     1       3.627   0.502   0.982  1.00  0.00     0.102 A 
HETATM    2  C3  UNL     1       3.315  -0.263  -0.067  1.00  0.00     0.055 A 
HETATM    3  C4  UNL     1       1.945  -0.480  -0.274  1.00  0.00     0.025 A 
HETATM    4  C6  UNL     1       1.007   0.073   0.545  1.00  0.00     0.084 A 
HETATM    5  C14 UNL     1       1.346   0.890   1.645  1.00  0.00     0.077 A 
HETATM    6  C15 UNL     1       2.685   1.062   1.821  1.00  0.00     0.101 A 
ENDROOT
BRANCH   4   7
HETATM    7  O3  UNL     1      -0.167  -0.325   0.154  1.00  0.00    -0.346 OA
BRANCH   7   8
HETATM    8  C7  UNL     1      -1.411  -0.668  -0.152  1.00  0.00     0.217 C 
BRANCH   8   9
HETATM    9  C8  UNL     1      -2.586   0.051  -0.390  1.00  0.00    -0.001 A 
HETATM   10  C9  UNL     1      -3.173   0.139   0.809  1.00  0.00     0.015 A 
HETATM   11  C10 UNL     1      -4.546   0.539   1.007  1.00  0.00     0.037 A 
HETATM   12  C11 UNL     1      -5.053   0.790  -0.269  1.00  0.00     0.068 A 
HETATM   13  C12 UNL     1      -4.592   0.735  -1.533  1.00  0.00     0.073 A 
HETATM   14  C13 UNL     1      -3.253   0.352  -1.637  1.00  0.00     0.076 A 
BRANCH  12  15
HETATM   15  O4  UNL     1      -6.432   1.248  -0.272  1.00  0.00    -0.361 OA
HETATM   16  H10 UNL     1      -7.137   0.502  -0.394  1.00  0.00     0.217 HD
ENDBRANCH  12  15
BRANCH  14  17
HETATM   17  O5  UNL     1      -2.429   0.201  -2.736  1.00  0.00    -0.360 OA
HETATM   18  H12 UNL     1      -2.390  -0.761  -3.129  1.00  0.00     0.217 HD
ENDBRANCH  14  17
ENDBRANCH   8   9
ENDBRANCH   7   8
ENDBRANCH   4   7
BRANCH   3  19
HETATM   19  C5  UNL     1       1.625  -1.200  -1.551  1.00  0.00     0.190 C 
HETATM   20  O2  UNL     1       1.151  -0.164  -2.261  1.00  0.00    -0.204 OA
ENDBRANCH   3  19
BRANCH   6  21
HETATM   21  O6  UNL     1       3.106   1.861   2.882  1.00  0.00    -0.358 OA
HETATM   22  H14 UNL     1       3.656   2.675   2.704  1.00  0.00     0.217 HD
ENDBRANCH   6  21
BRANCH   1  23
HETATM   23  O1  UNL     1       5.030   0.772   1.232  1.00  0.00    -0.353 OA
HETATM   24  C1  UNL     1       5.953   0.064   0.381  1.00  0.00     0.210 C 
ENDBRANCH   1  23
TORSDOF 8
