REMARK  4 active torsions:
REMARK  status: ('A' for Active; 'I' for Inactive)
REMARK    1  A    between atoms: C3_3  and  C4_5 
REMARK    2  A    between atoms: C11_13  and  N2_14 
REMARK    3  A    between atoms: C12_16  and  N4_17 
REMARK    4  A    between atoms: N4_17  and  C13_18 
ROOT
HETATM    1  C4  UNL     1       3.109  -0.953   0.018  1.00  0.00     0.048 C 
HETATM    2  C5  UNL     1       2.916  -2.183  -0.385  1.00  0.00     0.008 C 
HETATM    3  C6  UNL     1       1.891  -3.203  -0.528  1.00  0.00     0.056 C 
HETATM    4  C7  UNL     1       0.528  -2.851  -0.110  1.00  0.00    -0.022 C 
HETATM    5  C8  UNL     1      -0.336  -1.884   0.238  1.00  0.00     0.015 C 
HETATM    6  C9  UNL     1      -0.164  -0.460   0.350  1.00  0.00     0.057 A 
HETATM    7  C10 UNL     1       0.978   0.327   0.499  1.00  0.00     0.161 A 
HETATM    8  N1  UNL     1       0.796   1.653   0.602  1.00  0.00    -0.044 NA
HETATM    9  C11 UNL     1      -0.447   2.196   0.561  1.00  0.00     0.724 A 
HETATM   10  N3  UNL     1      -1.499   1.390   0.415  1.00  0.00    -0.044 NA
HETATM   11  C12 UNL     1      -1.413   0.059   0.305  1.00  0.00     0.161 A 
HETATM   12  N5  UNL     1       2.365   0.103   0.563  1.00  0.00    -0.339 N 
HETATM   13  H17 UNL     1       2.880   0.823   1.080  1.00  0.00     0.167 HD
ENDROOT
BRANCH  11  14
HETATM   14  N4  UNL     1      -2.598  -0.688   0.105  1.00  0.00    -0.340 N 
HETATM   15  H12 UNL     1      -2.925  -1.641  -0.117  1.00  0.00     0.167 HD
BRANCH  14  16
HETATM   16  C13 UNL     1      -3.872  -0.064   0.198  1.00  0.00     0.035 A 
HETATM   17  C14 UNL     1      -3.992   0.953   1.156  1.00  0.00     0.029 A 
HETATM   18  C15 UNL     1      -5.193   1.646   1.307  1.00  0.00     0.004 A 
HETATM   19  C16 UNL     1      -6.289   1.369   0.542  1.00  0.00     0.019 A 
HETATM   20  C17 UNL     1      -6.216   0.391  -0.397  1.00  0.00     0.013 A 
HETATM   21 BR1  UNL     1      -7.628  -0.118  -1.534  1.00  0.00    -0.051 Br
HETATM   22  C18 UNL     1      -5.035  -0.292  -0.548  1.00  0.00     0.048 A 
ENDBRANCH  14  16
ENDBRANCH  11  14
BRANCH   9  23
HETATM   23  N2  UNL     1      -0.600   3.605   0.676  1.00  0.00    -0.231 N 
HETATM   24  H10 UNL     1      -1.534   4.014   0.930  1.00  0.00     0.174 HD
HETATM   25  H11 UNL     1       0.216   4.211   0.506  1.00  0.00     0.174 HD
ENDBRANCH   9  23
BRANCH   1  26
HETATM   26  C3  UNL     1       4.494  -0.674  -0.186  1.00  0.00     0.040 A 
HETATM   27  C2  UNL     1       5.391   0.240  -0.055  1.00  0.00     0.113 A 
HETATM   28  C1  UNL     1       6.646   0.972  -0.072  1.00  0.00     0.032 C 
HETATM   29 CL1  UNL     1       5.860  -1.554  -0.825  1.00  0.00    -0.174 Cl
ENDBRANCH   1  26
TORSDOF 4
