REMARK  1 active torsions:
REMARK  status: ('A' for Active; 'I' for Inactive)
REMARK    1  A    between atoms: C1_2  and  C2_3 
ROOT
HETATM    1  C2  UNL     1       1.499   0.317   2.582  1.00  0.00     0.104 C 
HETATM    2  C3  UNL     1       2.284  -0.962   2.550  1.00  0.00     0.083 C 
HETATM    3  C4  UNL     1       1.899  -0.974   1.121  1.00  0.00     0.011 C 
HETATM    4  C5  UNL     1       1.906  -1.213  -0.188  1.00  0.00     0.035 C 
HETATM    5  C6  UNL     1       0.723  -0.569  -0.767  1.00  0.00    -0.016 C 
HETATM    6  C7  UNL     1       0.918  -0.315  -2.051  1.00  0.00     0.097 C 
HETATM    7  N1  UNL     1       0.235   0.259  -3.161  1.00  0.00    -0.364 N 
HETATM    8  C8  UNL     1      -1.022   0.589  -2.477  1.00  0.00     0.051 A 
HETATM    9  C9  UNL     1      -1.471   1.873  -2.214  1.00  0.00     0.031 A 
HETATM   10  C10 UNL     1      -2.610   2.076  -1.410  1.00  0.00     0.005 A 
HETATM   11  C11 UNL     1      -3.295   1.000  -0.870  1.00  0.00     0.035 A 
HETATM   12  C12 UNL     1      -2.684  -0.156  -1.256  1.00  0.00     0.098 A 
HETATM   13  C13 UNL     1      -1.631  -0.596  -1.999  1.00  0.00     0.068 A 
HETATM   14 BR1  UNL     1      -1.046  -2.331  -2.480  1.00  0.00    -0.046 Br
HETATM   15  N2  UNL     1      -3.079  -1.394  -0.602  1.00  0.00    -0.154 NA
HETATM   16  N3  UNL     1      -2.276  -1.935   0.217  1.00  0.00    -0.190 NA
HETATM   17  C14 UNL     1      -1.017  -1.657   0.714  1.00  0.00     0.203 C 
HETATM   18  C15 UNL     1      -0.226  -0.462   0.376  1.00  0.00     0.141 C 
HETATM   19  N4  UNL     1       0.784  -0.185   1.435  1.00  0.00    -0.367 N 
HETATM   20  H8  UNL     1      -0.168   0.639  -3.986  1.00  0.00     0.165 HD
ENDROOT
BRANCH   1  21
HETATM   21  C1  UNL     1       2.386   1.465   2.145  1.00  0.00     0.140 C 
HETATM   22 CL1  UNL     1       1.535   3.034   2.157  1.00  0.00    -0.128 Cl
ENDBRANCH   1  21
TORSDOF 1
