REMARK  3 active torsions:
REMARK  status: ('A' for Active; 'I' for Inactive)
REMARK    1  A    between atoms: N1_1  and  C1_2 
REMARK    2  A    between atoms: C2_4  and  N3_5 
REMARK    3  A    between atoms: N3_5  and  C3_6 
ROOT
HETATM    1  C1  UNL     1       0.257  -3.245  -0.627  1.00  0.00     0.724 A 
HETATM    2  N2  UNL     1      -0.874  -2.768  -0.083  1.00  0.00    -0.044 NA
HETATM    3  C2  UNL     1      -1.058  -1.509   0.324  1.00  0.00     0.161 A 
HETATM    4  C9  UNL     1      -0.008  -0.626   0.180  1.00  0.00     0.059 A 
HETATM    5  C10 UNL     1       0.220   0.701   0.452  1.00  0.00     0.044 A 
HETATM    6  C11 UNL     1       1.519   1.055   0.070  1.00  0.00     0.020 A 
HETATM    7  N4  UNL     1       2.070  -0.056  -0.429  1.00  0.00    -0.310 N 
HETATM    8  C12 UNL     1       1.169  -1.081  -0.373  1.00  0.00     0.165 A 
HETATM    9  N5  UNL     1       1.268  -2.364  -0.757  1.00  0.00    -0.044 NA
HETATM   10  C13 UNL     1       3.339  -0.380  -0.987  1.00  0.00     0.233 C 
HETATM   11 CL1  UNL     1       3.418   0.250  -2.674  1.00  0.00    -0.096 Cl
HETATM   12  C14 UNL     1       4.519   0.002  -0.215  1.00  0.00     0.049 C 
HETATM   13 CL2  UNL     1       5.677  -1.288   0.135  1.00  0.00    -0.086 Cl
HETATM   14  C15 UNL     1       4.974   1.148   0.323  1.00  0.00     0.022 C 
HETATM   15  C16 UNL     1       4.432   2.514   0.341  1.00  0.00    -0.002 C 
HETATM   16  C17 UNL     1       3.160   2.905   0.351  1.00  0.00    -0.021 C 
HETATM   17  C18 UNL     1       1.765   2.477   0.352  1.00  0.00     0.084 C 
ENDROOT
BRANCH   3  18
HETATM   18  N3  UNL     1      -2.278  -1.047   0.885  1.00  0.00    -0.340 N 
HETATM   19  H3  UNL     1      -2.118  -1.422   1.843  1.00  0.00     0.167 HD
BRANCH  18  20
HETATM   20  C3  UNL     1      -3.411  -0.331   0.455  1.00  0.00     0.035 A 
HETATM   21  C4  UNL     1      -4.462  -0.309   1.374  1.00  0.00     0.029 A 
HETATM   22  C5  UNL     1      -5.608   0.380   1.047  1.00  0.00     0.004 A 
HETATM   23  C6  UNL     1      -5.647   1.020  -0.199  1.00  0.00     0.019 A 
HETATM   24  C7  UNL     1      -4.601   0.983  -1.087  1.00  0.00     0.013 A 
HETATM   25 BR1  UNL     1      -4.707   1.874  -2.769  1.00  0.00    -0.051 Br
HETATM   26  C8  UNL     1      -3.444   0.293  -0.765  1.00  0.00     0.048 A 
ENDBRANCH  18  20
ENDBRANCH   3  18
BRANCH   1  27
HETATM   27  N1  UNL     1       0.265  -4.618  -0.998  1.00  0.00    -0.231 N 
HETATM   28  H1  UNL     1      -0.359  -4.916  -1.789  1.00  0.00     0.174 HD
HETATM   29  H2  UNL     1       0.949  -5.106  -0.353  1.00  0.00     0.174 HD
ENDBRANCH   1  27
TORSDOF 3
