REMARK  7 active torsions:
REMARK  status: ('A' for Active; 'I' for Inactive)
REMARK    1  A    between atoms: C1_2  and  C2_3 
REMARK    2  A    between atoms: C2_3  and  C3_4 
REMARK    3  A    between atoms: C4_6  and  C5_7 
REMARK    4  A    between atoms: C5_7  and  N1_8 
REMARK    5  A    between atoms: N1_8  and  C6_9 
REMARK    6  A    between atoms: C11_14  and  O1_15 
REMARK    7  A    between atoms: O1_15  and  C12_16 
ROOT
HETATM    1  C6  UNL     1       1.772   1.235   0.479  1.00  0.00     0.025 A 
HETATM    2  C7  UNL     1       1.579   1.839   1.715  1.00  0.00     0.026 A 
HETATM    3  C8  UNL     1       0.241   1.515   2.193  1.00  0.00     0.002 A 
HETATM    4  C9  UNL     1      -0.929   1.202   2.557  1.00  0.00     0.003 A 
HETATM    5  C10 UNL     1      -1.486   0.391   1.443  1.00  0.00     0.038 A 
HETATM    6  C11 UNL     1      -2.111  -0.347   0.537  1.00  0.00     0.086 A 
HETATM    7  C17 UNL     1      -1.165  -0.500  -0.609  1.00  0.00     0.147 A 
HETATM    8  N3  UNL     1       0.037  -0.231  -1.045  1.00  0.00    -0.293 NA
HETATM    9  C18 UNL     1       0.873   0.437  -0.257  1.00  0.00     0.205 A 
ENDROOT
BRANCH   1  10
HETATM   10  N1  UNL     1       2.949   1.271  -0.370  1.00  0.00    -0.390 N 
HETATM   11  H8  UNL     1       3.518   0.490   0.065  1.00  0.00     0.159 HD
BRANCH  10  12
HETATM   12  C5  UNL     1       3.327   2.120  -1.534  1.00  0.00     0.140 C 
BRANCH  12  13
HETATM   13  C4  UNL     1       4.747   1.767  -1.927  1.00  0.00     0.109 A 
HETATM   14  C3  UNL     1       5.162   0.807  -1.164  1.00  0.00     0.063 A 
HETATM   15 CL1  UNL     1       6.439   1.140  -2.395  1.00  0.00    -0.201 Cl
BRANCH  14  16
HETATM   16  C2  UNL     1       5.997  -0.205  -0.569  1.00  0.00     0.059 C 
BRANCH  16  17
HETATM   17  C1  UNL     1       5.566  -1.619  -0.950  1.00  0.00     0.224 C 
HETATM   18  F1  UNL     1       6.462  -2.464  -0.338  1.00  0.00    -0.255 F 
ENDBRANCH  16  17
ENDBRANCH  14  16
ENDBRANCH  12  13
ENDBRANCH  10  12
ENDBRANCH   1  10
BRANCH   6  19
HETATM   19  O1  UNL     1      -3.188  -1.116  -0.018  1.00  0.00    -0.343 OA
BRANCH  19  20
HETATM   20  C12 UNL     1      -4.355  -1.133   0.802  1.00  0.00     0.154 A 
HETATM   21  C13 UNL     1      -5.358  -1.819   0.790  1.00  0.00     0.068 A 
HETATM   22  C14 UNL     1      -6.053  -2.277   0.765  1.00  0.00    -0.086 C 
HETATM   23  C15 UNL     1      -6.570  -1.743  -0.337  1.00  0.00     0.115 A 
HETATM   24  C16 UNL     1      -5.562  -0.617  -0.499  1.00  0.00     0.071 A 
HETATM   25  N2  UNL     1      -6.905  -2.818   0.719  1.00  0.00    -0.262 NA
HETATM   26  H14 UNL     1      -7.842  -3.196   0.406  1.00  0.00     0.136 HD
ENDBRANCH  19  20
ENDBRANCH   6  19
TORSDOF 7
