REMARK  1 active torsions:
REMARK  status: ('A' for Active; 'I' for Inactive)
REMARK    1  A    between atoms: C7_9  and  O2_10 
ROOT
HETATM    1  C1  UNL     1       2.956   0.695   0.125  1.00  0.00     0.046 C 
HETATM    2  C2  UNL     1       2.165  -0.544   0.034  1.00  0.00     0.253 C 
HETATM    3  N1  UNL     1       2.373  -1.218  -1.261  1.00  0.00     0.092 N 
HETATM    4  C3  UNL     1       2.131  -2.594  -1.011  1.00  0.00     0.296 C 
HETATM    5  C4  UNL     1       1.021  -2.906  -0.105  1.00  0.00     0.199 C 
HETATM    6  O1  UNL     1       0.663  -2.007   0.866  1.00  0.00    -0.373 OA
HETATM    7  C5  UNL     1       0.748  -0.640   0.385  1.00  0.00     0.121 C 
HETATM    8  C6  UNL     1       0.146   0.252   1.387  1.00  0.00     0.107 C 
HETATM    9  C7  UNL     1       0.962   1.208   2.126  1.00  0.00     0.047 C 
HETATM   10  C8  UNL     1       0.815   2.495   1.744  1.00  0.00     0.051 C 
HETATM   11  C9  UNL     1      -0.023   3.076   0.709  1.00  0.00     0.115 C 
HETATM   12  N2  UNL     1      -0.849   2.620  -0.133  1.00  0.00    -0.270 NA
HETATM   13  C10 UNL     1      -1.573   3.370  -1.074  1.00  0.00     0.437 C 
HETATM   14  N3  UNL     1      -1.124   2.648  -2.058  1.00  0.00    -0.406 NA
HETATM   15  C11 UNL     1      -0.216   1.530  -1.929  1.00  0.00     0.233 C 
HETATM   16  N4  UNL     1      -0.883   0.425  -1.217  1.00  0.00    -0.353 N 
HETATM   17  C12 UNL     1      -2.193   0.009  -0.722  1.00  0.00     0.042 A 
HETATM   18  C13 UNL     1      -3.543   0.266  -0.568  1.00  0.00     0.033 A 
HETATM   19  C14 UNL     1      -4.386  -0.580   0.113  1.00  0.00     0.046 A 
HETATM   20  C15 UNL     1      -3.799  -1.727   0.647  1.00  0.00     0.138 A 
HETATM   21  F1  UNL     1      -4.699  -2.504   1.302  1.00  0.00    -0.204 F 
HETATM   22  C16 UNL     1      -2.426  -1.975   0.482  1.00  0.00     0.083 A 
HETATM   23 CL1  UNL     1      -2.026  -3.474   1.283  1.00  0.00    -0.080 Cl
HETATM   24  C17 UNL     1      -1.594  -1.116  -0.206  1.00  0.00     0.019 A 
HETATM   25  C18 UNL     1      -0.257  -0.760  -0.749  1.00  0.00     0.160 A 
HETATM   26  H5  UNL     1       1.910  -0.771  -2.045  1.00  0.00     0.316 HD
ENDROOT
BRANCH   9  27
HETATM   27  O2  UNL     1       1.822   0.830   3.145  1.00  0.00    -0.365 OA
HETATM   28  H12 UNL     1       2.690   1.317   3.336  1.00  0.00     0.217 HD
ENDBRANCH   9  27
TORSDOF 1
