REMARK  5 active torsions:
REMARK  status: ('A' for Active; 'I' for Inactive)
REMARK    1  A    between atoms: O1_2  and  C2_3 
REMARK    2  A    between atoms: C3_4  and  O2_5 
REMARK    3  A    between atoms: C7_10  and  C8_11 
REMARK    4  A    between atoms: C11_14  and  O4_15 
REMARK    5  A    between atoms: C16_21  and  O6_22 
ROOT
HETATM    1  C2  UNL     1      -3.336   0.678   0.574  1.00  0.00     0.135 A 
HETATM    2  C3  UNL     1      -3.723  -0.644   0.432  1.00  0.00     0.104 A 
HETATM    3  C4  UNL     1      -2.850  -1.679   0.158  1.00  0.00     0.077 A 
HETATM    4  C5  UNL     1      -1.518  -1.343   0.024  1.00  0.00     0.094 A 
HETATM    5  O3  UNL     1      -0.663  -2.323  -0.238  1.00  0.00    -0.321 OA
HETATM    6  C6  UNL     1       0.619  -2.104  -0.383  1.00  0.00     0.159 A 
HETATM    7  C7  UNL     1       1.150  -0.836  -0.268  1.00  0.00     0.048 A 
HETATM    8  C14 UNL     1       0.256   0.199   0.008  1.00  0.00     0.200 A 
HETATM    9  O5  UNL     1       0.670   1.369   0.124  1.00  0.00    -0.286 OA
HETATM   10  C15 UNL     1      -1.093  -0.038   0.159  1.00  0.00     0.085 A 
HETATM   11  C16 UNL     1      -1.992   0.954   0.429  1.00  0.00     0.119 A 
ENDROOT
BRANCH   7  12
HETATM   12  C8  UNL     1       2.552  -0.478  -0.409  1.00  0.00    -0.020 A 
HETATM   13  C9  UNL     1       3.087   0.569  -1.104  1.00  0.00     0.015 A 
HETATM   14  C10 UNL     1       4.462   0.731  -1.109  1.00  0.00     0.037 A 
HETATM   15  C11 UNL     1       5.282  -0.161  -0.414  1.00  0.00     0.065 A 
HETATM   16  C12 UNL     1       4.756  -1.216   0.288  1.00  0.00     0.037 A 
HETATM   17  C13 UNL     1       3.366  -1.373   0.288  1.00  0.00     0.015 A 
BRANCH  15  18
HETATM   18  O4  UNL     1       6.664   0.002  -0.419  1.00  0.00    -0.361 OA
HETATM   19  H9  UNL     1       7.094   0.829  -0.787  1.00  0.00     0.217 HD
ENDBRANCH  15  18
ENDBRANCH   7  12
BRANCH  11  20
HETATM   20  O6  UNL     1      -1.565   2.272   0.565  1.00  0.00    -0.357 OA
HETATM   21  H12 UNL     1      -1.390   2.760  -0.326  1.00  0.00     0.218 HD
ENDBRANCH  11  20
BRANCH   1  22
HETATM   22  O1  UNL     1      -4.300   1.614   0.845  1.00  0.00    -0.351 OA
HETATM   23  C1  UNL     1      -5.044   2.351  -0.079  1.00  0.00     0.210 C 
ENDBRANCH   1  22
BRANCH   2  24
HETATM   24  O2  UNL     1      -5.075  -0.979   0.568  1.00  0.00    -0.358 OA
HETATM   25  H4  UNL     1      -5.389  -1.911   0.701  1.00  0.00     0.217 HD
ENDBRANCH   2  24
TORSDOF 5
