REMARK  5 active torsions:
REMARK  status: ('A' for Active; 'I' for Inactive)
REMARK    1  A    between atoms: C8_9  and  O1_10 
REMARK    2  A    between atoms: O1_10  and  C9_11 
REMARK    3  A    between atoms: C9_11  and  C10_12 
REMARK    4  A    between atoms: C10_12  and  C11_13 
REMARK    5  A    between atoms: C11_13  and  N1_14 
ROOT
HETATM    1  F1  UNL     1      -5.702  -3.518   2.049  1.00  0.00    -0.210 F 
HETATM    2  C1  UNL     1      -5.454  -2.295   1.517  1.00  0.00     0.098 A 
HETATM    3  C2  UNL     1      -6.422  -1.609   0.930  1.00  0.00     0.047 A 
HETATM    4  C3  UNL     1      -5.840  -0.363   0.474  1.00  0.00    -0.032 A 
HETATM    5  C4  UNL     1      -4.534  -0.295   0.782  1.00  0.00    -0.050 A 
HETATM    6  C5  UNL     1      -4.168  -1.555   1.492  1.00  0.00     0.106 A 
HETATM    7  C6  UNL     1      -3.771   0.904   0.397  1.00  0.00     0.110 C 
HETATM    8  C7  UNL     1      -2.349   0.733   0.720  1.00  0.00     0.022 C 
HETATM    9  C8  UNL     1      -1.101   1.176   0.491  1.00  0.00     0.047 C 
HETATM   10  C17 UNL     1      -0.685   2.295  -0.428  1.00  0.00     0.092 C 
HETATM   11  C18 UNL     1      -0.911   1.970  -1.846  1.00  0.00    -0.003 C 
HETATM   12  C19 UNL     1      -1.980   1.662  -2.562  1.00  0.00     0.086 C 
HETATM   13  N2  UNL     1      -3.377   1.509  -2.283  1.00  0.00    -0.354 N 
HETATM   14  C20 UNL     1      -4.023   1.200  -1.044  1.00  0.00     0.110 C 
HETATM   15  N3  UNL     1      -5.273   1.173  -1.281  1.00  0.00    -0.271 NA
HETATM   16  C21 UNL     1      -6.249   0.887  -0.242  1.00  0.00     0.189 C 
HETATM   17  H26 UNL     1      -4.021   1.635  -3.074  1.00  0.00     0.166 HD
ENDROOT
BRANCH   9  18
HETATM   18  O1  UNL     1      -0.007   0.606   1.119  1.00  0.00    -0.355 OA
BRANCH  18  19
HETATM   19  C9  UNL     1       0.994  -0.148   0.506  1.00  0.00     0.177 C 
BRANCH  19  20
HETATM   20  C10 UNL     1       2.074  -0.635   1.450  1.00  0.00     0.057 C 
BRANCH  20  21
HETATM   21  C11 UNL     1       3.078  -1.424   0.645  1.00  0.00     0.274 C 
BRANCH  21  22
HETATM   22  N1  UNL     1       3.652  -0.568  -0.366  1.00  0.00     0.088 N 
HETATM   23  C12 UNL     1       4.595  -1.278  -1.206  1.00  0.00     0.272 C 
HETATM   24  C13 UNL     1       6.018  -1.127  -0.801  1.00  0.00     0.030 C 
HETATM   25  C14 UNL     1       6.239  -0.711   0.625  1.00  0.00     0.003 C 
HETATM   26  C15 UNL     1       5.378   0.459   1.044  1.00  0.00     0.030 C 
HETATM   27  C16 UNL     1       4.204   0.660   0.145  1.00  0.00     0.272 C 
ENDBRANCH  21  22
ENDBRANCH  20  21
ENDBRANCH  19  20
ENDBRANCH  18  19
ENDBRANCH   9  18
TORSDOF 5
