REMARK  2 active torsions:
REMARK  status: ('A' for Active; 'I' for Inactive)
REMARK    1  A    between atoms: O1_2  and  C2_3 
REMARK    2  A    between atoms: C5_9  and  C6_10 
ROOT
HETATM    1  C2  UNL     1      -2.060   2.393  -0.162  1.00  0.00     0.125 C 
HETATM    2  C3  UNL     1      -0.845   2.193  -0.603  1.00  0.00     0.094 C 
HETATM    3  C4  UNL     1       0.587   2.070  -0.742  1.00  0.00     0.084 A 
HETATM    4  N1  UNL     1       1.131   3.166  -1.137  1.00  0.00    -0.111 NA
HETATM    5  O2  UNL     1       2.488   3.308  -1.341  1.00  0.00    -0.131 OA
HETATM    6  N2  UNL     1       3.294   2.238  -1.112  1.00  0.00    -0.238 N 
HETATM    7  C5  UNL     1       2.707   1.020  -0.675  1.00  0.00     0.079 A 
HETATM    8  C12 UNL     1       1.412   0.920  -0.495  1.00  0.00     0.021 A 
HETATM    9  C13 UNL     1       1.020  -0.370  -0.086  1.00  0.00     0.012 C 
HETATM   10  C14 UNL     1       0.640  -1.600  -0.062  1.00  0.00    -0.024 C 
HETATM   11  C15 UNL     1       0.312  -2.693   0.892  1.00  0.00     0.043 C 
HETATM   12  C16 UNL     1      -1.104  -3.168   0.572  1.00  0.00     0.112 C 
HETATM   13  N3  UNL     1      -1.979  -2.033   0.669  1.00  0.00    -0.228 NA
HETATM   14 CL1  UNL     1      -2.109  -1.426   2.281  1.00  0.00    -0.022 Cl
HETATM   15  C17 UNL     1      -3.309  -2.344   0.163  1.00  0.00     0.110 C 
HETATM   16  C18 UNL     1      -4.160  -1.090   0.248  1.00  0.00     0.042 C 
HETATM   17  C19 UNL     1      -3.356  -0.018  -0.467  1.00  0.00     0.169 C 
HETATM   18  O3  UNL     1      -4.035   1.181  -0.569  1.00  0.00    -0.388 OA
HETATM   19  C20 UNL     1      -3.211   2.173  -1.112  1.00  0.00     0.209 C 
HETATM   20  H5  UNL     1       4.284   2.470  -1.297  1.00  0.00     0.197 HD
ENDROOT
BRANCH   7  21
HETATM   21  C6  UNL     1       3.619  -0.083  -0.455  1.00  0.00    -0.006 A 
HETATM   22  C7  UNL     1       4.643   0.248   0.421  1.00  0.00     0.017 A 
HETATM   23  C8  UNL     1       5.666  -0.613   0.779  1.00  0.00     0.043 A 
HETATM   24  C9  UNL     1       5.712  -1.883   0.259  1.00  0.00     0.116 A 
HETATM   25  F1  UNL     1       6.618  -2.850   0.487  1.00  0.00    -0.206 F 
HETATM   26  C10 UNL     1       4.713  -2.242  -0.613  1.00  0.00     0.043 A 
HETATM   27  C11 UNL     1       3.712  -1.363  -0.947  1.00  0.00     0.017 A 
ENDBRANCH   7  21
BRANCH   1  28
HETATM   28  O1  UNL     1      -2.824   2.775   0.975  1.00  0.00    -0.379 OA
HETATM   29  C1  UNL     1      -3.394   4.063   1.057  1.00  0.00     0.202 C 
ENDBRANCH   1  28
TORSDOF 2
