REMARK  7 active torsions:
REMARK  status: ('A' for Active; 'I' for Inactive)
REMARK    1  A    between atoms: S1_2  and  C2_3 
REMARK    2  A    between atoms: C3_4  and  C4_5 
REMARK    3  A    between atoms: C4_5  and  C5_6 
REMARK    4  A    between atoms: C5_6  and  C6_8 
REMARK    5  A    between atoms: C8_12  and  O1_13 
REMARK    6  A    between atoms: C11_16  and  N3_17 
REMARK    7  A    between atoms: N3_17  and  C12_18 
ROOT
HETATM    1  C2  UNL     1       0.589  -1.547   1.004  1.00  0.00     0.131 A 
HETATM    2  C3  UNL     1       1.502  -0.415   1.241  1.00  0.00    -0.059 A 
HETATM    3  C9  UNL     1       0.927   0.763   1.532  1.00  0.00     0.007 A 
HETATM    4  C10 UNL     1      -0.499   1.085   1.658  1.00  0.00     0.032 A 
HETATM    5  C11 UNL     1      -1.398   0.133   1.479  1.00  0.00     0.059 A 
HETATM    6  C18 UNL     1      -0.839  -1.175   1.213  1.00  0.00     0.091 A 
HETATM    7  N4  UNL     1      -1.584  -2.207   1.124  1.00  0.00    -0.175 NA
HETATM    8  C19 UNL     1      -2.968  -2.196   1.269  1.00  0.00     0.206 C 
HETATM    9  N5  UNL     1      -4.114  -2.207   1.392  1.00  0.00    -0.170 NA
ENDROOT
BRANCH   1  10
HETATM   10  S1  UNL     1       0.637  -2.177  -0.701  1.00  0.00    -0.158 SA
HETATM   11  C1  UNL     1      -0.530  -3.557  -0.815  1.00  0.00     0.091 C 
ENDBRANCH   1  10
BRANCH   5  12
HETATM   12  N3  UNL     1      -2.781   0.370   1.580  1.00  0.00    -0.355 N 
HETATM   13  H13 UNL     1      -2.968   0.058   2.557  1.00  0.00     0.166 HD
BRANCH  12  14
HETATM   14  C12 UNL     1      -3.530   0.908   0.495  1.00  0.00     0.032 A 
HETATM   15  C13 UNL     1      -2.783   1.162  -0.626  1.00  0.00     0.032 A 
HETATM   16  C14 UNL     1      -3.466   1.692  -1.726  1.00  0.00     0.044 A 
HETATM   17  C15 UNL     1      -4.819   1.929  -1.640  1.00  0.00     0.116 A 
HETATM   18  F1  UNL     1      -5.537   2.437  -2.659  1.00  0.00    -0.206 F 
HETATM   19  C16 UNL     1      -5.535   1.659  -0.493  1.00  0.00     0.044 A 
HETATM   20  C17 UNL     1      -4.884   1.129   0.627  1.00  0.00     0.032 A 
ENDBRANCH  12  14
ENDBRANCH   5  12
BRANCH   2  21
HETATM   21  C4  UNL     1       2.953  -0.327   1.259  1.00  0.00     0.058 C 
BRANCH  21  22
HETATM   22  C5  UNL     1       3.722  -0.643   0.036  1.00  0.00     0.119 C 
HETATM   23 CL1  UNL     1       3.570  -2.270  -0.596  1.00  0.00    -0.122 Cl
BRANCH  22  24
HETATM   24  C6  UNL     1       3.562   0.399  -1.059  1.00  0.00     0.204 A 
HETATM   25  N1  UNL     1       4.381  -0.078  -2.166  1.00  0.00    -0.268 NA
HETATM   26  C7  UNL     1       5.362   0.704  -2.393  1.00  0.00     0.230 A 
HETATM   27  N2  UNL     1       5.296   1.775  -1.464  1.00  0.00    -0.220 NA
HETATM   28  C8  UNL     1       4.285   1.639  -0.687  1.00  0.00     0.165 A 
BRANCH  28  29
HETATM   29  O1  UNL     1       4.109   2.633   0.276  1.00  0.00    -0.346 OA
HETATM   30  H10 UNL     1       4.885   2.848   0.907  1.00  0.00     0.219 HD
ENDBRANCH  28  29
ENDBRANCH  22  24
ENDBRANCH  21  22
ENDBRANCH   2  21
TORSDOF 7
