REMARK  2 active torsions:
REMARK  status: ('A' for Active; 'I' for Inactive)
REMARK    1  A    between atoms: C11_16  and  C12_17 
REMARK    2  A    between atoms: C12_17  and  N4_18 
ROOT
HETATM    1  F1  UNL     1       5.490   0.497   1.950  1.00  0.00    -0.204 F 
HETATM    2  C1  UNL     1       4.472  -0.189   1.387  1.00  0.00     0.139 C 
HETATM    3  C2  UNL     1       4.387  -1.505   1.672  1.00  0.00     0.063 C 
HETATM    4  C3  UNL     1       3.380  -2.478   1.193  1.00  0.00     0.116 C 
HETATM    5  N1  UNL     1       2.177  -2.312   0.846  1.00  0.00    -0.273 NA
HETATM    6  C4  UNL     1       1.039  -1.507   0.628  1.00  0.00     0.237 C 
HETATM    7  N2  UNL     1       0.210  -1.378   1.826  1.00  0.00    -0.258 NA
HETATM    8  C5  UNL     1      -1.005  -1.747   1.806  1.00  0.00     0.189 C 
HETATM    9  N3  UNL     1      -2.284  -2.246   1.434  1.00  0.00    -0.400 NA
HETATM   10  C6  UNL     1      -2.835  -2.051   0.268  1.00  0.00     0.326 C 
HETATM   11  C7  UNL     1      -3.659  -1.978  -0.943  1.00  0.00     0.001 C 
HETATM   12  C8  UNL     1      -3.168  -1.306  -1.976  1.00  0.00    -0.003 C 
HETATM   13  C9  UNL     1      -1.799  -0.652  -1.851  1.00  0.00     0.194 C 
HETATM   14  O1  UNL     1      -1.930   0.669  -2.052  1.00  0.00    -0.387 OA
HETATM   15  C10 UNL     1      -0.857   1.464  -1.925  1.00  0.00     0.173 C 
HETATM   16  C11 UNL     1      -0.326   1.774  -0.580  1.00  0.00     0.024 C 
HETATM   17  C13 UNL     1       0.063   0.707   0.355  1.00  0.00     0.020 C 
HETATM   18  C14 UNL     1       1.166  -0.229  -0.097  1.00  0.00     0.056 C 
HETATM   19  C15 UNL     1       2.437   0.521   0.097  1.00  0.00     0.009 C 
HETATM   20  C16 UNL     1       3.662   0.725   0.550  1.00  0.00     0.069 C 
HETATM   21 CL1  UNL     1       4.397   2.239   0.114  1.00  0.00    -0.081 Cl
ENDROOT
BRANCH  16  22
HETATM   22  C12 UNL     1      -1.506   2.510   0.134  1.00  0.00     0.105 C 
BRANCH  22  23
HETATM   23  N4  UNL     1      -1.841   3.707  -0.612  1.00  0.00    -0.265 NA
HETATM   24  I1  UNL     1      -3.410   4.677   0.360  1.00  0.00     0.017 I 
HETATM   25  H15 UNL     1      -0.990   4.302  -0.644  1.00  0.00     0.133 HD
ENDBRANCH  22  23
ENDBRANCH  16  22
TORSDOF 2
