REMARK  3 active torsions:
REMARK  status: ('A' for Active; 'I' for Inactive)
REMARK    1  A    between atoms: C2_2  and  O1_3 
REMARK    2  A    between atoms: O1_3  and  C3_4 
REMARK    3  A    between atoms: N2_8  and  C6_9 
ROOT
HETATM    1  C3  UNL     1       1.585   1.982  -0.398  1.00  0.00     0.146 C 
HETATM    2  C4  UNL     1       0.268   2.024  -0.224  1.00  0.00     0.156 C 
HETATM    3  N1  UNL     1      -0.459   0.948   0.362  1.00  0.00    -0.250 N 
HETATM    4  C5  UNL     1      -1.873   0.794   0.076  1.00  0.00     0.424 C 
HETATM    5  N2  UNL     1      -2.199  -0.587  -0.225  1.00  0.00     0.132 N 
HETATM    6  C11 UNL     1      -1.760  -1.498   0.784  1.00  0.00     0.293 C 
HETATM    7  C12 UNL     1      -1.576  -2.874   0.254  1.00  0.00     0.038 C 
HETATM    8  C13 UNL     1      -0.469  -3.139  -0.402  1.00  0.00     0.133 C 
HETATM    9  O2  UNL     1       0.563  -2.265  -0.658  1.00  0.00    -0.361 OA
HETATM   10  C14 UNL     1       1.926  -2.596  -0.446  1.00  0.00     0.208 C 
HETATM   11  C15 UNL     1       2.872  -1.478  -0.798  1.00  0.00     0.174 C 
HETATM   12  C16 UNL     1       4.055  -1.391   0.154  1.00  0.00     0.176 C 
HETATM   13  N3  UNL     1       3.625  -0.638   1.307  1.00  0.00    -0.309 N 
HETATM   14  N4  UNL     1       2.878   0.539   1.149  1.00  0.00    -0.151 NA
HETATM   15  C17 UNL     1       2.280   0.775   0.038  1.00  0.00     0.219 C 
HETATM   16  O3  UNL     1       2.261  -0.226  -0.921  1.00  0.00    -0.322 OA
HETATM   17  C18 UNL     1      -0.462  -1.091   1.390  1.00  0.00     0.151 C 
HETATM   18  N5  UNL     1       0.160   0.027   1.215  1.00  0.00    -0.185 NA
HETATM   19  H18 UNL     1       3.849  -0.933   2.289  1.00  0.00     0.182 HD
ENDROOT
BRANCH   5  20
HETATM   20  C6  UNL     1      -3.659  -0.611  -0.379  1.00  0.00     0.277 A 
HETATM   21  C7  UNL     1      -4.076   0.281  -1.466  1.00  0.00     0.056 A 
HETATM   22  C8  UNL     1      -4.850   1.270  -1.005  1.00  0.00     0.136 A 
HETATM   23  F1  UNL     1      -5.351   2.216  -1.840  1.00  0.00    -0.205 F 
HETATM   24  C9  UNL     1      -4.996   1.091   0.437  1.00  0.00     0.070 A 
HETATM   25 CL1  UNL     1      -5.944   2.181   1.448  1.00  0.00    -0.081 Cl
HETATM   26  C10 UNL     1      -4.317   0.015   0.807  1.00  0.00     0.040 A 
ENDBRANCH   5  20
BRANCH   1  27
HETATM   27  O1  UNL     1       2.366   2.996  -0.964  1.00  0.00    -0.318 OA
BRANCH  27  28
HETATM   28  C2  UNL     1       3.302   3.565  -0.111  1.00  0.00     0.132 C 
HETATM   29  C1  UNL     1       3.760   4.601   0.563  1.00  0.00     0.037 C 
ENDBRANCH  27  28
ENDBRANCH   1  27
TORSDOF 3
