REMARK  8 active torsions:
REMARK  status: ('A' for Active; 'I' for Inactive)
REMARK    1  A    between atoms: C2_2  and  C3_3 
REMARK    2  A    between atoms: C7_9  and  N3_10 
REMARK    3  A    between atoms: C12_17  and  O1_18 
REMARK    4  A    between atoms: C15_21  and  O2_22 
REMARK    5  A    between atoms: O2_22  and  C16_23 
REMARK    6  A    between atoms: C16_23  and  O3_24 
REMARK    7  A    between atoms: C16_23  and  C17_25 
REMARK    8  A    between atoms: C17_25  and  N4_26 
ROOT
HETATM    1  C3  UNL     1       0.764  -1.974   0.857  1.00  0.00    -0.024 C 
HETATM    2  C4  UNL     1      -0.386  -2.117   1.592  1.00  0.00     0.029 C 
HETATM    3  C5  UNL     1      -1.749  -2.414   1.454  1.00  0.00     0.118 C 
HETATM    4  N1  UNL     1      -1.709  -2.995   0.261  1.00  0.00    -0.254 NA
HETATM    5  C6  UNL     1      -1.892  -2.362  -0.903  1.00  0.00     0.234 C 
HETATM    6  N2  UNL     1      -1.379  -1.133  -0.940  1.00  0.00    -0.225 NA
HETATM    7  C7  UNL     1      -1.806  -0.126  -0.148  1.00  0.00     0.129 C 
HETATM    8  C13 UNL     1      -0.912   0.263   0.820  1.00  0.00     0.053 C 
HETATM    9  C14 UNL     1       0.472   0.321   0.664  1.00  0.00     0.041 C 
HETATM   10  C15 UNL     1       1.236  -0.807   0.319  1.00  0.00     0.078 C 
ENDROOT
BRANCH   7  11
HETATM   11  N3  UNL     1      -3.083   0.484  -0.303  1.00  0.00    -0.334 N 
HETATM   12  C8  UNL     1      -4.013   0.040  -1.313  1.00  0.00     0.154 C 
HETATM   13  C9  UNL     1      -5.453   0.208  -0.863  1.00  0.00     0.162 C 
HETATM   14 CL1  UNL     1      -5.847  -0.899   0.483  1.00  0.00    -0.116 Cl
HETATM   15  C10 UNL     1      -5.735   1.601  -0.445  1.00  0.00     0.114 C 
HETATM   16  F1  UNL     1      -6.905   2.240  -0.722  1.00  0.00    -0.209 F 
HETATM   17  C11 UNL     1      -4.732   2.188   0.236  1.00  0.00     0.065 C 
HETATM   18  C12 UNL     1      -3.443   1.566   0.573  1.00  0.00     0.248 C 
BRANCH  18  19
HETATM   19  O1  UNL     1      -2.475   2.583   0.565  1.00  0.00    -0.373 OA
HETATM   20  H14 UNL     1      -2.285   2.896  -0.347  1.00  0.00     0.212 HD
ENDBRANCH  18  19
ENDBRANCH   7  11
BRANCH  10  21
HETATM   21  O2  UNL     1       2.107  -0.130  -0.416  1.00  0.00    -0.318 OA
BRANCH  21  22
HETATM   22  C16 UNL     1       3.216  -0.321  -1.168  1.00  0.00     0.281 C 
BRANCH  22  23
HETATM   23  O3  UNL     1       3.148   0.191  -2.468  1.00  0.00    -0.369 OA
HETATM   24  H18 UNL     1       2.212   0.304  -2.688  1.00  0.00     0.212 HD
ENDBRANCH  22  23
BRANCH  22  25
HETATM   25  C17 UNL     1       4.437   0.385  -0.545  1.00  0.00     0.190 C 
BRANCH  25  26
HETATM   26  N4  UNL     1       4.240   1.807  -0.431  1.00  0.00    -0.345 N 
HETATM   27  C18 UNL     1       3.696   2.410   0.640  1.00  0.00     0.111 A 
HETATM   28  C19 UNL     1       3.663   3.780   0.408  1.00  0.00     0.135 A 
HETATM   29  N5  UNL     1       4.199   3.994  -0.827  1.00  0.00    -0.255 NA
HETATM   30  C20 UNL     1       4.542   2.775  -1.318  1.00  0.00     0.209 A 
ENDBRANCH  25  26
ENDBRANCH  22  25
ENDBRANCH  21  22
ENDBRANCH  10  21
BRANCH   1  31
HETATM   31  C2  UNL     1       1.773  -2.942   0.445  1.00  0.00     0.037 C 
HETATM   32  C1  UNL     1       3.058  -2.862   1.222  1.00  0.00     0.010 C 
ENDBRANCH   1  31
TORSDOF 8
