REMARK  3 active torsions:
REMARK  status: ('A' for Active; 'I' for Inactive)
REMARK    1  A    between atoms: O1_1  and  C1_2 
REMARK    2  A    between atoms: C2_4  and  C3_5 
REMARK    3  A    between atoms: C3_5  and  N1_6 
ROOT
HETATM    1  C1  UNL     1      -0.360  -1.482   0.053  1.00  0.00     0.296 C 
HETATM    2  O2  UNL     1      -0.037  -0.423   0.691  1.00  0.00    -0.348 OA
HETATM    3  C2  UNL     1       0.687   0.125   1.604  1.00  0.00     0.167 C 
HETATM    4  C7  UNL     1      -0.038   0.868   2.744  1.00  0.00     0.202 C 
HETATM    5  O3  UNL     1      -0.733   2.031   2.392  1.00  0.00    -0.374 OA
HETATM    6  C8  UNL     1      -1.516   1.806   1.383  1.00  0.00     0.188 C 
HETATM    7  C9  UNL     1      -1.030   2.286   0.020  1.00  0.00     0.029 C 
HETATM    8  C10 UNL     1      -0.978   1.361  -0.920  1.00  0.00     0.117 C 
HETATM    9  N3  UNL     1      -2.280   0.783  -0.569  1.00  0.00    -0.245 N 
HETATM   10  N4  UNL     1      -3.239   1.102   0.410  1.00  0.00    -0.181 NA
HETATM   11  C11 UNL     1      -2.948   2.127   1.216  1.00  0.00     0.148 C 
HETATM   12  C12 UNL     1      -1.899  -0.176  -1.568  1.00  0.00     0.070 A 
HETATM   13  C13 UNL     1      -2.418  -0.111  -2.847  1.00  0.00     0.035 A 
HETATM   14  C14 UNL     1      -2.142  -0.977  -3.902  1.00  0.00     0.046 A 
HETATM   15  C15 UNL     1      -1.252  -1.952  -3.517  1.00  0.00     0.139 A 
HETATM   16  F1  UNL     1      -0.908  -2.857  -4.460  1.00  0.00    -0.204 F 
HETATM   17  C16 UNL     1      -0.670  -2.121  -2.284  1.00  0.00     0.086 A 
HETATM   18 CL1  UNL     1       0.455  -3.442  -1.982  1.00  0.00    -0.080 Cl
HETATM   19  C17 UNL     1      -0.979  -1.237  -1.277  1.00  0.00     0.050 A 
ENDROOT
BRANCH   3  20
HETATM   20  C3  UNL     1       1.890   0.962   1.193  1.00  0.00     0.163 C 
BRANCH  20  21
HETATM   21  N1  UNL     1       2.848   0.176   0.438  1.00  0.00    -0.348 N 
HETATM   22  C4  UNL     1       3.891  -0.537   0.952  1.00  0.00     0.111 A 
HETATM   23  C5  UNL     1       4.544  -1.131  -0.127  1.00  0.00     0.135 A 
HETATM   24  N2  UNL     1       3.910  -0.783  -1.262  1.00  0.00    -0.255 NA
HETATM   25  C6  UNL     1       2.873   0.017  -0.901  1.00  0.00     0.209 A 
ENDBRANCH  20  21
ENDBRANCH   3  20
BRANCH   1  26
HETATM   26  O1  UNL     1      -1.547  -1.986   0.837  1.00  0.00    -0.367 OA
HETATM   27  H1  UNL     1      -1.196  -2.100   1.761  1.00  0.00     0.213 HD
ENDBRANCH   1  26
TORSDOF 3
