REMARK  8 active torsions:
REMARK  status: ('A' for Active; 'I' for Inactive)
REMARK    1  A    between atoms: O1_2  and  C2_3 
REMARK    2  A    between atoms: C7_10  and  O2_11 
REMARK    3  A    between atoms: O2_11  and  C8_12 
REMARK    4  A    between atoms: C8_12  and  C9_13 
REMARK    5  A    between atoms: C9_13  and  N3_14 
REMARK    6  A    between atoms: N3_14  and  C10_15 
REMARK    7  A    between atoms: C10_15  and  C12_18 
REMARK    8  A    between atoms: C12_18  and  O3_19 
ROOT
HETATM    1  C2  UNL     1      -3.214   0.528  -0.599  1.00  0.00     0.105 C 
HETATM    2  C3  UNL     1      -4.306  -0.148  -0.123  1.00  0.00     0.067 C 
HETATM    3  C4  UNL     1      -3.995  -1.376   0.600  1.00  0.00     0.044 C 
HETATM    4  N1  UNL     1      -4.133  -2.010   1.755  1.00  0.00    -0.246 NA
HETATM    5  C5  UNL     1      -2.734  -2.286   2.365  1.00  0.00     0.233 C 
HETATM    6  N2  UNL     1      -1.579  -1.876   1.682  1.00  0.00    -0.243 NA
HETATM    7  C6  UNL     1      -1.946  -1.188   0.436  1.00  0.00     0.077 C 
HETATM    8  C7  UNL     1      -1.860  -0.062  -0.271  1.00  0.00     0.127 C 
HETATM    9  C13 UNL     1      -2.959  -2.219  -0.197  1.00  0.00     0.121 C 
ENDROOT
BRANCH   8  10
HETATM   10  O2  UNL     1      -0.520   0.101  -0.401  1.00  0.00    -0.345 OA
BRANCH  10  11
HETATM   11  C8  UNL     1       0.197   1.289  -0.149  1.00  0.00     0.206 C 
BRANCH  11  12
HETATM   12  C9  UNL     1       1.648   1.006  -0.422  1.00  0.00     0.300 C 
BRANCH  12  13
HETATM   13  N3  UNL     1       2.149  -0.039   0.416  1.00  0.00     0.127 N 
HETATM   14  H10 UNL     1       1.544  -0.874   0.455  1.00  0.00     0.320 HD
BRANCH  13  15
HETATM   15  C10 UNL     1       3.541  -0.366   0.208  1.00  0.00     0.313 C 
HETATM   16  C11 UNL     1       4.459   0.784   0.454  1.00  0.00     0.089 C 
HETATM   17  F1  UNL     1       3.846  -1.363   1.130  1.00  0.00    -0.207 F 
BRANCH  15  18
HETATM   18  C12 UNL     1       3.832  -0.937  -1.156  1.00  0.00     0.240 C 
BRANCH  18  19
HETATM   19  O3  UNL     1       5.194  -1.220  -1.262  1.00  0.00    -0.396 OA
HETATM   20  H16 UNL     1       5.609  -1.487  -0.409  1.00  0.00     0.209 HD
ENDBRANCH  18  19
ENDBRANCH  15  18
ENDBRANCH  13  15
ENDBRANCH  12  13
ENDBRANCH  11  12
ENDBRANCH  10  11
ENDBRANCH   8  10
BRANCH   1  21
HETATM   21  O1  UNL     1      -3.196   1.662  -1.328  1.00  0.00    -0.353 OA
HETATM   22  C1  UNL     1      -3.275   2.957  -0.731  1.00  0.00     0.210 C 
ENDBRANCH   1  21
TORSDOF 8
