REMARK  9 active torsions:
REMARK  status: ('A' for Active; 'I' for Inactive)
REMARK    1  A    between atoms: C2_2  and  C3_4 
REMARK    2  A    between atoms: C4_6  and  C5_7 
REMARK    3  A    between atoms: C5_7  and  N1_8 
REMARK    4  A    between atoms: N1_8  and  C6_9 
REMARK    5  A    between atoms: C6_9  and  N2_10 
REMARK    6  A    between atoms: N2_10  and  C7_11 
REMARK    7  A    between atoms: C7_11  and  N3_12 
REMARK    8  A    between atoms: C14_20  and  C15_21 
REMARK    9  A    between atoms: C15_21  and  N4_22 
ROOT
HETATM    1  C6  UNL     1       0.948  -1.032   0.417  1.00  0.00     0.138 C 
HETATM    2  C8  UNL     1      -0.197  -1.686   0.153  1.00  0.00    -0.022 C 
HETATM    3  C9  UNL     1      -0.035  -3.163   0.079  1.00  0.00     0.065 C 
HETATM    4  C10 UNL     1      -0.606  -3.759  -1.152  1.00  0.00    -0.024 C 
HETATM    5  C11 UNL     1      -1.790  -3.825  -1.796  1.00  0.00    -0.005 C 
HETATM    6  C12 UNL     1      -3.094  -3.227  -1.406  1.00  0.00     0.194 C 
HETATM    7  O1  UNL     1      -2.995  -1.856  -1.189  1.00  0.00    -0.387 OA
HETATM    8  C13 UNL     1      -2.608  -1.543   0.094  1.00  0.00     0.178 C 
HETATM    9  C14 UNL     1      -1.319  -0.754   0.005  1.00  0.00     0.071 C 
ENDROOT
BRANCH   1  10
HETATM   10  N1  UNL     1       1.641   0.198   0.635  1.00  0.00    -0.370 N 
HETATM   11  H8  UNL     1       1.733   0.598   1.616  1.00  0.00     0.161 HD
BRANCH  10  12
HETATM   12  C5  UNL     1       2.164   0.782  -0.592  1.00  0.00     0.150 C 
BRANCH  12  13
HETATM   13  C4  UNL     1       2.873   2.048  -0.344  1.00  0.00     0.015 C 
HETATM   14  C3  UNL     1       4.138   2.359  -0.597  1.00  0.00     0.043 C 
HETATM   15 CL1  UNL     1       4.730   3.950  -0.199  1.00  0.00    -0.086 Cl
BRANCH  14  16
HETATM   16  C2  UNL     1       5.137   1.450  -1.208  1.00  0.00     0.210 C 
HETATM   17  C1  UNL     1       6.297   1.252  -0.254  1.00  0.00     0.051 C 
HETATM   18  F1  UNL     1       5.647   2.071  -2.333  1.00  0.00    -0.244 F 
ENDBRANCH  14  16
ENDBRANCH  12  13
ENDBRANCH  10  12
ENDBRANCH   1  10
BRANCH   1  19
HETATM   19  N2  UNL     1       2.137  -1.822   0.584  1.00  0.00    -0.170 NA
BRANCH  19  20
HETATM   20  C7  UNL     1       2.477  -2.261   1.744  1.00  0.00     0.095 C 
BRANCH  20  21
HETATM   21  N3  UNL     1       2.565  -2.701   2.949  1.00  0.00    -0.241 NA
HETATM   22  H9  UNL     1       1.869  -3.429   3.258  1.00  0.00     0.199 HD
ENDBRANCH  20  21
ENDBRANCH  19  20
ENDBRANCH   1  19
BRANCH   9  23
HETATM   23  C15 UNL     1      -1.404   0.320   1.050  1.00  0.00     0.283 C 
BRANCH  23  24
HETATM   24  N4  UNL     1      -2.568   1.119   0.722  1.00  0.00     0.093 N 
HETATM   25  C16 UNL     1      -2.772   2.201   1.659  1.00  0.00     0.298 C 
HETATM   26  C17 UNL     1      -4.150   2.793   1.338  1.00  0.00     0.198 C 
HETATM   27  O2  UNL     1      -4.340   2.970  -0.011  1.00  0.00    -0.388 OA
HETATM   28  C18 UNL     1      -3.141   2.974  -0.724  1.00  0.00     0.198 C 
HETATM   29  C19 UNL     1      -2.518   1.574  -0.643  1.00  0.00     0.298 C 
ENDBRANCH  23  24
ENDBRANCH   9  23
TORSDOF 9
