REMARK  7 active torsions:
REMARK  status: ('A' for Active; 'I' for Inactive)
REMARK    1  A    between atoms: O1_2  and  C2_3 
REMARK    2  A    between atoms: C6_9  and  N3_10 
REMARK    3  A    between atoms: N3_10  and  C7_11 
REMARK    4  A    between atoms: C15_22  and  O2_23 
REMARK    5  A    between atoms: O2_23  and  C16_24 
REMARK    6  A    between atoms: C16_24  and  C17_25 
REMARK    7  A    between atoms: C17_25  and  N4_26 
ROOT
HETATM    1  C2  UNL     1      -0.525  -3.103   0.449  1.00  0.00     0.103 A 
HETATM    2  C3  UNL     1       0.611  -3.431   1.185  1.00  0.00     0.072 A 
HETATM    3  C4  UNL     1       1.606  -2.510   1.403  1.00  0.00     0.075 A 
HETATM    4  N1  UNL     1       2.729  -2.721   2.091  1.00  0.00    -0.241 NA
HETATM    5  C5  UNL     1       3.684  -1.794   2.285  1.00  0.00     0.236 A 
HETATM    6  N2  UNL     1       3.521  -0.544   1.755  1.00  0.00    -0.224 NA
HETATM    7  C6  UNL     1       2.405  -0.285   1.054  1.00  0.00     0.141 A 
HETATM    8  C13 UNL     1       1.442  -1.250   0.869  1.00  0.00     0.042 A 
HETATM    9  C14 UNL     1       0.310  -0.956   0.147  1.00  0.00     0.057 A 
HETATM   10  C15 UNL     1      -0.717  -1.834  -0.103  1.00  0.00     0.103 A 
ENDROOT
BRANCH   7  11
HETATM   11  N3  UNL     1       2.298   1.030   0.532  1.00  0.00    -0.349 N 
HETATM   12  H6  UNL     1       1.566   1.506  -0.034  1.00  0.00     0.167 HD
BRANCH  11  13
HETATM   13  C7  UNL     1       3.335   1.970   0.763  1.00  0.00     0.102 C 
HETATM   14  C8  UNL     1       4.499   1.939   0.173  1.00  0.00    -0.003 C 
HETATM   15  C9  UNL     1       4.867   0.920  -0.804  1.00  0.00     0.058 C 
HETATM   16  P1  UNL     1       5.762   3.212   0.551  1.00  0.00    -0.007 P 
HETATM   17  C10 UNL     1       6.065   0.953  -1.365  1.00  0.00     0.140 C 
HETATM   18  F1  UNL     1       6.416  -0.007  -2.286  1.00  0.00    -0.204 F 
HETATM   19  C11 UNL     1       7.077   1.937  -1.093  1.00  0.00     0.085 C 
HETATM   20 CL1  UNL     1       8.693   1.878  -1.761  1.00  0.00    -0.080 Cl
HETATM   21  C12 UNL     1       7.135   3.038  -0.370  1.00  0.00     0.017 C 
ENDBRANCH  11  13
ENDBRANCH   7  11
BRANCH  10  22
HETATM   22  O2  UNL     1      -1.880  -1.735  -0.770  1.00  0.00    -0.347 OA
BRANCH  22  23
HETATM   23  C16 UNL     1      -2.436  -0.645  -1.435  1.00  0.00     0.206 C 
BRANCH  23  24
HETATM   24  C17 UNL     1      -2.735   0.516  -0.552  1.00  0.00     0.299 C 
BRANCH  24  25
HETATM   25  N4  UNL     1      -3.297   1.640  -1.229  1.00  0.00     0.094 N 
HETATM   26  C18 UNL     1      -4.609   1.499  -1.747  1.00  0.00     0.298 C 
HETATM   27  C19 UNL     1      -5.626   1.830  -0.681  1.00  0.00     0.198 C 
HETATM   28  O3  UNL     1      -5.057   1.932   0.589  1.00  0.00    -0.388 OA
HETATM   29  C20 UNL     1      -4.089   2.935   0.632  1.00  0.00     0.198 C 
HETATM   30  C21 UNL     1      -3.164   2.897  -0.539  1.00  0.00     0.298 C 
ENDBRANCH  24  25
ENDBRANCH  23  24
ENDBRANCH  22  23
ENDBRANCH  10  22
BRANCH   1  31
HETATM   31  O1  UNL     1      -1.433  -4.137   0.318  1.00  0.00    -0.353 OA
HETATM   32  C1  UNL     1      -1.279  -5.411   0.853  1.00  0.00     0.210 C 
ENDBRANCH   1  31
TORSDOF 7
