REMARK  6 active torsions:
REMARK  status: ('A' for Active; 'I' for Inactive)
REMARK    1  A    between atoms: O1_2  and  C2_3 
REMARK    2  A    between atoms: C7_8  and  O2_9 
REMARK    3  A    between atoms: O2_9  and  C8_10 
REMARK    4  A    between atoms: C8_10  and  C9_11 
REMARK    5  A    between atoms: C9_11  and  N1_12 
REMARK    6  A    between atoms: N2_16  and  C13_17 
ROOT
HETATM    1  C2  UNL     1      -0.900  -1.337  -1.457  1.00  0.00     0.103 A 
HETATM    2  C3  UNL     1       0.371  -1.642  -1.870  1.00  0.00     0.074 A 
HETATM    3  C4  UNL     1       1.456  -1.056  -1.252  1.00  0.00     0.094 A 
HETATM    4  C5  UNL     1       1.317  -0.152  -0.208  1.00  0.00     0.015 A 
HETATM    5  C6  UNL     1       0.020   0.126   0.174  1.00  0.00     0.055 A 
HETATM    6  C7  UNL     1      -1.092  -0.440  -0.419  1.00  0.00     0.103 A 
HETATM    7  C12 UNL     1       2.366   0.426   0.401  1.00  0.00     0.128 A 
HETATM    8  N2  UNL     1       3.699   0.102  -0.037  1.00  0.00    -0.257 N 
HETATM    9  N3  UNL     1       3.793  -0.798  -1.072  1.00  0.00    -0.105 N 
HETATM   10 CL1  UNL     1       5.406  -1.169  -1.570  1.00  0.00     0.057 Cl
HETATM   11  N4  UNL     1       2.637  -1.342  -1.639  1.00  0.00    -0.139 NA
ENDROOT
BRANCH   6  12
HETATM   12  O2  UNL     1      -2.395  -0.133  -0.004  1.00  0.00    -0.347 OA
BRANCH  12  13
HETATM   13  C8  UNL     1      -2.526   0.788   1.056  1.00  0.00     0.206 C 
BRANCH  13  14
HETATM   14  C9  UNL     1      -3.934   1.080   1.454  1.00  0.00     0.297 C 
BRANCH  14  15
HETATM   15  N1  UNL     1      -4.697   1.637   0.374  1.00  0.00     0.082 N 
HETATM   16  C10 UNL     1      -4.900   0.652  -0.644  1.00  0.00     0.309 C 
HETATM   17  C11 UNL     1      -5.970   2.148   0.852  1.00  0.00     0.309 C 
ENDBRANCH  14  15
ENDBRANCH  13  14
ENDBRANCH  12  13
ENDBRANCH   6  12
BRANCH   1  18
HETATM   18  O1  UNL     1      -1.959  -1.952  -2.108  1.00  0.00    -0.353 OA
HETATM   19  C1  UNL     1      -1.706  -2.850  -3.149  1.00  0.00     0.210 C 
ENDBRANCH   1  18
BRANCH   8  20
HETATM   20  C13 UNL     1       4.696   0.804   0.725  1.00  0.00     0.159 A 
HETATM   21  C14 UNL     1       6.080   0.603   0.294  1.00  0.00     0.007 A 
HETATM   22  C15 UNL     1       6.827   0.056   1.266  1.00  0.00     0.040 A 
HETATM   23  C16 UNL     1       5.979  -0.150   2.437  1.00  0.00     0.114 A 
HETATM   24  F1  UNL     1       6.253  -0.671   3.675  1.00  0.00    -0.206 F 
HETATM   25  C17 UNL     1       4.763   0.275   2.134  1.00  0.00     0.046 A 
ENDBRANCH   8  20
TORSDOF 6
