REMARK  1 active torsions:
REMARK  status: ('A' for Active; 'I' for Inactive)
REMARK    1  A    between atoms: O1_2  and  C2_3 
ROOT
HETATM    1  C2  UNL     1      -1.818   0.970  -0.876  1.00  0.00     0.191 C 
HETATM    2  C3  UNL     1      -1.588  -0.191  -1.838  1.00  0.00     0.155 C 
HETATM    3  N1  UNL     1      -0.867  -1.208  -1.116  1.00  0.00    -0.402 N 
HETATM    4  C4  UNL     1      -1.654  -1.831  -0.165  1.00  0.00     0.144 C 
HETATM    5  C5  UNL     1      -0.862  -2.139   1.137  1.00  0.00     0.193 C 
HETATM    6  O2  UNL     1      -0.351  -0.922   1.535  1.00  0.00    -0.361 OA
HETATM    7  C6  UNL     1       0.111  -0.455   2.666  1.00  0.00     0.135 C 
HETATM    8  C7  UNL     1       0.407   0.647   2.059  1.00  0.00     0.041 C 
HETATM    9  C8  UNL     1       0.288   1.141   0.723  1.00  0.00     0.039 A 
HETATM   10  C9  UNL     1       1.578   1.646   0.488  1.00  0.00     0.141 A 
HETATM   11  N2  UNL     1       2.130   2.260  -0.558  1.00  0.00    -0.224 NA
HETATM   12  C10 UNL     1       1.323   2.462  -1.665  1.00  0.00     0.235 A 
HETATM   13  N3  UNL     1       0.080   2.000  -1.517  1.00  0.00    -0.243 NA
HETATM   14  C11 UNL     1      -0.417   1.398  -0.459  1.00  0.00     0.080 A 
HETATM   15  N4  UNL     1       2.772   1.532   1.316  1.00  0.00    -0.350 N 
HETATM   16  C12 UNL     1       3.037   0.146   1.201  1.00  0.00     0.090 C 
HETATM   17  C13 UNL     1       3.120  -1.133   0.973  1.00  0.00     0.020 C 
HETATM   18  C14 UNL     1       2.271  -1.978   0.138  1.00  0.00     0.041 C 
HETATM   19  C15 UNL     1       1.284  -2.380  -0.712  1.00  0.00     0.111 C 
HETATM   20  F1  UNL     1       0.846  -3.530  -1.278  1.00  0.00    -0.209 F 
HETATM   21  C16 UNL     1       0.455  -1.331  -1.396  1.00  0.00     0.187 C 
HETATM   22  H14 UNL     1       3.159   2.353   1.775  1.00  0.00     0.166 HD
ENDROOT
BRANCH   1  23
HETATM   23  O1  UNL     1      -2.513   2.001  -1.426  1.00  0.00    -0.383 OA
HETATM   24  C1  UNL     1      -3.556   2.518  -0.714  1.00  0.00     0.202 C 
ENDBRANCH   1  23
TORSDOF 1
