REMARK  7 active torsions:
REMARK  status: ('A' for Active; 'I' for Inactive)
REMARK    1  A    between atoms: O1_2  and  C2_3 
REMARK    2  A    between atoms: C6_9  and  C7_10 
REMARK    3  A    between atoms: C14_19  and  O2_20 
REMARK    4  A    between atoms: O2_20  and  C15_21 
REMARK    5  A    between atoms: C15_21  and  C16_22 
REMARK    6  A    between atoms: C16_22  and  C17_23 
REMARK    7  A    between atoms: C17_23  and  N3_24 
ROOT
HETATM    1  C2  UNL     1      -1.551  -2.000  -1.283  1.00  0.00     0.103 A 
HETATM    2  C3  UNL     1      -2.813  -2.551  -1.215  1.00  0.00     0.072 A 
HETATM    3  C4  UNL     1      -3.828  -1.817  -0.660  1.00  0.00     0.073 A 
HETATM    4  N1  UNL     1      -5.082  -2.305  -0.566  1.00  0.00    -0.241 NA
HETATM    5  C5  UNL     1      -6.078  -1.594  -0.026  1.00  0.00     0.234 A 
HETATM    6  N2  UNL     1      -5.822  -0.360   0.437  1.00  0.00    -0.240 NA
HETATM    7  C6  UNL     1      -4.571   0.179   0.366  1.00  0.00     0.082 A 
HETATM    8  C12 UNL     1      -3.543  -0.551  -0.190  1.00  0.00     0.025 A 
HETATM    9  C13 UNL     1      -2.292   0.025  -0.245  1.00  0.00     0.055 A 
HETATM   10  C14 UNL     1      -1.281  -0.733  -0.809  1.00  0.00     0.103 A 
ENDROOT
BRANCH  10  11
HETATM   11  O2  UNL     1       0.010  -0.277  -0.925  1.00  0.00    -0.348 OA
BRANCH  11  12
HETATM   12  C15 UNL     1       0.502   0.963  -0.516  1.00  0.00     0.177 C 
BRANCH  12  13
HETATM   13  C16 UNL     1       1.994   1.103  -0.813  1.00  0.00     0.057 C 
BRANCH  13  14
HETATM   14  C17 UNL     1       2.706  -0.012  -0.049  1.00  0.00     0.274 C 
BRANCH  14  15
HETATM   15  N3  UNL     1       4.121   0.031  -0.262  1.00  0.00     0.092 N 
HETATM   16  C18 UNL     1       4.862  -0.994   0.429  1.00  0.00     0.298 C 
HETATM   17  C19 UNL     1       5.569  -0.529   1.662  1.00  0.00     0.198 C 
HETATM   18  O3  UNL     1       6.171   0.700   1.556  1.00  0.00    -0.388 OA
HETATM   19  C20 UNL     1       6.148   1.262   0.303  1.00  0.00     0.198 C 
HETATM   20  C21 UNL     1       4.697   1.337  -0.119  1.00  0.00     0.298 C 
ENDBRANCH  14  15
ENDBRANCH  13  14
ENDBRANCH  12  13
ENDBRANCH  11  12
ENDBRANCH  10  11
BRANCH   1  21
HETATM   21  O1  UNL     1      -0.536  -2.770  -1.853  1.00  0.00    -0.353 OA
HETATM   22  C1  UNL     1      -0.851  -4.067  -2.329  1.00  0.00     0.210 C 
ENDBRANCH   1  21
BRANCH   7  23
HETATM   23  C7  UNL     1      -4.415   1.535   0.906  1.00  0.00     0.010 C 
HETATM   24  C8  UNL     1      -4.406   2.177   2.060  1.00  0.00     0.031 C 
HETATM   25  C9  UNL     1      -4.905   3.399   1.981  1.00  0.00     0.150 C 
HETATM   26  F1  UNL     1      -5.622   4.267   2.758  1.00  0.00    -0.203 F 
HETATM   27  C10 UNL     1      -4.485   3.792   0.619  1.00  0.00     0.074 C 
HETATM   28 CL1  UNL     1      -4.365   5.383  -0.098  1.00  0.00    -0.081 Cl
HETATM   29  C11 UNL     1      -4.189   2.656  -0.030  1.00  0.00     0.042 C 
ENDBRANCH   7  23
TORSDOF 7
