REMARK  6 active torsions:
REMARK  status: ('A' for Active; 'I' for Inactive)
REMARK    1  A    between atoms: N1_2  and  C3_4 
REMARK    2  A    between atoms: C3_4  and  P1_5 
REMARK    3  A    between atoms: P1_5  and  C4_6 
REMARK    4  A    between atoms: C5_7  and  C6_8 
REMARK    5  A    between atoms: C9_13  and  N4_14 
REMARK    6  A    between atoms: N4_14  and  C10_15 
ROOT
HETATM    1  C6  UNL     1      -0.868   0.297   1.726  1.00  0.00     0.028 A 
HETATM    2  C7  UNL     1      -0.739   0.317   3.091  1.00  0.00     0.133 A 
HETATM    3  N2  UNL     1      -1.852   0.248   3.841  1.00  0.00    -0.253 NA
HETATM    4  C8  UNL     1      -3.044   0.161   3.244  1.00  0.00     0.234 A 
HETATM    5  N3  UNL     1      -3.132   0.145   1.927  1.00  0.00    -0.224 NA
HETATM    6  C9  UNL     1      -2.085   0.209   1.094  1.00  0.00     0.141 A 
ENDROOT
BRANCH   6   7
HETATM    7  N4  UNL     1      -2.157   0.192  -0.323  1.00  0.00    -0.340 N 
HETATM    8  H12 UNL     1      -1.241   0.250  -0.843  1.00  0.00     0.167 HD
BRANCH   7   9
HETATM    9  C10 UNL     1      -3.296   0.108  -1.164  1.00  0.00     0.035 A 
HETATM   10  C11 UNL     1      -3.174   0.105  -2.551  1.00  0.00     0.032 A 
HETATM   11  C12 UNL     1      -4.267   0.023  -3.377  1.00  0.00     0.046 A 
HETATM   12  C13 UNL     1      -5.544  -0.059  -2.869  1.00  0.00     0.138 A 
HETATM   13  F1  UNL     1      -6.606  -0.139  -3.702  1.00  0.00    -0.204 F 
HETATM   14  C14 UNL     1      -5.725  -0.061  -1.503  1.00  0.00     0.074 A 
HETATM   15 CL1  UNL     1      -7.340  -0.165  -0.837  1.00  0.00    -0.081 Cl
HETATM   16  C15 UNL     1      -4.597   0.023  -0.722  1.00  0.00     0.056 A 
ENDBRANCH   7   9
ENDBRANCH   6   7
BRANCH   1  17
HETATM   17  C5  UNL     1       0.352   0.373   0.936  1.00  0.00     0.018 C 
HETATM   18  C4  UNL     1       1.507   0.457   1.568  1.00  0.00     0.018 C 
BRANCH  18  19
HETATM   19  P1  UNL     1       3.227   0.570   1.011  1.00  0.00    -0.017 P 
BRANCH  19  20
HETATM   20  C3  UNL     1       4.000  -0.522   0.064  1.00  0.00     0.100 C 
BRANCH  20  21
HETATM   21  N1  UNL     1       5.352  -0.120  -0.182  1.00  0.00    -0.397 N 
HETATM   22  C1  UNL     1       6.205   0.436   0.870  1.00  0.00     0.148 C 
HETATM   23  C2  UNL     1       5.952  -0.242  -1.494  1.00  0.00     0.148 C 
ENDBRANCH  20  21
ENDBRANCH  19  20
ENDBRANCH  18  19
ENDBRANCH   1  17
TORSDOF 6
