REMARK  9 active torsions:
REMARK  status: ('A' for Active; 'I' for Inactive)
REMARK    1  A    between atoms: N1_2  and  C3_4 
REMARK    2  A    between atoms: C3_4  and  C4_5 
REMARK    3  A    between atoms: C4_5  and  O1_6 
REMARK    4  A    between atoms: O1_6  and  C5_7 
REMARK    5  A    between atoms: C8_10  and  C9_11 
REMARK    6  A    between atoms: C9_11  and  C10_12 
REMARK    7  A    between atoms: C11_13  and  C12_15 
REMARK    8  A    between atoms: C18_23  and  O2_24 
REMARK    9  A    between atoms: O2_24  and  N4_25 
ROOT
HETATM    1  C5  UNL     1      -1.294  -1.757   0.922  1.00  0.00     0.105 A 
HETATM    2  C6  UNL     1      -0.212  -1.497   0.098  1.00  0.00     0.055 A 
HETATM    3  C7  UNL     1       0.818  -2.389  -0.119  1.00  0.00     0.021 A 
HETATM    4  C8  UNL     1       1.867  -2.056  -0.963  1.00  0.00     0.052 A 
HETATM    5  N2  UNL     1       2.824  -2.987  -1.118  1.00  0.00    -0.245 NA
HETATM    6  C15 UNL     1       2.760  -4.177  -0.484  1.00  0.00     0.234 A 
HETATM    7  N3  UNL     1       1.739  -4.497   0.335  1.00  0.00    -0.241 NA
HETATM    8  C16 UNL     1       0.730  -3.600   0.541  1.00  0.00     0.073 A 
HETATM    9  C17 UNL     1      -0.336  -3.886   1.368  1.00  0.00     0.074 A 
HETATM   10  C18 UNL     1      -1.357  -2.977   1.570  1.00  0.00     0.127 A 
ENDROOT
BRANCH   4  11
HETATM   11  C9  UNL     1       1.940  -0.739  -1.655  1.00  0.00     0.090 C 
BRANCH  11  12
HETATM   12  C10 UNL     1       2.383   0.303  -0.696  1.00  0.00     0.021 C 
HETATM   13  C11 UNL     1       3.511   0.980  -0.966  1.00  0.00     0.112 C 
HETATM   14  F1  UNL     1       3.941   0.460  -2.139  1.00  0.00    -0.206 F 
BRANCH  13  15
HETATM   15  C12 UNL     1       4.079   2.023  -0.131  1.00  0.00     0.037 C 
HETATM   16  C13 UNL     1       5.180   2.722  -0.345  1.00  0.00    -0.028 C 
HETATM   17  C14 UNL     1       6.053   2.555  -1.513  1.00  0.00     0.036 C 
ENDBRANCH  13  15
ENDBRANCH  11  12
ENDBRANCH   4  11
BRANCH   1  18
HETATM   18  O1  UNL     1      -2.330  -0.859   1.140  1.00  0.00    -0.346 OA
BRANCH  18  19
HETATM   19  C4  UNL     1      -2.355   0.413   0.521  1.00  0.00     0.206 C 
BRANCH  19  20
HETATM   20  C3  UNL     1      -3.585   1.191   0.918  1.00  0.00     0.297 C 
BRANCH  20  21
HETATM   21  N1  UNL     1      -3.624   2.498   0.289  1.00  0.00     0.082 N 
HETATM   22  C1  UNL     1      -4.845   3.147   0.740  1.00  0.00     0.309 C 
HETATM   23  C2  UNL     1      -3.562   2.438  -1.146  1.00  0.00     0.309 C 
ENDBRANCH  20  21
ENDBRANCH  19  20
ENDBRANCH  18  19
ENDBRANCH   1  18
BRANCH  10  24
HETATM   24  O2  UNL     1      -2.355  -3.379   2.412  1.00  0.00    -0.264 OA
BRANCH  24  25
HETATM   25  N4  UNL     1      -3.440  -2.590   2.715  1.00  0.00    -0.209 NA
HETATM   26  H22 UNL     1      -4.004  -2.304   1.907  1.00  0.00     0.150 HD
HETATM   27  H23 UNL     1      -3.078  -1.766   3.250  1.00  0.00     0.150 HD
ENDBRANCH  24  25
ENDBRANCH  10  24
TORSDOF 9
