REMARK  7 active torsions:
REMARK  status: ('A' for Active; 'I' for Inactive)
REMARK    1  A    between atoms: C2_2  and  C3_3 
REMARK    2  A    between atoms: C2_2  and  O1_16 
REMARK    3  A    between atoms: C3_3  and  C4_4 
REMARK    4  A    between atoms: N3_8  and  C6_9 
REMARK    5  A    between atoms: O1_16  and  C12_17 
REMARK    6  A    between atoms: C12_17  and  C13_18 
REMARK    7  A    between atoms: C13_18  and  N4_19 
ROOT
HETATM    1  C4  UNL     1      -0.770   1.366   0.264  1.00  0.00     0.063 A 
HETATM    2  N1  UNL     1      -1.816   1.876  -0.296  1.00  0.00    -0.161 NA
HETATM    3  N2  UNL     1      -3.043   1.272  -0.442  1.00  0.00    -0.209 N 
HETATM    4  C5  UNL     1      -4.158   1.962  -1.103  1.00  0.00     0.203 C 
HETATM    5  N3  UNL     1      -3.199  -0.039   0.063  1.00  0.00    -0.254 N 
HETATM    6  C10 UNL     1      -2.078  -0.640   0.685  1.00  0.00     0.120 A 
HETATM    7  C11 UNL     1      -0.927   0.014   0.785  1.00  0.00     0.048 A 
ENDROOT
BRANCH   1   8
HETATM    8  C3  UNL     1       0.508   2.138   0.357  1.00  0.00     0.124 C 
BRANCH   8   9
HETATM    9  C2  UNL     1       1.639   1.504  -0.323  1.00  0.00     0.042 C 
HETATM   10  C1  UNL     1       2.224   2.176  -1.308  1.00  0.00     0.046 C 
BRANCH   9  11
HETATM   11  O1  UNL     1       2.333   0.315  -0.232  1.00  0.00    -0.354 OA
BRANCH  11  12
HETATM   12  C12 UNL     1       3.004   0.024   0.972  1.00  0.00     0.194 C 
BRANCH  12  13
HETATM   13  C13 UNL     1       3.841  -1.230   0.865  1.00  0.00     0.142 C 
BRANCH  13  14
HETATM   14  N4  UNL     1       4.845  -1.160  -0.133  1.00  0.00    -0.419 N 
HETATM   15  C14 UNL     1       5.920  -0.265   0.071  1.00  0.00     0.142 C 
HETATM   16  C15 UNL     1       5.092  -2.324  -0.904  1.00  0.00     0.142 C 
ENDBRANCH  13  14
ENDBRANCH  12  13
ENDBRANCH  11  12
ENDBRANCH   9  11
ENDBRANCH   8   9
ENDBRANCH   1   8
BRANCH   5  17
HETATM   17  C6  UNL     1      -4.468  -0.685  -0.075  1.00  0.00     0.037 A 
HETATM   18  C7  UNL     1      -5.505  -0.317   0.586  1.00  0.00     0.037 A 
HETATM   19  C8  UNL     1      -6.370  -1.328  -0.002  1.00  0.00     0.200 A 
HETATM   20  F1  UNL     1      -6.846  -2.283   0.898  1.00  0.00    -0.245 F 
HETATM   21  C9  UNL     1      -5.164  -1.756  -0.770  1.00  0.00     0.100 A 
ENDBRANCH   5  17
TORSDOF 7
