REMARK  6 active torsions:
REMARK  status: ('A' for Active; 'I' for Inactive)
REMARK    1  A    between atoms: N1_2  and  C3_4 
REMARK    2  A    between atoms: C3_4  and  C4_5 
REMARK    3  A    between atoms: C4_5  and  O1_6 
REMARK    4  A    between atoms: O1_6  and  C5_7 
REMARK    5  A    between atoms: C8_10  and  N2_11 
REMARK    6  A    between atoms: N2_11  and  C9_12 
ROOT
HETATM    1  C5  UNL     1      -0.709  -1.764   0.760  1.00  0.00     0.103 C 
HETATM    2  C6  UNL     1      -0.266  -0.915   1.710  1.00  0.00     0.051 C 
HETATM    3  C7  UNL     1       0.810  -0.679   0.693  1.00  0.00    -0.006 C 
HETATM    4  C8  UNL     1       1.188  -0.150  -0.458  1.00  0.00     0.136 C 
HETATM    5  N3  UNL     1       0.256   0.508  -1.350  1.00  0.00    -0.224 NA
HETATM    6  C15 UNL     1      -0.441  -0.270  -2.155  1.00  0.00     0.237 C 
HETATM    7  N4  UNL     1      -0.725  -1.608  -2.595  1.00  0.00    -0.230 NA
HETATM    8  C16 UNL     1      -0.839  -2.617  -1.798  1.00  0.00     0.260 C 
HETATM    9  O2  UNL     1      -0.859  -3.325  -0.556  1.00  0.00    -0.302 OA
HETATM   10  C17 UNL     1       0.115  -2.955   0.403  1.00  0.00     0.106 C 
HETATM   11  C18 UNL     1       1.243  -2.979   1.159  1.00  0.00     0.018 C 
HETATM   12  C19 UNL     1       1.855  -1.584   1.315  1.00  0.00     0.072 C 
ENDROOT
BRANCH   4  13
HETATM   13  N2  UNL     1       2.382  -0.084  -1.226  1.00  0.00    -0.340 N 
HETATM   14  H12 UNL     1       2.495  -0.826  -1.953  1.00  0.00     0.167 HD
BRANCH  13  15
HETATM   15  C9  UNL     1       3.417   0.877  -1.099  1.00  0.00     0.035 A 
HETATM   16  C10 UNL     1       3.399   2.058  -1.815  1.00  0.00     0.032 A 
HETATM   17  C11 UNL     1       4.366   3.032  -1.745  1.00  0.00     0.046 A 
HETATM   18  C12 UNL     1       5.445   2.845  -0.906  1.00  0.00     0.138 A 
HETATM   19  F1  UNL     1       6.431   3.765  -0.791  1.00  0.00    -0.204 F 
HETATM   20  C13 UNL     1       5.504   1.680  -0.171  1.00  0.00     0.074 A 
HETATM   21 CL1  UNL     1       6.894   1.462   0.895  1.00  0.00    -0.081 Cl
HETATM   22  C14 UNL     1       4.519   0.733  -0.270  1.00  0.00     0.056 A 
ENDBRANCH  13  15
ENDBRANCH   4  13
BRANCH   1  23
HETATM   23  O1  UNL     1      -1.861  -0.976   0.592  1.00  0.00    -0.347 OA
BRANCH  23  24
HETATM   24  C4  UNL     1      -2.965  -1.260   1.467  1.00  0.00     0.195 C 
BRANCH  24  25
HETATM   25  C3  UNL     1      -4.147  -0.461   1.029  1.00  0.00     0.142 C 
BRANCH  25  26
HETATM   26  N1  UNL     1      -4.007   0.935   1.023  1.00  0.00    -0.419 N 
HETATM   27  C1  UNL     1      -3.131   1.528   0.081  1.00  0.00     0.142 C 
HETATM   28  C2  UNL     1      -5.101   1.728   1.474  1.00  0.00     0.142 C 
ENDBRANCH  25  26
ENDBRANCH  24  25
ENDBRANCH  23  24
ENDBRANCH   1  23
TORSDOF 6
