REMARK  0 active torsions:
REMARK  status: ('A' for Active; 'I' for Inactive)
ROOT
HETATM    1  C1  UNL     1      -1.042  -2.642   1.128  1.00  0.00     0.046 C 
HETATM    2  C2  UNL     1      -0.814  -1.758  -0.023  1.00  0.00    -0.056 C 
HETATM    3  C3  UNL     1      -1.474  -1.488  -1.215  1.00  0.00    -0.003 C 
HETATM    4  C4  UNL     1      -1.301  -0.613  -2.434  1.00  0.00     0.144 C 
HETATM    5  N1  UNL     1      -2.329   0.469  -2.441  1.00  0.00    -0.391 N 
HETATM    6  C5  UNL     1      -2.061   0.834  -0.959  1.00  0.00     0.170 A 
HETATM    7  N2  UNL     1      -3.176   0.413  -0.651  1.00  0.00    -0.206 NA
HETATM    8  C6  UNL     1      -3.906  -0.163   0.280  1.00  0.00     0.226 A 
HETATM    9  N3  UNL     1      -2.601  -0.034   0.779  1.00  0.00    -0.254 NA
HETATM   10  C7  UNL     1      -1.663   0.522   0.056  1.00  0.00     0.215 A 
HETATM   11  C8  UNL     1      -0.689   1.110  -0.719  1.00  0.00     0.110 A 
HETATM   12  C9  UNL     1      -0.588   1.907  -1.888  1.00  0.00     0.019 C 
HETATM   13  C10 UNL     1       0.508   2.344  -1.304  1.00  0.00     0.131 C 
HETATM   14  O1  UNL     1       1.110   2.044  -0.124  1.00  0.00    -0.362 OA
HETATM   15  C11 UNL     1       2.475   1.994   0.149  1.00  0.00     0.193 C 
HETATM   16  C12 UNL     1       2.925   0.537   0.384  1.00  0.00     0.143 C 
HETATM   17  N4  UNL     1       2.231  -0.070   1.427  1.00  0.00    -0.412 N 
HETATM   18  C13 UNL     1       2.378   0.326   2.752  1.00  0.00     0.143 C 
HETATM   19  C14 UNL     1       1.397  -1.206   1.129  1.00  0.00     0.153 C 
HETATM   20  C15 UNL     1       0.311  -0.785   0.310  1.00  0.00     0.172 C 
HETATM   21  O2  UNL     1      -0.471   0.307   0.937  1.00  0.00    -0.336 OA
HETATM   22  H7  UNL     1      -2.858   0.647  -3.316  1.00  0.00     0.155 HD
ENDROOT
TORSDOF 0
