REMARK  6 active torsions:
REMARK  status: ('A' for Active; 'I' for Inactive)
REMARK    1  A    between atoms: N1_2  and  C2_3 
REMARK    2  A    between atoms: C2_3  and  C3_4 
REMARK    3  A    between atoms: C3_4  and  O1_5 
REMARK    4  A    between atoms: O1_5  and  C4_6 
REMARK    5  A    between atoms: C6_8  and  C8_11 
REMARK    6  A    between atoms: N3_12  and  C9_13 
ROOT
HETATM    1  C4  UNL     1       0.657   0.513  -0.865  1.00  0.00     0.084 A 
HETATM    2  C5  UNL     1       0.161  -0.755  -0.525  1.00  0.00     0.069 A 
HETATM    3  C6  UNL     1       0.336  -2.097   0.142  1.00  0.00     0.023 A 
HETATM    4  C7  UNL     1       0.588  -2.891   1.165  1.00  0.00     0.065 A 
HETATM    5  N2  UNL     1       1.613  -3.186   0.372  1.00  0.00    -0.229 NA
HETATM    6  C8  UNL     1       1.721  -2.552  -0.843  1.00  0.00     0.108 A 
HETATM    7  N3  UNL     1       0.635  -2.267   0.051  1.00  0.00     0.000 N 
HETATM    8  C9  UNL     1      -0.278  -1.264  -0.493  1.00  0.00     0.003 A 
HETATM    9  C10 UNL     1      -0.899  -0.386  -1.151  1.00  0.00     0.070 A 
HETATM   10  C11 UNL     1      -0.531   0.794  -1.489  1.00  0.00     0.111 A 
HETATM   11  O2  UNL     1      -1.759   1.233  -2.196  1.00  0.00    -0.239 OA
HETATM   12  N4  UNL     1      -2.848   1.158  -1.164  1.00  0.00    -0.264 N 
HETATM   13  C12 UNL     1      -3.714   0.095  -0.643  1.00  0.00     0.053 C 
HETATM   14  C13 UNL     1      -5.005   0.614  -1.135  1.00  0.00     0.072 C 
HETATM   15  C14 UNL     1      -3.758  -1.021   0.039  1.00  0.00     0.091 C 
HETATM   16 CL1  UNL     1      -5.328  -1.785   0.248  1.00  0.00    -0.079 Cl
HETATM   17  C15 UNL     1      -2.969  -1.950   0.870  1.00  0.00     0.107 A 
HETATM   18  F1  UNL     1      -3.127  -3.121   1.483  1.00  0.00    -0.359 F 
HETATM   19  C16 UNL     1      -1.795  -2.202   1.444  1.00  0.00     0.197 A 
HETATM   20  C17 UNL     1      -0.535  -2.631   2.147  1.00  0.00     0.071 C 
HETATM   21  H12 UNL     1      -2.859   2.159  -0.844  1.00  0.00     0.194 HD
ENDROOT
BRANCH   1  22
HETATM   22  O1  UNL     1       1.383   1.609  -1.036  1.00  0.00    -0.351 OA
BRANCH  22  23
HETATM   23  C3  UNL     1       2.690   1.850  -0.612  1.00  0.00     0.205 C 
BRANCH  23  24
HETATM   24  C2  UNL     1       2.865   1.754   0.881  1.00  0.00     0.295 C 
BRANCH  24  25
HETATM   25  N1  UNL     1       4.262   2.016   1.235  1.00  0.00     0.081 N 
HETATM   26  C1  UNL     1       4.627   3.386   0.985  1.00  0.00     0.306 C 
HETATM   27  H4  UNL     1       4.880   1.360   0.728  1.00  0.00     0.315 HD
ENDBRANCH  24  25
ENDBRANCH  23  24
ENDBRANCH  22  23
ENDBRANCH   1  22
TORSDOF 6
