REMARK  0 active torsions:
REMARK  status: ('A' for Active; 'I' for Inactive)
ROOT
HETATM    1  C1  UNL     1       3.564   1.036   0.804  1.00  0.00     0.046 C 
HETATM    2  C2  UNL     1       2.326   0.407   0.228  1.00  0.00    -0.052 C 
HETATM    3  C3  UNL     1       2.517  -0.753  -0.362  1.00  0.00    -0.027 C 
HETATM    4  C4  UNL     1       2.536  -2.032  -1.048  1.00  0.00    -0.064 C 
HETATM    5  B1  UNL     1       1.104  -3.084  -0.534  1.00  0.00     0.211 B 
HETATM    6  C5  UNL     1       0.087  -2.078   0.763  1.00  0.00     0.063 A 
HETATM    7  N1  UNL     1       0.190  -2.377   2.051  1.00  0.00    -0.280 NA
HETATM    8  C6  UNL     1       0.043  -1.277   2.905  1.00  0.00     0.221 A 
HETATM    9  N2  UNL     1      -0.163  -0.171   2.108  1.00  0.00    -0.268 NA
HETATM   10  C7  UNL     1      -0.184  -0.379   0.814  1.00  0.00     0.107 A 
HETATM   11  C8  UNL     1      -0.096  -1.266  -0.254  1.00  0.00     0.028 A 
HETATM   12  C9  UNL     1      -0.269  -0.961  -1.642  1.00  0.00     0.032 C 
HETATM   13  C10 UNL     1      -1.401  -0.377  -2.132  1.00  0.00    -0.022 C 
HETATM   14  C11 UNL     1      -2.808   0.220  -1.939  1.00  0.00     0.002 C 
HETATM   15  C12 UNL     1      -3.107   0.258  -0.488  1.00  0.00     0.019 C 
HETATM   16  C13 UNL     1      -2.463   1.253   0.385  1.00  0.00     0.114 C 
HETATM   17  N3  UNL     1      -1.169   1.728   0.157  1.00  0.00    -0.412 N 
HETATM   18  C14 UNL     1      -0.050   0.922   0.145  1.00  0.00     0.148 C 
HETATM   19  C15 UNL     1       1.314   1.449   0.555  1.00  0.00     0.223 C 
HETATM   20  F1  UNL     1       1.573   2.589  -0.120  1.00  0.00    -0.242 F 
HETATM   21  H15 UNL     1      -1.059   2.528  -0.503  1.00  0.00     0.153 HD
ENDROOT
TORSDOF 0
