REMARK  7 active torsions:
REMARK  status: ('A' for Active; 'I' for Inactive)
REMARK    1  A    between atoms: C1_2  and  O1_3 
REMARK    2  A    between atoms: O1_3  and  C2_4 
REMARK    3  A    between atoms: C7_9  and  O2_10 
REMARK    4  A    between atoms: O2_10  and  C8_11 
REMARK    5  A    between atoms: N1_12  and  C9_13 
REMARK    6  A    between atoms: C9_13  and  N2_14 
REMARK    7  A    between atoms: N2_14  and  C10_15 
ROOT
HETATM    1  C8  UNL     1      -0.532   0.899   0.706  1.00  0.00     0.255 C 
HETATM    2  N1  UNL     1       0.022  -0.238   0.581  1.00  0.00    -0.259 NA
ENDROOT
BRANCH   1   3
HETATM    3  O2  UNL     1      -1.914   1.032   0.768  1.00  0.00    -0.302 OA
BRANCH   3   4
HETATM    4  C7  UNL     1      -2.683   0.074   0.162  1.00  0.00     0.106 A 
HETATM    5  C2  UNL     1      -3.634   0.467  -0.902  1.00  0.00     0.101 A 
HETATM    6  C3  UNL     1      -4.340  -0.548  -1.430  1.00  0.00     0.013 A 
HETATM    7  C4  UNL     1      -4.309  -1.986  -1.112  1.00  0.00     0.034 A 
HETATM    8  C5  UNL     1      -3.339  -2.341  -0.036  1.00  0.00     0.034 A 
HETATM    9  C6  UNL     1      -2.581  -1.193   0.520  1.00  0.00     0.014 A 
BRANCH   5  10
HETATM   10  O1  UNL     1      -3.690   1.819  -1.229  1.00  0.00    -0.319 OA
BRANCH  10  11
HETATM   11  C1  UNL     1      -4.139   2.739  -0.249  1.00  0.00     0.398 C 
HETATM   12  F1  UNL     1      -4.133   4.041  -0.740  1.00  0.00    -0.227 F 
ENDBRANCH  10  11
ENDBRANCH   5  10
ENDBRANCH   3   4
ENDBRANCH   1   3
BRANCH   2  13
HETATM   13  C9  UNL     1       1.409  -0.533   0.504  1.00  0.00     0.272 C 
BRANCH  13  14
HETATM   14  N2  UNL     1       2.240   0.551   0.030  1.00  0.00    -0.372 N 
HETATM   15  H12 UNL     1       1.835   1.469  -0.229  1.00  0.00     0.161 HD
BRANCH  14  16
HETATM   16  C10 UNL     1       3.667   0.387  -0.097  1.00  0.00     0.030 A 
HETATM   17  C11 UNL     1       4.465   1.410  -0.545  1.00  0.00     0.029 A 
HETATM   18  C12 UNL     1       5.830   1.291  -0.679  1.00  0.00     0.004 A 
HETATM   19  C13 UNL     1       6.391   0.073  -0.338  1.00  0.00     0.024 A 
HETATM   20  C14 UNL     1       5.621  -0.975   0.115  1.00  0.00     0.036 A 
HETATM   21 CL1  UNL     1       6.227  -2.546   0.570  1.00  0.00    -0.084 Cl
HETATM   22  C15 UNL     1       4.240  -0.833   0.244  1.00  0.00     0.053 A 
ENDBRANCH  14  16
ENDBRANCH  13  14
ENDBRANCH   2  13
TORSDOF 7
