REMARK  8 active torsions:
REMARK  status: ('A' for Active; 'I' for Inactive)
REMARK    1  A    between atoms: O1_2  and  C2_3 
REMARK    2  A    between atoms: C6_7  and  N1_8 
REMARK    3  A    between atoms: C7_9  and  C8_10 
REMARK    4  A    between atoms: C13_18  and  O2_19 
REMARK    5  A    between atoms: O2_19  and  C14_20 
REMARK    6  A    between atoms: C14_20  and  C15_21 
REMARK    7  A    between atoms: C15_21  and  C16_22 
REMARK    8  A    between atoms: C16_22  and  N4_23 
ROOT
HETATM    1  C2  UNL     1       0.229  -1.977  -0.380  1.00  0.00     0.124 C 
HETATM    2  C3  UNL     1       1.254  -2.793  -0.023  1.00  0.00     0.051 C 
HETATM    3  C4  UNL     1       1.962  -2.372   1.333  1.00  0.00     0.102 C 
HETATM    4  C5  UNL     1       2.700  -1.327   0.429  1.00  0.00    -0.002 C 
HETATM    5  C6  UNL     1       3.886  -1.606  -0.141  1.00  0.00     0.157 C 
HETATM    6  N2  UNL     1       4.217  -3.046  -0.414  1.00  0.00    -0.224 NA
HETATM    7  C11 UNL     1       3.297  -3.844  -1.047  1.00  0.00     0.209 C 
HETATM    8  N3  UNL     1       1.791  -3.834  -0.893  1.00  0.00    -0.351 N 
HETATM    9  C12 UNL     1       1.812  -0.153   0.159  1.00  0.00     0.051 C 
HETATM   10  C13 UNL     1       0.544  -0.496  -0.265  1.00  0.00     0.104 C 
HETATM   11  H12 UNL     1       0.905  -4.284  -1.193  1.00  0.00     0.166 HD
ENDROOT
BRANCH  10  12
HETATM   12  O2  UNL     1      -0.378   0.425  -0.568  1.00  0.00    -0.348 OA
BRANCH  12  13
HETATM   13  C14 UNL     1      -0.807   1.411   0.362  1.00  0.00     0.177 C 
BRANCH  13  14
HETATM   14  C15 UNL     1      -1.578   2.484  -0.350  1.00  0.00     0.046 C 
BRANCH  14  15
HETATM   15  C16 UNL     1      -2.809   2.050  -1.058  1.00  0.00     0.119 C 
BRANCH  15  16
HETATM   16  N4  UNL     1      -3.853   1.490  -0.338  1.00  0.00    -0.412 N 
HETATM   17  C17 UNL     1      -4.620   2.238   0.568  1.00  0.00     0.117 C 
HETATM   18  C18 UNL     1      -5.766   1.279   0.917  1.00  0.00     0.021 C 
HETATM   19  C19 UNL     1      -5.454  -0.025   0.199  1.00  0.00     0.021 C 
HETATM   20  C20 UNL     1      -3.935   0.132  -0.023  1.00  0.00     0.117 C 
ENDBRANCH  15  16
ENDBRANCH  14  15
ENDBRANCH  13  14
ENDBRANCH  12  13
ENDBRANCH  10  12
BRANCH   1  21
HETATM   21  O1  UNL     1      -0.775  -2.786  -0.753  1.00  0.00    -0.351 OA
HETATM   22  C1  UNL     1      -1.829  -3.121   0.115  1.00  0.00     0.210 C 
ENDBRANCH   1  21
BRANCH   5  23
HETATM   23  N1  UNL     1       4.370  -0.278  -0.304  1.00  0.00    -0.241 NA
HETATM   24  C7  UNL     1       4.527   0.278  -1.448  1.00  0.00     0.122 C 
BRANCH  24  25
HETATM   25  C8  UNL     1       5.020   1.632  -1.643  1.00  0.00     0.056 C 
HETATM   26  C9  UNL     1       5.363   2.443  -0.686  1.00  0.00     0.091 C 
HETATM   27  C10 UNL     1       5.410   2.398   0.778  1.00  0.00     0.082 C 
HETATM   28  F1  UNL     1       5.815   3.708  -0.957  1.00  0.00    -0.211 F 
ENDBRANCH  24  25
ENDBRANCH   5  23
TORSDOF 8
