REMARK  9 active torsions:
REMARK  status: ('A' for Active; 'I' for Inactive)
REMARK    1  A    between atoms: N1_2  and  C2_3 
REMARK    2  A    between atoms: C2_3  and  C3_4 
REMARK    3  A    between atoms: C3_4  and  C4_5 
REMARK    4  A    between atoms: C4_5  and  O1_6 
REMARK    5  A    between atoms: O1_6  and  C5_7 
REMARK    6  A    between atoms: C8_10  and  N2_11 
REMARK    7  A    between atoms: N2_11  and  C9_12 
REMARK    8  A    between atoms: C9_12  and  C10_13 
REMARK    9  A    between atoms: C15_21  and  O2_22 
ROOT
HETATM    1  C5  UNL     1      -0.969  -1.154   0.332  1.00  0.00     0.103 A 
HETATM    2  C6  UNL     1       0.123  -0.359   0.185  1.00  0.00     0.057 A 
HETATM    3  C7  UNL     1       1.285  -0.716  -0.433  1.00  0.00     0.041 A 
HETATM    4  C8  UNL     1       2.308   0.205  -0.502  1.00  0.00     0.137 A 
HETATM    5  N3  UNL     1       3.421  -0.215  -1.125  1.00  0.00    -0.224 NA
HETATM    6  C12 UNL     1       3.541  -1.446  -1.648  1.00  0.00     0.235 A 
HETATM    7  N4  UNL     1       2.538  -2.358  -1.584  1.00  0.00    -0.241 NA
HETATM    8  C13 UNL     1       1.403  -1.976  -0.967  1.00  0.00     0.075 A 
HETATM    9  C14 UNL     1       0.314  -2.848  -0.851  1.00  0.00     0.072 A 
HETATM   10  C15 UNL     1      -0.863  -2.444  -0.209  1.00  0.00     0.103 A 
ENDROOT
BRANCH   1  11
HETATM   11  O1  UNL     1      -2.193  -0.989   0.900  1.00  0.00    -0.348 OA
BRANCH  11  12
HETATM   12  C4  UNL     1      -2.764   0.090   1.537  1.00  0.00     0.177 C 
BRANCH  12  13
HETATM   13  C3  UNL     1      -2.938   1.337   0.735  1.00  0.00     0.048 C 
BRANCH  13  14
HETATM   14  C2  UNL     1      -3.833   1.090  -0.489  1.00  0.00     0.149 C 
BRANCH  14  15
HETATM   15  N1  UNL     1      -3.962   2.320  -1.218  1.00  0.00    -0.312 NA
HETATM   16  C1  UNL     1      -5.003   3.052  -1.031  1.00  0.00     0.142 C 
ENDBRANCH  14  15
ENDBRANCH  13  14
ENDBRANCH  12  13
ENDBRANCH  11  12
ENDBRANCH   1  11
BRANCH  10  17
HETATM   17  O2  UNL     1      -1.875  -3.422  -0.166  1.00  0.00    -0.353 OA
HETATM   18  C16 UNL     1      -1.645  -4.670  -0.741  1.00  0.00     0.210 C 
ENDBRANCH  10  17
BRANCH   4  19
HETATM   19  N2  UNL     1       2.259   1.544   0.033  1.00  0.00    -0.371 N 
HETATM   20  H10 UNL     1       1.443   1.955   0.529  1.00  0.00     0.161 HD
BRANCH  19  21
HETATM   21  C9  UNL     1       3.430   2.385  -0.128  1.00  0.00     0.149 C 
BRANCH  21  22
HETATM   22  C10 UNL     1       4.630   1.757   0.537  1.00  0.00     0.004 C 
HETATM   23  C11 UNL     1       5.301   2.350   1.520  1.00  0.00     0.215 C 
HETATM   24 CL1  UNL     1       6.638   2.267   2.661  1.00  0.00    -0.230 Cl
ENDBRANCH  21  22
ENDBRANCH  19  21
ENDBRANCH   4  19
TORSDOF 9
