REMARK  8 active torsions:
REMARK  status: ('A' for Active; 'I' for Inactive)
REMARK    1  A    between atoms: N1_7  and  C6_8 
REMARK    2  A    between atoms: C6_8  and  C7_9 
REMARK    3  A    between atoms: C7_9  and  C8_10 
REMARK    4  A    between atoms: C8_10  and  O2_11 
REMARK    5  A    between atoms: O2_11  and  C9_12 
REMARK    6  A    between atoms: C10_13  and  O3_14 
REMARK    7  A    between atoms: C15_21  and  N4_22 
REMARK    8  A    between atoms: N4_22  and  C16_23 
ROOT
HETATM    1  C9  UNL     1      -0.703  -2.581  -0.252  1.00  0.00     0.217 A 
HETATM    2  C10 UNL     1      -1.154  -3.878  -0.908  1.00  0.00     0.081 A 
HETATM    3  C12 UNL     1      -2.411  -3.876  -1.317  1.00  0.00     0.067 A 
HETATM    4  C13 UNL     1      -2.894  -2.553  -0.947  1.00  0.00     0.073 A 
HETATM    5  N2  UNL     1      -4.179  -2.150  -1.195  1.00  0.00    -0.241 NA
HETATM    6  C14 UNL     1      -4.577  -0.920  -0.818  1.00  0.00     0.235 A 
HETATM    7  N3  UNL     1      -3.653  -0.187  -0.218  1.00  0.00    -0.224 NA
HETATM    8  C15 UNL     1      -2.390  -0.541   0.044  1.00  0.00     0.141 A 
HETATM    9  C22 UNL     1      -1.922  -1.783  -0.318  1.00  0.00     0.052 A 
ENDROOT
BRANCH   1  10
HETATM   10  O2  UNL     1       0.389  -2.087  -0.955  1.00  0.00    -0.374 OA
BRANCH  10  11
HETATM   11  C8  UNL     1       1.559  -1.981  -0.258  1.00  0.00     0.170 C 
BRANCH  11  12
HETATM   12  C7  UNL     1       2.710  -1.546  -1.128  1.00  0.00     0.046 C 
BRANCH  12  13
HETATM   13  C6  UNL     1       2.583  -0.234  -1.797  1.00  0.00     0.124 C 
BRANCH  13  14
HETATM   14  N1  UNL     1       2.461   0.912  -0.928  1.00  0.00    -0.383 N 
HETATM   15  C2  UNL     1       1.397   1.824  -0.683  1.00  0.00     0.008 C 
HETATM   16  C1  UNL     1       0.432   1.697  -1.597  1.00  0.00     0.060 C 
HETATM   17  C3  UNL     1       1.643   2.669   0.524  1.00  0.00     0.219 C 
HETATM   18  O1  UNL     1       2.852   3.333   0.505  1.00  0.00    -0.384 OA
HETATM   19  C4  UNL     1       3.818   2.712  -0.255  1.00  0.00     0.187 C 
HETATM   20  C5  UNL     1       3.690   1.185  -0.157  1.00  0.00     0.148 C 
ENDBRANCH  13  14
ENDBRANCH  12  13
ENDBRANCH  11  12
ENDBRANCH  10  11
ENDBRANCH   1  10
BRANCH   2  21
HETATM   21  O3  UNL     1      -0.097  -4.808  -0.929  1.00  0.00    -0.357 OA
HETATM   22  C11 UNL     1       0.313  -5.527   0.214  1.00  0.00     0.209 C 
ENDBRANCH   2  21
BRANCH   8  23
HETATM   23  N4  UNL     1      -1.523   0.350   0.730  1.00  0.00    -0.340 N 
HETATM   24  H21 UNL     1      -0.528   0.047   0.957  1.00  0.00     0.167 HD
BRANCH  23  25
HETATM   25  C16 UNL     1      -1.863   1.639   1.151  1.00  0.00     0.035 A 
HETATM   26  C17 UNL     1      -2.846   2.450   0.624  1.00  0.00     0.032 A 
HETATM   27  C18 UNL     1      -3.156   3.708   1.093  1.00  0.00     0.046 A 
HETATM   28  C19 UNL     1      -2.444   4.207   2.163  1.00  0.00     0.138 A 
HETATM   29  F1  UNL     1      -2.735   5.445   2.640  1.00  0.00    -0.204 F 
HETATM   30  C20 UNL     1      -1.426   3.482   2.781  1.00  0.00     0.074 A 
HETATM   31 CL1  UNL     1      -0.500   4.067   4.129  1.00  0.00    -0.081 Cl
HETATM   32  C21 UNL     1      -1.215   2.251   2.224  1.00  0.00     0.056 A 
ENDBRANCH  23  25
ENDBRANCH   8  23
TORSDOF 8
