REMARK  5 active torsions:
REMARK  status: ('A' for Active; 'I' for Inactive)
REMARK    1  A    between atoms: C4_5  and  N1_6 
REMARK    2  A    between atoms: N1_6  and  C5_7 
REMARK    3  A    between atoms: C11_16  and  C12_17 
REMARK    4  A    between atoms: C12_17  and  C13_18 
REMARK    5  A    between atoms: C13_18  and  N4_19 
ROOT
HETATM    1  C5  UNL     1      -2.059  -0.776   0.886  1.00  0.00     0.141 A 
HETATM    2  N2  UNL     1      -1.662  -2.074   0.753  1.00  0.00    -0.224 NA
HETATM    3  C6  UNL     1      -0.367  -2.339   0.422  1.00  0.00     0.235 A 
HETATM    4  N3  UNL     1       0.495  -1.343   0.233  1.00  0.00    -0.243 NA
HETATM    5  C7  UNL     1       0.268  -0.045   0.323  1.00  0.00     0.079 A 
HETATM    6  C8  UNL     1      -1.071   0.160   0.664  1.00  0.00     0.039 A 
HETATM    7  C9  UNL     1      -1.580   1.532   0.869  1.00  0.00     0.041 A 
HETATM    8  C10 UNL     1      -0.695   2.500   0.710  1.00  0.00     0.137 A 
HETATM    9  O1  UNL     1       0.614   2.348   0.385  1.00  0.00    -0.351 OA
HETATM   10  C11 UNL     1       1.184   1.088   0.119  1.00  0.00     0.182 A 
ENDROOT
BRANCH   1  11
HETATM   11  N1  UNL     1      -3.399  -0.488   1.231  1.00  0.00    -0.340 N 
HETATM   12  H3  UNL     1      -3.317  -0.478   2.251  1.00  0.00     0.167 HD
BRANCH  11  13
HETATM   13  C4  UNL     1      -4.554  -0.266   0.440  1.00  0.00     0.035 A 
HETATM   14  C3  UNL     1      -4.463  -0.306  -0.925  1.00  0.00     0.032 A 
HETATM   15  C2  UNL     1      -5.643  -0.078  -1.637  1.00  0.00     0.046 A 
HETATM   16  C1  UNL     1      -6.801   0.168  -0.938  1.00  0.00     0.138 A 
HETATM   17  F1  UNL     1      -7.966   0.393  -1.612  1.00  0.00    -0.204 F 
HETATM   18  C19 UNL     1      -6.874   0.204   0.438  1.00  0.00     0.074 A 
HETATM   19  C18 UNL     1      -5.709  -0.021   1.144  1.00  0.00     0.056 A 
HETATM   20 CL1  UNL     1      -8.394   0.526   1.257  1.00  0.00    -0.081 Cl
ENDBRANCH  11  13
ENDBRANCH   1  11
BRANCH  10  21
HETATM   21  C12 UNL     1       1.809   1.058  -1.239  1.00  0.00     0.069 C 
BRANCH  21  22
HETATM   22  C13 UNL     1       2.615  -0.184  -1.435  1.00  0.00     0.275 C 
BRANCH  22  23
HETATM   23  N4  UNL     1       3.623  -0.232  -0.404  1.00  0.00     0.088 N 
HETATM   24  C14 UNL     1       4.640   0.762  -0.497  1.00  0.00     0.272 C 
HETATM   25  C15 UNL     1       5.641   0.221   0.536  1.00  0.00     0.032 C 
HETATM   26  C16 UNL     1       5.720  -1.230   0.063  1.00  0.00     0.032 C 
HETATM   27  C17 UNL     1       4.284  -1.523  -0.334  1.00  0.00     0.272 C 
ENDBRANCH  22  23
ENDBRANCH  21  22
ENDBRANCH  10  21
TORSDOF 5
