REMARK  8 active torsions:
REMARK  status: ('A' for Active; 'I' for Inactive)
REMARK    1  A    between atoms: C5_9  and  N3_10 
REMARK    2  A    between atoms: N3_10  and  C6_11 
REMARK    3  A    between atoms: C14_21  and  O2_22 
REMARK    4  A    between atoms: O2_22  and  C15_23 
REMARK    5  A    between atoms: C15_23  and  C16_24 
REMARK    6  A    between atoms: C16_24  and  O3_25 
REMARK    7  A    between atoms: C16_24  and  C17_26 
REMARK    8  A    between atoms: C17_26  and  N4_27 
ROOT
HETATM    1  C1  UNL     1       2.149  -2.046  -3.161  1.00  0.00     0.000 C 
HETATM    2  O1  UNL     1       0.754  -1.805  -3.106  1.00  0.00     0.000 OA
HETATM    3  C2  UNL     1       0.123  -1.205  -2.083  1.00  0.00    -0.068 A 
HETATM    4  B1  UNL     1      -1.105  -1.716  -3.380  1.00  0.00     0.254 B 
HETATM    5  C3  UNL     1      -2.664  -1.102  -2.826  1.00  0.00     0.003 A 
HETATM    6  N1  UNL     1      -3.823  -1.143  -3.563  1.00  0.00    -0.258 NA
HETATM    7  C4  UNL     1      -4.995  -0.640  -3.059  1.00  0.00     0.234 A 
HETATM    8  N2  UNL     1      -5.020  -0.084  -1.806  1.00  0.00    -0.224 NA
HETATM    9  C5  UNL     1      -3.991   0.038  -0.947  1.00  0.00     0.140 A 
HETATM   10  C12 UNL     1      -3.085  -0.529  -1.746  1.00  0.00     0.025 A 
HETATM   11  C13 UNL     1      -1.876  -0.329  -0.932  1.00  0.00     0.052 A 
HETATM   12  C14 UNL     1      -0.503  -0.582  -1.014  1.00  0.00     0.064 A 
ENDROOT
BRANCH  12  13
HETATM   13  O2  UNL     1       0.795  -0.548  -0.575  1.00  0.00    -0.349 OA
BRANCH  13  14
HETATM   14  C15 UNL     1       0.977   0.087   0.738  1.00  0.00     0.209 C 
BRANCH  14  15
HETATM   15  C16 UNL     1       2.482   0.042   1.008  1.00  0.00     0.160 C 
BRANCH  15  16
HETATM   16  O3  UNL     1       2.853  -1.273   0.883  1.00  0.00    -0.392 OA
HETATM   17  H13 UNL     1       2.444  -1.886   1.524  1.00  0.00     0.210 HD
ENDBRANCH  15  16
BRANCH  15  18
HETATM   18  C17 UNL     1       3.238   1.030   0.175  1.00  0.00     0.150 C 
BRANCH  18  19
HETATM   19  N4  UNL     1       4.597   0.943   0.483  1.00  0.00    -0.406 N 
HETATM   20  C18 UNL     1       5.386  -0.159   0.118  1.00  0.00     0.143 C 
HETATM   21  C19 UNL     1       6.017  -0.727   1.365  1.00  0.00     0.187 C 
HETATM   22  O4  UNL     1       6.333   0.289   2.284  1.00  0.00    -0.388 OA
HETATM   23  C20 UNL     1       6.589   1.496   1.666  1.00  0.00     0.187 C 
HETATM   24  C21 UNL     1       5.333   2.038   0.961  1.00  0.00     0.143 C 
ENDBRANCH  18  19
ENDBRANCH  15  18
ENDBRANCH  14  15
ENDBRANCH  13  14
ENDBRANCH  12  13
BRANCH   9  25
HETATM   25  N3  UNL     1      -4.112   0.555   0.334  1.00  0.00    -0.340 N 
HETATM   26  H5  UNL     1      -3.286   0.920   0.792  1.00  0.00     0.167 HD
BRANCH  25  27
HETATM   27  C6  UNL     1      -5.348   0.594   0.956  1.00  0.00     0.035 A 
HETATM   28  C7  UNL     1      -6.645   0.684   0.787  1.00  0.00     0.032 A 
HETATM   29  C8  UNL     1      -7.839   0.682   1.349  1.00  0.00     0.046 A 
HETATM   30  C9  UNL     1      -7.480   0.510   2.660  1.00  0.00     0.138 A 
HETATM   31  F1  UNL     1      -8.533   0.443   3.586  1.00  0.00    -0.204 F 
HETATM   32  C10 UNL     1      -6.275   0.358   3.432  1.00  0.00     0.074 A 
HETATM   33 CL1  UNL     1      -5.923   0.136   5.093  1.00  0.00    -0.081 Cl
HETATM   34  C11 UNL     1      -5.244   0.422   2.389  1.00  0.00     0.056 A 
ENDBRANCH  25  27
ENDBRANCH   9  25
TORSDOF 8
