REMARK  5 active torsions:
REMARK  status: ('A' for Active; 'I' for Inactive)
REMARK    1  A    between atoms: C3_4  and  C4_5 
REMARK    2  A    between atoms: C5_6  and  C6_7 
REMARK    3  A    between atoms: C7_8  and  C9_11 
REMARK    4  A    between atoms: C9_11  and  N2_12 
REMARK    5  A    between atoms: N2_12  and  C10_13 
ROOT
HETATM    1  C6  UNL     1       1.566  -0.030  -0.610  1.00  0.00     0.088 C 
HETATM    2  C7  UNL     1       0.588   0.307   0.214  1.00  0.00     0.089 C 
HETATM    3  C8  UNL     1       0.892   1.332   1.171  1.00  0.00     0.101 C 
HETATM    4  N1  UNL     1       1.136   2.167   1.963  1.00  0.00    -0.191 NA
ENDROOT
BRANCH   2   5
HETATM    5  C9  UNL     1      -0.786  -0.295   0.217  1.00  0.00     0.193 C 
HETATM    6  C16 UNL     1      -0.741  -1.313  -0.899  1.00  0.00     0.037 C 
HETATM    7  C17 UNL     1      -0.482  -2.511  -0.337  1.00  0.00     0.000 C 
HETATM    8  C18 UNL     1      -0.357  -2.274   1.147  1.00  0.00     0.199 C 
HETATM    9  O1  UNL     1      -0.995  -1.051   1.350  1.00  0.00    -0.348 OA
BRANCH   5  10
HETATM   10  N2  UNL     1      -1.801   0.666  -0.071  1.00  0.00    -0.351 N 
HETATM   11  H6  UNL     1      -1.476   1.651  -0.252  1.00  0.00     0.163 HD
BRANCH  10  12
HETATM   12  C10 UNL     1      -3.211   0.532  -0.159  1.00  0.00     0.030 A 
HETATM   13  C11 UNL     1      -4.106   1.565  -0.454  1.00  0.00     0.029 A 
HETATM   14  C12 UNL     1      -5.439   1.277  -0.501  1.00  0.00     0.002 A 
HETATM   15  C13 UNL     1      -5.954   0.021  -0.274  1.00  0.00     0.000 A 
HETATM   16  C14 UNL     1      -5.070  -0.997   0.017  1.00  0.00     0.002 A 
HETATM   17  C15 UNL     1      -3.725  -0.746   0.073  1.00  0.00     0.029 A 
ENDBRANCH  10  12
ENDBRANCH   5  10
ENDBRANCH   2   5
BRANCH   1  18
HETATM   18  C5  UNL     1       2.791   0.692  -0.414  1.00  0.00    -0.072 C 
HETATM   19  C4  UNL     1       3.834   1.319  -0.264  1.00  0.00    -0.071 C 
BRANCH  19  20
HETATM   20  C3  UNL     1       5.051   2.065  -0.108  1.00  0.00     0.102 C 
HETATM   21  C2  UNL     1       6.200   1.420  -0.243  1.00  0.00     0.098 C 
HETATM   22  C1  UNL     1       6.247  -0.032  -0.547  1.00  0.00     0.082 C 
HETATM   23  F1  UNL     1       7.390   2.058  -0.111  1.00  0.00    -0.211 F 
ENDBRANCH  19  20
ENDBRANCH   1  18
TORSDOF 5
