REMARK  4 active torsions:
REMARK  status: ('A' for Active; 'I' for Inactive)
REMARK    1  A    between atoms: B1_2  and  O1_3 
REMARK    2  A    between atoms: O1_3  and  C2_4 
REMARK    3  A    between atoms: C2_4  and  C3_5 
REMARK    4  A    between atoms: C11_14  and  C12_15 
ROOT
HETATM    1  C3  UNL     1       1.842   1.291   0.054  1.00  0.00     0.040 C 
HETATM    2 CL1  UNL     1       1.983   3.036   0.145  1.00  0.00    -0.086 Cl
HETATM    3  C4  UNL     1       0.813   0.623   0.569  1.00  0.00    -0.015 C 
HETATM    4  C5  UNL     1       0.843  -0.834   0.409  1.00  0.00     0.058 C 
HETATM    5  C6  UNL     1      -0.323  -1.545   1.057  1.00  0.00     0.011 C 
HETATM    6  C7  UNL     1      -0.018  -2.924   1.536  1.00  0.00     0.025 C 
HETATM    7  C8  UNL     1      -1.399  -1.627  -0.010  1.00  0.00    -0.010 C 
HETATM    8  C9  UNL     1      -2.085  -0.673  -0.683  1.00  0.00     0.026 C 
HETATM    9  C10 UNL     1      -2.229   0.781  -0.395  1.00  0.00     0.029 C 
HETATM   10  C11 UNL     1      -3.336   1.368  -0.813  1.00  0.00     0.031 C 
HETATM   11  N1  UNL     1      -1.346   1.706   0.288  1.00  0.00    -0.364 N 
HETATM   12  C14 UNL     1      -0.255   1.448   1.251  1.00  0.00     0.236 C 
HETATM   13  N2  UNL     1      -0.706   0.558   2.305  1.00  0.00    -0.274 NA
HETATM   14  C15 UNL     1      -0.916  -0.692   2.131  1.00  0.00     0.100 C 
HETATM   15  H15 UNL     1      -1.567   2.687   0.014  1.00  0.00     0.162 HD
ENDROOT
BRANCH   1  16
HETATM   16  C2  UNL     1       2.963   0.632  -0.641  1.00  0.00     0.194 C 
BRANCH  16  17
HETATM   17  O1  UNL     1       4.155   0.940   0.065  1.00  0.00    -0.449 OA
BRANCH  17  18
HETATM   18  B1  UNL     1       5.645   0.372  -0.428  1.00  0.00     0.342 B 
HETATM   19  C1  UNL     1       7.262   0.035  -1.151  1.00  0.00    -0.056 C 
ENDBRANCH  17  18
ENDBRANCH  16  17
ENDBRANCH   1  16
BRANCH  10  20
HETATM   20  C12 UNL     1      -4.399   0.679  -1.526  1.00  0.00     0.032 C 
HETATM   21  C13 UNL     1      -5.491   1.325  -1.922  1.00  0.00     0.188 C 
HETATM   22  F1  UNL     1      -6.534   0.813  -2.581  1.00  0.00    -0.219 F 
ENDBRANCH  10  20
TORSDOF 4
