REMARK  3 active torsions:
REMARK  status: ('A' for Active; 'I' for Inactive)
REMARK    1  A    between atoms: O1_2  and  C2_3 
REMARK    2  A    between atoms: N3_10  and  C7_11 
REMARK    3  A    between atoms: C13_18  and  O2_19 
ROOT
HETATM    1  C2  UNL     1      -2.047  -0.650   0.048  1.00  0.00     0.131 C 
HETATM    2  C3  UNL     1      -1.599  -1.760   0.579  1.00  0.00     0.079 C 
HETATM    3  C4  UNL     1      -1.936  -3.121   0.941  1.00  0.00     0.099 C 
HETATM    4  N1  UNL     1      -0.803  -3.593   1.449  1.00  0.00    -0.258 NA
HETATM    5  C5  UNL     1       0.314  -2.669   1.475  1.00  0.00     0.227 C 
HETATM    6  N2  UNL     1       0.400  -2.541   0.197  1.00  0.00    -0.264 NA
HETATM    7  C6  UNL     1       1.332  -1.729  -0.507  1.00  0.00     0.270 C 
HETATM    8  N3  UNL     1       1.305  -0.364  -0.150  1.00  0.00    -0.382 N 
HETATM    9  C12 UNL     1       0.289   0.229   0.572  1.00  0.00     0.154 C 
HETATM   10  C13 UNL     1      -1.071   0.419   0.000  1.00  0.00     0.176 C 
ENDROOT
BRANCH   8  11
HETATM   11  C7  UNL     1       2.216   0.398  -0.900  1.00  0.00     0.128 A 
HETATM   12  C8  UNL     1       2.234   1.847  -0.568  1.00  0.00     0.003 A 
HETATM   13  C9  UNL     1       3.450   2.250  -0.231  1.00  0.00     0.017 A 
HETATM   14  C10 UNL     1       4.358   1.110  -0.306  1.00  0.00     0.009 A 
HETATM   15 BR1  UNL     1       6.223   1.151   0.080  1.00  0.00    -0.051 Br
HETATM   16  C11 UNL     1       3.655   0.045  -0.689  1.00  0.00     0.021 A 
ENDBRANCH   8  11
BRANCH  10  17
HETATM   17  O2  UNL     1      -1.036   1.152  -1.192  1.00  0.00    -0.386 OA
HETATM   18  C14 UNL     1      -1.518   2.437  -1.081  1.00  0.00     0.202 C 
ENDBRANCH  10  17
BRANCH   1  19
HETATM   19  O1  UNL     1      -3.206  -0.043  -0.542  1.00  0.00    -0.378 OA
HETATM   20  C1  UNL     1      -4.223   0.439   0.332  1.00  0.00     0.202 C 
ENDBRANCH   1  19
TORSDOF 3
