REMARK  7 active torsions:
REMARK  status: ('A' for Active; 'I' for Inactive)
REMARK    1  A    between atoms: O1_2  and  C2_3 
REMARK    2  A    between atoms: C5_9  and  N4_10 
REMARK    3  A    between atoms: N4_10  and  C6_11 
REMARK    4  A    between atoms: C14_21  and  O2_22 
REMARK    5  A    between atoms: O2_22  and  C15_23 
REMARK    6  A    between atoms: C15_23  and  C16_24 
REMARK    7  A    between atoms: C16_24  and  N5_25 
ROOT
HETATM    1  C2  UNL     1       1.154   0.377   3.389  1.00  0.00     0.102 C 
HETATM    2  C3  UNL     1       2.152  -0.373   3.981  1.00  0.00     0.060 C 
HETATM    3  C4  UNL     1       3.156  -0.986   3.249  1.00  0.00     0.145 C 
HETATM    4  N1  UNL     1       4.320  -0.687   2.608  1.00  0.00    -0.143 NA
HETATM    5  N2  UNL     1       4.427   0.556   2.152  1.00  0.00    -0.042 NA
HETATM    6  N3  UNL     1       3.968   0.877   0.956  1.00  0.00    -0.112 NA
HETATM    7  C5  UNL     1       3.599  -0.067   0.094  1.00  0.00     0.151 C 
HETATM    8  C12 UNL     1       2.248  -0.379  -0.010  1.00  0.00     0.055 C 
HETATM    9  C13 UNL     1       1.428  -0.151   1.075  1.00  0.00     0.043 C 
HETATM   10  C14 UNL     1       0.612   0.056   2.165  1.00  0.00     0.102 C 
ENDROOT
BRANCH   7  11
HETATM   11  N4  UNL     1       4.423  -0.836  -0.774  1.00  0.00    -0.340 N 
HETATM   12  H6  UNL     1       4.866  -1.753  -0.544  1.00  0.00     0.167 HD
BRANCH  11  13
HETATM   13  C6  UNL     1       4.677  -0.325  -2.075  1.00  0.00     0.035 A 
HETATM   14  C7  UNL     1       5.459  -0.975  -3.008  1.00  0.00     0.032 A 
HETATM   15  C8  UNL     1       5.714  -0.491  -4.276  1.00  0.00     0.046 A 
HETATM   16  C9  UNL     1       5.155   0.724  -4.646  1.00  0.00     0.138 A 
HETATM   17  F1  UNL     1       5.349   1.280  -5.871  1.00  0.00    -0.204 F 
HETATM   18  C10 UNL     1       4.375   1.411  -3.769  1.00  0.00     0.074 A 
HETATM   19 CL1  UNL     1       3.646   2.946  -4.185  1.00  0.00    -0.081 Cl
HETATM   20  C11 UNL     1       4.147   0.886  -2.507  1.00  0.00     0.056 A 
ENDBRANCH  11  13
ENDBRANCH   7  11
BRANCH  10  21
HETATM   21  O2  UNL     1      -0.765  -0.058   2.039  1.00  0.00    -0.347 OA
BRANCH  21  22
HETATM   22  C15 UNL     1      -1.411  -0.379   0.845  1.00  0.00     0.206 C 
BRANCH  22  23
HETATM   23  C16 UNL     1      -2.897  -0.404   1.123  1.00  0.00     0.299 C 
BRANCH  23  24
HETATM   24  N5  UNL     1      -3.664  -0.731  -0.066  1.00  0.00     0.093 N 
HETATM   25  C17 UNL     1      -5.053  -0.732   0.292  1.00  0.00     0.302 C 
HETATM   26  C18 UNL     1      -5.698   0.485  -0.339  1.00  0.00     0.302 C 
HETATM   27  N6  UNL     1      -5.663   0.300  -1.767  1.00  0.00     0.087 N 
HETATM   28  C19 UNL     1      -6.298  -0.973  -2.074  1.00  0.00     0.310 C 
HETATM   29  C20 UNL     1      -4.294   0.257  -2.225  1.00  0.00     0.302 C 
HETATM   30  C21 UNL     1      -3.292   0.179  -1.102  1.00  0.00     0.302 C 
ENDBRANCH  23  24
ENDBRANCH  22  23
ENDBRANCH  21  22
ENDBRANCH  10  21
BRANCH   1  31
HETATM   31  O1  UNL     1       0.596   1.519   3.950  1.00  0.00    -0.353 OA
HETATM   32  C1  UNL     1       0.977   2.049   5.185  1.00  0.00     0.210 C 
ENDBRANCH   1  31
TORSDOF 7
