REMARK  4 active torsions:
REMARK  status: ('A' for Active; 'I' for Inactive)
REMARK    1  A    between atoms: C2_2  and  N1_3 
REMARK    2  A    between atoms: C5_6  and  C6_7 
REMARK    3  A    between atoms: C6_7  and  O1_8 
REMARK    4  A    between atoms: O1_8  and  C7_9 
ROOT
HETATM    1  C7  UNL     1      -0.432  -0.158   0.142  1.00  0.00     0.357 C 
HETATM    2  C8  UNL     1      -1.367   0.464  -0.873  1.00  0.00     0.075 C 
HETATM    3  C9  UNL     1      -2.197   1.507  -0.382  1.00  0.00    -0.007 A 
HETATM    4  C10 UNL     1      -2.391   2.882  -0.183  1.00  0.00     0.044 A 
HETATM    5  C11 UNL     1      -3.788   2.950   0.505  1.00  0.00     0.102 A 
HETATM    6  N2  UNL     1      -4.744   3.680   1.026  1.00  0.00    -0.268 NA
HETATM    7  C12 UNL     1      -5.857   2.999   1.484  1.00  0.00     0.222 A 
HETATM    8  N3  UNL     1      -5.332   1.839   1.129  1.00  0.00    -0.266 NA
HETATM    9  C13 UNL     1      -4.178   1.523   0.556  1.00  0.00     0.118 A 
HETATM   10  C14 UNL     1      -3.021   2.263   0.078  1.00  0.00     0.038 A 
HETATM   11  C15 UNL     1      -4.365   0.011   0.506  1.00  0.00     0.214 A 
HETATM   12  C16 UNL     1      -4.578  -0.578   1.852  1.00  0.00     0.036 A 
HETATM   13  C17 UNL     1      -3.772  -1.354   2.622  1.00  0.00     0.187 A 
HETATM   14  F1  UNL     1      -3.709  -0.768   1.429  1.00  0.00    -0.374 F 
HETATM   15  C18 UNL     1      -2.612  -2.066   3.196  1.00  0.00     0.052 A 
HETATM   16 CL1  UNL     1      -4.035  -2.448   4.096  1.00  0.00    -0.134 Cl
HETATM   17  C19 UNL     1      -1.327  -2.261   3.071  1.00  0.00     0.026 C 
HETATM   18  C20 UNL     1      -0.412  -1.666   2.057  1.00  0.00     0.302 C 
HETATM   19  N4  UNL     1      -1.215  -0.746   1.241  1.00  0.00     0.115 N 
HETATM   20  H22 UNL     1      -1.412   0.112   1.894  1.00  0.00     0.319 HD
ENDROOT
BRANCH   1  21
HETATM   21  O1  UNL     1       0.461   0.754   0.625  1.00  0.00    -0.355 OA
BRANCH  21  22
HETATM   22  C6  UNL     1       1.782   0.594   0.535  1.00  0.00     0.206 C 
BRANCH  22  23
HETATM   23  C5  UNL     1       2.493   0.542  -0.767  1.00  0.00     0.247 C 
HETATM   24  C4  UNL     1       3.993   0.488  -0.460  1.00  0.00     0.057 C 
HETATM   25  C3  UNL     1       4.571  -0.857  -0.795  1.00  0.00     0.126 C 
HETATM   26  N1  UNL     1       4.420  -1.045  -2.220  1.00  0.00    -0.369 N 
HETATM   27  C21 UNL     1       3.128  -0.685  -2.716  1.00  0.00     0.394 C 
HETATM   28  N5  UNL     1       2.131  -0.513  -1.654  1.00  0.00     0.107 N 
HETATM   29  H23 UNL     1       1.262  -0.271  -2.175  1.00  0.00     0.318 HD
BRANCH  26  30
HETATM   30  C2  UNL     1       5.461  -1.542  -3.035  1.00  0.00     0.060 C 
HETATM   31  C1  UNL     1       6.082  -0.873  -3.988  1.00  0.00     0.049 C 
ENDBRANCH  26  30
ENDBRANCH  22  23
ENDBRANCH  21  22
ENDBRANCH   1  21
TORSDOF 4
