REMARK  4 active torsions:
REMARK  status: ('A' for Active; 'I' for Inactive)
REMARK    1  A    between atoms: O1_2  and  C2_3 
REMARK    2  A    between atoms: C4_5  and  N1_6 
REMARK    3  A    between atoms: C12_15  and  N3_16 
REMARK    4  A    between atoms: C16_22  and  N5_23 
ROOT
HETATM    1  C2  UNL     1       1.695  -0.334  -0.401  1.00  0.00     0.097 A 
HETATM    2  C3  UNL     1       0.386  -0.728  -0.215  1.00  0.00     0.068 A 
HETATM    3  C4  UNL     1      -0.532   0.071   0.426  1.00  0.00     0.033 A 
HETATM    4  C10 UNL     1      -0.086   1.289   0.878  1.00  0.00     0.032 A 
HETATM    5  C11 UNL     1       1.223   1.688   0.696  1.00  0.00     0.035 A 
HETATM    6  C12 UNL     1       2.148   0.889   0.052  1.00  0.00     0.075 A 
ENDROOT
BRANCH   6   7
HETATM    7  N3  UNL     1       3.496   1.310  -0.131  1.00  0.00    -0.287 N 
HETATM    8  C13 UNL     1       3.942   2.245  -1.014  1.00  0.00     0.216 A 
HETATM    9  N4  UNL     1       5.231   2.560  -1.100  1.00  0.00    -0.254 NA
HETATM   10  C14 UNL     1       6.142   1.960  -0.312  1.00  0.00     0.145 A 
HETATM   11  C15 UNL     1       5.746   1.009   0.596  1.00  0.00     0.097 A 
HETATM   12 CL1  UNL     1       6.962   0.252   1.604  1.00  0.00    -0.079 Cl
HETATM   13  C16 UNL     1       4.399   0.699   0.666  1.00  0.00     0.151 A 
BRANCH  13  14
HETATM   14  N5  UNL     1       4.124  -0.214   1.558  1.00  0.00    -0.282 NA
HETATM   15  H20 UNL     1       3.114  -0.470   1.635  1.00  0.00     0.188 HD
ENDBRANCH  13  14
ENDBRANCH   6   7
BRANCH   1  16
HETATM   16  O1  UNL     1       2.621  -1.132  -1.044  1.00  0.00    -0.354 OA
HETATM   17  C1  UNL     1       2.333  -2.419  -1.574  1.00  0.00     0.210 C 
ENDBRANCH   1  16
BRANCH   3  18
HETATM   18  N1  UNL     1      -1.877  -0.337   0.614  1.00  0.00    -0.377 N 
HETATM   19  C5  UNL     1      -2.493  -1.558   0.192  1.00  0.00     0.153 C 
HETATM   20  C6  UNL     1      -3.726  -1.381  -0.662  1.00  0.00     0.291 C 
HETATM   21  N2  UNL     1      -4.702  -0.690   0.119  1.00  0.00     0.087 N 
HETATM   22  C7  UNL     1      -5.946  -0.446  -0.584  1.00  0.00     0.310 C 
HETATM   23  C8  UNL     1      -4.124   0.630   0.409  1.00  0.00     0.291 C 
HETATM   24  C9  UNL     1      -2.911   0.404   1.277  1.00  0.00     0.153 C 
ENDBRANCH   3  18
TORSDOF 4
