REMARK  6 active torsions:
REMARK  status: ('A' for Active; 'I' for Inactive)
REMARK    1  A    between atoms: O1_2  and  C2_3 
REMARK    2  A    between atoms: C6_9  and  N3_10 
REMARK    3  A    between atoms: C14_20  and  O2_21 
REMARK    4  A    between atoms: O2_21  and  C15_22 
REMARK    5  A    between atoms: C15_22  and  C16_23 
REMARK    6  A    between atoms: C16_23  and  N4_24 
ROOT
HETATM    1  C2  UNL     1      -1.502  -3.245  -0.719  1.00  0.00     0.103 A 
HETATM    2  C3  UNL     1      -2.861  -3.455  -0.450  1.00  0.00     0.072 A 
HETATM    3  C4  UNL     1      -3.644  -2.376  -0.118  1.00  0.00     0.075 A 
HETATM    4  N1  UNL     1      -4.955  -2.494   0.146  1.00  0.00    -0.241 NA
HETATM    5  C5  UNL     1      -5.682  -1.382   0.463  1.00  0.00     0.236 A 
HETATM    6  N2  UNL     1      -5.125  -0.137   0.525  1.00  0.00    -0.223 NA
HETATM    7  C6  UNL     1      -3.809   0.008   0.265  1.00  0.00     0.145 A 
HETATM    8  C12 UNL     1      -3.112  -1.110  -0.048  1.00  0.00     0.042 A 
HETATM    9  C13 UNL     1      -1.786  -0.951  -0.317  1.00  0.00     0.057 A 
HETATM   10  C14 UNL     1      -0.926  -1.970  -0.657  1.00  0.00     0.103 A 
ENDROOT
BRANCH  10  11
HETATM   11  O2  UNL     1       0.384  -2.015  -0.951  1.00  0.00    -0.347 OA
BRANCH  11  12
HETATM   12  C15 UNL     1       1.387  -1.083  -1.019  1.00  0.00     0.206 C 
BRANCH  12  13
HETATM   13  C16 UNL     1       1.642  -0.416   0.307  1.00  0.00     0.299 C 
BRANCH  13  14
HETATM   14  N4  UNL     1       2.718   0.571   0.206  1.00  0.00     0.093 N 
HETATM   15  C17 UNL     1       2.866   1.138   1.539  1.00  0.00     0.302 C 
HETATM   16  C18 UNL     1       3.952   2.189   1.576  1.00  0.00     0.302 C 
HETATM   17  N5  UNL     1       5.176   1.723   0.970  1.00  0.00     0.087 N 
HETATM   18  C19 UNL     1       5.513   2.521  -0.175  1.00  0.00     0.310 C 
HETATM   19  C20 UNL     1       5.120   0.314   0.637  1.00  0.00     0.302 C 
HETATM   20  C21 UNL     1       3.951  -0.049  -0.243  1.00  0.00     0.302 C 
ENDBRANCH  13  14
ENDBRANCH  12  13
ENDBRANCH  11  12
ENDBRANCH  10  11
BRANCH   1  21
HETATM   21  O1  UNL     1      -0.805  -4.406  -1.044  1.00  0.00    -0.353 OA
HETATM   22  C1  UNL     1      -1.430  -5.647  -1.090  1.00  0.00     0.210 C 
ENDBRANCH   1  21
BRANCH   7  23
HETATM   23  N3  UNL     1      -3.354   1.346   0.392  1.00  0.00    -0.316 N 
HETATM   24  C7  UNL     1      -3.886   2.137  -0.691  1.00  0.00     0.095 A 
HETATM   25  C8  UNL     1      -3.612   3.424  -0.832  1.00  0.00     0.020 A 
HETATM   26  C9  UNL     1      -2.750   4.140   0.099  1.00  0.00     0.042 A 
HETATM   27  C10 UNL     1      -2.307   3.369   1.050  1.00  0.00     0.131 A 
HETATM   28  F1  UNL     1      -1.480   3.929   1.995  1.00  0.00    -0.207 F 
HETATM   29  C11 UNL     1      -2.492   1.938   1.394  1.00  0.00     0.249 A 
HETATM   30 CL1  UNL     1      -3.361   1.818   2.973  1.00  0.00    -0.094 Cl
ENDBRANCH   7  23
TORSDOF 6
