REMARK  2 active torsions:
REMARK  status: ('A' for Active; 'I' for Inactive)
REMARK    1  A    between atoms: O1_2  and  C2_3 
REMARK    2  A    between atoms: C14_18  and  P1_19 
ROOT
HETATM    1  C2  UNL     1      -0.563  -0.870  -0.107  1.00  0.00     0.079 A 
HETATM    2  C3  UNL     1       0.388  -0.907  -1.026  1.00  0.00     0.047 A 
HETATM    3  C4  UNL     1       1.704  -0.310  -0.957  1.00  0.00    -0.024 A 
HETATM    4  C5  UNL     1       2.641  -0.347  -1.871  1.00  0.00     0.053 A 
HETATM    5  N1  UNL     1       3.977   0.199  -1.925  1.00  0.00    -0.354 N 
HETATM    6  C6  UNL     1       4.168  -0.333  -3.207  1.00  0.00     0.047 A 
HETATM    7  C7  UNL     1       5.040  -0.467  -4.267  1.00  0.00     0.033 A 
HETATM    8  C8  UNL     1       4.673  -1.165  -5.395  1.00  0.00     0.046 A 
HETATM    9  C9  UNL     1       3.404  -1.708  -5.393  1.00  0.00     0.139 A 
HETATM   10  F1  UNL     1       3.040  -2.396  -6.501  1.00  0.00    -0.204 F 
HETATM   11  C10 UNL     1       2.573  -1.541  -4.301  1.00  0.00     0.087 A 
HETATM   12 CL1  UNL     1       1.019  -2.276  -4.446  1.00  0.00    -0.080 Cl
HETATM   13  C11 UNL     1       2.915  -0.858  -3.182  1.00  0.00     0.043 A 
HETATM   14  C12 UNL     1       1.990   0.422   0.306  1.00  0.00     0.069 A 
HETATM   15  C13 UNL     1       0.866   0.404   1.265  1.00  0.00    -0.007 A 
HETATM   16  C14 UNL     1      -0.310  -0.160   1.139  1.00  0.00    -0.001 A 
HETATM   17  H5  UNL     1       4.585   0.775  -1.268  1.00  0.00     0.166 HD
ENDROOT
BRANCH   1  18
HETATM   18  O1  UNL     1      -1.784  -1.468  -0.262  1.00  0.00    -0.355 OA
HETATM   19  C1  UNL     1      -2.425  -1.370  -1.521  1.00  0.00     0.210 C 
ENDBRANCH   1  18
BRANCH  16  20
HETATM   20  P1  UNL     1      -1.555  -0.061   2.452  1.00  0.00    -0.073 P 
HETATM   21  C15 UNL     1      -0.821   0.567   4.050  1.00  0.00     0.059 C 
HETATM   22  C16 UNL     1      -1.613   1.854   4.330  1.00  0.00     0.118 C 
HETATM   23  N2  UNL     1      -2.969   1.446   4.533  1.00  0.00    -0.420 N 
HETATM   24  C17 UNL     1      -3.747   1.259   3.352  1.00  0.00     0.123 C 
HETATM   25  H15 UNL     1      -3.058   0.714   5.252  1.00  0.00     0.153 HD
HETATM   26  C18 UNL     1      -2.939   1.117   2.079  1.00  0.00     0.032 C 
HETATM   27  C19 UNL     1      -3.856   0.583   1.004  1.00  0.00     0.017 C 
ENDBRANCH  16  20
TORSDOF 2
