REMARK  7 active torsions:
REMARK  status: ('A' for Active; 'I' for Inactive)
REMARK    1  A    between atoms: O1_2  and  C2_3 
REMARK    2  A    between atoms: C6_9  and  N2_10 
REMARK    3  A    between atoms: N2_10  and  C7_11 
REMARK    4  A    between atoms: C15_21  and  O2_22 
REMARK    5  A    between atoms: O2_22  and  C16_23 
REMARK    6  A    between atoms: C16_23  and  C17_24 
REMARK    7  A    between atoms: C17_24  and  N3_25 
ROOT
HETATM    1  C2  UNL     1      -0.395  -3.519   0.122  1.00  0.00     0.097 C 
HETATM    2  C3  UNL     1      -1.556  -4.142  -0.005  1.00  0.00     0.012 C 
HETATM    3  C4  UNL     1      -2.827  -3.458   0.173  1.00  0.00     0.007 C 
HETATM    4  B1  UNL     1      -3.968  -3.795  -1.063  1.00  0.00     0.225 B 
HETATM    5  C5  UNL     1      -5.603  -2.552   0.012  1.00  0.00    -0.003 C 
HETATM    6  N1  UNL     1      -4.943  -1.543  -0.159  1.00  0.00    -0.247 NA
HETATM    7  C6  UNL     1      -3.629  -1.186   0.153  1.00  0.00     0.133 C 
HETATM    8  C13 UNL     1      -2.575  -2.004   0.325  1.00  0.00    -0.011 C 
HETATM    9  C14 UNL     1      -1.345  -1.286   0.533  1.00  0.00     0.050 C 
HETATM   10  C15 UNL     1      -0.275  -2.095   0.406  1.00  0.00     0.102 C 
ENDROOT
BRANCH   7  11
HETATM   11  N2  UNL     1      -3.508   0.250   0.285  1.00  0.00    -0.341 N 
HETATM   12  H6  UNL     1      -2.935   0.913   0.889  1.00  0.00     0.167 HD
BRANCH  11  13
HETATM   13  C7  UNL     1      -4.230   1.211  -0.470  1.00  0.00     0.035 A 
HETATM   14  C8  UNL     1      -3.877   1.807  -1.663  1.00  0.00     0.032 A 
HETATM   15  C9  UNL     1      -4.698   2.731  -2.273  1.00  0.00     0.046 A 
HETATM   16  C10 UNL     1      -5.908   3.081  -1.688  1.00  0.00     0.138 A 
HETATM   17  F1  UNL     1      -6.756   3.980  -2.238  1.00  0.00    -0.204 F 
HETATM   18  C11 UNL     1      -6.316   2.516  -0.491  1.00  0.00     0.074 A 
HETATM   19 CL1  UNL     1      -7.841   2.924   0.294  1.00  0.00    -0.081 Cl
HETATM   20  C12 UNL     1      -5.456   1.593   0.083  1.00  0.00     0.056 A 
ENDBRANCH  11  13
ENDBRANCH   7  11
BRANCH  10  21
HETATM   21  O2  UNL     1       1.009  -1.611   0.540  1.00  0.00    -0.347 OA
BRANCH  21  22
HETATM   22  C16 UNL     1       1.172  -0.245   0.872  1.00  0.00     0.206 C 
BRANCH  22  23
HETATM   23  C17 UNL     1       2.660  -0.019   1.006  1.00  0.00     0.299 C 
BRANCH  23  24
HETATM   24  N3  UNL     1       3.039   1.312   1.340  1.00  0.00     0.093 N 
HETATM   25  C18 UNL     1       2.820   2.302   0.340  1.00  0.00     0.302 C 
HETATM   26  C19 UNL     1       3.604   2.094  -0.927  1.00  0.00     0.302 C 
HETATM   27  N4  UNL     1       4.845   1.438  -0.613  1.00  0.00     0.087 N 
HETATM   28  C20 UNL     1       5.880   1.884  -1.548  1.00  0.00     0.310 C 
HETATM   29  C21 UNL     1       5.363   1.747   0.704  1.00  0.00     0.302 C 
HETATM   30  C22 UNL     1       4.396   1.334   1.793  1.00  0.00     0.302 C 
ENDBRANCH  23  24
ENDBRANCH  22  23
ENDBRANCH  21  22
ENDBRANCH  10  21
BRANCH   1  31
HETATM   31  O1  UNL     1       0.717  -4.327  -0.060  1.00  0.00    -0.353 OA
HETATM   32  C1  UNL     1       0.875  -5.574   0.590  1.00  0.00     0.210 C 
ENDBRANCH   1  31
TORSDOF 7
