REMARK  6 active torsions:
REMARK  status: ('A' for Active; 'I' for Inactive)
REMARK    1  A    between atoms: C3_3  and  C4_5 
REMARK    2  A    between atoms: C8_9  and  C9_11 
REMARK    3  A    between atoms: C9_11  and  O1_12 
REMARK    4  A    between atoms: O1_12  and  C10_13 
REMARK    5  A    between atoms: C10_13  and  C11_14 
REMARK    6  A    between atoms: C11_14  and  N1_15 
ROOT
HETATM    1  C4  UNL     1       5.118   0.144  -0.835  1.00  0.00     0.104 A 
HETATM    2  C5  UNL     1       3.913  -0.154  -1.254  1.00  0.00    -0.002 A 
HETATM    3  C6  UNL     1       3.588  -0.374  -2.652  1.00  0.00     0.053 C 
HETATM    4  C7  UNL     1       2.800  -0.288  -0.328  1.00  0.00     0.061 A 
HETATM    5  C8  UNL     1       1.557  -0.584  -0.665  1.00  0.00     0.062 C 
HETATM    6 CL1  UNL     1       0.828  -0.905  -2.235  1.00  0.00    -0.084 Cl
HETATM    7  N3  UNL     1       3.005  -0.095   1.064  1.00  0.00    -0.349 N 
HETATM    8  C17 UNL     1       4.340   0.226   1.439  1.00  0.00     0.208 A 
HETATM    9  N4  UNL     1       5.249   0.320   0.542  1.00  0.00    -0.240 NA
HETATM   10  H25 UNL     1       2.398  -0.135   1.883  1.00  0.00     0.166 HD
ENDROOT
BRANCH   5  11
HETATM   11  C9  UNL     1       0.367  -0.743   0.158  1.00  0.00     0.221 C 
BRANCH  11  12
HETATM   12  O1  UNL     1      -0.685   0.132  -0.140  1.00  0.00    -0.384 OA
BRANCH  12  13
HETATM   13  C10 UNL     1      -1.687  -0.213   0.766  1.00  0.00     0.198 C 
BRANCH  13  14
HETATM   14  C11 UNL     1      -2.919   0.624   0.608  1.00  0.00     0.298 C 
BRANCH  14  15
HETATM   15  N1  UNL     1      -3.566   0.570  -0.649  1.00  0.00     0.093 N 
HETATM   16  C12 UNL     1      -4.728   1.433  -0.622  1.00  0.00     0.302 C 
HETATM   17  C13 UNL     1      -6.027   0.715  -0.797  1.00  0.00     0.302 C 
HETATM   18  N2  UNL     1      -6.117  -0.525  -0.072  1.00  0.00     0.087 N 
HETATM   19  C14 UNL     1      -6.566  -0.376   1.280  1.00  0.00     0.310 C 
HETATM   20  C15 UNL     1      -4.963  -1.356  -0.160  1.00  0.00     0.302 C 
HETATM   21  C16 UNL     1      -3.948  -0.741  -1.092  1.00  0.00     0.302 C 
ENDBRANCH  14  15
ENDBRANCH  13  14
ENDBRANCH  12  13
ENDBRANCH  11  12
ENDBRANCH   5  11
BRANCH   1  22
HETATM   22  C3  UNL     1       6.296   0.302  -1.669  1.00  0.00     0.141 C 
HETATM   23  C2  UNL     1       7.473   0.608  -1.128  1.00  0.00     0.014 C 
HETATM   24  C1  UNL     1       8.103   0.877   0.160  1.00  0.00     0.039 C 
HETATM   25  F1  UNL     1       6.455   0.194  -3.009  1.00  0.00    -0.204 F 
ENDBRANCH   1  22
TORSDOF 6
