REMARK  5 active torsions:
REMARK  status: ('A' for Active; 'I' for Inactive)
REMARK    1  A    between atoms: O1_2  and  C2_3 
REMARK    2  A    between atoms: C5_6  and  N1_7 
REMARK    3  A    between atoms: N1_7  and  C6_8 
REMARK    4  A    between atoms: C9_11  and  C10_12 
REMARK    5  A    between atoms: C17_22  and  O2_23 
ROOT
HETATM    1  C2  UNL     1      -3.857  -0.110  -0.288  1.00  0.00     0.102 A 
HETATM    2  C3  UNL     1      -2.502   0.138  -0.244  1.00  0.00     0.057 A 
HETATM    3  C4  UNL     1      -1.599  -0.571   0.509  1.00  0.00     0.041 A 
HETATM    4  C5  UNL     1      -0.266  -0.222   0.466  1.00  0.00     0.138 A 
HETATM    5  N2  UNL     1       0.523  -0.983   1.242  1.00  0.00    -0.224 NA
HETATM    6  C14 UNL     1       0.051  -1.990   1.990  1.00  0.00     0.235 A 
HETATM    7  N3  UNL     1      -1.273  -2.315   2.016  1.00  0.00    -0.241 NA
HETATM    8  C15 UNL     1      -2.139  -1.594   1.259  1.00  0.00     0.075 A 
HETATM    9  C16 UNL     1      -3.487  -1.887   1.254  1.00  0.00     0.072 A 
HETATM   10  C17 UNL     1      -4.368  -1.156   0.485  1.00  0.00     0.101 A 
ENDROOT
BRANCH   4  11
HETATM   11  N1  UNL     1       0.269   0.827  -0.306  1.00  0.00    -0.362 N 
HETATM   12  H5  UNL     1      -0.268   1.462  -0.931  1.00  0.00     0.162 HD
BRANCH  11  13
HETATM   13  C6  UNL     1       1.688   1.073  -0.249  1.00  0.00     0.136 C 
HETATM   14  C7  UNL     1       2.156   1.402   1.118  1.00  0.00     0.015 C 
HETATM   15  C8  UNL     1       3.431   1.749   1.162  1.00  0.00    -0.020 C 
HETATM   16  C9  UNL     1       4.269   1.051   0.415  1.00  0.00    -0.037 C 
HETATM   17  C11 UNL     1       3.786  -0.080  -0.366  1.00  0.00     0.013 C 
HETATM   18  C12 UNL     1       2.488  -0.092  -0.714  1.00  0.00    -0.057 C 
HETATM   19  C13 UNL     1       2.027  -1.264  -1.512  1.00  0.00     0.046 C 
BRANCH  16  20
HETATM   20  C10 UNL     1       5.696   1.397   0.358  1.00  0.00     0.124 C 
HETATM   21 BR1  UNL     1       6.718  -0.141   0.987  1.00  0.00    -0.091 Br
ENDBRANCH  16  20
ENDBRANCH  11  13
ENDBRANCH   4  11
BRANCH   1  22
HETATM   22  O1  UNL     1      -4.774   0.591  -1.038  1.00  0.00    -0.353 OA
HETATM   23  C1  UNL     1      -4.380   1.683  -1.871  1.00  0.00     0.210 C 
ENDBRANCH   1  22
BRANCH  10  24
HETATM   24  O2  UNL     1      -5.719  -1.473   0.500  1.00  0.00    -0.358 OA
HETATM   25  H16 UNL     1      -6.377  -0.694   0.627  1.00  0.00     0.217 HD
ENDBRANCH  10  24
TORSDOF 5
