REMARK  4 active torsions:
REMARK  status: ('A' for Active; 'I' for Inactive)
REMARK    1  A    between atoms: O1_2  and  C2_3 
REMARK    2  A    between atoms: C4_5  and  N1_6 
REMARK    3  A    between atoms: C12_15  and  N3_16 
REMARK    4  A    between atoms: N3_16  and  C13_17 
ROOT
HETATM    1  C2  UNL     1       1.308  -1.181  -0.769  1.00  0.00     0.097 A 
HETATM    2  C3  UNL     1      -0.046  -1.012  -0.684  1.00  0.00     0.068 A 
HETATM    3  C4  UNL     1      -0.622   0.081  -0.106  1.00  0.00     0.033 A 
HETATM    4  C10 UNL     1       0.223   1.042   0.407  1.00  0.00     0.032 A 
HETATM    5  C11 UNL     1       1.579   0.856   0.312  1.00  0.00     0.035 A 
HETATM    6  C12 UNL     1       2.207  -0.232  -0.264  1.00  0.00     0.082 A 
ENDROOT
BRANCH   6   7
HETATM    7  N3  UNL     1       3.596  -0.376  -0.336  1.00  0.00    -0.185 N 
HETATM    8  H18 UNL     1       3.893  -1.265  -0.807  1.00  0.00     0.184 HD
BRANCH   7   9
HETATM    9  C13 UNL     1       4.620   0.483   0.122  1.00  0.00     0.726 A 
HETATM   10  N4  UNL     1       4.442   1.656   0.744  1.00  0.00    -0.073 NA
HETATM   11  C14 UNL     1       5.448   2.431   1.158  1.00  0.00     0.161 A 
HETATM   12  C15 UNL     1       6.737   2.006   0.936  1.00  0.00     0.070 A 
HETATM   13 CL1  UNL     1       8.006   3.069   1.503  1.00  0.00    -0.081 Cl
HETATM   14  C16 UNL     1       6.964   0.817   0.306  1.00  0.00     0.161 A 
HETATM   15  N5  UNL     1       5.900   0.126  -0.064  1.00  0.00    -0.073 NA
ENDBRANCH   7   9
ENDBRANCH   6   7
BRANCH   1  16
HETATM   16  O1  UNL     1       1.864  -2.306  -1.364  1.00  0.00    -0.354 OA
HETATM   17  C1  UNL     1       0.977  -3.277  -1.882  1.00  0.00     0.210 C 
ENDBRANCH   1  16
BRANCH   3  18
HETATM   18  N1  UNL     1      -2.029   0.166  -0.064  1.00  0.00    -0.377 N 
HETATM   19  C5  UNL     1      -2.816  -0.898  -0.631  1.00  0.00     0.153 C 
HETATM   20  C6  UNL     1      -4.280  -0.576  -0.629  1.00  0.00     0.291 C 
HETATM   21  N2  UNL     1      -4.767  -0.196   0.682  1.00  0.00     0.087 N 
HETATM   22  C7  UNL     1      -6.011   0.508   0.634  1.00  0.00     0.310 C 
HETATM   23  C8  UNL     1      -3.798   0.543   1.461  1.00  0.00     0.291 C 
HETATM   24  C9  UNL     1      -2.836   1.207   0.486  1.00  0.00     0.153 C 
ENDBRANCH   3  18
TORSDOF 4
