REMARK  6 active torsions:
REMARK  status: ('A' for Active; 'I' for Inactive)
REMARK    1  A    between atoms: N1_1  and  C1_2 
REMARK    2  A    between atoms: C1_2  and  O1_3 
REMARK    3  A    between atoms: O1_3  and  C2_4 
REMARK    4  A    between atoms: C4_6  and  C5_7 
REMARK    5  A    between atoms: C5_7  and  P1_8 
REMARK    6  A    between atoms: C14_21  and  O2_22 
ROOT
HETATM    1  C2  UNL     1      -1.341   0.551  -0.813  1.00  0.00     0.188 C 
HETATM    2  C3  UNL     1      -0.280   0.167   0.175  1.00  0.00     0.039 C 
HETATM    3  C4  UNL     1       0.027  -0.862   1.015  1.00  0.00     0.056 C 
HETATM    4  N2  UNL     1      -0.151  -2.080   1.622  1.00  0.00    -0.259 NA
HETATM    5  C11 UNL     1      -0.804  -3.107   1.699  1.00  0.00     0.142 C 
HETATM    6  P2  UNL     1      -2.337  -3.807   0.809  1.00  0.00     0.011 P 
HETATM    7  N3  UNL     1      -3.220  -2.385   0.211  1.00  0.00    -0.368 N 
HETATM    8  C12 UNL     1      -4.428  -2.258   0.053  1.00  0.00     0.134 A 
HETATM    9  C13 UNL     1      -3.663  -1.029  -0.303  1.00  0.00     0.149 A 
HETATM   10  C14 UNL     1      -2.547  -0.308  -0.539  1.00  0.00     0.145 C 
HETATM   11  H13 UNL     1      -3.162  -4.436   1.840  1.00  0.00     0.085 HD
ENDROOT
BRANCH   3  12
HETATM   12  C5  UNL     1       1.311  -0.584   1.752  1.00  0.00     0.046 C 
BRANCH  12  13
HETATM   13  P1  UNL     1       2.264   0.735   1.429  1.00  0.00    -0.044 P 
HETATM   14  C6  UNL     1       2.711   0.566  -0.247  1.00  0.00     0.015 A 
HETATM   15  C7  UNL     1       4.090   0.805  -0.716  1.00  0.00     0.003 A 
HETATM   16  C8  UNL     1       5.040   1.157   0.153  1.00  0.00     0.019 A 
HETATM   17  C9  UNL     1       4.988   1.368   1.586  1.00  0.00     0.012 A 
HETATM   18 BR1  UNL     1       6.434   1.867   2.710  1.00  0.00    -0.051 Br
HETATM   19  C10 UNL     1       3.814   1.209   2.257  1.00  0.00     0.033 A 
ENDBRANCH  12  13
ENDBRANCH   3  12
BRANCH   1  20
HETATM   20  O1  UNL     1      -1.727   1.883  -0.712  1.00  0.00    -0.350 OA
BRANCH  20  21
HETATM   21  C1  UNL     1      -1.546   2.524  -1.918  1.00  0.00     0.435 C 
BRANCH  21  22
HETATM   22  N1  UNL     1      -2.326   1.917  -2.985  1.00  0.00     0.101 N 
HETATM   23  H1  UNL     1      -3.343   1.855  -2.750  1.00  0.00     0.315 HD
HETATM   24  H2  UNL     1      -2.212   2.489  -3.849  1.00  0.00     0.315 HD
ENDBRANCH  21  22
ENDBRANCH  20  21
ENDBRANCH   1  20
BRANCH  10  25
HETATM   25  O2  UNL     1      -1.727  -1.398  -0.406  1.00  0.00    -0.381 OA
HETATM   26  H16 UNL     1      -1.460  -1.878  -1.302  1.00  0.00     0.211 HD
ENDBRANCH  10  25
TORSDOF 6
