REMARK  3 active torsions:
REMARK  status: ('A' for Active; 'I' for Inactive)
REMARK    1  A    between atoms: C4_5  and  C5_6 
REMARK    2  A    between atoms: C5_6  and  N1_7 
REMARK    3  A    between atoms: N1_7  and  C6_8 
ROOT
HETATM    1  O1  UNL     1      -1.819   0.270  -0.565  1.00  0.00     0.000 OA
HETATM    2  C1  UNL     1      -2.878  -0.245  -1.359  1.00  0.00    -0.001 A 
HETATM    3  C2  UNL     1      -1.818  -0.593  -0.713  1.00  0.00     0.070 A 
HETATM    4  C3  UNL     1      -0.847   0.225   0.030  1.00  0.00     0.119 C 
HETATM    5  C4  UNL     1      -0.095  -0.866   0.408  1.00  0.00     0.134 C 
HETATM    6  N2  UNL     1      -0.542  -2.075  -0.017  1.00  0.00    -0.410 NA
HETATM    7  C12 UNL     1      -0.668  -3.254  -0.178  1.00  0.00     0.252 C 
HETATM    8  S1  UNL     1      -1.894  -4.051  -1.219  1.00  0.00     0.030 SA
HETATM    9  N3  UNL     1      -3.101  -3.113  -1.903  1.00  0.00    -0.225 NA
HETATM   10  C13 UNL     1      -3.645  -2.049  -2.125  1.00  0.00     0.111 C 
HETATM   11  C14 UNL     1      -4.016  -0.638  -2.183  1.00  0.00     0.022 A 
HETATM   12  C15 UNL     1      -3.917   0.628  -1.944  1.00  0.00     0.014 A 
HETATM   13  C16 UNL     1      -3.689   1.968  -1.607  1.00  0.00     0.028 C 
HETATM   14  C17 UNL     1      -2.764   2.622  -0.706  1.00  0.00     0.147 C 
HETATM   15  N4  UNL     1      -1.383   2.517  -0.612  1.00  0.00    -0.297 N 
HETATM   16  O2  UNL     1      -0.791   1.601   0.217  1.00  0.00    -0.243 OA
HETATM   17  H1  UNL     1      -2.378   0.348   0.504  1.00  0.00     0.000 HD
HETATM   18  H17 UNL     1      -0.847   2.665  -1.480  1.00  0.00     0.188 HD
ENDROOT
BRANCH   5  19
HETATM   19  C5  UNL     1       1.031  -0.401   1.210  1.00  0.00     0.195 C 
BRANCH  19  20
HETATM   20  N1  UNL     1       2.344  -0.724   0.640  1.00  0.00    -0.383 N 
HETATM   21  H5  UNL     1       2.283  -1.308  -0.240  1.00  0.00     0.160 HD
BRANCH  20  22
HETATM   22  C6  UNL     1       3.599  -0.327   1.171  1.00  0.00     0.029 A 
HETATM   23  C7  UNL     1       4.781  -0.682   0.537  1.00  0.00     0.029 A 
HETATM   24  C8  UNL     1       5.995  -0.282   1.065  1.00  0.00     0.004 A 
HETATM   25  C9  UNL     1       6.069   0.467   2.215  1.00  0.00     0.019 A 
HETATM   26  C10 UNL     1       4.892   0.833   2.868  1.00  0.00     0.013 A 
HETATM   27 BR1  UNL     1       4.895   1.892   4.479  1.00  0.00    -0.051 Br
HETATM   28  C11 UNL     1       3.653   0.426   2.332  1.00  0.00     0.048 A 
ENDBRANCH  20  22
ENDBRANCH  19  20
ENDBRANCH   5  19
TORSDOF 3
