REMARK  3 active torsions:
REMARK  status: ('A' for Active; 'I' for Inactive)
REMARK    1  A    between atoms: O1_2  and  C2_3 
REMARK    2  A    between atoms: C5_6  and  N1_7 
REMARK    3  A    between atoms: C13_19  and  O2_20 
ROOT
HETATM    1  C2  UNL     1       2.163   0.352   0.217  1.00  0.00     0.056 C 
HETATM    2  C3  UNL     1       2.203  -0.718  -0.605  1.00  0.00     0.128 C 
HETATM    3  C4  UNL     1       1.028  -1.609  -0.836  1.00  0.00     0.030 C 
HETATM    4  C5  UNL     1      -0.193  -2.156  -0.787  1.00  0.00     0.097 C 
HETATM    5  N2  UNL     1      -0.940  -1.340   0.157  1.00  0.00    -0.319 N 
HETATM    6  C6  UNL     1      -1.931  -0.563  -0.572  1.00  0.00     0.164 C 
HETATM    7  C7  UNL     1      -1.494   0.855  -0.529  1.00  0.00    -0.044 A 
HETATM    8  C8  UNL     1      -1.567   1.364  -1.746  1.00  0.00     0.013 A 
HETATM    9 BR1  UNL     1      -2.172   0.251  -3.179  1.00  0.00    -0.051 Br
HETATM   10  C9  UNL     1      -1.207   2.730  -2.112  1.00  0.00     0.003 A 
HETATM   11  C10 UNL     1      -0.770   3.552  -1.180  1.00  0.00    -0.080 A 
HETATM   12  B1  UNL     1      -0.635   3.085   0.283  1.00  0.00     0.197 B 
HETATM   13  C11 UNL     1      -1.039   1.624   0.677  1.00  0.00     0.025 A 
HETATM   14  C12 UNL     1       0.092   0.901   1.334  1.00  0.00     0.013 C 
HETATM   15  N3  UNL     1      -0.133  -0.171   2.030  1.00  0.00    -0.247 NA
HETATM   16  C13 UNL     1      -0.624  -1.427   1.547  1.00  0.00     0.355 C 
HETATM   17  C15 UNL     1       1.522   1.342   1.201  1.00  0.00     0.087 C 
HETATM   18  H12 UNL     1      -0.011   3.710   1.073  1.00  0.00    -0.021 HD
ENDROOT
BRANCH   4  19
HETATM   19  N1  UNL     1      -1.148  -3.123  -1.161  1.00  0.00    -0.386 N 
HETATM   20  H6  UNL     1      -1.652  -2.882  -2.014  1.00  0.00     0.157 HD
HETATM   21  H7  UNL     1      -1.151  -3.922  -0.471  1.00  0.00     0.157 HD
ENDBRANCH   4  19
BRANCH  16  22
HETATM   22  O2  UNL     1      -1.771  -1.820   2.279  1.00  0.00    -0.353 OA
HETATM   23  C14 UNL     1      -1.426  -3.045   2.870  1.00  0.00     0.206 C 
ENDBRANCH  16  22
BRANCH   1  24
HETATM   24  O1  UNL     1       3.509   0.682  -0.036  1.00  0.00    -0.389 OA
HETATM   25  C1  UNL     1       3.859   1.444  -1.169  1.00  0.00     0.202 C 
ENDBRANCH   1  24
TORSDOF 3
