REMARK  7 active torsions:
REMARK  status: ('A' for Active; 'I' for Inactive)
REMARK    1  A    between atoms: O1_2  and  C2_3 
REMARK    2  A    between atoms: C6_7  and  N1_8 
REMARK    3  A    between atoms: C6_7  and  N3_11 
REMARK    4  A    between atoms: N1_8  and  C7_9 
REMARK    5  A    between atoms: C7_9  and  N2_10 
REMARK    6  A    between atoms: N3_11  and  C8_12 
REMARK    7  A    between atoms: C15_20  and  O2_21 
ROOT
HETATM    1  C2  UNL     1       2.697   1.490  -0.794  1.00  0.00     0.098 A 
HETATM    2  C3  UNL     1       1.553   1.902  -1.313  1.00  0.00     0.017 A 
HETATM    3  C4  UNL     1       0.216   1.274  -1.207  1.00  0.00     0.072 A 
HETATM    4  C5  UNL     1       0.294   0.039  -0.397  1.00  0.00    -0.006 A 
HETATM    5  C6  UNL     1      -0.808  -0.648  -0.200  1.00  0.00     0.137 C 
HETATM    6  C14 UNL     1       1.564  -0.393   0.164  1.00  0.00     0.050 A 
HETATM    7  C15 UNL     1       2.696   0.267  -0.008  1.00  0.00     0.101 A 
ENDROOT
BRANCH   5   8
HETATM    8  N1  UNL     1      -1.197  -1.830   0.472  1.00  0.00    -0.208 NA
BRANCH   8   9
HETATM    9  C7  UNL     1      -0.424  -2.847   0.585  1.00  0.00     0.192 C 
BRANCH   9  10
HETATM   10  N2  UNL     1       0.254  -3.674   1.292  1.00  0.00    -0.279 NA
HETATM   11  H7  UNL     1       1.157  -3.415   1.732  1.00  0.00     0.189 HD
ENDBRANCH   9  10
ENDBRANCH   8   9
ENDBRANCH   5   8
BRANCH   5  12
HETATM   12  N3  UNL     1      -2.052  -0.230  -0.746  1.00  0.00    -0.340 N 
HETATM   13  H8  UNL     1      -2.038   0.087  -1.727  1.00  0.00     0.167 HD
BRANCH  12  14
HETATM   14  C8  UNL     1      -3.373  -0.143  -0.235  1.00  0.00     0.035 A 
HETATM   15  C9  UNL     1      -3.791   1.013   0.392  1.00  0.00     0.029 A 
HETATM   16  C10 UNL     1      -5.071   1.064   0.869  1.00  0.00     0.004 A 
HETATM   17  C11 UNL     1      -5.894  -0.039   0.706  1.00  0.00     0.019 A 
HETATM   18  C12 UNL     1      -5.462  -1.193   0.075  1.00  0.00     0.013 A 
HETATM   19 BR1  UNL     1      -6.633  -2.695  -0.130  1.00  0.00    -0.051 Br
HETATM   20  C13 UNL     1      -4.173  -1.266  -0.415  1.00  0.00     0.048 A 
ENDBRANCH  12  14
ENDBRANCH   5  12
BRANCH   7  21
HETATM   21  O2  UNL     1       3.932  -0.100   0.503  1.00  0.00    -0.353 OA
HETATM   22  C16 UNL     1       4.539  -1.357   0.221  1.00  0.00     0.210 C 
ENDBRANCH   7  21
BRANCH   1  23
HETATM   23  O1  UNL     1       3.759   2.328  -1.096  1.00  0.00    -0.353 OA
HETATM   24  C1  UNL     1       5.006   2.286  -0.452  1.00  0.00     0.210 C 
ENDBRANCH   1  23
TORSDOF 7
