REMARK  5 active torsions:
REMARK  status: ('A' for Active; 'I' for Inactive)
REMARK    1  A    between atoms: O1_2  and  C2_3 
REMARK    2  A    between atoms: C6_9  and  N3_10 
REMARK    3  A    between atoms: N3_10  and  C7_11 
REMARK    4  A    between atoms: C11_15  and  C12_16 
REMARK    5  A    between atoms: C16_21  and  O2_22 
ROOT
HETATM    1  C2  UNL     1      -3.630  -1.479  -0.751  1.00  0.00     0.103 A 
HETATM    2  C3  UNL     1      -3.233  -2.065   0.442  1.00  0.00     0.072 A 
HETATM    3  C4  UNL     1      -1.988  -1.723   0.949  1.00  0.00     0.075 A 
HETATM    4  N1  UNL     1      -1.623  -2.303   2.092  1.00  0.00    -0.241 NA
HETATM    5  C5  UNL     1      -0.427  -2.022   2.641  1.00  0.00     0.235 A 
HETATM    6  N2  UNL     1       0.383  -1.126   1.980  1.00  0.00    -0.224 NA
HETATM    7  C6  UNL     1      -0.010  -0.572   0.845  1.00  0.00     0.138 A 
HETATM    8  C14 UNL     1      -1.221  -0.824   0.241  1.00  0.00     0.041 A 
HETATM    9  C15 UNL     1      -1.574  -0.223  -0.939  1.00  0.00     0.057 A 
HETATM   10  C16 UNL     1      -2.821  -0.582  -1.424  1.00  0.00     0.102 A 
ENDROOT
BRANCH   7  11
HETATM   11  N3  UNL     1       0.956   0.256   0.230  1.00  0.00    -0.366 N 
HETATM   12  H6  UNL     1       0.956   1.045  -0.493  1.00  0.00     0.161 HD
BRANCH  11  13
HETATM   13  C7  UNL     1       2.335   0.275   0.705  1.00  0.00     0.110 A 
HETATM   14  C8  UNL     1       2.378   0.871   2.041  1.00  0.00    -0.002 A 
HETATM   15  C9  UNL     1       3.153   1.803   2.588  1.00  0.00    -0.002 A 
HETATM   16  C10 UNL     1       4.181   2.367   1.691  1.00  0.00     0.003 A 
HETATM   17  C11 UNL     1       4.168   1.858   0.472  1.00  0.00    -0.068 A 
HETATM   18  C13 UNL     1       3.328   0.860  -0.219  1.00  0.00     0.064 A 
BRANCH  17  19
HETATM   19  C12 UNL     1       5.178   2.374  -0.491  1.00  0.00     0.119 C 
HETATM   20 BR1  UNL     1       6.250   3.705   0.406  1.00  0.00    -0.092 Br
ENDBRANCH  17  19
ENDBRANCH  11  13
ENDBRANCH   7  11
BRANCH  10  21
HETATM   21  O2  UNL     1      -3.260  -0.019  -2.620  1.00  0.00    -0.353 OA
HETATM   22  C17 UNL     1      -2.497   0.901  -3.357  1.00  0.00     0.210 C 
ENDBRANCH  10  21
BRANCH   1  23
HETATM   23  O1  UNL     1      -4.844  -1.765  -1.297  1.00  0.00    -0.353 OA
HETATM   24  C1  UNL     1      -5.835  -2.618  -0.801  1.00  0.00     0.210 C 
ENDBRANCH   1  23
TORSDOF 5
