REMARK  7 active torsions:
REMARK  status: ('A' for Active; 'I' for Inactive)
REMARK    1  A    between atoms: C4_5  and  O1_6 
REMARK    2  A    between atoms: C7_9  and  S1_10 
REMARK    3  A    between atoms: S1_10  and  O2_11 
REMARK    4  A    between atoms: C8_12  and  C9_13 
REMARK    5  A    between atoms: C10_14  and  N2_15 
REMARK    6  A    between atoms: C10_14  and  N3_16 
REMARK    7  A    between atoms: N3_16  and  C11_17 
ROOT
HETATM    1  C9  UNL     1       0.242  -1.045   0.770  1.00  0.00     0.175 C 
HETATM    2  C10 UNL     1       1.503  -0.714   0.927  1.00  0.00     0.083 C 
ENDROOT
BRANCH   1   3
HETATM    3  C8  UNL     1      -1.129  -0.676   0.644  1.00  0.00    -0.005 A 
HETATM    4  C2  UNL     1      -1.960   0.538   0.630  1.00  0.00     0.060 A 
HETATM    5  N1  UNL     1      -1.168   1.571   0.779  1.00  0.00    -0.294 NA
HETATM    6  C3  UNL     1      -3.380   0.633   0.484  1.00  0.00     0.064 A 
HETATM    7  C1  UNL     1      -1.779   2.873   0.795  1.00  0.00     0.178 C 
HETATM    8  C4  UNL     1      -3.898  -0.562   0.354  1.00  0.00     0.052 A 
HETATM    9  C6  UNL     1      -3.256  -1.889   0.341  1.00  0.00     0.113 A 
HETATM   10  C7  UNL     1      -1.788  -1.846   0.501  1.00  0.00     0.021 A 
BRANCH   8  11
HETATM   11  O1  UNL     1      -5.264  -0.587   0.207  1.00  0.00    -0.360 OA
HETATM   12  C5  UNL     1      -6.042   0.521  -0.181  1.00  0.00     0.209 C 
ENDBRANCH   8  11
BRANCH  10  13
HETATM   13  S1  UNL     1      -1.386  -3.574   0.441  1.00  0.00     0.022 SA
BRANCH  13  14
HETATM   14  O2  UNL     1       0.245  -3.889   0.597  1.00  0.00    -0.325 OA
HETATM   15  H10 UNL     1       0.484  -4.764   0.202  1.00  0.00     0.228 HD
ENDBRANCH  13  14
ENDBRANCH  10  13
ENDBRANCH   1   3
BRANCH   2  16
HETATM   16  N2  UNL     1       2.419  -1.831   0.958  1.00  0.00    -0.410 N 
HETATM   17  H12 UNL     1       2.703  -2.341   0.076  1.00  0.00     0.151 HD
HETATM   18  H13 UNL     1       3.029  -2.488   1.458  1.00  0.00     0.151 HD
ENDBRANCH   2  16
BRANCH   2  19
HETATM   19  N3  UNL     1       2.664   0.127   1.103  1.00  0.00    -0.368 N 
HETATM   20  H14 UNL     1       2.935   0.471   2.074  1.00  0.00     0.161 HD
BRANCH  19  21
HETATM   21  C11 UNL     1       3.507   0.557   0.013  1.00  0.00     0.030 A 
HETATM   22  C12 UNL     1       4.605  -0.242  -0.315  1.00  0.00     0.029 A 
HETATM   23  C13 UNL     1       5.505   0.005  -1.311  1.00  0.00     0.004 A 
HETATM   24  C14 UNL     1       5.311   1.151  -2.062  1.00  0.00     0.019 A 
HETATM   25  C15 UNL     1       4.225   1.972  -1.762  1.00  0.00     0.013 A 
HETATM   26 BR1  UNL     1       3.955   3.556  -2.800  1.00  0.00    -0.051 Br
HETATM   27  C16 UNL     1       3.343   1.703  -0.765  1.00  0.00     0.048 A 
ENDBRANCH  19  21
ENDBRANCH   2  19
TORSDOF 7
