REMARK  6 active torsions:
REMARK  status: ('A' for Active; 'I' for Inactive)
REMARK    1  A    between atoms: O1_2  and  C2_3 
REMARK    2  A    between atoms: C4_5  and  C5_6 
REMARK    3  A    between atoms: C5_6  and  N1_7 
REMARK    4  A    between atoms: C9_13  and  N4_14 
REMARK    5  A    between atoms: C12_18  and  O2_19 
REMARK    6  A    between atoms: C14_21  and  O3_22 
ROOT
HETATM    1  C5  UNL     1       1.586  -0.454   1.525  1.00  0.00     0.168 C 
ENDROOT
BRANCH   1   2
HETATM    2  C4  UNL     1       0.183  -0.040   1.267  1.00  0.00    -0.034 A 
HETATM    3  C3  UNL     1      -0.905  -0.744   1.758  1.00  0.00     0.048 A 
HETATM    4  C2  UNL     1      -2.222  -0.343   1.509  1.00  0.00     0.104 A 
HETATM    5  C14 UNL     1      -2.452   0.783   0.754  1.00  0.00     0.135 A 
HETATM    6  C12 UNL     1      -1.387   1.496   0.256  1.00  0.00     0.104 A 
HETATM    7  C11 UNL     1      -0.098   1.080   0.517  1.00  0.00     0.048 A 
BRANCH   4   8
HETATM    8  O1  UNL     1      -3.306  -1.042   1.997  1.00  0.00    -0.353 OA
HETATM    9  C1  UNL     1      -3.119  -2.204   2.777  1.00  0.00     0.210 C 
ENDBRANCH   4   8
BRANCH   5  10
HETATM   10  O3  UNL     1      -3.744   1.255   0.455  1.00  0.00    -0.351 OA
HETATM   11  C15 UNL     1      -4.434   0.827  -0.701  1.00  0.00     0.210 C 
ENDBRANCH   5  10
BRANCH   6  12
HETATM   12  O2  UNL     1      -1.613   2.624  -0.500  1.00  0.00    -0.353 OA
HETATM   13  C13 UNL     1      -0.609   3.420  -1.053  1.00  0.00     0.210 C 
ENDBRANCH   6  12
ENDBRANCH   1   2
BRANCH   1  14
HETATM   14  N1  UNL     1       2.034  -1.359   0.471  1.00  0.00    -0.335 N 
HETATM   15  C6  UNL     1       1.980  -2.703   0.359  1.00  0.00     0.095 A 
HETATM   16  C7  UNL     1       2.544  -3.094  -0.843  1.00  0.00     0.054 A 
HETATM   17  C8  UNL     1       2.972  -1.956  -1.516  1.00  0.00     0.127 A 
HETATM   18  N2  UNL     1       3.575  -1.694  -2.690  1.00  0.00    -0.130 NA
HETATM   19  C10 UNL     1       2.638  -0.920  -0.672  1.00  0.00     0.180 A 
HETATM   20  N3  UNL     1       3.869  -0.454  -3.076  1.00  0.00     0.044 NA
HETATM   21  C9  UNL     1       3.556   0.583  -2.273  1.00  0.00     0.740 A 
HETATM   22  N5  UNL     1       2.951   0.335  -1.095  1.00  0.00    -0.041 NA
BRANCH  21  23
HETATM   23  N4  UNL     1       3.829   1.942  -2.599  1.00  0.00    -0.230 N 
HETATM   24  H9  UNL     1       3.524   2.622  -3.317  1.00  0.00     0.174 HD
HETATM   25  H10 UNL     1       4.517   2.440  -1.981  1.00  0.00     0.174 HD
ENDBRANCH  21  23
ENDBRANCH   1  14
TORSDOF 6
