REMARK  8 active torsions:
REMARK  status: ('A' for Active; 'I' for Inactive)
REMARK    1  A    between atoms: C2_2  and  O1_3 
REMARK    2  A    between atoms: O1_3  and  C3_4 
REMARK    3  A    between atoms: C5_6  and  N1_7 
REMARK    4  A    between atoms: C8_10  and  N2_11 
REMARK    5  A    between atoms: N2_11  and  C9_12 
REMARK    6  A    between atoms: C15_20  and  N4_21 
REMARK    7  A    between atoms: C18_25  and  O2_26 
REMARK    8  A    between atoms: C20_28  and  O3_29 
ROOT
HETATM    1  N1  UNL     1      -0.291  -0.253   0.072  1.00  0.00    -0.326 N 
HETATM    2  C6  UNL     1       0.445   0.566  -0.869  1.00  0.00     0.177 A 
HETATM    3  C7  UNL     1       1.672   0.030  -0.217  1.00  0.00     0.053 A 
HETATM    4  C8  UNL     1       3.071   0.020  -0.176  1.00  0.00     0.159 A 
HETATM    5  N3  UNL     1       3.576  -0.781   0.771  1.00  0.00    -0.045 NA
HETATM    6  C15 UNL     1       2.906  -1.529   1.630  1.00  0.00     0.724 A 
HETATM    7  N5  UNL     1       1.561  -1.493   1.559  1.00  0.00    -0.044 NA
HETATM    8  C16 UNL     1       0.920  -0.723   0.648  1.00  0.00     0.161 A 
ENDROOT
BRANCH   1   9
HETATM    9  C5  UNL     1      -1.691  -0.431   0.251  1.00  0.00     0.042 A 
HETATM   10  C4  UNL     1      -2.569   0.245  -0.557  1.00  0.00     0.069 A 
HETATM   11  C3  UNL     1      -3.938   0.059  -0.369  1.00  0.00     0.107 A 
HETATM   12  C20 UNL     1      -4.434  -0.785   0.606  1.00  0.00     0.135 A 
HETATM   13  C18 UNL     1      -3.515  -1.459   1.413  1.00  0.00     0.106 A 
HETATM   14  C17 UNL     1      -2.146  -1.283   1.237  1.00  0.00     0.069 A 
BRANCH  11  15
HETATM   15  O1  UNL     1      -4.839   0.740  -1.183  1.00  0.00    -0.348 OA
BRANCH  15  16
HETATM   16  C2  UNL     1      -4.334   1.610  -2.188  1.00  0.00     0.171 C 
HETATM   17  C1  UNL     1      -5.480   2.230  -2.937  1.00  0.00     0.034 C 
ENDBRANCH  15  16
ENDBRANCH  11  15
BRANCH  12  18
HETATM   18  O3  UNL     1      -5.788  -0.985   0.812  1.00  0.00    -0.351 OA
HETATM   19  C21 UNL     1      -6.454  -0.122   1.731  1.00  0.00     0.210 C 
ENDBRANCH  12  18
BRANCH  13  20
HETATM   20  O2  UNL     1      -4.004  -2.304   2.390  1.00  0.00    -0.353 OA
HETATM   21  C19 UNL     1      -3.070  -2.991   3.212  1.00  0.00     0.210 C 
ENDBRANCH  13  20
ENDBRANCH   1   9
BRANCH   4  22
HETATM   22  N2  UNL     1       3.836   0.799  -1.069  1.00  0.00    -0.340 N 
HETATM   23  H9  UNL     1       3.276   1.379  -1.759  1.00  0.00     0.167 HD
BRANCH  22  24
HETATM   24  C9  UNL     1       5.232   0.916  -1.176  1.00  0.00     0.035 A 
HETATM   25  C10 UNL     1       6.167   0.269  -0.401  1.00  0.00     0.029 A 
HETATM   26  C11 UNL     1       7.526   0.391  -0.514  1.00  0.00     0.004 A 
HETATM   27  C12 UNL     1       8.004   1.225  -1.479  1.00  0.00     0.019 A 
HETATM   28  C13 UNL     1       7.147   1.902  -2.288  1.00  0.00     0.013 A 
HETATM   29 BR1  UNL     1       7.833   3.062  -3.629  1.00  0.00    -0.051 Br
HETATM   30  C14 UNL     1       5.802   1.738  -2.125  1.00  0.00     0.048 A 
ENDBRANCH  22  24
ENDBRANCH   4  22
BRANCH   6  31
HETATM   31  N4  UNL     1       3.584  -2.341   2.593  1.00  0.00    -0.231 N 
HETATM   32  H14 UNL     1       3.835  -3.369   2.650  1.00  0.00     0.174 HD
HETATM   33  H15 UNL     1       3.905  -1.798   3.435  1.00  0.00     0.174 HD
ENDBRANCH   6  31
TORSDOF 8
