REMARK  1 active torsions:
REMARK  status: ('A' for Active; 'I' for Inactive)
REMARK    1  A    between atoms: O1_2  and  C2_3 
ROOT
HETATM    1  C2  UNL     1      -0.911  -1.454  -0.562  1.00  0.00     0.095 C 
HETATM    2  C3  UNL     1       0.335  -1.061  -0.698  1.00  0.00     0.143 A 
HETATM    3  C4  UNL     1       1.741  -1.224  -0.947  1.00  0.00     0.065 A 
HETATM    4  S1  UNL     1       1.173   0.131  -0.258  1.00  0.00     0.005 SA
HETATM    5  C5  UNL     1       2.340   0.644   0.735  1.00  0.00     0.200 A 
HETATM    6  C6  UNL     1       3.610   0.017   0.934  1.00  0.00     0.061 C 
HETATM    7  C7  UNL     1       3.913  -1.097   0.256  1.00  0.00    -0.007 C 
HETATM    8 BR1  UNL     1       5.155  -2.067   1.387  1.00  0.00    -0.056 Br
HETATM    9  C8  UNL     1       3.190  -1.126  -1.074  1.00  0.00     0.070 C 
HETATM   10  N1  UNL     1       1.362   1.544   0.902  1.00  0.00     0.054 N 
HETATM   11  C9  UNL     1       0.433   2.409   0.384  1.00  0.00     0.258 A 
HETATM   12  N2  UNL     1       1.028   3.597   0.272  1.00  0.00    -0.216 NA
HETATM   13  C10 UNL     1       0.401   4.682  -0.254  1.00  0.00     0.235 A 
HETATM   14  N3  UNL     1      -0.866   4.601  -0.690  1.00  0.00    -0.253 NA
HETATM   15  C11 UNL     1      -1.428   3.362  -0.550  1.00  0.00     0.133 A 
HETATM   16  C12 UNL     1      -0.856   2.188  -0.019  1.00  0.00     0.040 A 
HETATM   17  C13 UNL     1      -1.764   1.046  -0.035  1.00  0.00     0.056 C 
HETATM   18  C14 UNL     1      -1.664  -0.243  -0.249  1.00  0.00     0.099 C 
HETATM   19  O2  UNL     1      -2.846  -0.757  -0.129  1.00  0.00    -0.353 OA
HETATM   20  C15 UNL     1      -4.023  -1.284   0.035  1.00  0.00     0.210 C 
HETATM   21  H8  UNL     1       1.471   1.494   1.977  1.00  0.00     0.310 HD
ENDROOT
BRANCH   1  22
HETATM   22  O1  UNL     1      -1.463  -2.732  -0.674  1.00  0.00    -0.356 OA
HETATM   23  C1  UNL     1      -1.154  -3.606   0.423  1.00  0.00     0.209 C 
ENDBRANCH   1  22
TORSDOF 1
