REMARK  3 active torsions:
REMARK  status: ('A' for Active; 'I' for Inactive)
REMARK    1  A    between atoms: N1_1  and  C1_2 
REMARK    2  A    between atoms: C1_2  and  N2_3 
REMARK    3  A    between atoms: C1_2  and  C16_20 
ROOT
HETATM    1  N2  UNL     1       2.358  -0.654   0.817  1.00  0.00    -0.234 NA
HETATM    2  C2  UNL     1       1.167  -1.081   0.647  1.00  0.00     0.128 C 
HETATM    3  C3  UNL     1       0.282  -2.193   0.084  1.00  0.00     0.107 C 
HETATM    4  C4  UNL     1      -0.661  -1.541  -0.865  1.00  0.00    -0.019 C 
HETATM    5  C5  UNL     1      -1.862  -1.709  -0.386  1.00  0.00    -0.004 C 
HETATM    6  C6  UNL     1      -3.037  -2.040   0.356  1.00  0.00    -0.004 C 
HETATM    7  C7  UNL     1      -4.313  -1.764   0.159  1.00  0.00    -0.022 C 
HETATM    8  C8  UNL     1      -4.587  -0.978  -1.045  1.00  0.00     0.061 C 
HETATM    9  C9  UNL     1      -4.983   0.421  -0.707  1.00  0.00    -0.072 C 
HETATM   10  C10 UNL     1      -5.597   1.522  -1.100  1.00  0.00     0.004 C 
HETATM   11  C11 UNL     1      -4.728   2.584  -0.514  1.00  0.00     0.005 C 
HETATM   12  C12 UNL     1      -3.690   2.065   0.169  1.00  0.00    -0.058 C 
HETATM   13  C13 UNL     1      -2.350   2.616   0.312  1.00  0.00     0.155 C 
HETATM   14  N3  UNL     1      -1.286   1.782   0.677  1.00  0.00    -0.381 N 
HETATM   15  C14 UNL     1      -0.323   0.767   0.563  1.00  0.00     0.204 C 
HETATM   16  N4  UNL     1       0.068  -0.309   1.131  1.00  0.00    -0.229 NA
HETATM   17  C15 UNL     1      -4.429   0.850   0.642  1.00  0.00     0.070 C 
HETATM   18  H16 UNL     1      -0.879   1.957   1.649  1.00  0.00     0.160 HD
ENDROOT
BRANCH   1  19
HETATM   19  C1  UNL     1       3.541  -1.346   0.371  1.00  0.00     0.374 C 
BRANCH  19  20
HETATM   20  N1  UNL     1       4.162  -2.114   1.436  1.00  0.00     0.107 N 
HETATM   21  H1  UNL     1       3.886  -1.776   2.385  1.00  0.00     0.316 HD
HETATM   22  H2  UNL     1       4.135  -3.131   1.306  1.00  0.00     0.316 HD
ENDBRANCH  19  20
BRANCH  19  23
HETATM   23  C16 UNL     1       4.541  -0.331  -0.046  1.00  0.00    -0.003 A 
HETATM   24  C17 UNL     1       4.857  -0.011  -1.355  1.00  0.00     0.011 A 
HETATM   25  C18 UNL     1       5.800   0.950  -1.657  1.00  0.00     0.002 A 
HETATM   26  C19 UNL     1       6.453   1.617  -0.617  1.00  0.00     0.019 A 
HETATM   27  C20 UNL     1       6.158   1.318   0.697  1.00  0.00     0.011 A 
HETATM   28 BR1  UNL     1       7.029   2.207   2.164  1.00  0.00    -0.051 Br
HETATM   29  C21 UNL     1       5.200   0.342   0.982  1.00  0.00     0.030 A 
ENDBRANCH  19  23
ENDBRANCH   1  19
TORSDOF 3
