REMARK  0 active torsions:
REMARK  status: ('A' for Active; 'I' for Inactive)
ROOT
HETATM    1  C1  UNL     1       4.186  -0.160  -1.223  1.00  0.00     0.063 C 
HETATM    2  C2  UNL     1       3.721  -0.582  -0.091  1.00  0.00     0.019 C 
HETATM    3  N1  UNL     1       3.336  -1.729   0.739  1.00  0.00    -0.360 N 
HETATM    4  C3  UNL     1       2.147  -1.453   1.465  1.00  0.00     0.343 C 
HETATM    5  C4  UNL     1       2.571  -0.687   2.694  1.00  0.00     0.030 C 
HETATM    6  C5  UNL     1       2.875   0.408   2.047  1.00  0.00     0.015 C 
HETATM    7  C6  UNL     1       3.426   0.642   0.723  1.00  0.00     0.008 C 
HETATM    8  C7  UNL     1       3.470   1.922   0.375  1.00  0.00     0.157 C 
HETATM    9  O1  UNL     1       3.647   3.041  -0.415  1.00  0.00    -0.302 OA
HETATM   10  C8  UNL     1       2.496   3.776  -0.839  1.00  0.00     0.198 A 
HETATM   11  N2  UNL     1       1.435   3.047  -1.284  1.00  0.00    -0.175 NA
HETATM   12  C9  UNL     1       0.321   3.710  -1.683  1.00  0.00     0.285 A 
HETATM   13  N3  UNL     1       0.903   4.738  -1.409  1.00  0.00    -0.380 NA
HETATM   14  C10 UNL     1       1.444   5.803  -1.149  1.00  0.00     0.214 A 
HETATM   15  C11 UNL     1       2.629   5.175  -0.723  1.00  0.00     0.116 A 
HETATM   16 CL1  UNL     1       4.137   5.864  -0.112  1.00  0.00    -0.077 Cl
HETATM   17  N4  UNL     1      -0.823   3.064  -2.145  1.00  0.00    -0.295 N 
HETATM   18  C12 UNL     1      -1.857   2.232  -1.656  1.00  0.00     0.150 C 
HETATM   19  C13 UNL     1      -1.582   0.987  -2.167  1.00  0.00     0.057 C 
HETATM   20  C14 UNL     1      -2.716   0.134  -2.663  1.00  0.00     0.011 C 
HETATM   21  C15 UNL     1      -3.369  -0.400  -1.610  1.00  0.00    -0.055 C 
HETATM   22  C16 UNL     1      -4.166   0.372  -0.662  1.00  0.00     0.032 C 
HETATM   23  C17 UNL     1      -3.911   1.659  -0.374  1.00  0.00     0.145 C 
HETATM   24  O2  UNL     1      -2.928   2.554  -0.842  1.00  0.00    -0.306 OA
HETATM   25  C18 UNL     1      -3.291  -1.891  -1.341  1.00  0.00     0.068 C 
HETATM   26  C19 UNL     1      -2.316  -2.018  -0.182  1.00  0.00     0.276 C 
HETATM   27  N5  UNL     1      -1.929  -3.389   0.108  1.00  0.00     0.086 N 
HETATM   28  C20 UNL     1      -3.111  -4.133   0.590  1.00  0.00     0.310 C 
HETATM   29  C21 UNL     1      -0.962  -3.374   1.233  1.00  0.00     0.301 C 
HETATM   30  C22 UNL     1       0.266  -2.676   0.768  1.00  0.00     0.302 C 
HETATM   31  N6  UNL     1       1.306  -2.552   1.821  1.00  0.00     0.111 N 
HETATM   32  H3  UNL     1       3.664  -2.663   0.965  1.00  0.00     0.161 HD
HETATM   33  H9  UNL     1      -0.808   3.346  -3.151  1.00  0.00     0.172 HD
HETATM   34  H25 UNL     1       0.779  -2.397   2.684  1.00  0.00     0.319 HD
ENDROOT
TORSDOF 0
