REMARK  5 active torsions:
REMARK  status: ('A' for Active; 'I' for Inactive)
REMARK    1  A    between atoms: C3_3  and  C4_4 
REMARK    2  A    between atoms: C5_6  and  N2_7 
REMARK    3  A    between atoms: N4_13  and  C10_14 
REMARK    4  A    between atoms: C11_15  and  C12_16 
REMARK    5  A    between atoms: C17_21  and  N5_22 
ROOT
HETATM    1  C4  UNL     1      -3.460  -0.043   1.152  1.00  0.00     0.089 A 
HETATM    2  N1  UNL     1      -3.990  -1.180   0.655  1.00  0.00    -0.062 NA
HETATM    3  C5  UNL     1      -3.197  -2.138   0.097  1.00  0.00     0.722 A 
HETATM    4  N3  UNL     1      -1.863  -1.955   0.037  1.00  0.00    -0.044 NA
HETATM    5  C6  UNL     1      -1.279  -0.836   0.519  1.00  0.00     0.166 A 
HETATM    6  C7  UNL     1      -2.093   0.127   1.082  1.00  0.00     0.042 A 
HETATM    7  C8  UNL     1      -1.289   1.175   1.506  1.00  0.00     0.035 A 
HETATM    8  C9  UNL     1       0.005   0.804   1.179  1.00  0.00     0.100 A 
HETATM    9  N4  UNL     1       0.016  -0.402   0.587  1.00  0.00    -0.308 N 
ENDROOT
BRANCH   9  10
HETATM   10  C10 UNL     1       1.082  -1.186   0.083  1.00  0.00     0.029 C 
HETATM   11  C11 UNL     1       2.073  -0.813  -0.750  1.00  0.00    -0.019 C 
HETATM   12  C19 UNL     1       2.934  -1.993  -1.005  1.00  0.00     0.068 C 
HETATM   13  C20 UNL     1       3.461  -2.638   0.213  1.00  0.00    -0.026 C 
HETATM   14  C21 UNL     1       2.478  -2.964   1.042  1.00  0.00    -0.024 C 
HETATM   15  C22 UNL     1       1.091  -2.608   0.561  1.00  0.00     0.085 C 
BRANCH  11  16
HETATM   16  C12 UNL     1       2.069   0.563  -1.204  1.00  0.00    -0.001 A 
HETATM   17  C13 UNL     1       0.877   1.102  -1.643  1.00  0.00     0.014 A 
HETATM   18  C14 UNL     1       0.751   2.400  -2.090  1.00  0.00     0.001 A 
HETATM   19  C15 UNL     1       1.892   3.213  -2.100  1.00  0.00     0.002 A 
HETATM   20  C16 UNL     1       3.083   2.683  -1.664  1.00  0.00     0.030 A 
HETATM   21  C17 UNL     1       3.178   1.382  -1.222  1.00  0.00     0.038 A 
BRANCH  21  22
HETATM   22  N5  UNL     1       4.430   0.903  -0.761  1.00  0.00    -0.394 N 
HETATM   23  C18 UNL     1       5.602   1.755  -0.783  1.00  0.00     0.146 C 
HETATM   24  H14 UNL     1       4.646  -0.038  -0.375  1.00  0.00     0.159 HD
ENDBRANCH  21  22
ENDBRANCH  11  16
ENDBRANCH   9  10
BRANCH   3  25
HETATM   25  N2  UNL     1      -3.773  -3.335  -0.424  1.00  0.00    -0.231 N 
HETATM   26  H6  UNL     1      -3.311  -4.274  -0.390  1.00  0.00     0.174 HD
HETATM   27  H7  UNL     1      -4.715  -3.254  -0.864  1.00  0.00     0.174 HD
ENDBRANCH   3  25
BRANCH   1  28
HETATM   28  C3  UNL     1      -4.373   0.938   1.731  1.00  0.00     0.029 C 
HETATM   29  C2  UNL     1      -5.667   0.638   1.722  1.00  0.00    -0.029 C 
HETATM   30  C1  UNL     1      -6.705   1.557   2.282  1.00  0.00     0.036 C 
ENDBRANCH   1  28
TORSDOF 5
