REMARK  4 active torsions:
REMARK  status: ('A' for Active; 'I' for Inactive)
REMARK    1  A    between atoms: N1_1  and  C1_2 
REMARK    2  A    between atoms: C4_8  and  C5_9 
REMARK    3  A    between atoms: N5_10  and  C6_11 
REMARK    4  A    between atoms: C6_11  and  C7_12 
ROOT
HETATM    1  C1  UNL     1      -4.943   0.001  -0.241  1.00  0.00     0.718 C 
HETATM    2  N2  UNL     1      -5.192  -0.273   1.003  1.00  0.00     0.032 NA
HETATM    3  N3  UNL     1      -4.121  -0.246   1.950  1.00  0.00    -0.208 N 
HETATM    4  N4  UNL     1      -2.986   0.345   2.439  1.00  0.00    -0.317 N 
HETATM    5  C2  UNL     1      -1.964   0.212   1.416  1.00  0.00     0.111 C 
HETATM    6  C3  UNL     1      -1.847   0.285   0.136  1.00  0.00     0.221 A 
HETATM    7  C4  UNL     1      -1.412   0.298  -1.127  1.00  0.00    -0.001 A 
HETATM    8  C14 UNL     1      -2.848   0.107  -1.492  1.00  0.00     0.120 A 
HETATM    9  N6  UNL     1      -3.448   0.175  -0.362  1.00  0.00    -0.179 N 
HETATM   10  H3  UNL     1      -4.676  -1.035   2.267  1.00  0.00     0.210 HD
HETATM   11  H4  UNL     1      -3.142   0.738   3.272  1.00  0.00     0.181 HD
ENDROOT
BRANCH   7  12
HETATM   12  C5  UNL     1      -0.474   0.214  -1.867  1.00  0.00     0.093 C 
HETATM   13  N5  UNL     1       0.554   0.031  -0.987  1.00  0.00    -0.394 N 
HETATM   14  H8  UNL     1       0.651  -1.046  -1.165  1.00  0.00     0.159 HD
BRANCH  13  15
HETATM   15  C6  UNL     1       1.633  -0.074  -0.057  1.00  0.00     0.158 C 
BRANCH  15  16
HETATM   16  C7  UNL     1       3.066   0.207  -0.373  1.00  0.00    -0.030 A 
HETATM   17  C8  UNL     1       3.419   0.846  -1.414  1.00  0.00     0.010 A 
HETATM   18  C9  UNL     1       4.902   0.861  -1.326  1.00  0.00     0.009 A 
HETATM   19  C10 UNL     1       5.346   0.185  -0.189  1.00  0.00    -0.044 A 
HETATM   20  C11 UNL     1       6.076  -0.423   0.873  1.00  0.00     0.067 A 
HETATM   21  C13 UNL     1       4.168  -0.246   0.407  1.00  0.00    -0.025 A 
HETATM   22  C12 UNL     1       4.738  -0.902   1.433  1.00  0.00    -0.010 A 
ENDBRANCH  15  16
ENDBRANCH  13  15
ENDBRANCH   7  12
BRANCH   1  23
HETATM   23  N1  UNL     1      -6.163  -0.058  -1.027  1.00  0.00    -0.231 N 
HETATM   24  H1  UNL     1      -6.553  -0.781  -1.760  1.00  0.00     0.174 HD
HETATM   25  H2  UNL     1      -6.826   0.664  -0.726  1.00  0.00     0.174 HD
ENDBRANCH   1  23
TORSDOF 4
