REMARK  5 active torsions:
REMARK  status: ('A' for Active; 'I' for Inactive)
REMARK    1  A    between atoms: C1_2  and  C2_3 
REMARK    2  A    between atoms: C3_5  and  N1_6 
REMARK    3  A    between atoms: N1_6  and  C4_7 
REMARK    4  A    between atoms: N3_14  and  C10_15 
REMARK    5  A    between atoms: C10_15  and  C11_16 
ROOT
HETATM    1  C4  UNL     1       2.828  -0.040   0.153  1.00  0.00     0.723 A 
HETATM    2  N2  UNL     1       3.627   0.234   1.110  1.00  0.00    -0.102 NA
HETATM    3  C5  UNL     1       3.630   1.225   2.146  1.00  0.00     0.197 A 
HETATM    4  C6  UNL     1       2.444   2.101   2.061  1.00  0.00     0.011 A 
HETATM    5  C7  UNL     1       1.331   2.360   1.395  1.00  0.00     0.010 A 
HETATM    6  C8  UNL     1       0.390   3.331   1.614  1.00  0.00     0.032 A 
HETATM    7  C9  UNL     1      -0.537   3.097   0.591  1.00  0.00     0.094 A 
HETATM    8  N3  UNL     1      -0.141   2.045  -0.171  1.00  0.00    -0.336 N 
HETATM    9  C21 UNL     1       1.024   1.567   0.310  1.00  0.00     0.159 A 
HETATM   10  N4  UNL     1       1.606   0.560  -0.249  1.00  0.00    -0.044 NA
ENDROOT
BRANCH   8  11
HETATM   11  C10 UNL     1      -0.886   1.543  -1.322  1.00  0.00     0.168 C 
BRANCH  11  12
HETATM   12  C11 UNL     1      -1.844   0.509  -0.924  1.00  0.00    -0.039 A 
HETATM   13  C12 UNL     1      -1.563  -0.840  -0.877  1.00  0.00     0.010 A 
HETATM   14  C13 UNL     1      -2.442  -1.836  -0.507  1.00  0.00     0.013 A 
HETATM   15  C14 UNL     1      -3.717  -1.381  -0.160  1.00  0.00    -0.026 A 
HETATM   16  C15 UNL     1      -4.631  -2.363   0.219  1.00  0.00     0.012 A 
HETATM   17  C19 UNL     1      -4.082  -0.049  -0.180  1.00  0.00    -0.025 A 
HETATM   18  C16 UNL     1      -5.915  -1.964   0.575  1.00  0.00     0.001 A 
HETATM   19  C17 UNL     1      -6.253  -0.618   0.545  1.00  0.00     0.001 A 
HETATM   20  C18 UNL     1      -5.351   0.357   0.171  1.00  0.00     0.012 A 
HETATM   21  C20 UNL     1      -3.122   0.865  -0.566  1.00  0.00     0.021 A 
ENDBRANCH  11  12
ENDBRANCH   8  11
BRANCH   1  22
HETATM   22  N1  UNL     1       3.231  -1.152  -0.666  1.00  0.00    -0.197 N 
HETATM   23  H3  UNL     1       2.517  -1.572  -1.321  1.00  0.00     0.183 HD
BRANCH  22  24
HETATM   24  C3  UNL     1       4.546  -1.692  -0.618  1.00  0.00     0.128 C 
HETATM   25  C2  UNL     1       5.280  -2.515   0.115  1.00  0.00     0.064 C 
HETATM   26 BR1  UNL     1       4.069  -3.076   1.500  1.00  0.00    -0.046 Br
BRANCH  25  27
HETATM   27  C1  UNL     1       6.667  -2.912  -0.067  1.00  0.00     0.279 C 
HETATM   28  O1  UNL     1       7.151  -2.340  -1.090  1.00  0.00    -0.301 OA
ENDBRANCH  25  27
ENDBRANCH  22  24
ENDBRANCH   1  22
TORSDOF 5
