REMARK  2 active torsions:
REMARK  status: ('A' for Active; 'I' for Inactive)
REMARK       I    between atoms: N1_1  and  C1_2 
REMARK    1  A    between atoms: N4_14  and  C10_15 
REMARK    2  A    between atoms: C10_15  and  C11_16 
ROOT
HETATM    1  N1  UNL     1      -2.846   2.707   1.449  1.00  0.00    -0.230 N 
HETATM    2  C1  UNL     1      -3.288   1.514   0.794  1.00  0.00     0.738 C 
HETATM    3  N2  UNL     1      -4.447   1.739   1.296  1.00  0.00     0.018 NA
HETATM    4  N3  UNL     1      -5.502   0.826   1.013  1.00  0.00    -0.266 N 
HETATM    5  C2  UNL     1      -5.378  -0.406   0.234  1.00  0.00     0.033 C 
HETATM    6  C3  UNL     1      -4.115  -0.676   0.622  1.00  0.00     0.036 C 
HETATM    7  C4  UNL     1      -3.448  -1.287  -0.575  1.00  0.00    -0.027 C 
HETATM    8  C5  UNL     1      -4.357  -1.368  -1.547  1.00  0.00     0.002 C 
HETATM    9 BR1  UNL     1      -3.617  -1.222  -3.308  1.00  0.00    -0.055 Br
HETATM   10  C6  UNL     1      -5.618  -1.553  -0.678  1.00  0.00     0.105 C 
HETATM   11  C7  UNL     1      -2.079  -1.383  -0.114  1.00  0.00     0.114 A 
HETATM   12  C8  UNL     1      -1.030  -2.063  -0.792  1.00  0.00     0.007 A 
HETATM   13  C9  UNL     1      -0.017  -1.252  -1.106  1.00  0.00     0.090 A 
HETATM   14  N4  UNL     1      -0.249   0.116  -0.705  1.00  0.00    -0.340 N 
HETATM   15  C21 UNL     1      -1.546   0.084  -0.122  1.00  0.00     0.138 A 
HETATM   16  N5  UNL     1      -2.066   1.212   0.221  1.00  0.00    -0.047 NA
HETATM   17  H1  UNL     1      -2.691   3.737   1.539  1.00  0.00     0.174 HD
HETATM   18  H2  UNL     1      -2.512   3.546   1.960  1.00  0.00     0.174 HD
HETATM   19  H3  UNL     1      -6.507   0.656   1.167  1.00  0.00     0.189 HD
ENDROOT
BRANCH  14  20
HETATM   20  C10 UNL     1       0.723   1.135  -0.925  1.00  0.00     0.168 C 
BRANCH  20  21
HETATM   21  C11 UNL     1       2.031   0.898  -0.261  1.00  0.00    -0.039 A 
HETATM   22  C12 UNL     1       2.313   1.342   1.015  1.00  0.00     0.010 A 
HETATM   23  C13 UNL     1       3.572   1.067   1.547  1.00  0.00     0.013 A 
HETATM   24  C14 UNL     1       4.508   0.367   0.807  1.00  0.00    -0.026 A 
HETATM   25  C15 UNL     1       5.745   0.115   1.372  1.00  0.00     0.012 A 
HETATM   26  C19 UNL     1       4.200  -0.070  -0.477  1.00  0.00    -0.025 A 
HETATM   27  C16 UNL     1       6.697  -0.585   0.648  1.00  0.00     0.001 A 
HETATM   28  C17 UNL     1       6.417  -1.035  -0.641  1.00  0.00     0.001 A 
HETATM   29  C18 UNL     1       5.163  -0.775  -1.202  1.00  0.00     0.012 A 
HETATM   30  C20 UNL     1       2.959   0.193  -1.020  1.00  0.00     0.021 A 
ENDBRANCH  20  21
ENDBRANCH  14  20
TORSDOF 2
