REMARK  2 active torsions:
REMARK  status: ('A' for Active; 'I' for Inactive)
REMARK    1  A    between atoms: C1_2  and  N2_17 
REMARK    2  A    between atoms: C4_6  and  C5_7 
ROOT
HETATM    1 CL1  UNL     1       0.785  -0.678   2.157  1.00  0.00    -0.064 Cl
HETATM    2  C1  UNL     1       1.371   0.004   0.634  1.00  0.00     0.112 C 
HETATM    3  C2  UNL     1       0.796   0.637  -0.388  1.00  0.00     0.024 C 
HETATM    4  C3  UNL     1       1.076   1.268  -1.705  1.00  0.00     0.310 C 
HETATM    5  N1  UNL     1      -0.295   0.975  -2.076  1.00  0.00     0.100 N 
HETATM    6  C4  UNL     1      -0.629   1.039  -0.665  1.00  0.00     0.288 C 
HETATM    7  H3  UNL     1      -0.371  -0.005  -2.414  1.00  0.00     0.317 HD
ENDROOT
BRANCH   6   8
HETATM    8  C5  UNL     1      -1.617   0.026  -0.301  1.00  0.00    -0.010 A 
HETATM    9  C6  UNL     1      -1.225  -1.256  -0.697  1.00  0.00     0.010 A 
HETATM   10  C7  UNL     1      -2.048  -2.355  -0.424  1.00  0.00     0.002 A 
HETATM   11  C8  UNL     1      -3.257  -2.196   0.238  1.00  0.00     0.012 A 
HETATM   12  C9  UNL     1      -3.653  -0.935   0.633  1.00  0.00    -0.025 A 
HETATM   13  C10 UNL     1      -4.828  -0.660   1.294  1.00  0.00     0.012 A 
HETATM   14  C14 UNL     1      -2.823   0.128   0.351  1.00  0.00    -0.017 A 
HETATM   15  C11 UNL     1      -5.171   0.643   1.666  1.00  0.00     0.001 A 
HETATM   16  C12 UNL     1      -4.320   1.714   1.374  1.00  0.00     0.001 A 
HETATM   17  C13 UNL     1      -3.148   1.416   0.712  1.00  0.00     0.013 A 
ENDBRANCH   6   8
BRANCH   2  18
HETATM   18  N2  UNL     1       2.790  -0.185   0.503  1.00  0.00    -0.343 N 
HETATM   19  C15 UNL     1       3.377  -1.268  -0.214  1.00  0.00     0.092 A 
HETATM   20  C16 UNL     1       4.707  -1.314  -0.250  1.00  0.00     0.018 A 
HETATM   21  C17 UNL     1       5.538  -0.315   0.405  1.00  0.00     0.018 A 
HETATM   22  C18 UNL     1       4.993   0.693   1.072  1.00  0.00     0.007 A 
HETATM   23 BR1  UNL     1       6.018   2.044   1.958  1.00  0.00    -0.054 Br
HETATM   24  C19 UNL     1       3.505   0.858   1.187  1.00  0.00     0.175 A 
ENDBRANCH   2  18
TORSDOF 2
