REMARK  5 active torsions:
REMARK  status: ('A' for Active; 'I' for Inactive)
REMARK    1  A    between atoms: C4_4  and  N1_5 
REMARK    2  A    between atoms: N1_5  and  C5_6 
REMARK    3  A    between atoms: C6_8  and  N3_9 
REMARK    4  A    between atoms: N5_15  and  C11_16 
REMARK    5  A    between atoms: C11_16  and  C12_17 
ROOT
HETATM    1  C5  UNL     1       1.566  -0.457   0.896  1.00  0.00     0.161 A 
HETATM    2  N2  UNL     1       1.345  -0.073   2.182  1.00  0.00    -0.044 NA
HETATM    3  C6  UNL     1       0.254   0.614   2.540  1.00  0.00     0.724 A 
HETATM    4  N4  UNL     1      -0.690   0.965   1.641  1.00  0.00    -0.044 NA
HETATM    5  C7  UNL     1      -0.579   0.638   0.338  1.00  0.00     0.163 A 
HETATM    6  C8  UNL     1       0.565  -0.068   0.029  1.00  0.00     0.059 A 
HETATM    7  C9  UNL     1       0.470  -0.293  -1.348  1.00  0.00     0.036 A 
HETATM    8  C10 UNL     1      -0.705   0.274  -1.818  1.00  0.00     0.094 A 
HETATM    9  N5  UNL     1      -1.312   0.827  -0.775  1.00  0.00    -0.336 N 
ENDROOT
BRANCH   9  10
HETATM   10  C11 UNL     1      -2.592   1.549  -0.771  1.00  0.00     0.168 C 
BRANCH  10  11
HETATM   11  C12 UNL     1      -3.704   0.569  -0.524  1.00  0.00    -0.038 A 
HETATM   12  C13 UNL     1      -4.226   0.018  -1.695  1.00  0.00     0.010 A 
HETATM   13  C14 UNL     1      -5.255  -0.893  -1.522  1.00  0.00     0.026 A 
HETATM   14  C15 UNL     1      -5.775  -1.274  -0.297  1.00  0.00     0.055 A 
HETATM   15 CL1  UNL     1      -7.079  -2.436  -0.184  1.00  0.00    -0.083 Cl
HETATM   16  C16 UNL     1      -5.193  -0.675   0.787  1.00  0.00     0.056 A 
HETATM   17 CL2  UNL     1      -5.811  -1.117   2.377  1.00  0.00    -0.083 Cl
HETATM   18  C17 UNL     1      -4.166   0.243   0.731  1.00  0.00     0.034 A 
ENDBRANCH  10  11
ENDBRANCH   9  10
BRANCH   3  19
HETATM   19  N3  UNL     1       0.173   0.940   3.923  1.00  0.00    -0.231 N 
HETATM   20  H6  UNL     1       0.134   1.670   4.655  1.00  0.00     0.174 HD
HETATM   21  H7  UNL     1       0.132   0.116   4.559  1.00  0.00     0.174 HD
ENDBRANCH   3  19
BRANCH   1  22
HETATM   22  N1  UNL     1       2.697  -1.188   0.436  1.00  0.00    -0.340 N 
HETATM   23  H5  UNL     1       2.275  -2.148   0.580  1.00  0.00     0.167 HD
BRANCH  22  24
HETATM   24  C4  UNL     1       3.967  -0.760  -0.052  1.00  0.00     0.034 A 
HETATM   25  C3  UNL     1       4.209  -0.426  -1.467  1.00  0.00     0.036 A 
HETATM   26  C2  UNL     1       5.458  -0.163  -1.115  1.00  0.00    -0.058 A 
HETATM   27  C1  UNL     1       6.724   0.288  -1.727  1.00  0.00     0.048 C 
HETATM   28  C18 UNL     1       5.227  -0.491   0.288  1.00  0.00     0.036 A 
ENDBRANCH  22  24
ENDBRANCH   1  22
TORSDOF 5
