REMARK  3 active torsions:
REMARK  status: ('A' for Active; 'I' for Inactive)
REMARK    1  A    between atoms: N1_7  and  C7_8 
REMARK    2  A    between atoms: C8_10  and  N3_11 
REMARK    3  A    between atoms: C13_17  and  C14_18 
ROOT
HETATM    1  C7  UNL     1      -2.482   0.239   0.630  1.00  0.00     0.150 A 
HETATM    2  N2  UNL     1      -2.268   0.652   1.887  1.00  0.00    -0.199 NA
HETATM    3  C8  UNL     1      -1.064   1.149   2.292  1.00  0.00     0.201 A 
HETATM    4  N4  UNL     1      -0.038   1.240   1.423  1.00  0.00    -0.221 NA
HETATM    5  C9  UNL     1      -0.206   0.837   0.149  1.00  0.00     0.064 A 
HETATM    6  C10 UNL     1      -1.445   0.330  -0.253  1.00  0.00     0.036 A 
HETATM    7  C11 UNL     1      -1.353  -0.030  -1.676  1.00  0.00     0.014 A 
HETATM    8  C12 UNL     1      -0.122   0.255  -2.077  1.00  0.00    -0.010 A 
HETATM    9  C13 UNL     1       0.722   0.818  -1.011  1.00  0.00     0.094 A 
ENDROOT
BRANCH   9  10
HETATM   10  C14 UNL     1       1.959   0.073  -0.737  1.00  0.00    -0.044 A 
HETATM   11  C15 UNL     1       2.178  -1.256  -0.946  1.00  0.00     0.009 A 
HETATM   12  C16 UNL     1       3.428  -1.791  -0.622  1.00  0.00     0.013 A 
HETATM   13  C17 UNL     1       4.445  -1.037  -0.105  1.00  0.00    -0.026 A 
HETATM   14  C18 UNL     1       5.664  -1.601   0.201  1.00  0.00     0.012 A 
HETATM   15  C22 UNL     1       4.231   0.309   0.109  1.00  0.00    -0.025 A 
HETATM   16  C19 UNL     1       6.659  -0.787   0.724  1.00  0.00     0.001 A 
HETATM   17  C20 UNL     1       6.463   0.554   0.942  1.00  0.00     0.001 A 
HETATM   18  C21 UNL     1       5.240   1.106   0.632  1.00  0.00     0.012 A 
HETATM   19  C23 UNL     1       3.009   0.833  -0.207  1.00  0.00     0.020 A 
ENDBRANCH   9  10
BRANCH   3  20
HETATM   20  N3  UNL     1      -1.082   1.518   3.664  1.00  0.00    -0.271 NA
HETATM   21  H7  UNL     1      -0.217   1.027   4.038  1.00  0.00     0.127 HD
HETATM   22  H8  UNL     1      -0.482   1.327   4.496  1.00  0.00     0.127 HD
ENDBRANCH   3  20
BRANCH   1  23
HETATM   23  N1  UNL     1      -3.717  -0.284   0.168  1.00  0.00    -0.307 N 
HETATM   24  C2  UNL     1      -4.701   0.589  -0.375  1.00  0.00     0.031 A 
HETATM   25  C1  UNL     1      -4.420   1.876  -0.428  1.00  0.00     0.043 C 
HETATM   26  C3  UNL     1      -5.990   0.117  -0.868  1.00  0.00     0.029 A 
HETATM   27  C4  UNL     1      -6.262  -1.198  -0.808  1.00  0.00     0.004 A 
HETATM   28  C5  UNL     1      -5.243  -2.107  -0.245  1.00  0.00     0.018 A 
HETATM   29  C6  UNL     1      -4.073  -1.665   0.201  1.00  0.00     0.099 A 
ENDBRANCH   1  23
TORSDOF 3
