REMARK  7 active torsions:
REMARK  status: ('A' for Active; 'I' for Inactive)
REMARK    1  A    between atoms: N1_1  and  C1_2 
REMARK    2  A    between atoms: C2_4  and  N3_5 
REMARK    3  A    between atoms: N3_5  and  C3_6 
REMARK    4  A    between atoms: N4_16  and  C12_17 
REMARK    5  A    between atoms: C12_17  and  C13_18 
REMARK    6  A    between atoms: C14_19  and  C15_20 
REMARK    7  A    between atoms: C17_22  and  C18_23 
ROOT
HETATM    1  C1  UNL     1       0.222  -2.385  -0.782  1.00  0.00     0.724 A 
HETATM    2  N2  UNL     1       1.306  -1.677  -0.472  1.00  0.00    -0.044 NA
HETATM    3  C2  UNL     1       1.285  -0.596   0.320  1.00  0.00     0.161 A 
HETATM    4  C9  UNL     1      -0.007  -0.315   0.768  1.00  0.00     0.059 A 
HETATM    5  C10 UNL     1      -0.455   0.714   1.584  1.00  0.00     0.036 A 
HETATM    6  C11 UNL     1      -1.845   0.639   1.771  1.00  0.00     0.094 A 
HETATM    7  N4  UNL     1      -2.256  -0.457   1.062  1.00  0.00    -0.339 N 
HETATM    8  C19 UNL     1      -1.175  -0.991   0.492  1.00  0.00     0.163 A 
HETATM    9  N5  UNL     1      -1.039  -2.083  -0.328  1.00  0.00    -0.044 NA
ENDROOT
BRANCH   3  10
HETATM   10  N3  UNL     1       2.318   0.279   0.680  1.00  0.00    -0.340 N 
HETATM   11  H3  UNL     1       2.154   0.928   1.470  1.00  0.00     0.167 HD
BRANCH  10  12
HETATM   12  C3  UNL     1       3.587   0.356   0.047  1.00  0.00     0.035 A 
HETATM   13  C4  UNL     1       4.012  -0.401  -1.020  1.00  0.00     0.029 A 
HETATM   14  C5  UNL     1       5.255  -0.324  -1.680  1.00  0.00     0.004 A 
HETATM   15  C6  UNL     1       6.003   0.664  -1.065  1.00  0.00     0.019 A 
HETATM   16  C7  UNL     1       5.753   1.496  -0.023  1.00  0.00     0.013 A 
HETATM   17 BR1  UNL     1       6.988   2.784   0.609  1.00  0.00    -0.051 Br
HETATM   18  C8  UNL     1       4.502   1.300   0.514  1.00  0.00     0.048 A 
ENDBRANCH  10  12
ENDBRANCH   3  10
BRANCH   1  19
HETATM   19  N1  UNL     1       0.346  -3.520  -1.601  1.00  0.00    -0.231 N 
HETATM   20  H1  UNL     1       1.321  -3.852  -1.885  1.00  0.00     0.174 HD
HETATM   21  H2  UNL     1       0.357  -4.345  -2.192  1.00  0.00     0.174 HD
ENDBRANCH   1  19
BRANCH   7  22
HETATM   22  C12 UNL     1      -3.620  -0.853   1.064  1.00  0.00     0.146 C 
BRANCH  22  23
HETATM   23  C13 UNL     1      -4.456  -0.532  -0.061  1.00  0.00     0.022 A 
HETATM   24  C14 UNL     1      -4.975   0.220  -0.732  1.00  0.00    -0.059 A 
HETATM   25  C18 UNL     1      -4.253   1.036  -0.015  1.00  0.00     0.040 A 
BRANCH  24  26
HETATM   26  C15 UNL     1      -5.467   0.966  -1.370  1.00  0.00    -0.065 A 
HETATM   27  C16 UNL     1      -5.987   1.789  -2.047  1.00  0.00     0.033 A 
HETATM   28  C17 UNL     1      -4.994   2.044  -0.968  1.00  0.00     0.033 A 
ENDBRANCH  24  26
ENDBRANCH  22  23
ENDBRANCH   7  22
TORSDOF 7
