REMARK  4 active torsions:
REMARK  status: ('A' for Active; 'I' for Inactive)
REMARK    1  A    between atoms: N1_2  and  C2_3 
REMARK    2  A    between atoms: C3_5  and  N3_6 
REMARK    3  A    between atoms: N5_12  and  C8_13 
REMARK    4  A    between atoms: C8_13  and  C9_14 
ROOT
HETATM    1  C2  UNL     1      -3.586   0.366  -0.106  1.00  0.00     0.156 A 
HETATM    2  N2  UNL     1      -3.814  -0.335  -1.230  1.00  0.00    -0.045 NA
HETATM    3  C3  UNL     1      -2.918  -1.215  -1.693  1.00  0.00     0.724 A 
HETATM    4  N4  UNL     1      -1.788  -1.384  -1.011  1.00  0.00    -0.044 NA
HETATM    5  C4  UNL     1      -1.449  -0.747   0.116  1.00  0.00     0.163 A 
HETATM    6  C5  UNL     1      -2.383   0.168   0.595  1.00  0.00     0.058 A 
HETATM    7  C6  UNL     1      -1.742   0.627   1.746  1.00  0.00     0.036 A 
HETATM    8  C7  UNL     1      -0.544   0.003   1.881  1.00  0.00     0.094 A 
HETATM    9  N5  UNL     1      -0.319  -0.865   0.883  1.00  0.00    -0.336 N 
ENDROOT
BRANCH   9  10
HETATM   10  C8  UNL     1       0.759  -1.768   0.528  1.00  0.00     0.169 C 
BRANCH  10  11
HETATM   11  C9  UNL     1       1.802  -1.130  -0.326  1.00  0.00    -0.029 A 
HETATM   12  C10 UNL     1       1.753  -1.300  -1.694  1.00  0.00     0.010 A 
HETATM   13  C11 UNL     1       2.646  -0.722  -2.579  1.00  0.00     0.002 A 
HETATM   14  C12 UNL     1       3.655   0.080  -2.056  1.00  0.00     0.012 A 
HETATM   15  C13 UNL     1       3.749   0.284  -0.698  1.00  0.00    -0.025 A 
HETATM   16  C14 UNL     1       4.771   1.078  -0.214  1.00  0.00     0.012 A 
HETATM   17  C18 UNL     1       2.814  -0.335   0.100  1.00  0.00    -0.018 A 
HETATM   18  C15 UNL     1       4.858   1.265   1.171  1.00  0.00     0.001 A 
HETATM   19  C16 UNL     1       3.943   0.664   2.015  1.00  0.00     0.001 A 
HETATM   20  C17 UNL     1       2.959  -0.111   1.450  1.00  0.00     0.013 A 
ENDBRANCH  10  11
ENDBRANCH   9  10
BRANCH   3  21
HETATM   21  N3  UNL     1      -3.276  -1.888  -2.890  1.00  0.00    -0.231 N 
HETATM   22  H5  UNL     1      -3.239  -1.182  -3.655  1.00  0.00     0.174 HD
HETATM   23  H6  UNL     1      -3.447  -2.858  -2.565  1.00  0.00     0.174 HD
ENDBRANCH   3  21
BRANCH   1  24
HETATM   24  N1  UNL     1      -4.322   1.362   0.590  1.00  0.00    -0.378 N 
HETATM   25  C1  UNL     1      -5.043   2.336   1.268  1.00  0.00     0.147 C 
HETATM   26  H4  UNL     1      -5.169   1.306  -0.070  1.00  0.00     0.160 HD
ENDBRANCH   1  24
TORSDOF 4
