REMARK  3 active torsions:
REMARK  status: ('A' for Active; 'I' for Inactive)
REMARK    1  A    between atoms: N1_2  and  C2_3 
REMARK    2  A    between atoms: C3_5  and  N3_6 
REMARK    3  A    between atoms: N3_6  and  C4_7 
ROOT
HETATM    1  C2  UNL     1      -0.234  -0.994   1.572  1.00  0.00     0.105 C 
HETATM    2  N2  UNL     1       0.939  -1.002   0.986  1.00  0.00    -0.246 NA
HETATM    3  C3  UNL     1       1.284   0.056   0.027  1.00  0.00     0.238 C 
HETATM    4  C7  UNL     1       0.097   0.971  -0.117  1.00  0.00    -0.020 C 
HETATM    5  C8  UNL     1      -0.227   1.275  -1.362  1.00  0.00     0.089 C 
HETATM    6  N4  UNL     1      -1.487   1.637  -1.909  1.00  0.00    -0.398 N 
HETATM    7  C9  UNL     1      -2.812   1.715  -1.291  1.00  0.00     0.132 C 
HETATM    8  C10 UNL     1      -3.202   0.488  -0.544  1.00  0.00     0.055 A 
HETATM    9  C11 UNL     1      -3.607  -0.562  -1.533  1.00  0.00    -0.016 A 
HETATM   10  C12 UNL     1      -2.935  -1.664  -1.256  1.00  0.00    -0.003 A 
HETATM   11  C13 UNL     1      -2.101  -1.355  -0.108  1.00  0.00     0.004 A 
HETATM   12  C14 UNL     1      -2.218  -0.107   0.352  1.00  0.00    -0.059 A 
HETATM   13  C15 UNL     1      -1.320   0.056   1.525  1.00  0.00     0.088 C 
HETATM   14  C16 UNL     1      -0.499   1.333   1.230  1.00  0.00     0.056 C 
HETATM   15  H12 UNL     1      -1.273   1.855  -2.928  1.00  0.00     0.158 HD
ENDROOT
BRANCH   3  16
HETATM   16  N3  UNL     1       2.457   0.782   0.420  1.00  0.00    -0.372 N 
HETATM   17  H6  UNL     1       3.109   0.745   1.241  1.00  0.00     0.161 HD
BRANCH  16  18
HETATM   18  C4  UNL     1       2.835   1.793  -0.513  1.00  0.00     0.099 C 
HETATM   19  C5  UNL     1       3.901   1.448  -1.202  1.00  0.00    -0.000 C 
HETATM   20  C6  UNL     1       4.545   0.132  -0.946  1.00  0.00     0.058 C 
HETATM   21 BR1  UNL     1       4.628   2.621  -2.526  1.00  0.00    -0.055 Br
ENDBRANCH  16  18
ENDBRANCH   3  16
BRANCH   1  22
HETATM   22  N1  UNL     1      -0.413  -2.200   2.349  1.00  0.00    -0.382 N 
HETATM   23  C1  UNL     1       0.630  -3.132   2.674  1.00  0.00     0.147 C 
HETATM   24  H4  UNL     1      -1.361  -2.447   2.720  1.00  0.00     0.160 HD
ENDBRANCH   1  22
TORSDOF 3
