REMARK  1 active torsions:
REMARK  status: ('A' for Active; 'I' for Inactive)
REMARK    1  A    between atoms: N1_1  and  C1_2 
ROOT
HETATM    1  C1  UNL     1      -1.329   0.363  -1.748  1.00  0.00     0.278 A 
HETATM    2  N2  UNL     1      -1.538  -0.910  -1.408  1.00  0.00    -0.184 NA
HETATM    3  C2  UNL     1      -1.585  -1.267  -0.149  1.00  0.00     0.147 A 
HETATM    4  C3  UNL     1      -1.435  -0.413   0.875  1.00  0.00     0.070 A 
HETATM    5  C4  UNL     1      -1.483  -0.496   2.229  1.00  0.00     0.037 A 
HETATM    6  C5  UNL     1      -1.275   0.771   2.698  1.00  0.00     0.095 A 
HETATM    7  N3  UNL     1      -1.082   1.764   1.832  1.00  0.00    -0.331 N 
HETATM    8  C6  UNL     1      -1.210   0.913   0.696  1.00  0.00     0.199 A 
HETATM    9  N4  UNL     1      -1.270   0.639  -0.546  1.00  0.00    -0.350 NA
HETATM   10  C7  UNL     1      -0.843   2.978   1.003  1.00  0.00     0.136 C 
HETATM   11  C8  UNL     1       0.647   2.797   0.726  1.00  0.00     0.015 C 
HETATM   12  C9  UNL     1       2.044   2.745   0.500  1.00  0.00     0.032 C 
HETATM   13  C10 UNL     1       2.170   1.239   0.078  1.00  0.00    -0.001 C 
HETATM   14  C11 UNL     1       2.850   0.109  -0.333  1.00  0.00    -0.026 C 
HETATM   15  C12 UNL     1       2.920  -1.314  -0.709  1.00  0.00    -0.007 C 
HETATM   16  C13 UNL     1       2.021  -2.225  -0.739  1.00  0.00    -0.016 C 
HETATM   17  C14 UNL     1       0.695  -2.682  -0.556  1.00  0.00     0.059 C 
HETATM   18  C15 UNL     1      -0.450  -3.254  -0.443  1.00  0.00     0.072 C 
HETATM   19  N5  UNL     1      -1.673  -2.675  -0.013  1.00  0.00    -0.353 N 
HETATM   20  H15 UNL     1      -2.612  -2.629   0.365  1.00  0.00     0.166 HD
ENDROOT
BRANCH   1  21
HETATM   21  N1  UNL     1      -1.230   1.040  -2.990  1.00  0.00    -0.358 N 
HETATM   22  H1  UNL     1      -1.910   0.554  -3.653  1.00  0.00     0.160 HD
HETATM   23  H2  UNL     1      -0.542   1.850  -3.017  1.00  0.00     0.160 HD
ENDBRANCH   1  21
TORSDOF 1
