REMARK  7 active torsions:
REMARK  status: ('A' for Active; 'I' for Inactive)
REMARK    1  A    between atoms: C2_2  and  N1_3 
REMARK    2  A    between atoms: C2_2  and  C3_4 
REMARK    3  A    between atoms: C3_4  and  C4_5 
REMARK    4  A    between atoms: C4_5  and  C5_6 
REMARK    5  A    between atoms: C5_6  and  C6_7 
REMARK    6  A    between atoms: C6_7  and  N2_8 
REMARK    7  A    between atoms: N2_8  and  C7_9 
ROOT
HETATM    1  C7  UNL     1      -0.762   1.298   0.441  1.00  0.00     0.143 A 
HETATM    2  N3  UNL     1      -1.954   1.779   0.863  1.00  0.00    -0.215 NA
HETATM    3  C8  UNL     1      -3.092   1.087   0.538  1.00  0.00     0.134 A 
HETATM    4  N4  UNL     1      -3.054  -0.021  -0.167  1.00  0.00    -0.214 NA
HETATM    5  C9  UNL     1      -1.928  -0.537  -0.604  1.00  0.00     0.149 A 
HETATM    6  C10 UNL     1      -0.784   0.133  -0.294  1.00  0.00     0.058 A 
HETATM    7  C11 UNL     1       0.207  -0.617  -0.869  1.00  0.00     0.037 A 
HETATM    8  C12 UNL     1      -0.406  -1.677  -1.479  1.00  0.00     0.099 A 
HETATM    9  N5  UNL     1      -1.732  -1.632  -1.317  1.00  0.00    -0.317 N 
HETATM   10  C13 UNL     1      -2.784  -2.468  -1.729  1.00  0.00     0.094 A 
HETATM   11  C14 UNL     1      -4.097  -2.532  -1.623  1.00  0.00    -0.001 A 
HETATM   12  C15 UNL     1      -4.946  -1.537  -0.897  1.00  0.00     0.109 A 
HETATM   13  C16 UNL     1      -6.269  -1.352  -0.630  1.00  0.00     0.067 A 
HETATM   14 CL1  UNL     1      -7.888  -2.090  -0.912  1.00  0.00    -0.118 Cl
HETATM   15  C17 UNL     1      -6.426  -0.094   0.175  1.00  0.00     0.028 A 
HETATM   16 CL2  UNL     1      -8.145   0.242   0.577  1.00  0.00    -0.088 Cl
HETATM   17  C18 UNL     1      -5.551   0.830   0.654  1.00  0.00     0.002 A 
HETATM   18  C19 UNL     1      -4.385   1.638   1.027  1.00  0.00     0.109 A 
ENDROOT
BRANCH   1  19
HETATM   19  N2  UNL     1       0.418   1.992   0.776  1.00  0.00    -0.350 N 
HETATM   20  H11 UNL     1       0.326   2.893   1.316  1.00  0.00     0.166 HD
BRANCH  19  21
HETATM   21  C6  UNL     1       1.726   1.703   0.535  1.00  0.00     0.090 C 
BRANCH  21  22
HETATM   22  C5  UNL     1       2.945   1.382   0.643  1.00  0.00     0.017 C 
BRANCH  22  23
HETATM   23  C4  UNL     1       4.080   1.231  -0.216  1.00  0.00    -0.001 C 
BRANCH  23  24
HETATM   24  C3  UNL     1       5.076   0.852   0.661  1.00  0.00     0.008 C 
BRANCH  24  25
HETATM   25  C2  UNL     1       6.530   0.468   0.811  1.00  0.00     0.236 C 
HETATM   26  C1  UNL     1       6.666  -0.852   1.519  1.00  0.00     0.046 C 
BRANCH  25  27
HETATM   27  N1  UNL     1       7.088   0.279  -0.544  1.00  0.00     0.086 N 
HETATM   28  H5  UNL     1       7.069   1.183  -1.026  1.00  0.00     0.313 HD
HETATM   29  H6  UNL     1       6.564  -0.470  -1.048  1.00  0.00     0.313 HD
ENDBRANCH  25  27
ENDBRANCH  24  25
ENDBRANCH  23  24
ENDBRANCH  22  23
ENDBRANCH  21  22
ENDBRANCH  19  21
ENDBRANCH   1  19
TORSDOF 7
