REMARK  5 active torsions:
REMARK  status: ('A' for Active; 'I' for Inactive)
REMARK    1  A    between atoms: C3_3  and  N1_4 
REMARK    2  A    between atoms: N1_4  and  C4_5 
REMARK    3  A    between atoms: C5_7  and  S1_8 
REMARK    4  A    between atoms: N4_14  and  C10_15 
REMARK    5  A    between atoms: C10_15  and  C11_16 
ROOT
HETATM    1  C4  UNL     1       2.256  -1.211  -0.679  1.00  0.00     0.144 A 
HETATM    2  N2  UNL     1       2.046  -2.508  -0.309  1.00  0.00    -0.204 NA
HETATM    3  C5  UNL     1       0.799  -3.015  -0.283  1.00  0.00     0.189 A 
HETATM    4  N3  UNL     1      -0.289  -2.266  -0.620  1.00  0.00    -0.204 NA
HETATM    5  C6  UNL     1      -0.160  -0.979  -0.994  1.00  0.00     0.147 A 
HETATM    6  C7  UNL     1       1.142  -0.470  -1.015  1.00  0.00     0.057 A 
HETATM    7  C8  UNL     1       0.969   0.836  -1.426  1.00  0.00     0.036 A 
HETATM    8  C9  UNL     1      -0.367   1.134  -1.652  1.00  0.00     0.094 A 
HETATM    9  N4  UNL     1      -1.022  -0.018  -1.372  1.00  0.00    -0.337 N 
ENDROOT
BRANCH   9  10
HETATM   10  C10 UNL     1      -2.465  -0.165  -1.474  1.00  0.00     0.168 C 
BRANCH  10  11
HETATM   11  C11 UNL     1      -3.044   0.196  -0.156  1.00  0.00    -0.038 A 
HETATM   12  C12 UNL     1      -3.238  -0.744   0.835  1.00  0.00     0.010 A 
HETATM   13  C13 UNL     1      -3.776  -0.433   2.070  1.00  0.00     0.026 A 
HETATM   14  C14 UNL     1      -4.146   0.861   2.361  1.00  0.00     0.055 A 
HETATM   15 CL1  UNL     1      -4.832   1.371   3.880  1.00  0.00    -0.083 Cl
HETATM   16  C15 UNL     1      -3.950   1.796   1.369  1.00  0.00     0.056 A 
HETATM   17 CL2  UNL     1      -4.391   3.474   1.645  1.00  0.00    -0.083 Cl
HETATM   18  C16 UNL     1      -3.409   1.493   0.120  1.00  0.00     0.034 A 
ENDBRANCH  10  11
ENDBRANCH   9  10
BRANCH   3  19
HETATM   19  S1  UNL     1       0.679  -4.729   0.220  1.00  0.00    -0.103 SA
HETATM   20  H7  UNL     1      -0.019  -4.839   1.442  1.00  0.00     0.110 HD
ENDBRANCH   3  19
BRANCH   1  21
HETATM   21  N1  UNL     1       3.549  -0.688  -0.704  1.00  0.00    -0.350 N 
HETATM   22  H6  UNL     1       4.365  -1.282  -0.442  1.00  0.00     0.166 HD
BRANCH  21  23
HETATM   23  C3  UNL     1       3.967   0.624  -1.057  1.00  0.00     0.085 C 
HETATM   24  C2  UNL     1       4.343   1.575  -0.211  1.00  0.00    -0.014 C 
HETATM   25  C1  UNL     1       4.316   1.210   1.230  1.00  0.00     0.037 C 
ENDBRANCH  21  23
ENDBRANCH   1  21
TORSDOF 5
