REMARK  4 active torsions:
REMARK  status: ('A' for Active; 'I' for Inactive)
REMARK    1  A    between atoms: C4_5  and  C5_6 
REMARK    2  A    between atoms: C5_6  and  N1_7 
REMARK    3  A    between atoms: C10_12  and  N2_13 
REMARK    4  A    between atoms: N2_13  and  C11_14 
ROOT
HETATM    1  N1  UNL     1      -1.637  -0.204  -0.337  1.00  0.00    -0.353 N 
HETATM    2  C6  UNL     1      -1.921  -1.283  -1.254  1.00  0.00     0.089 C 
HETATM    3  C7  UNL     1      -0.781  -1.977  -1.434  1.00  0.00     0.028 C 
HETATM    4  C8  UNL     1       0.286  -1.349  -0.621  1.00  0.00    -0.005 C 
HETATM    5  C9  UNL     1       1.596  -1.119  -0.405  1.00  0.00     0.040 C 
HETATM    6  C10 UNL     1       1.712  -0.259   0.830  1.00  0.00     0.347 C 
HETATM    7  N3  UNL     1       0.391   0.363   0.865  1.00  0.00     0.137 N 
HETATM    8  C17 UNL     1      -0.537  -0.664   0.446  1.00  0.00     0.358 C 
HETATM    9  H14 UNL     1       0.329   1.144   0.199  1.00  0.00     0.322 HD
ENDROOT
BRANCH   1  10
HETATM   10  C5  UNL     1      -2.405   1.022  -0.343  1.00  0.00     0.163 C 
BRANCH  10  11
HETATM   11  C4  UNL     1      -3.844   0.774  -0.071  1.00  0.00    -0.039 A 
HETATM   12  C3  UNL     1      -4.332   0.785   1.211  1.00  0.00     0.010 A 
HETATM   13  C2  UNL     1      -5.668   0.560   1.527  1.00  0.00     0.026 A 
HETATM   14  C1  UNL     1      -6.560   0.313   0.517  1.00  0.00     0.055 A 
HETATM   15 CL1  UNL     1      -8.244   0.030   0.928  1.00  0.00    -0.083 Cl
HETATM   16  C19 UNL     1      -6.095   0.296  -0.785  1.00  0.00     0.056 A 
HETATM   17  C18 UNL     1      -4.754   0.525  -1.068  1.00  0.00     0.034 A 
HETATM   18 CL2  UNL     1      -7.262  -0.023  -2.053  1.00  0.00    -0.083 Cl
ENDBRANCH  10  11
ENDBRANCH   1  10
BRANCH   6  19
HETATM   19  N2  UNL     1       2.723   0.732   0.533  1.00  0.00    -0.357 N 
HETATM   20  H9  UNL     1       2.440   1.736   0.515  1.00  0.00     0.162 HD
BRANCH  19  21
HETATM   21  C11 UNL     1       4.080   0.420   0.264  1.00  0.00     0.031 A 
HETATM   22  C12 UNL     1       4.601  -0.854   0.271  1.00  0.00     0.029 A 
HETATM   23  C13 UNL     1       5.920  -1.155   0.004  1.00  0.00     0.004 A 
HETATM   24  C14 UNL     1       6.793  -0.139  -0.289  1.00  0.00     0.019 A 
HETATM   25  C15 UNL     1       6.324   1.156  -0.309  1.00  0.00     0.013 A 
HETATM   26 BR1  UNL     1       7.525   2.564  -0.714  1.00  0.00    -0.051 Br
HETATM   27  C16 UNL     1       4.994   1.395  -0.034  1.00  0.00     0.048 A 
ENDBRANCH  19  21
ENDBRANCH   6  19
TORSDOF 4
