REMARK  3 active torsions:
REMARK  status: ('A' for Active; 'I' for Inactive)
REMARK    1  A    between atoms: C4_5  and  C5_6 
REMARK    2  A    between atoms: C5_6  and  N1_7 
REMARK    3  A    between atoms: C11_15  and  N4_16 
ROOT
HETATM    1  N1  UNL     1      -0.823  -1.319  -0.295  1.00  0.00    -0.337 N 
HETATM    2  C6  UNL     1      -0.189  -1.692   0.855  1.00  0.00     0.094 A 
HETATM    3  C7  UNL     1       1.009  -1.024   0.985  1.00  0.00     0.036 A 
HETATM    4  C8  UNL     1       1.085  -0.222  -0.137  1.00  0.00     0.055 A 
HETATM    5  C9  UNL     1      -0.033  -0.401  -0.920  1.00  0.00     0.140 A 
HETATM    6  N2  UNL     1      -0.317   0.170  -2.038  1.00  0.00    -0.252 NA
HETATM    7  C10 UNL     1       0.575   1.125  -2.620  1.00  0.00     0.274 A 
HETATM    8  N3  UNL     1       1.757   1.322  -1.804  1.00  0.00    -0.357 N 
HETATM    9  C11 UNL     1       1.988   0.642  -0.575  1.00  0.00     0.122 A 
HETATM   10  H9  UNL     1       2.468   1.999  -2.144  1.00  0.00     0.162 HD
ENDROOT
BRANCH   1  11
HETATM   11  C5  UNL     1      -2.115  -1.874  -0.683  1.00  0.00     0.168 C 
BRANCH  11  12
HETATM   12  C4  UNL     1      -3.189  -1.022  -0.115  1.00  0.00    -0.038 A 
HETATM   13  C3  UNL     1      -3.736   0.066  -0.777  1.00  0.00     0.010 A 
HETATM   14  C2  UNL     1      -4.745   0.792  -0.135  1.00  0.00     0.026 A 
HETATM   15  C1  UNL     1      -5.202   0.448   1.135  1.00  0.00     0.055 A 
HETATM   16 CL1  UNL     1      -6.468   1.436   1.829  1.00  0.00    -0.083 Cl
HETATM   17  C18 UNL     1      -4.637  -0.639   1.765  1.00  0.00     0.056 A 
HETATM   18  C17 UNL     1      -3.641  -1.374   1.157  1.00  0.00     0.034 A 
HETATM   19 CL2  UNL     1      -5.228  -1.061   3.371  1.00  0.00    -0.083 Cl
ENDBRANCH  11  12
ENDBRANCH   1  11
BRANCH   9  20
HETATM   20  N4  UNL     1       3.146   0.833   0.228  1.00  0.00    -0.316 N 
HETATM   21  C12 UNL     1       3.124   1.622   1.418  1.00  0.00     0.110 C 
HETATM   22  C13 UNL     1       4.276   1.982   1.918  1.00  0.00    -0.007 C 
HETATM   23  C14 UNL     1       5.296   1.174   1.698  1.00  0.00     0.034 C 
HETATM   24  C15 UNL     1       5.432   0.348   0.503  1.00  0.00     0.027 C 
HETATM   25 BR1  UNL     1       7.049  -0.472  -0.026  1.00  0.00    -0.050 Br
HETATM   26  C16 UNL     1       4.327   0.179  -0.243  1.00  0.00     0.117 C 
ENDBRANCH   9  20
TORSDOF 3
