REMARK  6 active torsions:
REMARK  status: ('A' for Active; 'I' for Inactive)
REMARK    1  A    between atoms: C3_3  and  C4_4 
REMARK    2  A    between atoms: C5_5  and  N1_6 
REMARK    3  A    between atoms: N1_6  and  C6_7 
REMARK    4  A    between atoms: C7_9  and  N3_10 
REMARK    5  A    between atoms: N5_16  and  C12_17 
REMARK    6  A    between atoms: C12_17  and  C13_18 
ROOT
HETATM    1  C6  UNL     1      -1.209   0.137   0.186  1.00  0.00     0.160 A 
HETATM    2  N2  UNL     1      -1.205   0.149   1.546  1.00  0.00    -0.044 NA
HETATM    3  C7  UNL     1      -0.125  -0.283   2.257  1.00  0.00     0.724 A 
HETATM    4  N4  UNL     1       0.935  -0.721   1.554  1.00  0.00    -0.044 NA
HETATM    5  C8  UNL     1       0.987  -0.756   0.225  1.00  0.00     0.163 A 
HETATM    6  C9  UNL     1      -0.110  -0.317  -0.507  1.00  0.00     0.059 A 
HETATM    7  C10 UNL     1       0.168  -0.444  -1.832  1.00  0.00     0.036 A 
HETATM    8  C11 UNL     1       1.455  -0.968  -1.879  1.00  0.00     0.094 A 
HETATM    9  N5  UNL     1       1.943  -1.154  -0.634  1.00  0.00    -0.336 N 
ENDROOT
BRANCH   9  10
HETATM   10  C12 UNL     1       3.247  -1.680  -0.265  1.00  0.00     0.168 C 
BRANCH  10  11
HETATM   11  C13 UNL     1       4.259  -0.602  -0.138  1.00  0.00    -0.038 A 
HETATM   12  C14 UNL     1       4.509   0.068   1.038  1.00  0.00     0.010 A 
HETATM   13  C15 UNL     1       5.419   1.067   1.237  1.00  0.00     0.026 A 
HETATM   14  C16 UNL     1       6.166   1.439   0.126  1.00  0.00     0.055 A 
HETATM   15 CL1  UNL     1       7.356   2.718   0.305  1.00  0.00    -0.083 Cl
HETATM   16  C17 UNL     1       5.965   0.807  -1.083  1.00  0.00     0.056 A 
HETATM   17 CL2  UNL     1       6.947   1.334  -2.437  1.00  0.00    -0.083 Cl
HETATM   18  C18 UNL     1       5.019  -0.205  -1.216  1.00  0.00     0.034 A 
ENDBRANCH  10  11
ENDBRANCH   9  10
BRANCH   3  19
HETATM   19  N3  UNL     1      -0.150  -0.258   3.680  1.00  0.00    -0.231 N 
HETATM   20  H9  UNL     1      -0.429  -1.256   3.819  1.00  0.00     0.174 HD
HETATM   21  H10 UNL     1       0.114   0.718   3.953  1.00  0.00     0.174 HD
ENDBRANCH   3  19
BRANCH   1  22
HETATM   22  N1  UNL     1      -2.390   0.610  -0.477  1.00  0.00    -0.350 N 
HETATM   23  H8  UNL     1      -2.381   0.595  -1.534  1.00  0.00     0.166 HD
BRANCH  22  24
HETATM   24  C5  UNL     1      -3.465   1.055   0.342  1.00  0.00     0.090 C 
HETATM   25  C4  UNL     1      -4.731   0.782   0.070  1.00  0.00     0.017 C 
BRANCH  25  26
HETATM   26  C3  UNL     1      -5.052  -0.006  -1.114  1.00  0.00    -0.003 C 
HETATM   27  C2  UNL     1      -6.324  -0.285  -1.395  1.00  0.00    -0.031 C 
HETATM   28  C1  UNL     1      -7.360   0.242  -0.454  1.00  0.00     0.036 C 
ENDBRANCH  25  26
ENDBRANCH  22  24
ENDBRANCH   1  22
TORSDOF 6
