REMARK  6 active torsions:
REMARK  status: ('A' for Active; 'I' for Inactive)
REMARK    1  A    between atoms: N1_1  and  C1_2 
REMARK    2  A    between atoms: C1_2  and  N2_3 
REMARK    3  A    between atoms: C4_6  and  N3_7 
REMARK    4  A    between atoms: N3_7  and  C5_8 
REMARK    5  A    between atoms: N4_17  and  C13_18 
REMARK    6  A    between atoms: C13_18  and  C14_19 
ROOT
HETATM    1  N2  UNL     1      -0.051  -1.281   0.521  1.00  0.00    -0.242 NA
HETATM    2  C2  UNL     1       0.303  -0.424  -0.330  1.00  0.00     0.138 A 
HETATM    3  C3  UNL     1      -0.588   0.697  -0.612  1.00  0.00     0.026 A 
HETATM    4  C4  UNL     1      -1.775   1.104  -0.190  1.00  0.00     0.103 C 
HETATM    5  C11 UNL     1       0.100   1.495  -1.649  1.00  0.00     0.034 A 
HETATM    6  C12 UNL     1       1.289   0.933  -1.974  1.00  0.00     0.094 A 
HETATM    7  N4  UNL     1       1.434  -0.254  -1.166  1.00  0.00    -0.337 N 
ENDROOT
BRANCH   4   8
HETATM    8  N3  UNL     1      -2.453   0.311   0.797  1.00  0.00    -0.365 N 
HETATM    9  H6  UNL     1      -1.950  -0.250   1.506  1.00  0.00     0.165 HD
BRANCH   8  10
HETATM   10  C5  UNL     1      -3.861   0.363   0.735  1.00  0.00     0.033 A 
HETATM   11  C6  UNL     1      -4.598   0.581   1.870  1.00  0.00     0.029 A 
HETATM   12  C7  UNL     1      -5.972   0.676   2.067  1.00  0.00     0.004 A 
HETATM   13  C8  UNL     1      -6.623   0.508   0.837  1.00  0.00     0.019 A 
HETATM   14  C9  UNL     1      -6.038   0.280  -0.406  1.00  0.00     0.013 A 
HETATM   15 BR1  UNL     1      -7.047   0.070  -2.000  1.00  0.00    -0.051 Br
HETATM   16  C10 UNL     1      -4.665   0.222  -0.359  1.00  0.00     0.048 A 
ENDBRANCH   8  10
ENDBRANCH   4   8
BRANCH   1  17
HETATM   17  C1  UNL     1       0.551  -2.462   1.022  1.00  0.00     0.417 C 
BRANCH  17  18
HETATM   18  N1  UNL     1      -0.336  -3.229   1.905  1.00  0.00     0.097 N 
HETATM   19  H1  UNL     1       0.199  -3.749   2.642  1.00  0.00     0.315 HD
HETATM   20  H2  UNL     1      -1.087  -2.615   2.307  1.00  0.00     0.315 HD
ENDBRANCH  17  18
ENDBRANCH   1  17
BRANCH   7  21
HETATM   21  C13 UNL     1       2.632  -1.071  -1.230  1.00  0.00     0.170 C 
BRANCH  21  22
HETATM   22  C14 UNL     1       3.838  -0.235  -0.915  1.00  0.00    -0.018 A 
HETATM   23  C15 UNL     1       3.543   0.809  -0.030  1.00  0.00     0.012 A 
HETATM   24  C16 UNL     1       4.557   1.663   0.322  1.00  0.00     0.024 A 
HETATM   25  C17 UNL     1       5.862   1.605  -0.108  1.00  0.00     0.035 A 
HETATM   26 CL1  UNL     1       7.102   2.719   0.376  1.00  0.00    -0.084 Cl
HETATM   27  C18 UNL     1       6.123   0.544  -0.997  1.00  0.00     0.048 A 
HETATM   28  C19 UNL     1       5.130  -0.325  -1.366  1.00  0.00     0.043 A 
HETATM   29 CL2  UNL     1       5.369  -1.687  -2.458  1.00  0.00    -0.084 Cl
ENDBRANCH  21  22
ENDBRANCH   7  21
TORSDOF 6
