REMARK  1 active torsions:
REMARK  status: ('A' for Active; 'I' for Inactive)
REMARK    1  A    between atoms: C7_11  and  N3_12 
ROOT
HETATM    1  C1  UNL     1       2.473   2.141  -0.364  1.00  0.00     0.111 C 
HETATM    2  N1  UNL     1       1.849   0.867  -0.638  1.00  0.00    -0.310 N 
HETATM    3  C2  UNL     1       2.895  -0.035  -1.095  1.00  0.00     0.109 C 
HETATM    4  C3  UNL     1       2.369  -1.380  -1.574  1.00  0.00     0.132 C 
HETATM    5  N2  UNL     1       0.943  -1.376  -1.224  1.00  0.00    -0.397 N 
HETATM    6  C4  UNL     1       0.386  -0.370  -2.133  1.00  0.00     0.139 C 
HETATM    7  C5  UNL     1       0.764   1.016  -1.577  1.00  0.00     0.094 A 
HETATM    8  O1  UNL     1      -0.359   1.604  -0.983  1.00  0.00     0.000 OA
HETATM    9  C6  UNL     1      -0.890   1.296   0.289  1.00  0.00     0.050 A 
HETATM   10  O2  UNL     1      -0.165   1.287  -0.704  1.00  0.00     0.000 OA
HETATM   11  C7  UNL     1      -2.099   2.084   0.632  1.00  0.00     0.033 C 
HETATM   12  C8  UNL     1      -2.524   1.625   1.840  1.00  0.00     0.143 C 
HETATM   13  N4  UNL     1      -1.660   0.594   2.255  1.00  0.00    -0.254 NA
HETATM   14  C9  UNL     1      -2.065  -0.629   2.401  1.00  0.00     0.203 C 
HETATM   15  N5  UNL     1      -1.909  -2.041   2.721  1.00  0.00    -0.372 N 
HETATM   16  C10 UNL     1      -0.922  -2.013   1.663  1.00  0.00     0.066 A 
HETATM   17  C11 UNL     1       0.318  -1.670   2.286  1.00  0.00     0.032 A 
HETATM   18  C12 UNL     1       0.573  -1.683   0.904  1.00  0.00     0.054 A 
HETATM   19  C13 UNL     1      -0.058  -1.913  -0.323  1.00  0.00     0.076 A 
HETATM   20  C14 UNL     1      -1.228  -2.251  -0.939  1.00  0.00     0.125 A 
HETATM   21  C15 UNL     1      -1.132  -2.147   0.349  1.00  0.00     0.093 A 
HETATM   22 CL1  UNL     1      -2.808  -2.759   0.193  1.00  0.00    -0.197 Cl
HETATM   23  H15 UNL     1      -2.464  -2.484   3.462  1.00  0.00     0.161 HD
ENDROOT
BRANCH  11  24
HETATM   24  N3  UNL     1      -2.622   3.067  -0.246  1.00  0.00    -0.400 N 
HETATM   25  H11 UNL     1      -3.539   3.455  -0.474  1.00  0.00     0.156 HD
HETATM   26  H12 UNL     1      -1.879   3.516  -0.819  1.00  0.00     0.156 HD
ENDBRANCH  11  24
TORSDOF 1
