REMARK  5 active torsions:
REMARK  status: ('A' for Active; 'I' for Inactive)
REMARK    1  A    between atoms: C4_5  and  C5_6 
REMARK    2  A    between atoms: C5_6  and  N1_7 
REMARK    3  A    between atoms: C7_10  and  N3_11 
REMARK    4  A    between atoms: N3_11  and  N4_12 
REMARK    5  A    between atoms: N4_12  and  C8_13 
ROOT
HETATM    1  N1  UNL     1       1.711  -0.523  -0.748  1.00  0.00    -0.265 N 
HETATM    2  C6  UNL     1       1.526  -1.151   0.521  1.00  0.00     0.248 A 
HETATM    3  N2  UNL     1       0.350  -1.257   1.084  1.00  0.00    -0.053 NA
HETATM    4  C7  UNL     1      -0.819  -0.731   0.425  1.00  0.00     0.760 A 
HETATM    5  N5  UNL     1      -0.717  -0.147  -0.734  1.00  0.00     0.036 NA
HETATM    6  N6  UNL     1       0.534  -0.019  -1.361  1.00  0.00    -0.201 N 
HETATM    7  H12 UNL     1       0.648   0.453  -2.309  1.00  0.00     0.211 HD
ENDROOT
BRANCH   4   8
HETATM    8  N3  UNL     1      -2.097  -0.856   1.034  1.00  0.00    -0.127 N 
HETATM    9  H6  UNL     1      -2.150  -0.630   2.075  1.00  0.00     0.206 HD
BRANCH   8  10
HETATM   10  N4  UNL     1      -3.185  -1.266   0.237  1.00  0.00    -0.286 N 
HETATM   11  H7  UNL     1      -3.313  -2.177  -0.249  1.00  0.00     0.187 HD
BRANCH  10  12
HETATM   12  C8  UNL     1      -4.317  -0.464  -0.042  1.00  0.00     0.050 A 
HETATM   13  C9  UNL     1      -4.473   0.294  -1.165  1.00  0.00     0.031 A 
HETATM   14  C10 UNL     1      -5.633   1.033  -1.288  1.00  0.00     0.004 A 
HETATM   15  C11 UNL     1      -6.603   1.003  -0.303  1.00  0.00     0.019 A 
HETATM   16  C12 UNL     1      -6.428   0.228   0.831  1.00  0.00     0.013 A 
HETATM   17 BR1  UNL     1      -7.803   0.244   2.137  1.00  0.00    -0.051 Br
HETATM   18  C13 UNL     1      -5.273  -0.525   0.981  1.00  0.00     0.050 A 
ENDBRANCH  10  12
ENDBRANCH   8  10
ENDBRANCH   4   8
BRANCH   1  19
HETATM   19  C5  UNL     1       3.007  -0.445  -1.352  1.00  0.00     0.190 C 
BRANCH  19  20
HETATM   20  C4  UNL     1       4.054   0.196  -0.559  1.00  0.00    -0.038 A 
HETATM   21  C3  UNL     1       4.754  -0.689   0.271  1.00  0.00     0.010 A 
HETATM   22  C2  UNL     1       5.776  -0.349   1.111  1.00  0.00     0.024 A 
HETATM   23  C1  UNL     1       6.155   0.986   1.145  1.00  0.00     0.034 A 
HETATM   24 CL1  UNL     1       7.435   1.543   2.167  1.00  0.00    -0.084 Cl
HETATM   25  C15 UNL     1       5.501   1.880   0.355  1.00  0.00     0.024 A 
HETATM   26  C14 UNL     1       4.454   1.537  -0.507  1.00  0.00     0.010 A 
ENDBRANCH  19  20
ENDBRANCH   1  19
TORSDOF 5
