REMARK  4 active torsions:
REMARK  status: ('A' for Active; 'I' for Inactive)
REMARK    1  A    between atoms: N1_1  and  C1_2 
REMARK    2  A    between atoms: C3_5  and  C4_6 
REMARK    3  A    between atoms: C12_17  and  C13_18 
REMARK    4  A    between atoms: C14_19  and  C15_20 
ROOT
HETATM    1  C1  UNL     1      -2.132  -1.493   2.057  1.00  0.00     0.719 A 
HETATM    2  N2  UNL     1      -1.022  -1.890   1.470  1.00  0.00    -0.075 NA
HETATM    3  C2  UNL     1      -0.757  -1.107   0.315  1.00  0.00     0.199 A 
HETATM    4  C3  UNL     1      -0.860  -1.785  -0.987  1.00  0.00    -0.024 C 
HETATM    5  C5  UNL     1      -1.295  -1.004  -1.995  1.00  0.00     0.001 C 
HETATM    6  C6  UNL     1      -2.313   0.068  -1.856  1.00  0.00     0.157 C 
HETATM    7  N3  UNL     1      -2.119   0.808  -0.638  1.00  0.00    -0.339 N 
HETATM    8  C7  UNL     1      -2.102   2.180  -0.398  1.00  0.00     0.093 C 
HETATM    9  C8  UNL     1      -1.492   3.181   0.182  1.00  0.00     0.019 C 
HETATM   10  C9  UNL     1      -0.308   3.269   1.002  1.00  0.00     0.018 C 
HETATM   11  C10 UNL     1       0.510   2.335   1.409  1.00  0.00     0.088 C 
HETATM   12  N4  UNL     1       0.547   0.944   1.212  1.00  0.00    -0.366 N 
HETATM   13  C11 UNL     1       0.435  -0.238   0.427  1.00  0.00     0.052 C 
HETATM   14  C12 UNL     1       1.535  -0.559  -0.260  1.00  0.00     0.028 C 
HETATM   15  C16 UNL     1      -1.943  -0.180   0.351  1.00  0.00     0.167 A 
HETATM   16  N5  UNL     1      -2.709  -0.384   1.310  1.00  0.00    -0.046 NA
HETATM   17  H12 UNL     1       0.772   0.292   2.024  1.00  0.00     0.165 HD
ENDROOT
BRANCH  14  18
HETATM   18  C13 UNL     1       2.778   0.209  -0.241  1.00  0.00    -0.001 C 
HETATM   19  C14 UNL     1       3.900  -0.028  -0.880  1.00  0.00    -0.016 C 
BRANCH  19  20
HETATM   20  C15 UNL     1       5.089   0.854  -0.757  1.00  0.00     0.112 C 
HETATM   21 BR1  UNL     1       4.628   2.304   0.459  1.00  0.00    -0.092 Br
ENDBRANCH  19  20
ENDBRANCH  14  18
BRANCH   4  22
HETATM   22  C4  UNL     1      -0.527  -3.215  -1.243  1.00  0.00     0.152 C 
HETATM   23 CL1  UNL     1      -0.771  -3.679  -2.917  1.00  0.00    -0.126 Cl
ENDBRANCH   4  22
BRANCH   1  24
HETATM   24  N1  UNL     1      -2.726  -2.041   3.251  1.00  0.00    -0.231 N 
HETATM   25  H1  UNL     1      -3.120  -2.994   3.442  1.00  0.00     0.174 HD
HETATM   26  H2  UNL     1      -2.774  -1.378   4.065  1.00  0.00     0.174 HD
ENDBRANCH   1  24
TORSDOF 4
