REMARK  1 active torsions:
REMARK  status: ('A' for Active; 'I' for Inactive)
REMARK    1  A    between atoms: C7_8  and  N1_9 
ROOT
HETATM    1  N1  UNL     1       1.011  -0.650   0.135  1.00  0.00    -0.352 N 
HETATM    2  C8  UNL     1       0.393  -1.042  -1.119  1.00  0.00     0.117 C 
HETATM    3  C9  UNL     1      -0.902  -0.695  -1.269  1.00  0.00     0.035 C 
HETATM    4  N2  UNL     1      -2.152  -0.612  -1.937  1.00  0.00    -0.357 N 
HETATM    5  C10 UNL     1      -3.067  -0.121  -0.973  1.00  0.00     0.039 A 
HETATM    6  C11 UNL     1      -4.441  -0.039  -1.231  1.00  0.00     0.031 A 
HETATM    7  C12 UNL     1      -5.256   0.323  -0.152  1.00  0.00     0.021 A 
HETATM    8  C13 UNL     1      -4.694   0.581   1.103  1.00  0.00     0.011 A 
HETATM    9 BR1  UNL     1      -5.814   1.073   2.578  1.00  0.00    -0.051 Br
HETATM   10  C14 UNL     1      -3.331   0.495   1.331  1.00  0.00     0.029 A 
HETATM   11  C15 UNL     1      -2.542   0.142   0.266  1.00  0.00    -0.019 A 
HETATM   12  C16 UNL     1      -1.123   0.052   0.022  1.00  0.00     0.090 C 
HETATM   13  C17 UNL     1      -0.254  -0.733   0.939  1.00  0.00     0.144 C 
HETATM   14  H8  UNL     1      -2.206  -0.892  -2.929  1.00  0.00     0.166 HD
ENDROOT
BRANCH   1  15
HETATM   15  C7  UNL     1       2.404  -0.364   0.165  1.00  0.00     0.062 A 
HETATM   16  C2  UNL     1       3.013   0.856  -0.042  1.00  0.00    -0.033 A 
HETATM   17  C1  UNL     1       2.098   1.991  -0.327  1.00  0.00     0.050 C 
HETATM   18  C3  UNL     1       4.387   0.969   0.021  1.00  0.00     0.009 A 
HETATM   19  C4  UNL     1       5.096  -0.173   0.294  1.00  0.00     0.002 A 
HETATM   20  C5  UNL     1       4.548  -1.408   0.508  1.00  0.00     0.026 A 
HETATM   21  C6  UNL     1       3.165  -1.489   0.438  1.00  0.00     0.061 A 
HETATM   22 CL1  UNL     1       2.489  -3.100   0.719  1.00  0.00    -0.082 Cl
ENDBRANCH   1  15
TORSDOF 1
