REMARK  5 active torsions:
REMARK  status: ('A' for Active; 'I' for Inactive)
REMARK    1  A    between atoms: N1_1  and  C1_2 
REMARK    2  A    between atoms: N2_6  and  C5_7 
REMARK    3  A    between atoms: C5_7  and  C6_8 
REMARK    4  A    between atoms: C13_19  and  N5_20 
REMARK    5  A    between atoms: N5_20  and  C14_21 
ROOT
HETATM    1  C1  UNL     1       0.689  -0.825   0.899  1.00  0.00     0.103 A 
HETATM    2  C2  UNL     1      -0.564  -0.246   0.788  1.00  0.00     0.067 A 
HETATM    3  C3  UNL     1      -0.612   0.182  -0.544  1.00  0.00     0.057 A 
HETATM    4  C4  UNL     1       0.600  -0.181  -1.083  1.00  0.00     0.142 A 
HETATM    5  N2  UNL     1       1.422  -0.801  -0.229  1.00  0.00    -0.313 N 
HETATM    6  N3  UNL     1       0.850   0.047  -2.324  1.00  0.00    -0.252 NA
HETATM    7  C12 UNL     1      -0.087   0.678  -3.231  1.00  0.00     0.274 A 
HETATM    8  N4  UNL     1      -1.285   1.077  -2.566  1.00  0.00    -0.357 N 
HETATM    9  C13 UNL     1      -1.572   0.768  -1.223  1.00  0.00     0.117 A 
HETATM   10  H11 UNL     1      -1.953   1.613  -3.135  1.00  0.00     0.162 HD
ENDROOT
BRANCH   5  11
HETATM   11  C5  UNL     1       2.724  -1.385  -0.233  1.00  0.00     0.172 C 
BRANCH  11  12
HETATM   12  C6  UNL     1       3.862  -0.586   0.178  1.00  0.00    -0.018 A 
HETATM   13  C7  UNL     1       4.302  -0.898   1.475  1.00  0.00     0.012 A 
HETATM   14  C8  UNL     1       5.359  -0.327   2.146  1.00  0.00     0.024 A 
HETATM   15  C9  UNL     1       6.071   0.655   1.487  1.00  0.00     0.035 A 
HETATM   16 CL1  UNL     1       7.431   1.429   2.266  1.00  0.00    -0.084 Cl
HETATM   17  C10 UNL     1       5.678   1.003   0.201  1.00  0.00     0.048 A 
HETATM   18  C11 UNL     1       4.603   0.396  -0.433  1.00  0.00     0.043 A 
HETATM   19 CL2  UNL     1       4.082   0.791  -2.044  1.00  0.00    -0.084 Cl
ENDBRANCH  11  12
ENDBRANCH   5  11
BRANCH   1  20
HETATM   20  N1  UNL     1       1.041  -1.351   2.164  1.00  0.00    -0.385 N 
HETATM   21  H1  UNL     1       1.173  -1.407   3.155  1.00  0.00     0.157 HD
HETATM   22  H2  UNL     1       1.410  -2.330   2.097  1.00  0.00     0.157 HD
ENDBRANCH   1  20
BRANCH   9  23
HETATM   23  N5  UNL     1      -2.854   1.081  -0.753  1.00  0.00    -0.342 N 
HETATM   24  H12 UNL     1      -3.234   2.067  -0.880  1.00  0.00     0.167 HD
BRANCH  23  25
HETATM   25  C14 UNL     1      -3.995   0.510  -0.089  1.00  0.00     0.034 A 
HETATM   26  C15 UNL     1      -4.374   0.600   1.234  1.00  0.00     0.029 A 
HETATM   27  C16 UNL     1      -5.498  -0.027   1.679  1.00  0.00     0.004 A 
HETATM   28  C17 UNL     1      -6.256  -0.752   0.806  1.00  0.00     0.019 A 
HETATM   29  C18 UNL     1      -5.950  -0.890  -0.522  1.00  0.00     0.013 A 
HETATM   30 BR1  UNL     1      -7.071  -1.932  -1.661  1.00  0.00    -0.051 Br
HETATM   31  C19 UNL     1      -4.793  -0.240  -0.962  1.00  0.00     0.048 A 
ENDBRANCH  23  25
ENDBRANCH   9  23
TORSDOF 5
