REMARK  4 active torsions:
REMARK  status: ('A' for Active; 'I' for Inactive)
REMARK    1  A    between atoms: N1_1  and  C1_2 
REMARK    2  A    between atoms: C2_4  and  N3_5 
REMARK    3  A    between atoms: N3_5  and  C3_6 
REMARK    4  A    between atoms: N4_16  and  C12_17 
ROOT
HETATM    1  C1  UNL     1       0.840  -2.123  -1.009  1.00  0.00     0.724 A 
HETATM    2  N2  UNL     1      -0.432  -1.909  -0.559  1.00  0.00    -0.044 NA
HETATM    3  C2  UNL     1      -0.720  -0.865   0.239  1.00  0.00     0.161 A 
HETATM    4  C9  UNL     1       0.293  -0.006   0.600  1.00  0.00     0.059 A 
HETATM    5  C10 UNL     1       0.319   1.123   1.389  1.00  0.00     0.036 A 
HETATM    6  C11 UNL     1       1.618   1.600   1.420  1.00  0.00     0.095 A 
HETATM    7  N4  UNL     1       2.353   0.765   0.658  1.00  0.00    -0.327 N 
HETATM    8  C17 UNL     1       1.578  -0.209   0.154  1.00  0.00     0.164 A 
HETATM    9  N5  UNL     1       1.809  -1.266  -0.639  1.00  0.00    -0.044 NA
ENDROOT
BRANCH   3  10
HETATM   10  N3  UNL     1      -2.070  -0.734   0.657  1.00  0.00    -0.339 N 
HETATM   11  H3  UNL     1      -1.959  -1.097   1.645  1.00  0.00     0.167 HD
BRANCH  10  12
HETATM   12  C3  UNL     1      -3.357  -0.332   0.251  1.00  0.00     0.051 A 
HETATM   13  C4  UNL     1      -4.250  -1.409   0.364  1.00  0.00     0.031 A 
HETATM   14  C5  UNL     1      -5.595  -1.277   0.018  1.00  0.00     0.002 A 
HETATM   15  C6  UNL     1      -5.958  -0.037  -0.429  1.00  0.00     0.002 A 
HETATM   16  C7  UNL     1      -5.149   1.067  -0.569  1.00  0.00     0.021 A 
HETATM   17  C8  UNL     1      -3.849   0.865  -0.213  1.00  0.00     0.037 A 
HETATM   18 BR1  UNL     1      -2.575   2.253  -0.338  1.00  0.00    -0.049 Br
ENDBRANCH  10  12
ENDBRANCH   3  10
BRANCH   1  19
HETATM   19  N1  UNL     1       1.039  -3.256  -1.847  1.00  0.00    -0.231 N 
HETATM   20  H1  UNL     1       1.557  -3.425  -2.751  1.00  0.00     0.174 HD
HETATM   21  H2  UNL     1       0.666  -4.219  -1.697  1.00  0.00     0.174 HD
ENDBRANCH   1  19
BRANCH   7  22
HETATM   22  C12 UNL     1       3.747   0.993   0.490  1.00  0.00     0.158 A 
HETATM   23  C13 UNL     1       4.481   0.032  -0.323  1.00  0.00     0.004 A 
HETATM   24  C14 UNL     1       5.101   0.653  -1.334  1.00  0.00    -0.000 A 
HETATM   25  C15 UNL     1       4.823   2.082  -1.264  1.00  0.00     0.021 A 
HETATM   26  C16 UNL     1       4.042   2.292  -0.215  1.00  0.00     0.038 A 
HETATM   27 CL1  UNL     1       3.481   3.890   0.211  1.00  0.00    -0.086 Cl
ENDBRANCH   7  22
TORSDOF 4
