REMARK  6 active torsions:
REMARK  status: ('A' for Active; 'I' for Inactive)
REMARK    1  A    between atoms: C4_5  and  C5_6 
REMARK    2  A    between atoms: C5_6  and  C6_7 
REMARK    3  A    between atoms: N1_8  and  C7_9 
REMARK    4  A    between atoms: C8_10  and  C9_11 
REMARK    5  A    between atoms: C10_12  and  N2_13 
REMARK    6  A    between atoms: N2_13  and  C11_14 
ROOT
HETATM    1  C6  UNL     1      -1.761   1.400  -0.548  1.00  0.00     0.093 C 
HETATM    2  N1  UNL     1      -0.871   0.742  -1.191  1.00  0.00    -0.277 NA
ENDROOT
BRANCH   2   3
HETATM    3  C7  UNL     1      -0.611  -0.632  -1.018  1.00  0.00     0.116 C 
HETATM    4  C8  UNL     1       0.608  -0.652  -0.478  1.00  0.00     0.021 C 
BRANCH   4   5
HETATM    5  C9  UNL     1       1.331   0.578  -0.210  1.00  0.00     0.018 C 
HETATM    6  C10 UNL     1       2.551   0.515   0.334  1.00  0.00     0.084 C 
BRANCH   6   7
HETATM    7  N2  UNL     1       3.226  -0.670   0.684  1.00  0.00    -0.388 N 
HETATM    8  H10 UNL     1       2.648  -1.412   1.107  1.00  0.00     0.159 HD
BRANCH   7   9
HETATM    9  C11 UNL     1       4.662  -0.821   0.452  1.00  0.00     0.127 A 
HETATM   10  C12 UNL     1       5.422   0.231   1.196  1.00  0.00     0.002 A 
HETATM   11  C13 UNL     1       6.097   0.986   0.350  1.00  0.00    -0.002 A 
HETATM   12  C14 UNL     1       5.853   0.514  -1.016  1.00  0.00    -0.002 A 
HETATM   13  C15 UNL     1       5.038  -0.511  -0.947  1.00  0.00     0.002 A 
ENDBRANCH   7   9
ENDBRANCH   6   7
ENDBRANCH   4   5
ENDBRANCH   2   3
BRANCH   1  14
HETATM   14  C5  UNL     1      -2.830   1.373   0.473  1.00  0.00     0.087 C 
BRANCH  14  15
HETATM   15  C4  UNL     1      -3.891   0.387   0.178  1.00  0.00    -0.032 A 
HETATM   16  C3  UNL     1      -3.995  -0.820   0.846  1.00  0.00     0.011 A 
HETATM   17  C2  UNL     1      -4.988  -1.739   0.570  1.00  0.00     0.024 A 
HETATM   18  C1  UNL     1      -5.938  -1.471  -0.412  1.00  0.00     0.035 A 
HETATM   19 CL1  UNL     1      -7.237  -2.571  -0.836  1.00  0.00    -0.084 Cl
HETATM   20  C17 UNL     1      -5.822  -0.263  -1.069  1.00  0.00     0.048 A 
HETATM   21  C16 UNL     1      -4.836   0.664  -0.805  1.00  0.00     0.042 A 
HETATM   22 CL2  UNL     1      -4.700   2.196  -1.650  1.00  0.00    -0.084 Cl
ENDBRANCH  14  15
ENDBRANCH   1  14
TORSDOF 6
