REMARK  7 active torsions:
REMARK  status: ('A' for Active; 'I' for Inactive)
REMARK    1  A    between atoms: N1_1  and  C1_2 
REMARK    2  A    between atoms: C5_6  and  C6_7 
REMARK    3  A    between atoms: C7_9  and  N3_10 
REMARK    4  A    between atoms: N5_16  and  C12_17 
REMARK    5  A    between atoms: C12_17  and  C13_18 
REMARK    6  A    between atoms: C13_18  and  C14_19 
REMARK    7  A    between atoms: C14_19  and  C15_21 
ROOT
HETATM    1  C15 UNL     1      -5.740  -0.072   0.537  1.00  0.00     0.005 C 
HETATM    2  C16 UNL     1      -6.112   0.885  -0.278  1.00  0.00     0.215 C 
HETATM    3 CL2  UNL     1      -6.694   2.258  -1.196  1.00  0.00    -0.230 Cl
ENDROOT
BRANCH   1   4
HETATM    4  C14 UNL     1      -4.987  -1.270   0.061  1.00  0.00     0.107 C 
HETATM    5 CL1  UNL     1      -5.749  -2.759   0.655  1.00  0.00    -0.121 Cl
BRANCH   4   6
HETATM    6  C13 UNL     1      -3.520  -1.173   0.455  1.00  0.00     0.044 C 
BRANCH   6   7
HETATM    7  C12 UNL     1      -3.028   0.130  -0.118  1.00  0.00     0.132 C 
BRANCH   7   8
HETATM    8  N5  UNL     1      -1.630   0.365   0.178  1.00  0.00    -0.340 N 
HETATM    9  C8  UNL     1      -0.579  -0.013  -0.575  1.00  0.00     0.161 A 
HETATM   10  N4  UNL     1      -0.474  -0.669  -1.736  1.00  0.00    -0.044 NA
HETATM   11  C9  UNL     1       0.572   0.403   0.060  1.00  0.00     0.042 A 
HETATM   12  C7  UNL     1       0.750  -0.917  -2.275  1.00  0.00     0.722 A 
HETATM   13  N2  UNL     1       1.863  -0.504  -1.643  1.00  0.00    -0.062 NA
HETATM   14  C6  UNL     1       1.830   0.170  -0.457  1.00  0.00     0.100 A 
HETATM   15  C10 UNL     1       0.197   1.042   1.212  1.00  0.00     0.035 A 
HETATM   16  C11 UNL     1      -1.172   1.013   1.277  1.00  0.00     0.093 A 
BRANCH  12  17
HETATM   17  N3  UNL     1       0.835  -1.613  -3.503  1.00  0.00    -0.231 N 
HETATM   18  H6  UNL     1       1.031  -2.645  -3.449  1.00  0.00     0.174 HD
HETATM   19  H7  UNL     1       0.739  -1.295  -4.510  1.00  0.00     0.174 HD
ENDBRANCH  12  17
BRANCH  14  20
HETATM   20  C5  UNL     1       3.082   0.587   0.171  1.00  0.00    -0.004 A 
HETATM   21  C4  UNL     1       3.420   1.796   0.745  1.00  0.00     0.014 A 
HETATM   22  C3  UNL     1       4.651   1.994   1.284  1.00  0.00     0.003 A 
HETATM   23  C2  UNL     1       5.599   0.988   1.273  1.00  0.00     0.029 A 
HETATM   24  C1  UNL     1       5.287  -0.231   0.705  1.00  0.00     0.026 A 
HETATM   25  C17 UNL     1       4.032  -0.425   0.158  1.00  0.00     0.042 A 
BRANCH  24  26
HETATM   26  N1  UNL     1       6.329  -1.199   0.743  1.00  0.00    -0.399 N 
HETATM   27  H1  UNL     1       7.101  -1.530   0.105  1.00  0.00     0.156 HD
HETATM   28  H2  UNL     1       6.480  -1.814   1.569  1.00  0.00     0.156 HD
ENDBRANCH  24  26
ENDBRANCH  14  20
ENDBRANCH   7   8
ENDBRANCH   6   7
ENDBRANCH   4   6
ENDBRANCH   1   4
TORSDOF 7
