REMARK  3 active torsions:
REMARK  status: ('A' for Active; 'I' for Inactive)
REMARK    1  A    between atoms: B1_1  and  C1_2 
REMARK    2  A    between atoms: C6_8  and  C7_9 
REMARK    3  A    between atoms: N4_19  and  C14_20 
ROOT
HETATM    1  C7  UNL     1       1.361   0.066   0.040  1.00  0.00     0.067 C 
HETATM    2  N1  UNL     1       1.149  -1.113  -0.590  1.00  0.00    -0.266 NA
HETATM    3  C8  UNL     1      -0.033  -1.345  -1.490  1.00  0.00     0.319 C 
HETATM    4  N2  UNL     1      -1.304  -1.284  -1.027  1.00  0.00    -0.205 N 
HETATM    5  N3  UNL     1      -2.371  -0.674  -1.757  1.00  0.00    -0.289 N 
HETATM    6  C9  UNL     1      -3.101  -1.264  -2.901  1.00  0.00     0.178 C 
HETATM    7  C10 UNL     1      -2.918   0.681  -1.402  1.00  0.00     0.113 C 
HETATM    8  C11 UNL     1      -1.838   1.399  -0.973  1.00  0.00     0.050 C 
HETATM    9  C12 UNL     1      -1.098   0.446  -0.020  1.00  0.00     0.062 C 
HETATM   10  C13 UNL     1       0.142   0.988   0.296  1.00  0.00     0.063 C 
HETATM   11  N4  UNL     1      -1.613  -0.896   0.276  1.00  0.00    -0.238 N 
ENDROOT
BRANCH   1  12
HETATM   12  C6  UNL     1       2.453   0.754   0.566  1.00  0.00     0.009 A 
HETATM   13  C1  UNL     1       3.202   1.634  -0.185  1.00  0.00    -0.095 A 
HETATM   14  C2  UNL     1       4.279   2.276   0.432  1.00  0.00    -0.005 A 
HETATM   15  C3  UNL     1       4.562   2.011   1.774  1.00  0.00     0.001 A 
HETATM   16  C4  UNL     1       3.824   1.138   2.529  1.00  0.00     0.024 A 
HETATM   17  C5  UNL     1       2.747   0.497   1.911  1.00  0.00     0.046 A 
HETATM   18 CL1  UNL     1       1.807  -0.620   2.887  1.00  0.00    -0.083 Cl
BRANCH  13  19
HETATM   19  B1  UNL     1       2.871   1.918  -1.682  1.00  0.00     0.175 B 
HETATM   20  H1  UNL     1       1.750   1.863  -2.046  1.00  0.00    -0.026 HD
HETATM   21  H2  UNL     1       3.621   2.551  -2.317  1.00  0.00    -0.026 HD
ENDBRANCH  13  19
ENDBRANCH   1  12
BRANCH  11  22
HETATM   22  C14 UNL     1      -2.237  -1.639   1.356  1.00  0.00     0.058 A 
HETATM   23  C15 UNL     1      -1.757  -2.692   1.988  1.00  0.00     0.031 A 
HETATM   24  C16 UNL     1      -2.993  -2.578   2.702  1.00  0.00     0.005 A 
HETATM   25  C17 UNL     1      -3.463  -1.543   2.079  1.00  0.00     0.031 A 
ENDBRANCH  11  22
TORSDOF 3
