REMARK  7 active torsions:
REMARK  status: ('A' for Active; 'I' for Inactive)
REMARK    1  A    between atoms: N1_1  and  C1_2 
REMARK    2  A    between atoms: C2_4  and  N3_5 
REMARK    3  A    between atoms: N3_5  and  C3_6 
REMARK    4  A    between atoms: C3_6  and  C4_7 
REMARK    5  A    between atoms: C4_7  and  C5_8 
REMARK    6  A    between atoms: C12_15  and  N4_16 
REMARK    7  A    between atoms: N4_16  and  C13_17 
ROOT
HETATM    1  C1  UNL     1      -0.880   1.935   0.577  1.00  0.00     0.724 A 
HETATM    2  N2  UNL     1       0.264   1.984  -0.106  1.00  0.00    -0.046 NA
HETATM    3  C2  UNL     1       0.475   1.070  -1.060  1.00  0.00     0.146 A 
HETATM    4  C11 UNL     1      -0.482   0.135  -1.292  1.00  0.00     0.101 A 
HETATM    5  C12 UNL     1      -1.687   0.050  -0.602  1.00  0.00     0.150 A 
HETATM    6  N5  UNL     1      -1.808   1.001   0.328  1.00  0.00    -0.045 NA
ENDROOT
BRANCH   3   7
HETATM    7  N3  UNL     1       1.678   1.085  -1.810  1.00  0.00    -0.374 N 
HETATM    8  H3  UNL     1       1.817   0.352  -2.569  1.00  0.00     0.161 HD
BRANCH   7   9
HETATM    9  C3  UNL     1       2.731   2.052  -1.597  1.00  0.00     0.126 C 
BRANCH   9  10
HETATM   10  C4  UNL     1       3.281   1.902  -0.209  1.00  0.00     0.058 C 
BRANCH  10  11
HETATM   11  C5  UNL     1       3.842   0.544  -0.003  1.00  0.00    -0.057 A 
HETATM   12  C6  UNL     1       5.189   0.347  -0.329  1.00  0.00     0.007 A 
HETATM   13  C7  UNL     1       5.806  -0.862  -0.174  1.00  0.00     0.001 A 
HETATM   14  C8  UNL     1       5.116  -1.961   0.319  1.00  0.00     0.000 A 
HETATM   15  C9  UNL     1       3.796  -1.779   0.642  1.00  0.00     0.001 A 
HETATM   16  C10 UNL     1       3.193  -0.569   0.483  1.00  0.00     0.007 A 
ENDBRANCH  10  11
ENDBRANCH   9  10
ENDBRANCH   7   9
ENDBRANCH   3   7
BRANCH   1  17
HETATM   17  N1  UNL     1      -1.142   2.889   1.600  1.00  0.00    -0.231 N 
HETATM   18  H1  UNL     1      -1.597   3.815   1.627  1.00  0.00     0.174 HD
HETATM   19  H2  UNL     1      -0.843   2.700   2.592  1.00  0.00     0.174 HD
ENDBRANCH   1  17
BRANCH   5  20
HETATM   20  N4  UNL     1      -2.617  -0.969  -0.925  1.00  0.00    -0.340 N 
HETATM   21  H14 UNL     1      -2.338  -1.626  -1.694  1.00  0.00     0.167 HD
BRANCH  20  22
HETATM   22  C13 UNL     1      -3.880  -1.203  -0.331  1.00  0.00     0.035 A 
HETATM   23  C14 UNL     1      -4.446  -0.474   0.688  1.00  0.00     0.029 A 
HETATM   24  C15 UNL     1      -5.676  -0.706   1.263  1.00  0.00     0.004 A 
HETATM   25  C16 UNL     1      -6.407  -1.766   0.772  1.00  0.00     0.019 A 
HETATM   26  C17 UNL     1      -5.901  -2.532  -0.243  1.00  0.00     0.013 A 
HETATM   27 BR1  UNL     1      -6.916  -3.997  -0.920  1.00  0.00    -0.051 Br
HETATM   28  C18 UNL     1      -4.671  -2.243  -0.767  1.00  0.00     0.048 A 
ENDBRANCH  20  22
ENDBRANCH   5  20
TORSDOF 7
