REMARK  6 active torsions:
REMARK  status: ('A' for Active; 'I' for Inactive)
REMARK    1  A    between atoms: C3_3  and  C4_4 
REMARK    2  A    between atoms: C5_6  and  B1_7 
REMARK    3  A    between atoms: B1_7  and  N1_8 
REMARK    4  A    between atoms: N1_8  and  C6_9 
REMARK    5  A    between atoms: C10_15  and  O1_16 
REMARK    6  A    between atoms: C12_18  and  O2_19 
ROOT
HETATM    1  C6  UNL     1      -0.304  -0.907   0.484  1.00  0.00     0.142 A 
HETATM    2  N2  UNL     1       0.251  -2.117   0.785  1.00  0.00    -0.223 NA
HETATM    3  C7  UNL     1      -0.524  -3.094   1.288  1.00  0.00     0.236 A 
HETATM    4  N3  UNL     1      -1.854  -2.963   1.524  1.00  0.00    -0.241 NA
HETATM    5  C8  UNL     1      -2.415  -1.770   1.229  1.00  0.00     0.075 A 
HETATM    6  C9  UNL     1      -3.778  -1.617   1.465  1.00  0.00     0.072 A 
HETATM    7  C10 UNL     1      -4.385  -0.403   1.172  1.00  0.00     0.103 A 
HETATM    8  C12 UNL     1      -3.658   0.648   0.654  1.00  0.00     0.102 A 
HETATM    9  C14 UNL     1      -2.311   0.428   0.446  1.00  0.00     0.057 A 
HETATM   10  C15 UNL     1      -1.643  -0.748   0.712  1.00  0.00     0.042 A 
ENDROOT
BRANCH   1  11
HETATM   11  N1  UNL     1       0.367   0.230  -0.053  1.00  0.00    -0.340 NA
BRANCH  11  12
HETATM   12  B1  UNL     1       1.986   0.132  -0.650  1.00  0.00     0.338 B 
BRANCH  12  13
HETATM   13  C5  UNL     1       3.665  -0.086  -1.240  1.00  0.00    -0.039 C 
HETATM   14  C4  UNL     1       4.465   0.960  -1.250  1.00  0.00    -0.002 C 
HETATM   15 BR1  UNL     1       3.861   2.662  -0.654  1.00  0.00    -0.052 Br
BRANCH  14  16
HETATM   16  C3  UNL     1       5.830   0.797  -1.727  1.00  0.00     0.013 C 
HETATM   17  C2  UNL     1       6.658   1.848  -1.744  1.00  0.00    -0.030 C 
HETATM   18  C1  UNL     1       8.052   1.692  -2.229  1.00  0.00     0.036 C 
ENDBRANCH  14  16
ENDBRANCH  12  13
ENDBRANCH  11  12
ENDBRANCH   1  11
BRANCH   8  19
HETATM   19  O2  UNL     1      -4.251   1.879   0.353  1.00  0.00    -0.353 OA
HETATM   20  C13 UNL     1      -3.431   2.902  -0.175  1.00  0.00     0.210 C 
ENDBRANCH   8  19
BRANCH   7  21
HETATM   21  O1  UNL     1      -5.743  -0.234   1.401  1.00  0.00    -0.353 OA
HETATM   22  C11 UNL     1      -6.517  -1.305   1.936  1.00  0.00     0.210 C 
ENDBRANCH   7  21
TORSDOF 6
