REMARK  8 active torsions:
REMARK  status: ('A' for Active; 'I' for Inactive)
REMARK    1  A    between atoms: N1_2  and  C2_3 
REMARK    2  A    between atoms: N1_2  and  C14_19 
REMARK    3  A    between atoms: C3_4  and  C4_5 
REMARK    4  A    between atoms: C6_8  and  N3_9 
REMARK    5  A    between atoms: C7_11  and  C8_12 
REMARK    6  A    between atoms: C14_19  and  C15_20 
REMARK    7  A    between atoms: C16_21  and  C17_22 
REMARK    8  A    between atoms: C17_22  and  N5_23 
ROOT
HETATM    1  C4  UNL     1      -1.501  -0.604  -0.450  1.00  0.00     0.014 A 
HETATM    2  C5  UNL     1      -1.071  -1.908  -0.433  1.00  0.00     0.150 A 
HETATM    3  N2  UNL     1      -1.887  -2.963  -0.331  1.00  0.00    -0.075 NA
HETATM    4  C6  UNL     1      -3.235  -2.773  -0.237  1.00  0.00     0.720 A 
HETATM    5  N4  UNL     1      -3.690  -1.518  -0.250  1.00  0.00    -0.062 NA
HETATM    6  C7  UNL     1      -2.865  -0.443  -0.352  1.00  0.00     0.098 A 
ENDROOT
BRANCH   1   7
HETATM    7  C3  UNL     1      -0.676   0.572  -0.568  1.00  0.00     0.032 C 
HETATM    8  C2  UNL     1       0.626   0.635  -0.620  1.00  0.00     0.086 C 
BRANCH   8   9
HETATM    9  N1  UNL     1       1.769  -0.195  -0.600  1.00  0.00    -0.391 N 
HETATM   10  C1  UNL     1       2.600  -0.473  -1.766  1.00  0.00     0.149 C 
BRANCH   9  11
HETATM   11  C14 UNL     1       2.381  -0.928   0.492  1.00  0.00     0.148 C 
BRANCH  11  12
HETATM   12  C15 UNL     1       3.694  -0.347   0.871  1.00  0.00    -0.010 C 
HETATM   13  C16 UNL     1       5.011  -0.595   0.971  1.00  0.00     0.000 C 
BRANCH  13  14
HETATM   14  C17 UNL     1       6.090   0.321   1.433  1.00  0.00     0.293 C 
BRANCH  14  15
HETATM   15  N5  UNL     1       7.046   0.496   0.374  1.00  0.00     0.081 N 
HETATM   16  H19 UNL     1       6.965  -0.204  -0.371  1.00  0.00     0.313 HD
HETATM   17  H20 UNL     1       6.923   1.443  -0.072  1.00  0.00     0.313 HD
ENDBRANCH  14  15
ENDBRANCH  13  14
ENDBRANCH  11  12
ENDBRANCH   9  11
ENDBRANCH   8   9
ENDBRANCH   1   7
BRANCH   6  18
HETATM   18  C8  UNL     1      -3.559   0.835  -0.347  1.00  0.00    -0.005 A 
HETATM   19  C9  UNL     1      -4.612   0.929  -1.246  1.00  0.00     0.014 A 
HETATM   20  C10 UNL     1      -5.375   2.080  -1.335  1.00  0.00     0.002 A 
HETATM   21  C11 UNL     1      -5.125   3.188  -0.534  1.00  0.00     0.019 A 
HETATM   22  C12 UNL     1      -4.070   3.088   0.365  1.00  0.00     0.011 A 
HETATM   23 BR1  UNL     1      -3.632   4.538   1.512  1.00  0.00    -0.051 Br
HETATM   24  C13 UNL     1      -3.331   1.935   0.431  1.00  0.00     0.032 A 
ENDBRANCH   6  18
BRANCH   4  25
HETATM   25  N3  UNL     1      -4.067  -3.922  -0.129  1.00  0.00    -0.231 N 
HETATM   26  H7  UNL     1      -4.477  -3.963   0.833  1.00  0.00     0.174 HD
HETATM   27  H8  UNL     1      -4.126  -4.506  -0.990  1.00  0.00     0.174 HD
ENDBRANCH   4  25
TORSDOF 8
