REMARK  7 active torsions:
REMARK  status: ('A' for Active; 'I' for Inactive)
REMARK    1  A    between atoms: O1_2  and  C2_3 
REMARK    2  A    between atoms: C4_5  and  N1_6 
REMARK    3  A    between atoms: N1_6  and  C5_7 
REMARK    4  A    between atoms: C12_16  and  N4_17 
REMARK    5  A    between atoms: N4_17  and  C13_18 
REMARK    6  A    between atoms: C13_18  and  N5_19 
REMARK    7  A    between atoms: C14_20  and  C16_22 
ROOT
HETATM    1  C2  UNL     1       0.653  -0.047   0.102  1.00  0.00     0.096 A 
HETATM    2  C3  UNL     1      -0.599   0.090   0.536  1.00  0.00     0.068 A 
HETATM    3  C4  UNL     1      -1.322   0.944  -0.255  1.00  0.00     0.032 A 
HETATM    4  C10 UNL     1      -0.704   1.525  -1.343  1.00  0.00     0.031 A 
HETATM    5  C11 UNL     1       0.686   1.175  -1.559  1.00  0.00     0.034 A 
HETATM    6  C12 UNL     1       1.584   0.249  -0.755  1.00  0.00     0.063 A 
ENDROOT
BRANCH   3   7
HETATM    7  N1  UNL     1      -2.658   1.107   0.183  1.00  0.00    -0.359 N 
HETATM    8  H5  UNL     1      -3.187   1.792  -0.394  1.00  0.00     0.162 HD
BRANCH   7   9
HETATM    9  C5  UNL     1      -3.261   0.420   1.305  1.00  0.00     0.348 C 
HETATM   10  C6  UNL     1      -3.425  -1.033   1.019  1.00  0.00     0.328 C 
HETATM   11  N2  UNL     1      -4.688  -1.412   0.432  1.00  0.00     0.089 N 
HETATM   12  C7  UNL     1      -4.710  -1.159  -0.988  1.00  0.00     0.310 C 
HETATM   13  C8  UNL     1      -5.844  -0.912   1.128  1.00  0.00     0.302 C 
HETATM   14  C9  UNL     1      -5.461   0.120   2.172  1.00  0.00     0.302 C 
HETATM   15  N3  UNL     1      -4.523   1.061   1.559  1.00  0.00     0.109 N 
HETATM   16  H16 UNL     1      -4.426   1.872   2.211  1.00  0.00     0.318 HD
ENDBRANCH   7   9
ENDBRANCH   3   7
BRANCH   1  17
HETATM   17  O1  UNL     1       1.687  -0.864   0.697  1.00  0.00    -0.354 OA
HETATM   18  C1  UNL     1       1.361  -1.588   1.847  1.00  0.00     0.210 C 
ENDBRANCH   1  17
BRANCH   6  19
HETATM   19  N4  UNL     1       2.594   0.571  -1.686  1.00  0.00    -0.370 N 
HETATM   20  H19 UNL     1       2.910   1.061  -2.514  1.00  0.00     0.161 HD
BRANCH  19  21
HETATM   21  C13 UNL     1       3.727  -0.182  -1.210  1.00  0.00     0.270 C 
BRANCH  21  22
HETATM   22  N5  UNL     1       4.902  -0.045  -1.996  1.00  0.00    -0.278 NA
HETATM   23  C14 UNL     1       6.024   0.353  -1.499  1.00  0.00     0.018 C 
HETATM   24  C15 UNL     1       7.011   0.368  -2.623  1.00  0.00     0.066 C 
BRANCH  23  25
HETATM   25  C16 UNL     1       6.497   0.772  -0.150  1.00  0.00     0.168 C 
HETATM   26 CL1  UNL     1       7.021   2.476  -0.166  1.00  0.00    -0.124 Cl
ENDBRANCH  23  25
ENDBRANCH  21  22
ENDBRANCH  19  21
ENDBRANCH   6  19
TORSDOF 7
