REMARK  7 active torsions:
REMARK  status: ('A' for Active; 'I' for Inactive)
REMARK    1  A    between atoms: C2_2  and  C3_3 
REMARK    2  A    between atoms: C4_4  and  C5_5 
REMARK    3  A    between atoms: C6_6  and  N1_7 
REMARK    4  A    between atoms: N1_7  and  C7_8 
REMARK    5  A    between atoms: N2_12  and  C11_13 
REMARK    6  A    between atoms: C11_13  and  C12_14 
REMARK    7  A    between atoms: C20_23  and  N4_24 
ROOT
HETATM    1  C7  UNL     1       0.219  -1.672  -0.677  1.00  0.00     0.074 A 
HETATM    2  C8  UNL     1      -0.980  -1.126  -0.745  1.00  0.00     0.020 A 
HETATM    3  C9  UNL     1      -1.642  -0.334  -1.652  1.00  0.00     0.033 A 
HETATM    4  C10 UNL     1      -2.907  -0.072  -1.167  1.00  0.00     0.092 A 
HETATM    5  N2  UNL     1      -3.047  -0.694   0.040  1.00  0.00    -0.351 N 
HETATM    6  C18 UNL     1      -1.870  -1.332   0.286  1.00  0.00     0.062 A 
HETATM    7  C19 UNL     1      -1.590  -2.055   1.358  1.00  0.00     0.116 A 
HETATM    8  N3  UNL     1      -0.298  -2.638   1.423  1.00  0.00    -0.363 N 
HETATM    9  C20 UNL     1       0.732  -2.516   0.433  1.00  0.00     0.367 A 
HETATM   10  H21 UNL     1       0.054  -3.230   2.208  1.00  0.00     0.161 HD
ENDROOT
BRANCH   1  11
HETATM   11  N1  UNL     1       1.036  -1.389  -1.788  1.00  0.00    -0.365 N 
HETATM   12  H10 UNL     1       0.712  -1.112  -2.740  1.00  0.00     0.165 HD
BRANCH  11  13
HETATM   13  C6  UNL     1       2.424  -1.355  -2.079  1.00  0.00     0.088 C 
HETATM   14  C5  UNL     1       3.132  -0.222  -1.950  1.00  0.00     0.017 C 
BRANCH  14  15
HETATM   15  C4  UNL     1       4.556  -0.189  -2.249  1.00  0.00    -0.003 C 
HETATM   16  C3  UNL     1       5.267   0.909  -2.129  1.00  0.00    -0.027 C 
BRANCH  16  17
HETATM   17  C2  UNL     1       4.893   2.281  -1.707  1.00  0.00     0.022 C 
HETATM   18  C1  UNL     1       5.719   2.641  -0.470  1.00  0.00     0.009 C 
ENDBRANCH  16  17
ENDBRANCH  14  15
ENDBRANCH  11  13
ENDBRANCH   1  11
BRANCH   9  19
HETATM   19  N4  UNL     1       1.264  -3.779  -0.024  1.00  0.00     0.107 N 
HETATM   20  H23 UNL     1       2.112  -3.986   0.577  1.00  0.00     0.316 HD
HETATM   21  H24 UNL     1       0.576  -4.533  -0.076  1.00  0.00     0.316 HD
ENDBRANCH   9  19
BRANCH   5  22
HETATM   22  C11 UNL     1      -4.258  -0.631   0.836  1.00  0.00     0.167 C 
BRANCH  22  23
HETATM   23  C12 UNL     1      -4.136   0.561   1.745  1.00  0.00    -0.040 A 
HETATM   24  C13 UNL     1      -4.618   1.753   1.218  1.00  0.00     0.009 A 
HETATM   25  C14 UNL     1      -4.562   2.919   1.959  1.00  0.00     0.001 A 
HETATM   26  C15 UNL     1      -4.010   2.868   3.245  1.00  0.00     0.000 A 
HETATM   27  C16 UNL     1      -3.533   1.675   3.760  1.00  0.00     0.001 A 
HETATM   28  C17 UNL     1      -3.591   0.500   3.012  1.00  0.00     0.009 A 
ENDBRANCH  22  23
ENDBRANCH   5  22
TORSDOF 7
