REMARK  3 active torsions:
REMARK  status: ('A' for Active; 'I' for Inactive)
REMARK    1  A    between atoms: N1_1  and  C1_2 
REMARK    2  A    between atoms: C2_4  and  C3_5 
REMARK    3  A    between atoms: N3_15  and  C12_16 
ROOT
HETATM    1  C1  UNL     1      -0.482  -2.381   0.695  1.00  0.00     0.722 A 
HETATM    2  N2  UNL     1      -1.632  -1.682   0.643  1.00  0.00    -0.062 NA
HETATM    3  C2  UNL     1      -1.683  -0.345   0.410  1.00  0.00     0.100 A 
HETATM    4  C9  UNL     1      -0.476   0.294   0.223  1.00  0.00     0.043 A 
HETATM    5  C10 UNL     1      -0.254   1.614  -0.023  1.00  0.00     0.035 A 
HETATM    6  C11 UNL     1       1.126   1.735  -0.130  1.00  0.00     0.100 A 
HETATM    7  N3  UNL     1       1.691   0.507   0.052  1.00  0.00    -0.308 N 
HETATM    8  C18 UNL     1       0.708  -0.410   0.274  1.00  0.00     0.166 A 
HETATM    9  N4  UNL     1       0.706  -1.744   0.509  1.00  0.00    -0.044 NA
ENDROOT
BRANCH   3  10
HETATM   10  C3  UNL     1      -3.012   0.259   0.386  1.00  0.00    -0.004 A 
HETATM   11  C4  UNL     1      -3.944  -0.481  -0.350  1.00  0.00     0.014 A 
HETATM   12  C5  UNL     1      -5.257  -0.099  -0.506  1.00  0.00     0.002 A 
HETATM   13  C6  UNL     1      -5.669   1.077   0.098  1.00  0.00     0.019 A 
HETATM   14  C7  UNL     1      -4.765   1.807   0.819  1.00  0.00     0.011 A 
HETATM   15 BR1  UNL     1      -5.295   3.431   1.665  1.00  0.00    -0.051 Br
HETATM   16  C8  UNL     1      -3.451   1.430   0.978  1.00  0.00     0.032 A 
ENDBRANCH   3  10
BRANCH   1  17
HETATM   17  N1  UNL     1      -0.566  -3.782   0.947  1.00  0.00    -0.231 N 
HETATM   18  H1  UNL     1      -0.783  -4.287   1.852  1.00  0.00     0.174 HD
HETATM   19  H2  UNL     1      -0.350  -4.145  -0.023  1.00  0.00     0.174 HD
ENDBRANCH   1  17
BRANCH   7  20
HETATM   20  C12 UNL     1       3.063   0.101   0.038  1.00  0.00     0.032 C 
HETATM   21  C13 UNL     1       3.749   0.464   1.095  1.00  0.00    -0.001 C 
HETATM   22  C14 UNL     1       4.977   0.874   1.017  1.00  0.00     0.014 C 
HETATM   23  C15 UNL     1       5.742   0.611  -0.212  1.00  0.00    -0.003 C 
HETATM   24  C16 UNL     1       5.195  -0.120  -1.164  1.00  0.00    -0.021 C 
HETATM   25  C17 UNL     1       3.825  -0.662  -0.979  1.00  0.00     0.085 C 
ENDBRANCH   7  20
TORSDOF 3
