REMARK  4 active torsions:
REMARK  status: ('A' for Active; 'I' for Inactive)
REMARK    1  A    between atoms: N1_1  and  C1_2 
REMARK    2  A    between atoms: C2_3  and  N2_4 
REMARK    3  A    between atoms: C6_8  and  N3_9 
REMARK    4  A    between atoms: N3_9  and  C7_10 
ROOT
HETATM    1  N2  UNL     1      -1.071  -0.074   0.175  1.00  0.00    -0.317 N 
HETATM    2  C3  UNL     1      -0.695   0.577   1.387  1.00  0.00     0.111 C 
HETATM    3  C4  UNL     1      -0.058   1.427   0.627  1.00  0.00     0.007 C 
HETATM    4  C5  UNL     1       1.184   1.093   0.396  1.00  0.00     0.037 C 
HETATM    5  C6  UNL     1       1.301  -0.217   0.195  1.00  0.00     0.141 C 
HETATM    6  N4  UNL     1       0.671  -1.160   1.086  1.00  0.00    -0.224 NA
HETATM    7  C13 UNL     1      -0.186  -2.033   0.615  1.00  0.00     0.236 C 
HETATM    8  N5  UNL     1      -0.282  -1.801  -0.788  1.00  0.00    -0.237 NA
HETATM    9  C14 UNL     1      -0.797  -0.659  -1.098  1.00  0.00     0.215 C 
ENDROOT
BRANCH   1  10
HETATM   10  C2  UNL     1      -2.497  -0.283   0.169  1.00  0.00     0.043 C 
HETATM   11  C1  UNL     1      -3.203   0.726  -0.376  1.00  0.00     0.029 C 
HETATM   12  C18 UNL     1      -4.709   0.673  -0.461  1.00  0.00     0.085 C 
HETATM   13  C17 UNL     1      -5.206   0.336   0.920  1.00  0.00    -0.024 C 
HETATM   14  C16 UNL     1      -4.537  -0.691   1.431  1.00  0.00    -0.024 C 
HETATM   15  C15 UNL     1      -3.443  -1.335   0.612  1.00  0.00     0.086 C 
BRANCH  11  16
HETATM   16  N1  UNL     1      -2.523   1.890  -0.893  1.00  0.00    -0.401 N 
HETATM   17  H1  UNL     1      -2.014   2.776  -1.031  1.00  0.00     0.156 HD
HETATM   18  H2  UNL     1      -2.402   2.035  -1.939  1.00  0.00     0.156 HD
ENDBRANCH  11  16
ENDBRANCH   1  10
BRANCH   5  19
HETATM   19  N3  UNL     1       2.127  -0.285  -0.987  1.00  0.00    -0.340 N 
HETATM   20  H4  UNL     1       1.929  -0.479  -2.011  1.00  0.00     0.167 HD
BRANCH  19  21
HETATM   21  C7  UNL     1       3.506  -0.038  -0.715  1.00  0.00     0.035 A 
HETATM   22  C8  UNL     1       3.964   0.240   0.576  1.00  0.00     0.029 A 
HETATM   23  C9  UNL     1       5.293   0.486   0.888  1.00  0.00     0.004 A 
HETATM   24  C10 UNL     1       6.226   0.459  -0.123  1.00  0.00     0.019 A 
HETATM   25  C11 UNL     1       5.834   0.194  -1.400  1.00  0.00     0.013 A 
HETATM   26 BR1  UNL     1       7.116   0.150  -2.830  1.00  0.00    -0.051 Br
HETATM   27  C12 UNL     1       4.509  -0.049  -1.691  1.00  0.00     0.048 A 
ENDBRANCH  19  21
ENDBRANCH   5  19
TORSDOF 4
