REMARK  7 active torsions:
REMARK  status: ('A' for Active; 'I' for Inactive)
REMARK    1  A    between atoms: N1_1  and  C1_2 
REMARK    2  A    between atoms: C3_5  and  C4_6 
REMARK    3  A    between atoms: C5_7  and  N3_8 
REMARK    4  A    between atoms: N3_8  and  C6_9 
REMARK    5  A    between atoms: C6_9  and  C7_10 
REMARK    6  A    between atoms: C13_16  and  N4_17 
REMARK    7  A    between atoms: N4_17  and  C14_18 
ROOT
HETATM    1  C1  UNL     1      -2.440   2.678   2.811  1.00  0.00     0.721 A 
HETATM    2  N2  UNL     1      -1.789   2.001   3.766  1.00  0.00    -0.074 NA
HETATM    3  C2  UNL     1      -0.894   1.030   3.544  1.00  0.00     0.151 A 
HETATM    4  C3  UNL     1      -0.603   0.682   2.233  1.00  0.00     0.030 A 
HETATM    5  C13 UNL     1      -1.263   1.368   1.238  1.00  0.00     0.159 A 
HETATM    6  N5  UNL     1      -2.153   2.335   1.522  1.00  0.00    -0.044 NA
ENDROOT
BRANCH   4   7
HETATM    7  C4  UNL     1       0.324  -0.325   1.835  1.00  0.00     0.033 C 
HETATM    8  C5  UNL     1       0.787  -0.806   0.701  1.00  0.00     0.084 C 
BRANCH   8   9
HETATM    9  N3  UNL     1       0.794  -0.778  -0.716  1.00  0.00    -0.395 N 
HETATM   10  H6  UNL     1       0.088  -1.289  -1.298  1.00  0.00     0.159 HD
BRANCH   9  11
HETATM   11  C6  UNL     1       1.826  -0.003  -1.425  1.00  0.00     0.157 C 
BRANCH  11  12
HETATM   12  C7  UNL     1       3.145  -0.603  -1.012  1.00  0.00    -0.041 A 
HETATM   13  C8  UNL     1       3.798  -0.127   0.080  1.00  0.00     0.009 A 
HETATM   14  C9  UNL     1       5.002  -0.707   0.421  1.00  0.00     0.001 A 
HETATM   15  C10 UNL     1       5.549  -1.750  -0.317  1.00  0.00     0.000 A 
HETATM   16  C11 UNL     1       4.879  -2.238  -1.437  1.00  0.00     0.001 A 
HETATM   17  C12 UNL     1       3.662  -1.650  -1.781  1.00  0.00     0.009 A 
ENDBRANCH  11  12
ENDBRANCH   9  11
ENDBRANCH   8   9
ENDBRANCH   4   7
BRANCH   5  18
HETATM   18  N4  UNL     1      -1.201   1.234  -0.163  1.00  0.00    -0.340 N 
HETATM   19  H14 UNL     1      -0.525   1.661  -0.828  1.00  0.00     0.167 HD
BRANCH  18  20
HETATM   20  C14 UNL     1      -2.229   0.389  -0.725  1.00  0.00     0.035 A 
HETATM   21  C15 UNL     1      -2.297   0.183  -2.105  1.00  0.00     0.029 A 
HETATM   22  C16 UNL     1      -3.240  -0.604  -2.732  1.00  0.00     0.004 A 
HETATM   23  C17 UNL     1      -4.185  -1.234  -1.936  1.00  0.00     0.019 A 
HETATM   24  C18 UNL     1      -4.147  -1.053  -0.576  1.00  0.00     0.013 A 
HETATM   25 BR1  UNL     1      -5.407  -1.878   0.618  1.00  0.00    -0.051 Br
HETATM   26  C19 UNL     1      -3.189  -0.260   0.004  1.00  0.00     0.048 A 
ENDBRANCH  18  20
ENDBRANCH   5  18
BRANCH   1  27
HETATM   27  N1  UNL     1      -3.351   3.671   3.246  1.00  0.00    -0.231 N 
HETATM   28  H1  UNL     1      -3.153   4.539   2.703  1.00  0.00     0.174 HD
HETATM   29  H2  UNL     1      -4.069   3.539   3.967  1.00  0.00     0.174 HD
ENDBRANCH   1  27
TORSDOF 7
