REMARK  1 active torsions:
REMARK  status: ('A' for Active; 'I' for Inactive)
REMARK    1  A    between atoms: C5_6  and  C6_7 
ROOT
HETATM    1  C6  UNL     1       0.889  -0.104   0.750  1.00  0.00     0.046 C 
HETATM    2  C7  UNL     1       0.467   1.235   1.235  1.00  0.00     0.032 C 
HETATM    3  C8  UNL     1      -0.637   1.913   0.575  1.00  0.00     0.000 C 
HETATM    4  C9  UNL     1      -1.634   2.309  -0.169  1.00  0.00     0.020 C 
HETATM    5  C10 UNL     1      -2.623   2.188  -1.257  1.00  0.00    -0.025 C 
HETATM    6  C11 UNL     1      -3.130   1.476  -2.252  1.00  0.00    -0.029 C 
HETATM    7  C12 UNL     1      -3.332   0.364  -3.206  1.00  0.00     0.047 C 
HETATM    8  C13 UNL     1      -2.266  -0.669  -2.804  1.00  0.00     0.128 C 
HETATM    9  N1  UNL     1      -2.336  -1.126  -1.470  1.00  0.00    -0.360 N 
HETATM   10  C14 UNL     1      -2.951  -1.564  -0.243  1.00  0.00     0.173 C 
HETATM   11  C15 UNL     1      -1.615  -1.530   0.383  1.00  0.00     0.031 C 
HETATM   12  S1  UNL     1      -0.167  -1.524   1.218  1.00  0.00    -0.180 SA
HETATM   13  C16 UNL     1      -1.033  -1.221  -0.904  1.00  0.00     0.134 C 
HETATM   14  N2  UNL     1       0.140  -1.001  -1.410  1.00  0.00    -0.270 NA
HETATM   15  C17 UNL     1       1.117  -0.174  -0.735  1.00  0.00     0.175 C 
HETATM   16  H16 UNL     1      -0.125  -1.985   2.581  1.00  0.00     0.097 HD
ENDROOT
BRANCH   1  17
HETATM   17  C5  UNL     1       2.213  -0.375   1.375  1.00  0.00    -0.037 A 
HETATM   18  C4  UNL     1       3.335   0.139   0.710  1.00  0.00     0.009 A 
HETATM   19  C3  UNL     1       4.644  -0.037   1.177  1.00  0.00     0.002 A 
HETATM   20  C2  UNL     1       4.853  -0.747   2.343  1.00  0.00     0.019 A 
HETATM   21  C1  UNL     1       3.784  -1.259   3.011  1.00  0.00     0.011 A 
HETATM   22 BR1  UNL     1       3.995  -2.254   4.635  1.00  0.00    -0.051 Br
HETATM   23  C18 UNL     1       2.536  -1.062   2.520  1.00  0.00     0.027 A 
ENDBRANCH   1  17
TORSDOF 1
