REMARK  6 active torsions:
REMARK  status: ('A' for Active; 'I' for Inactive)
REMARK    1  A    between atoms: C3_4  and  C4_5 
REMARK    2  A    between atoms: C4_5  and  N1_6 
REMARK    3  A    between atoms: N1_6  and  C5_7 
REMARK    4  A    between atoms: C6_9  and  N3_10 
REMARK    5  A    between atoms: N5_16  and  C11_17 
REMARK    6  A    between atoms: C11_17  and  C12_18 
ROOT
HETATM    1  C5  UNL     1       1.348   1.830   0.056  1.00  0.00     0.157 A 
HETATM    2  N2  UNL     1       2.313   0.952  -0.281  1.00  0.00    -0.045 NA
HETATM    3  C6  UNL     1       2.095  -0.378  -0.311  1.00  0.00     0.724 A 
HETATM    4  N4  UNL     1       0.877  -0.847   0.004  1.00  0.00    -0.044 NA
HETATM    5  C7  UNL     1      -0.114  -0.006   0.346  1.00  0.00     0.163 A 
HETATM    6  C8  UNL     1       0.102   1.334   0.377  1.00  0.00     0.058 A 
HETATM    7  C9  UNL     1      -1.084   1.884   0.751  1.00  0.00     0.036 A 
HETATM    8  C10 UNL     1      -1.965   0.839   0.928  1.00  0.00     0.094 A 
HETATM    9  N5  UNL     1      -1.363  -0.368   0.675  1.00  0.00    -0.336 N 
ENDROOT
BRANCH   9  10
HETATM   10  C11 UNL     1      -2.139  -1.550   0.815  1.00  0.00     0.169 C 
BRANCH  10  11
HETATM   11  C12 UNL     1      -2.873  -2.057  -0.326  1.00  0.00    -0.034 A 
HETATM   12  C13 UNL     1      -4.257  -1.822  -0.425  1.00  0.00     0.009 A 
HETATM   13  C14 UNL     1      -5.069  -2.233  -1.452  1.00  0.00     0.001 A 
HETATM   14  C15 UNL     1      -4.533  -2.937  -2.497  1.00  0.00     0.001 A 
HETATM   15  C16 UNL     1      -3.182  -3.199  -2.459  1.00  0.00     0.007 A 
HETATM   16  C17 UNL     1      -2.404  -2.768  -1.408  1.00  0.00    -0.054 A 
HETATM   17  C18 UNL     1      -0.977  -3.098  -1.439  1.00  0.00     0.049 C 
ENDBRANCH  10  11
ENDBRANCH   9  10
BRANCH   3  18
HETATM   18  N3  UNL     1       3.238  -1.131  -0.690  1.00  0.00    -0.231 N 
HETATM   19  H8  UNL     1       3.439  -1.952  -1.281  1.00  0.00     0.174 HD
HETATM   20  H9  UNL     1       4.197  -0.893  -0.346  1.00  0.00     0.174 HD
ENDBRANCH   3  18
BRANCH   1  21
HETATM   21  N1  UNL     1       1.614   3.249   0.083  1.00  0.00    -0.370 N 
HETATM   22  H7  UNL     1       0.825   3.874   0.359  1.00  0.00     0.161 HD
BRANCH  21  23
HETATM   23  C4  UNL     1       2.928   3.709  -0.264  1.00  0.00     0.149 C 
BRANCH  23  24
HETATM   24  C3  UNL     1       3.907   3.269   0.760  1.00  0.00     0.007 C 
HETATM   25  C2  UNL     1       4.086   2.627   1.906  1.00  0.00    -0.018 C 
HETATM   26  C1  UNL     1       3.036   1.967   2.741  1.00  0.00     0.056 C 
HETATM   27 BR1  UNL     1       5.860   2.467   2.654  1.00  0.00    -0.056 Br
ENDBRANCH  23  24
ENDBRANCH  21  23
ENDBRANCH   1  21
TORSDOF 6
