REMARK  3 active torsions:
REMARK  status: ('A' for Active; 'I' for Inactive)
REMARK    1  A    between atoms: C10_13  and  N3_14 
REMARK    2  A    between atoms: N3_14  and  C11_15 
REMARK    3  A    between atoms: C11_15  and  C12_16 
ROOT
HETATM    1  C1  UNL     1       5.853   0.505  -1.072  1.00  0.00     0.070 C 
HETATM    2  C2  UNL     1       4.613   0.166  -0.365  1.00  0.00     0.036 C 
HETATM    3  C3  UNL     1       4.237  -0.846   0.401  1.00  0.00     0.015 C 
HETATM    4 BR1  UNL     1       5.972  -1.713   0.232  1.00  0.00    -0.053 Br
HETATM    5  C4  UNL     1       3.500  -1.771   1.240  1.00  0.00     0.075 C 
HETATM    6  C5  UNL     1       2.082  -1.560   1.473  1.00  0.00    -0.019 C 
HETATM    7  C6  UNL     1       0.980  -0.910   1.208  1.00  0.00     0.031 C 
HETATM    8  C7  UNL     1       0.914   0.163   0.234  1.00  0.00     0.103 A 
HETATM    9  N1  UNL     1       2.133   0.555  -0.052  1.00  0.00    -0.061 NA
HETATM   10  C8  UNL     1       2.391   1.504  -0.929  1.00  0.00     0.727 A 
HETATM   11  N2  UNL     1       1.386   2.094  -1.553  1.00  0.00    -0.073 NA
HETATM   12  C9  UNL     1       0.090   1.726  -1.293  1.00  0.00     0.168 A 
HETATM   13  C10 UNL     1      -0.156   0.739  -0.381  1.00  0.00     0.076 A 
HETATM   14  N4  UNL     1       3.727   1.267  -0.628  1.00  0.00    -0.191 N 
HETATM   15  H17 UNL     1       3.941   2.293  -0.655  1.00  0.00     0.184 HD
ENDROOT
BRANCH  13  16
HETATM   16  N3  UNL     1      -1.406   0.225   0.009  1.00  0.00    -0.383 N 
HETATM   17  H9  UNL     1      -1.652  -0.515   0.682  1.00  0.00     0.160 HD
BRANCH  16  18
HETATM   18  C11 UNL     1      -2.526   0.852  -0.657  1.00  0.00     0.158 C 
BRANCH  18  19
HETATM   19  C12 UNL     1      -3.839   0.314  -0.248  1.00  0.00    -0.041 A 
HETATM   20  C13 UNL     1      -4.531   0.873   0.822  1.00  0.00     0.009 A 
HETATM   21  C14 UNL     1      -5.745   0.452   1.276  1.00  0.00     0.001 A 
HETATM   22  C15 UNL     1      -6.359  -0.621   0.634  1.00  0.00     0.000 A 
HETATM   23  C16 UNL     1      -5.691  -1.193  -0.433  1.00  0.00     0.001 A 
HETATM   24  C17 UNL     1      -4.465  -0.749  -0.874  1.00  0.00     0.009 A 
ENDBRANCH  18  19
ENDBRANCH  16  18
ENDBRANCH  13  16
TORSDOF 3
