REMARK  4 active torsions:
REMARK  status: ('A' for Active; 'I' for Inactive)
REMARK    1  A    between atoms: C6_6  and  C7_7 
REMARK    2  A    between atoms: C10_11  and  N2_12 
REMARK    3  A    between atoms: N2_12  and  C11_13 
REMARK    4  A    between atoms: C17_21  and  N4_22 
ROOT
HETATM    1  C7  UNL     1      -2.338  -0.103   1.003  1.00  0.00     0.173 A 
HETATM    2  N1  UNL     1      -1.848  -1.432   1.232  1.00  0.00    -0.288 NA
HETATM    3  C8  UNL     1      -0.576  -1.499   1.054  1.00  0.00     0.128 A 
HETATM    4  C9  UNL     1      -0.016  -0.185   0.668  1.00  0.00     0.055 A 
HETATM    5  C10 UNL     1       1.277   0.206   0.381  1.00  0.00     0.161 A 
HETATM    6  N3  UNL     1       1.412   1.499   0.064  1.00  0.00    -0.044 NA
HETATM    7  C17 UNL     1       0.385   2.356   0.025  1.00  0.00     0.722 A 
HETATM    8  N5  UNL     1      -0.872   1.948   0.310  1.00  0.00    -0.065 NA
HETATM    9  C18 UNL     1      -1.109   0.647   0.644  1.00  0.00     0.095 A 
ENDROOT
BRANCH   5  10
HETATM   10  N2  UNL     1       2.317  -0.756   0.443  1.00  0.00    -0.340 N 
HETATM   11  H10 UNL     1       2.047  -1.738   0.709  1.00  0.00     0.167 HD
BRANCH  10  12
HETATM   12  C11 UNL     1       3.695  -0.552   0.186  1.00  0.00     0.035 A 
HETATM   13  C12 UNL     1       4.287   0.631  -0.175  1.00  0.00     0.029 A 
HETATM   14  C13 UNL     1       5.628   0.806  -0.419  1.00  0.00     0.004 A 
HETATM   15  C14 UNL     1       6.469  -0.280  -0.299  1.00  0.00     0.019 A 
HETATM   16  C15 UNL     1       5.924  -1.493   0.061  1.00  0.00     0.013 A 
HETATM   17 BR1  UNL     1       7.075  -2.996   0.229  1.00  0.00    -0.051 Br
HETATM   18  C16 UNL     1       4.584  -1.603   0.291  1.00  0.00     0.048 A 
ENDBRANCH  10  12
ENDBRANCH   5  10
BRANCH   7  19
HETATM   19  N4  UNL     1       0.730   3.694  -0.334  1.00  0.00    -0.231 N 
HETATM   20  H15 UNL     1       0.719   4.255   0.558  1.00  0.00     0.174 HD
HETATM   21  H16 UNL     1       0.933   3.940  -1.331  1.00  0.00     0.174 HD
ENDBRANCH   7  19
BRANCH   1  22
HETATM   22  C6  UNL     1      -3.275  -0.059  -0.158  1.00  0.00     0.067 A 
HETATM   23  C2  UNL     1      -4.466  -0.914   0.010  1.00  0.00    -0.074 A 
HETATM   24  C1  UNL     1      -4.592  -2.380   0.196  1.00  0.00     0.044 C 
HETATM   25  C3  UNL     1      -5.578  -0.160  -0.025  1.00  0.00     0.003 A 
HETATM   26  C4  UNL     1      -5.213   1.241  -0.216  1.00  0.00    -0.003 A 
HETATM   27  C5  UNL     1      -3.891   1.287  -0.291  1.00  0.00    -0.015 A 
ENDBRANCH   1  22
TORSDOF 4
