REMARK  6 active torsions:
REMARK  status: ('A' for Active; 'I' for Inactive)
REMARK    1  A    between atoms: C2_3  and  C3_4 
REMARK    2  A    between atoms: C4_5  and  C5_6 
REMARK    3  A    between atoms: C6_7  and  C7_8 
REMARK    4  A    between atoms: C7_8  and  N1_9 
REMARK    5  A    between atoms: C11_13  and  N2_14 
REMARK    6  A    between atoms: C17_22  and  N4_23 
ROOT
HETATM    1  C1  UNL     1       7.728  -1.122   0.480  1.00  0.00     0.104 C 
HETATM    2  S1  UNL     1       6.784  -0.283  -0.767  1.00  0.00    -0.092 SA
HETATM    3  C2  UNL     1       5.992   0.405  -1.772  1.00  0.00    -0.085 C 
ENDROOT
BRANCH   3   4
HETATM    4  C3  UNL     1       5.212   1.069  -2.722  1.00  0.00     0.063 C 
HETATM    5  C4  UNL     1       3.983   1.463  -2.354  1.00  0.00     0.009 C 
BRANCH   5   6
HETATM    6  C5  UNL     1       3.528   1.187  -1.013  1.00  0.00    -0.002 C 
HETATM    7  C6  UNL     1       2.325   1.555  -0.603  1.00  0.00    -0.007 C 
BRANCH   7   8
HETATM    8  C7  UNL     1       1.836   1.281   0.772  1.00  0.00     0.157 C 
BRANCH   8   9
HETATM    9  N1  UNL     1       0.659   0.469   0.652  1.00  0.00    -0.337 N 
HETATM   10  C8  UNL     1       0.609  -0.873   0.623  1.00  0.00     0.094 A 
HETATM   11  C9  UNL     1      -0.724  -1.203   0.497  1.00  0.00     0.036 A 
HETATM   12  C10 UNL     1      -1.486  -0.064   0.450  1.00  0.00     0.059 A 
HETATM   13  C11 UNL     1      -2.844   0.069   0.318  1.00  0.00     0.163 A 
HETATM   14  C18 UNL     1      -0.580   0.965   0.549  1.00  0.00     0.163 A 
HETATM   15  N3  UNL     1      -3.253   1.372   0.289  1.00  0.00    -0.044 NA
HETATM   16  C17 UNL     1      -2.389   2.388   0.383  1.00  0.00     0.724 A 
HETATM   17  N5  UNL     1      -1.068   2.215   0.512  1.00  0.00    -0.044 NA
BRANCH  13  18
HETATM   18  N2  UNL     1      -3.817  -0.956   0.263  1.00  0.00    -0.336 N 
HETATM   19  C12 UNL     1      -3.822  -2.246   0.843  1.00  0.00     0.112 A 
HETATM   20  C13 UNL     1      -4.717  -3.185   0.698  1.00  0.00     0.026 A 
HETATM   21 BR1  UNL     1      -4.538  -4.872   1.566  1.00  0.00    -0.050 Br
HETATM   22  C14 UNL     1      -5.898  -2.923  -0.096  1.00  0.00     0.018 A 
HETATM   23  C15 UNL     1      -5.967  -1.712  -0.614  1.00  0.00    -0.005 A 
HETATM   24  C16 UNL     1      -5.018  -0.585  -0.501  1.00  0.00     0.157 A 
ENDBRANCH  13  18
BRANCH  16  25
HETATM   25  N4  UNL     1      -2.976   3.702   0.337  1.00  0.00    -0.231 N 
HETATM   26  H17 UNL     1      -3.224   4.110  -0.575  1.00  0.00     0.174 HD
HETATM   27  H18 UNL     1      -3.039   4.006   1.339  1.00  0.00     0.174 HD
ENDBRANCH  16  25
ENDBRANCH   8   9
ENDBRANCH   7   8
ENDBRANCH   5   6
ENDBRANCH   3   4
TORSDOF 6
