REMARK  4 active torsions:
REMARK  status: ('A' for Active; 'I' for Inactive)
REMARK    1  A    between atoms: C7_7  and  N1_8 
REMARK       I    between atoms: N2_13  and  C11_14 
REMARK       I    between atoms: C11_14  and  N3_15 
REMARK    2  A    between atoms: N4_16  and  C12_17 
REMARK    3  A    between atoms: C12_17  and  N5_18 
REMARK    4  A    between atoms: N5_18  and  C13_19 
ROOT
HETATM    1  N1  UNL     1      -2.344  -0.869   0.870  1.00  0.00    -0.350 N 
HETATM    2  C8  UNL     1      -2.272  -2.291   1.237  1.00  0.00     0.136 C 
HETATM    3  C9  UNL     1      -2.212  -2.320   2.773  1.00  0.00     0.102 C 
HETATM    4  S1  UNL     1      -0.857  -1.111   2.978  1.00  0.00    -0.090 SA
HETATM    5  C10 UNL     1      -1.159  -0.245   1.415  1.00  0.00     0.184 C 
HETATM    6  N2  UNL     1      -0.544   0.723   0.793  1.00  0.00    -0.039 NA
HETATM    7  C11 UNL     1       0.613   1.366   1.276  1.00  0.00     0.719 C 
HETATM    8  N3  UNL     1       0.404   2.612   1.952  1.00  0.00    -0.231 N 
HETATM    9  N4  UNL     1       1.760   0.768   1.064  1.00  0.00    -0.086 NA
HETATM   10  H14 UNL     1       0.292   3.263   1.124  1.00  0.00     0.174 HD
HETATM   11  H15 UNL     1       0.363   2.872   2.979  1.00  0.00     0.174 HD
ENDROOT
BRANCH   9  12
HETATM   12  C12 UNL     1       2.977   1.422   1.561  1.00  0.00     0.290 C 
BRANCH  12  13
HETATM   13  N5  UNL     1       3.875   1.782   0.508  1.00  0.00    -0.371 N 
HETATM   14  H18 UNL     1       4.154   2.794   0.353  1.00  0.00     0.161 HD
BRANCH  13  15
HETATM   15  C13 UNL     1       4.440   0.824  -0.380  1.00  0.00     0.030 A 
HETATM   16  C14 UNL     1       5.317   1.187  -1.404  1.00  0.00     0.029 A 
HETATM   17  C15 UNL     1       5.833   0.217  -2.235  1.00  0.00     0.004 A 
HETATM   18  C16 UNL     1       5.521  -1.118  -2.099  1.00  0.00     0.019 A 
HETATM   19  C17 UNL     1       4.648  -1.519  -1.086  1.00  0.00     0.013 A 
HETATM   20 BR1  UNL     1       4.190  -3.351  -0.864  1.00  0.00    -0.051 Br
HETATM   21  C18 UNL     1       4.140  -0.513  -0.260  1.00  0.00     0.048 A 
ENDBRANCH  13  15
ENDBRANCH  12  13
ENDBRANCH   9  12
BRANCH   1  22
HETATM   22  C7  UNL     1      -3.429  -0.257   0.079  1.00  0.00     0.118 A 
HETATM   23  C2  UNL     1      -3.442  -0.748  -1.300  1.00  0.00    -0.061 A 
HETATM   24  C1  UNL     1      -3.346  -2.181  -1.671  1.00  0.00     0.045 C 
HETATM   25  C3  UNL     1      -3.537   0.123  -2.310  1.00  0.00     0.004 A 
HETATM   26  C4  UNL     1      -3.644   1.573  -2.197  1.00  0.00    -0.004 A 
HETATM   27  C5  UNL     1      -3.643   2.021  -0.952  1.00  0.00    -0.024 A 
HETATM   28  C6  UNL     1      -3.548   1.200   0.276  1.00  0.00     0.057 A 
ENDBRANCH   1  22
TORSDOF 4
