REMARK  7 active torsions:
REMARK  status: ('A' for Active; 'I' for Inactive)
REMARK    1  A    between atoms: C2_2  and  C3_4 
REMARK    2  A    between atoms: C4_5  and  C5_6 
REMARK    3  A    between atoms: C5_6  and  N1_7 
REMARK    4  A    between atoms: N1_7  and  C6_8 
REMARK    5  A    between atoms: C7_10  and  N3_11 
REMARK    6  A    between atoms: N5_17  and  C12_18 
REMARK    7  A    between atoms: C12_18  and  C13_19 
ROOT
HETATM    1  C6  UNL     1       1.719   0.642  -0.902  1.00  0.00     0.232 A 
HETATM    2  N2  UNL     1       1.736   1.997  -0.906  1.00  0.00    -0.031 NA
HETATM    3  C7  UNL     1       0.588   2.700  -0.870  1.00  0.00     0.725 A 
HETATM    4  N4  UNL     1      -0.615   2.100  -0.830  1.00  0.00    -0.044 NA
HETATM    5  C8  UNL     1      -0.702   0.769  -0.825  1.00  0.00     0.164 A 
HETATM    6  C9  UNL     1       0.464   0.026  -0.861  1.00  0.00     0.073 A 
HETATM    7  C10 UNL     1       0.128  -1.291  -0.847  1.00  0.00     0.038 A 
HETATM    8  C11 UNL     1      -1.247  -1.332  -0.802  1.00  0.00     0.094 A 
HETATM    9  N5  UNL     1      -1.760  -0.092  -0.788  1.00  0.00    -0.336 N 
ENDROOT
BRANCH   9  10
HETATM   10  C12 UNL     1      -3.120   0.430  -0.739  1.00  0.00     0.169 C 
BRANCH  10  11
HETATM   11  C13 UNL     1      -3.554   0.634   0.672  1.00  0.00    -0.034 A 
HETATM   12  C14 UNL     1      -3.517   1.960   1.104  1.00  0.00     0.009 A 
HETATM   13  C15 UNL     1      -3.874   2.323   2.394  1.00  0.00     0.001 A 
HETATM   14  C16 UNL     1      -4.289   1.362   3.312  1.00  0.00     0.001 A 
HETATM   15  C17 UNL     1      -4.323   0.037   2.870  1.00  0.00     0.007 A 
HETATM   16  C18 UNL     1      -3.964  -0.301   1.589  1.00  0.00    -0.054 A 
HETATM   17  C19 UNL     1      -4.004  -1.705   1.106  1.00  0.00     0.049 C 
ENDBRANCH  10  11
ENDBRANCH   9  10
BRANCH   3  18
HETATM   18  N3  UNL     1       0.657   4.141  -0.876  1.00  0.00    -0.231 N 
HETATM   19  H6  UNL     1       0.163   4.486  -0.006  1.00  0.00     0.174 HD
HETATM   20  H7  UNL     1       1.175   4.473  -1.734  1.00  0.00     0.174 HD
ENDBRANCH   3  18
BRANCH   1  21
HETATM   21  N1  UNL     1       2.810  -0.050  -0.924  1.00  0.00    -0.396 NA
BRANCH  21  22
HETATM   22  C5  UNL     1       3.910  -0.498  -0.888  1.00  0.00     0.184 C 
BRANCH  22  23
HETATM   23  C4  UNL     1       4.240  -1.918  -1.179  1.00  0.00     0.029 C 
HETATM   24  C3  UNL     1       5.446  -2.544  -1.181  1.00  0.00    -0.008 C 
BRANCH  24  25
HETATM   25  C2  UNL     1       6.958  -2.071  -0.892  1.00  0.00     0.022 C 
HETATM   26  C1  UNL     1       7.315  -3.205  -1.114  1.00  0.00     0.079 C 
HETATM   27 BR1  UNL     1       6.528  -0.221  -0.513  1.00  0.00    -0.086 Br
ENDBRANCH  24  25
ENDBRANCH  22  23
ENDBRANCH  21  22
ENDBRANCH   1  21
TORSDOF 7
