REMARK  8 active torsions:
REMARK  status: ('A' for Active; 'I' for Inactive)
REMARK    1  A    between atoms: B1_1  and  C1_2 
REMARK    2  A    between atoms: C5_6  and  C6_7 
REMARK    3  A    between atoms: C6_7  and  N1_8 
REMARK    4  A    between atoms: N1_8  and  C7_9 
REMARK    5  A    between atoms: C8_10  and  C9_11 
REMARK    6  A    between atoms: C10_12  and  N2_13 
REMARK    7  A    between atoms: C11_15  and  N4_16 
REMARK    8  A    between atoms: C12_18  and  C13_19 
ROOT
HETATM    1  C9  UNL     1       1.904   0.548  -1.152  1.00  0.00     0.042 A 
HETATM    2  C10 UNL     1       1.867   1.257  -2.315  1.00  0.00     0.153 A 
HETATM    3  N3  UNL     1       3.000   1.926  -2.673  1.00  0.00    -0.045 NA
HETATM    4  C11 UNL     1       4.097   1.867  -1.883  1.00  0.00     0.722 A 
HETATM    5  N5  UNL     1       4.080   1.152  -0.746  1.00  0.00    -0.062 NA
HETATM    6  C12 UNL     1       2.990   0.465  -0.334  1.00  0.00     0.100 A 
ENDROOT
BRANCH   1   7
HETATM    7  C8  UNL     1       0.735  -0.175  -0.691  1.00  0.00     0.034 C 
HETATM    8  C7  UNL     1      -0.471  -0.337  -1.194  1.00  0.00     0.084 C 
BRANCH   8   9
HETATM    9  N1  UNL     1      -1.689  -0.989  -0.882  1.00  0.00    -0.398 N 
HETATM   10  H9  UNL     1      -1.982  -1.976  -1.153  1.00  0.00     0.158 HD
BRANCH   9  11
HETATM   11  C6  UNL     1      -2.687  -0.251  -0.095  1.00  0.00     0.131 C 
BRANCH  11  12
HETATM   12  C5  UNL     1      -3.925  -1.041   0.169  1.00  0.00     0.043 A 
HETATM   13  C1  UNL     1      -4.906  -0.260   0.966  1.00  0.00    -0.120 A 
HETATM   14  C2  UNL     1      -6.043  -0.141   0.290  1.00  0.00    -0.010 A 
HETATM   15  C3  UNL     1      -5.917  -0.829  -1.012  1.00  0.00    -0.004 A 
HETATM   16  C4  UNL     1      -4.700  -1.336  -1.060  1.00  0.00    -0.017 A 
BRANCH  13  17
HETATM   17  B1  UNL     1      -4.897   0.426   2.371  1.00  0.00     0.170 B 
HETATM   18  H1  UNL     1      -5.575   0.016   3.266  1.00  0.00    -0.026 HD
HETATM   19  H2  UNL     1      -4.525   1.539   2.442  1.00  0.00    -0.026 HD
ENDBRANCH  13  17
ENDBRANCH  11  12
ENDBRANCH   9  11
ENDBRANCH   8   9
ENDBRANCH   1   7
BRANCH   2  20
HETATM   20  N2  UNL     1       0.737   1.340  -3.163  1.00  0.00    -0.383 N 
HETATM   21  H12 UNL     1       0.206   2.109  -2.674  1.00  0.00     0.157 HD
HETATM   22  H13 UNL     1       0.468   0.827  -4.012  1.00  0.00     0.157 HD
ENDBRANCH   2  20
BRANCH   6  23
HETATM   23  C13 UNL     1       3.159  -0.246   0.919  1.00  0.00    -0.004 A 
HETATM   24  C14 UNL     1       3.713   0.526   1.950  1.00  0.00     0.014 A 
HETATM   25  C15 UNL     1       3.978   0.063   3.222  1.00  0.00     0.002 A 
HETATM   26  C16 UNL     1       3.686  -1.244   3.518  1.00  0.00     0.019 A 
HETATM   27  C17 UNL     1       3.140  -2.022   2.516  1.00  0.00     0.011 A 
HETATM   28 BR1  UNL     1       2.687  -3.862   2.801  1.00  0.00    -0.051 Br
HETATM   29  C18 UNL     1       2.883  -1.539   1.250  1.00  0.00     0.032 A 
ENDBRANCH   6  23
BRANCH   4  30
HETATM   30  N4  UNL     1       5.218   2.605  -2.358  1.00  0.00    -0.231 N 
HETATM   31  H14 UNL     1       5.511   3.362  -1.696  1.00  0.00     0.174 HD
HETATM   32  H15 UNL     1       5.550   2.254  -3.292  1.00  0.00     0.174 HD
ENDBRANCH   4  30
TORSDOF 8
