REMARK  2 active torsions:
REMARK  status: ('A' for Active; 'I' for Inactive)
REMARK    1  A    between atoms: C7_7  and  C8_8 
REMARK    2  A    between atoms: C8_8  and  N1_9 
ROOT
HETATM    1  N1  UNL     1      -0.568  -0.328   0.164  1.00  0.00    -0.382 N 
HETATM    2  C9  UNL     1      -0.272  -0.562  -1.204  1.00  0.00     0.087 C 
HETATM    3  C10 UNL     1       1.009  -0.317  -1.378  1.00  0.00     0.027 C 
HETATM    4  C11 UNL     1       1.648   0.101  -0.109  1.00  0.00    -0.015 C 
HETATM    5  C12 UNL     1       2.932  -0.058   0.116  1.00  0.00     0.032 C 
HETATM    6  N2  UNL     1       3.745  -0.663  -0.913  1.00  0.00    -0.368 N 
HETATM    7  C13 UNL     1       5.150  -0.524  -1.045  1.00  0.00     0.084 C 
HETATM    8  C14 UNL     1       5.789   0.221  -0.162  1.00  0.00    -0.008 C 
HETATM    9  C15 UNL     1       5.072   0.893   0.933  1.00  0.00     0.050 C 
HETATM   10  C16 UNL     1       3.750   0.281   1.296  1.00  0.00     0.111 C 
HETATM   11 BR1  UNL     1       2.809   1.496   2.499  1.00  0.00    -0.084 Br
HETATM   12  C17 UNL     1       0.462   0.636   0.598  1.00  0.00     0.163 C 
HETATM   13  H12 UNL     1       3.321  -1.269  -1.658  1.00  0.00     0.165 HD
ENDROOT
BRANCH   1  14
HETATM   14  C8  UNL     1      -1.624  -0.906   0.932  1.00  0.00     0.161 C 
BRANCH  14  15
HETATM   15  C7  UNL     1      -2.985  -0.646   0.465  1.00  0.00    -0.034 A 
HETATM   16  C2  UNL     1      -3.695   0.528   0.612  1.00  0.00    -0.054 A 
HETATM   17  C1  UNL     1      -3.006   1.642   1.315  1.00  0.00     0.049 C 
HETATM   18  C3  UNL     1      -4.983   0.698   0.143  1.00  0.00     0.007 A 
HETATM   19  C4  UNL     1      -5.643  -0.324  -0.514  1.00  0.00     0.001 A 
HETATM   20  C5  UNL     1      -4.978  -1.527  -0.691  1.00  0.00     0.001 A 
HETATM   21  C6  UNL     1      -3.693  -1.650  -0.205  1.00  0.00     0.009 A 
ENDBRANCH  14  15
ENDBRANCH   1  14
TORSDOF 2
