REMARK  3 active torsions:
REMARK  status: ('A' for Active; 'I' for Inactive)
REMARK    1  A    between atoms: C3_3  and  N1_4 
REMARK    2  A    between atoms: N2_9  and  C8_10 
REMARK    3  A    between atoms: C8_10  and  C9_11 
ROOT
HETATM    1  N1  UNL     1      -1.196  -0.011  -0.072  1.00  0.00    -0.294 N 
HETATM    2  C4  UNL     1      -0.637   0.202  -1.399  1.00  0.00     0.149 C 
HETATM    3  C5  UNL     1       0.271   1.386  -1.477  1.00  0.00     0.029 C 
HETATM    4  C6  UNL     1       1.075   1.661  -0.250  1.00  0.00     0.081 C 
HETATM    5  C7  UNL     1       0.995   0.590   0.780  1.00  0.00     0.113 C 
HETATM    6  N2  UNL     1       1.989   0.179   1.495  1.00  0.00    -0.271 NA
HETATM    7  N3  UNL     1      -0.275  -0.018   0.984  1.00  0.00    -0.285 N 
HETATM    8  H14 UNL     1      -0.538  -0.465   1.886  1.00  0.00     0.188 HD
ENDROOT
BRANCH   6   9
HETATM    9  C8  UNL     1       3.322   0.690   1.408  1.00  0.00     0.190 C 
BRANCH   9  10
HETATM   10  C9  UNL     1       4.040  -0.006   0.335  1.00  0.00    -0.026 C 
HETATM   11  C10 UNL     1       3.917  -0.932  -0.586  1.00  0.00    -0.016 C 
HETATM   12  C11 UNL     1       5.041  -1.513  -0.945  1.00  0.00     0.032 C 
HETATM   13  C12 UNL     1       6.057  -0.491  -0.655  1.00  0.00     0.012 C 
HETATM   14 BR1  UNL     1       7.852  -0.515  -1.282  1.00  0.00    -0.051 Br
HETATM   15  C13 UNL     1       5.441   0.412   0.117  1.00  0.00     0.029 C 
ENDBRANCH   9  10
ENDBRANCH   6   9
BRANCH   1  16
HETATM   16  C3  UNL     1      -2.611  -0.204   0.159  1.00  0.00     0.034 A 
HETATM   17  C2  UNL     1      -3.042  -1.429  -0.068  1.00  0.00    -0.038 A 
HETATM   18  C1  UNL     1      -2.188  -2.522  -0.515  1.00  0.00     0.050 C 
HETATM   19  C17 UNL     1      -4.468  -1.600   0.174  1.00  0.00     0.005 A 
HETATM   20  C16 UNL     1      -5.059  -0.489   0.575  1.00  0.00    -0.026 A 
HETATM   21  C15 UNL     1      -4.652   0.904   0.850  1.00  0.00     0.033 A 
HETATM   22  C14 UNL     1      -3.179   1.089   0.599  1.00  0.00     0.063 A 
ENDBRANCH   1  16
TORSDOF 3
