REMARK  10 active torsions:
REMARK  status: ('A' for Active; 'I' for Inactive)
REMARK    1  A    between atoms: C4_4  and  N1_5 
REMARK    2  A    between atoms: C5_6  and  C6_7 
REMARK    3  A    between atoms: C6_7  and  C7_8 
REMARK    4  A    between atoms: C7_8  and  C8_9 
REMARK    5  A    between atoms: C8_9  and  C9_11 
REMARK    6  A    between atoms: C9_11  and  N2_12 
REMARK    7  A    between atoms: C10_13  and  N3_14 
REMARK    8  A    between atoms: C11_16  and  N5_17 
REMARK    9  A    between atoms: N5_17  and  C12_18 
REMARK   10  A    between atoms: C12_18  and  C13_19 
ROOT
HETATM    1  C1  UNL     1      -1.502   1.504  -1.664  1.00  0.00     0.027 C 
HETATM    2  C2  UNL     1      -0.607   0.735  -1.022  1.00  0.00     0.002 A 
HETATM    3  C3  UNL     1       0.824   0.957  -1.098  1.00  0.00     0.042 A 
HETATM    4  C4  UNL     1       1.618   0.119  -0.410  1.00  0.00     0.051 A 
HETATM    5  C10 UNL     1       1.131  -1.009   0.416  1.00  0.00     0.389 A 
HETATM    6  N4  UNL     1      -0.311  -1.120   0.405  1.00  0.00    -0.231 NA
HETATM    7  C11 UNL     1      -1.125  -0.365  -0.221  1.00  0.00     0.131 A 
ENDROOT
BRANCH   4   8
HETATM    8  N1  UNL     1       2.942   0.510  -0.623  1.00  0.00    -0.405 NA
HETATM    9  C5  UNL     1       3.744   0.960   0.247  1.00  0.00     0.325 C 
BRANCH   9  10
HETATM   10  C6  UNL     1       5.060   1.433   0.429  1.00  0.00     0.004 C 
BRANCH  10  11
HETATM   11  C7  UNL     1       6.271   1.837   0.313  1.00  0.00     0.018 C 
BRANCH  11  12
HETATM   12  C8  UNL     1       6.806   1.886  -1.028  1.00  0.00     0.025 C 
HETATM   13 BR1  UNL     1       5.854   1.299  -2.575  1.00  0.00    -0.050 Br
BRANCH  12  14
HETATM   14  C9  UNL     1       7.917   2.193  -1.636  1.00  0.00     0.099 C 
BRANCH  14  15
HETATM   15  N2  UNL     1       8.636   2.321  -2.865  1.00  0.00    -0.407 N 
HETATM   16  H8  UNL     1       9.441   1.649  -2.787  1.00  0.00     0.155 HD
HETATM   17  H9  UNL     1       7.878   3.027  -3.071  1.00  0.00     0.155 HD
ENDBRANCH  14  15
ENDBRANCH  12  14
ENDBRANCH  11  12
ENDBRANCH  10  11
ENDBRANCH   9  10
ENDBRANCH   4   8
BRANCH   5  18
HETATM   18  N3  UNL     1       1.474  -0.690   1.813  1.00  0.00     0.109 N 
HETATM   19  H11 UNL     1       2.367  -0.192   1.894  1.00  0.00     0.316 HD
HETATM   20  H12 UNL     1       1.550  -1.655   2.261  1.00  0.00     0.316 HD
ENDBRANCH   5  18
BRANCH   7  21
HETATM   21  N5  UNL     1      -2.514  -0.652  -0.083  1.00  0.00    -0.370 N 
HETATM   22  H13 UNL     1      -3.140   0.202  -0.217  1.00  0.00     0.161 HD
BRANCH  21  23
HETATM   23  C12 UNL     1      -3.067  -1.982   0.217  1.00  0.00     0.160 C 
BRANCH  23  24
HETATM   24  C13 UNL     1      -4.561  -1.786   0.287  1.00  0.00    -0.035 A 
HETATM   25  C14 UNL     1      -5.446  -2.151  -0.704  1.00  0.00     0.009 A 
HETATM   26  C15 UNL     1      -6.804  -1.908  -0.530  1.00  0.00     0.001 A 
HETATM   27  C16 UNL     1      -7.313  -1.308   0.608  1.00  0.00     0.001 A 
HETATM   28  C17 UNL     1      -6.343  -0.972   1.557  1.00  0.00     0.007 A 
HETATM   29  C18 UNL     1      -4.991  -1.182   1.452  1.00  0.00    -0.054 A 
HETATM   30  C19 UNL     1      -4.070  -0.767   2.544  1.00  0.00     0.049 C 
ENDBRANCH  23  24
ENDBRANCH  21  23
ENDBRANCH   7  21
TORSDOF 10
