REMARK  4 active torsions:
REMARK  status: ('A' for Active; 'I' for Inactive)
REMARK    1  A    between atoms: N1_1  and  C1_2 
REMARK    2  A    between atoms: C2_4  and  N3_5 
REMARK    3  A    between atoms: N3_5  and  C3_6 
REMARK    4  A    between atoms: N4_15  and  C11_16 
ROOT
HETATM    1  C1  UNL     1       0.489   1.745   0.759  1.00  0.00     0.724 A 
HETATM    2  N2  UNL     1       1.620   1.118   0.395  1.00  0.00    -0.044 NA
HETATM    3  C2  UNL     1       1.724  -0.221   0.322  1.00  0.00     0.161 A 
HETATM    4  C8  UNL     1       0.579  -0.918   0.648  1.00  0.00     0.059 A 
HETATM    5  C9  UNL     1       0.379  -2.302   0.665  1.00  0.00     0.037 A 
HETATM    6  C10 UNL     1      -0.942  -2.492   1.061  1.00  0.00     0.099 A 
HETATM    7  N4  UNL     1      -1.528  -1.286   1.278  1.00  0.00    -0.315 N 
HETATM    8  C17 UNL     1      -0.611  -0.332   1.029  1.00  0.00     0.167 A 
HETATM    9  N5  UNL     1      -0.621   1.031   1.075  1.00  0.00    -0.044 NA
ENDROOT
BRANCH   3  10
HETATM   10  N3  UNL     1       2.924  -0.880  -0.064  1.00  0.00    -0.342 N 
HETATM   11  H3  UNL     1       2.914  -1.921  -0.094  1.00  0.00     0.167 HD
BRANCH  10  12
HETATM   12  C3  UNL     1       4.066  -0.107  -0.387  1.00  0.00     0.029 A 
HETATM   13  C4  UNL     1       5.292  -0.622  -0.387  1.00  0.00     0.026 A 
HETATM   14  C5  UNL     1       6.289   0.358  -0.748  1.00  0.00    -0.001 A 
HETATM   15  C6  UNL     1       5.628   1.484  -0.967  1.00  0.00    -0.005 A 
HETATM   16  C7  UNL     1       4.148   1.307  -0.761  1.00  0.00     0.130 A 
HETATM   17 BR1  UNL     1       3.318   1.701  -2.443  1.00  0.00    -0.080 Br
ENDBRANCH  10  12
ENDBRANCH   3  10
BRANCH   1  18
HETATM   18  N1  UNL     1       0.381   3.161   0.837  1.00  0.00    -0.231 N 
HETATM   19  H1  UNL     1       0.537   3.950   1.521  1.00  0.00     0.174 HD
HETATM   20  H2  UNL     1       0.037   3.349  -0.135  1.00  0.00     0.174 HD
ENDBRANCH   1  18
BRANCH   7  21
HETATM   21  C11 UNL     1      -2.862  -1.033   1.691  1.00  0.00     0.108 C 
HETATM   22  C12 UNL     1      -3.797  -0.654   0.837  1.00  0.00    -0.035 A 
HETATM   23  C13 UNL     1      -5.084  -0.445   1.433  1.00  0.00    -0.073 A 
HETATM   24  C16 UNL     1      -3.422  -0.500  -0.559  1.00  0.00     0.008 A 
HETATM   25  B1  UNL     1      -6.475   0.114   0.188  1.00  0.00     0.198 B 
HETATM   26  C14 UNL     1      -5.769   0.218  -1.380  1.00  0.00     0.058 A 
HETATM   27 CL1  UNL     1      -6.631  -0.922  -2.440  1.00  0.00    -0.132 Cl
HETATM   28  C15 UNL     1      -4.336  -0.128  -1.404  1.00  0.00    -0.016 A 
ENDBRANCH   7  21
TORSDOF 4
