REMARK  4 active torsions:
REMARK  status: ('A' for Active; 'I' for Inactive)
REMARK    1  A    between atoms: N1_2  and  C2_3 
REMARK    2  A    between atoms: N1_2  and  C11_17 
REMARK    3  A    between atoms: C4_8  and  N5_9 
REMARK    4  A    between atoms: N5_9  and  C5_10 
ROOT
HETATM    1  C2  UNL     1      -0.629   0.289  -0.513  1.00  0.00     0.149 C 
HETATM    2  N2  UNL     1      -0.825   1.021  -1.568  1.00  0.00    -0.249 NA
HETATM    3  C3  UNL     1       0.234   1.949  -1.999  1.00  0.00     0.323 C 
HETATM    4  N3  UNL     1       0.755   2.544  -0.791  1.00  0.00    -0.174 NA
HETATM    5  N4  UNL     1       0.954   1.857   0.197  1.00  0.00    -0.162 NA
HETATM    6  C4  UNL     1       0.676   0.454   0.175  1.00  0.00     0.299 C 
ENDROOT
BRANCH   1   7
HETATM    7  N1  UNL     1      -1.590  -0.619  -0.039  1.00  0.00    -0.337 N 
HETATM    8  C1  UNL     1      -1.292  -2.021   0.222  1.00  0.00     0.158 C 
BRANCH   7   9
HETATM    9  C11 UNL     1      -2.930  -0.211   0.218  1.00  0.00     0.035 A 
HETATM   10  C12 UNL     1      -3.877  -1.084   0.681  1.00  0.00     0.031 A 
HETATM   11  C13 UNL     1      -5.180  -0.750   0.946  1.00  0.00     0.026 A 
HETATM   12  C14 UNL     1      -5.563   0.554   0.731  1.00  0.00     0.034 A 
HETATM   13 CL1  UNL     1      -7.213   1.039   1.052  1.00  0.00    -0.084 Cl
HETATM   14  C15 UNL     1      -4.668   1.501   0.265  1.00  0.00     0.026 A 
HETATM   15  C16 UNL     1      -3.376   1.078   0.025  1.00  0.00     0.031 A 
ENDBRANCH   7   9
ENDBRANCH   1   7
BRANCH   6  16
HETATM   16  N5  UNL     1       1.666  -0.296  -0.565  1.00  0.00    -0.360 N 
HETATM   17  H7  UNL     1       1.417  -0.845  -1.444  1.00  0.00     0.162 HD
BRANCH  16  18
HETATM   18  C5  UNL     1       3.034  -0.376  -0.207  1.00  0.00     0.031 A 
HETATM   19  C6  UNL     1       4.004  -1.096  -0.913  1.00  0.00     0.029 A 
HETATM   20  C7  UNL     1       5.317  -1.135  -0.516  1.00  0.00     0.004 A 
HETATM   21  C8  UNL     1       5.703  -0.448   0.610  1.00  0.00     0.019 A 
HETATM   22  C9  UNL     1       4.760   0.278   1.332  1.00  0.00     0.013 A 
HETATM   23 BR1  UNL     1       5.447   1.178   2.869  1.00  0.00    -0.051 Br
HETATM   24  C10 UNL     1       3.435   0.308   0.918  1.00  0.00     0.048 A 
ENDBRANCH  16  18
ENDBRANCH   6  16
TORSDOF 4
