REMARK  5 active torsions:
REMARK  status: ('A' for Active; 'I' for Inactive)
REMARK    1  A    between atoms: N1_2  and  C2_3 
REMARK    2  A    between atoms: N1_2  and  C8_9 
REMARK    3  A    between atoms: C9_11  and  N3_12 
REMARK    4  A    between atoms: C10_14  and  N5_15 
REMARK    5  A    between atoms: N5_15  and  C11_16 
ROOT
HETATM    1  C8  UNL     1      -1.668   0.021  -0.445  1.00  0.00     0.175 A 
HETATM    2  N2  UNL     1      -0.866   1.144  -0.621  1.00  0.00    -0.193 NA
HETATM    3  C9  UNL     1       0.575   1.465  -0.226  1.00  0.00     0.177 A 
HETATM    4  N4  UNL     1       1.796   0.993   0.421  1.00  0.00    -0.225 NA
HETATM    5  C10 UNL     1       1.471  -0.596   0.966  1.00  0.00     0.280 A 
HETATM    6  C17 UNL     1       0.258  -0.387   0.433  1.00  0.00    -0.102 A 
HETATM    7  C18 UNL     1      -0.624  -0.212   0.036  1.00  0.00     0.158 A 
ENDROOT
BRANCH   5   8
HETATM    8  N5  UNL     1       2.402  -1.355   0.277  1.00  0.00    -0.358 N 
HETATM    9  H12 UNL     1       1.931  -2.085  -0.340  1.00  0.00     0.162 HD
BRANCH   8  10
HETATM   10  C11 UNL     1       3.810  -1.323   0.258  1.00  0.00     0.031 A 
HETATM   11  C12 UNL     1       4.574  -2.196  -0.525  1.00  0.00     0.029 A 
HETATM   12  C13 UNL     1       5.931  -2.108  -0.494  1.00  0.00     0.004 A 
HETATM   13  C14 UNL     1       6.587  -1.176   0.293  1.00  0.00     0.019 A 
HETATM   14  C15 UNL     1       5.836  -0.309   1.070  1.00  0.00     0.013 A 
HETATM   15 BR1  UNL     1       6.795   0.942   2.124  1.00  0.00    -0.051 Br
HETATM   16  C16 UNL     1       4.446  -0.383   1.052  1.00  0.00     0.048 A 
ENDBRANCH   8  10
ENDBRANCH   5   8
BRANCH   3  17
HETATM   17  N3  UNL     1       1.190   2.847  -0.579  1.00  0.00    -0.374 N 
HETATM   18  H9  UNL     1       0.898   3.379   0.283  1.00  0.00     0.158 HD
HETATM   19  H10 UNL     1       1.607   2.595  -1.515  1.00  0.00     0.158 HD
ENDBRANCH   3  17
BRANCH   1  20
HETATM   20  N1  UNL     1      -2.675   0.742  -1.117  1.00  0.00    -0.359 N 
HETATM   21  C1  UNL     1      -3.044   1.696  -2.129  1.00  0.00     0.152 C 
BRANCH  20  22
HETATM   22  C2  UNL     1      -3.683   0.145  -0.326  1.00  0.00     0.023 C 
HETATM   23  C3  UNL     1      -4.267  -0.843  -0.964  1.00  0.00    -0.001 C 
HETATM   24  C4  UNL     1      -5.559  -0.971  -0.851  1.00  0.00     0.014 C 
HETATM   25  C5  UNL     1      -6.086  -0.823   0.499  1.00  0.00    -0.003 C 
HETATM   26  C6  UNL     1      -5.377  -0.121   1.361  1.00  0.00    -0.021 C 
HETATM   27  C7  UNL     1      -4.085   0.526   1.045  1.00  0.00     0.084 C 
ENDBRANCH  20  22
ENDBRANCH   1  20
TORSDOF 5
