REMARK  5 active torsions:
REMARK  status: ('A' for Active; 'I' for Inactive)
REMARK    1  A    between atoms: N1_2  and  C2_3 
REMARK    2  A    between atoms: C3_5  and  N3_6 
REMARK    3  A    between atoms: N3_6  and  C4_7 
REMARK    4  A    between atoms: C12_17  and  C13_18 
REMARK    5  A    between atoms: C15_20  and  O1_21 
ROOT
HETATM    1  C2  UNL     1       1.597  -1.224   0.973  1.00  0.00     0.720 A 
HETATM    2  N2  UNL     1       1.953  -0.905  -0.206  1.00  0.00    -0.074 NA
HETATM    3  C3  UNL     1       1.045  -0.870  -1.343  1.00  0.00     0.263 A 
HETATM    4  C10 UNL     1      -0.316  -1.248  -0.944  1.00  0.00     0.029 A 
HETATM    5  C11 UNL     1      -1.361  -1.310  -1.753  1.00  0.00     0.097 A 
HETATM    6  N4  UNL     1      -2.500  -1.714  -0.999  1.00  0.00    -0.384 N 
HETATM    7  C12 UNL     1      -2.130  -1.918   0.389  1.00  0.00     0.164 A 
HETATM    8  C19 UNL     1      -0.691  -1.611   0.422  1.00  0.00     0.092 A 
HETATM    9  N5  UNL     1       0.259  -1.583   1.295  1.00  0.00    -0.065 NA
HETATM   10  H12 UNL     1      -3.483  -1.874  -1.262  1.00  0.00     0.160 HD
ENDROOT
BRANCH   3  11
HETATM   11  N3  UNL     1       1.124   0.404  -1.988  1.00  0.00    -0.363 N 
HETATM   12  H6  UNL     1       0.291   1.026  -2.071  1.00  0.00     0.162 HD
BRANCH  11  13
HETATM   13  C4  UNL     1       2.360   0.847  -2.533  1.00  0.00     0.031 A 
HETATM   14  C5  UNL     1       3.504   0.086  -2.465  1.00  0.00     0.029 A 
HETATM   15  C6  UNL     1       4.683   0.587  -3.024  1.00  0.00     0.004 A 
HETATM   16  C7  UNL     1       4.770   1.812  -3.646  1.00  0.00     0.019 A 
HETATM   17  C8  UNL     1       3.622   2.598  -3.725  1.00  0.00     0.013 A 
HETATM   18 BR1  UNL     1       3.581   4.328  -4.561  1.00  0.00    -0.051 Br
HETATM   19  C9  UNL     1       2.464   2.076  -3.162  1.00  0.00     0.048 A 
ENDBRANCH  11  13
ENDBRANCH   3  11
BRANCH   1  20
HETATM   20  N1  UNL     1       2.613  -1.212   1.993  1.00  0.00    -0.227 N 
HETATM   21  C1  UNL     1       3.968  -0.724   1.699  1.00  0.00     0.165 C 
HETATM   22  H4  UNL     1       2.324  -1.565   2.931  1.00  0.00     0.177 HD
ENDBRANCH   1  20
BRANCH   7  23
HETATM   23  C13 UNL     1      -2.939  -0.962   1.187  1.00  0.00    -0.045 A 
HETATM   24  C14 UNL     1      -2.464   0.057   1.860  1.00  0.00     0.042 A 
HETATM   25  C15 UNL     1      -3.574   0.750   2.507  1.00  0.00     0.065 A 
HETATM   26  C17 UNL     1      -4.714   0.120   2.201  1.00  0.00     0.014 A 
HETATM   27  C18 UNL     1      -4.431  -1.055   1.315  1.00  0.00     0.066 A 
BRANCH  25  28
HETATM   28  O1  UNL     1      -3.369   1.874   3.294  1.00  0.00    -0.356 OA
HETATM   29  C16 UNL     1      -4.329   2.165   4.281  1.00  0.00     0.210 C 
ENDBRANCH  25  28
ENDBRANCH   7  23
TORSDOF 5
