REMARK  2 active torsions:
REMARK  status: ('A' for Active; 'I' for Inactive)
REMARK    1  A    between atoms: C2_2  and  C3_3 
REMARK    2  A    between atoms: C11_13  and  C12_14 
ROOT
HETATM    1  C3  UNL     1       3.709   0.991  -0.608  1.00  0.00     0.029 C 
HETATM    2  C4  UNL     1       2.869   0.015  -0.358  1.00  0.00     0.044 C 
HETATM    3  C5  UNL     1       3.436  -1.231   0.214  1.00  0.00     0.052 C 
HETATM    4  C6  UNL     1       2.920  -2.413   0.599  1.00  0.00     0.042 C 
HETATM    5 BR1  UNL     1       3.771  -3.945   1.322  1.00  0.00    -0.049 Br
HETATM    6  C7  UNL     1       1.522  -2.127   0.308  1.00  0.00     0.074 C 
HETATM    7  C8  UNL     1       0.748  -1.902   1.391  1.00  0.00     0.044 C 
HETATM    8  C9  UNL     1      -0.644  -1.845   0.956  1.00  0.00    -0.009 C 
HETATM    9  C10 UNL     1      -1.873  -2.267   1.207  1.00  0.00     0.093 C 
HETATM   10  N1  UNL     1      -2.811  -1.752   0.270  1.00  0.00    -0.387 N 
HETATM   11  C11 UNL     1      -2.100  -0.638  -0.387  1.00  0.00     0.145 C 
HETATM   12  C17 UNL     1      -0.655  -0.941  -0.260  1.00  0.00     0.116 C 
HETATM   13  C18 UNL     1      -0.092  -1.761  -1.392  1.00  0.00     0.124 C 
HETATM   14  N2  UNL     1       1.110  -2.059  -1.045  1.00  0.00    -0.261 NA
HETATM   15  N3  UNL     1       0.174   0.213  -0.119  1.00  0.00    -0.218 NA
HETATM   16  N4  UNL     1       1.462   0.118  -0.627  1.00  0.00    -0.320 N 
HETATM   17  H8  UNL     1      -3.773  -2.124   0.127  1.00  0.00     0.159 HD
HETATM   18  H15 UNL     1      -0.299   0.967  -0.712  1.00  0.00     0.148 HD
HETATM   19  H16 UNL     1       1.532   0.125  -1.694  1.00  0.00     0.181 HD
ENDROOT
BRANCH  11  20
HETATM   20  C12 UNL     1      -2.543   0.573   0.367  1.00  0.00    -0.050 A 
HETATM   21  C13 UNL     1      -2.124   1.525   1.182  1.00  0.00     0.028 A 
HETATM   22  C14 UNL     1      -3.222   2.422   1.516  1.00  0.00     0.030 A 
HETATM   23 CL1  UNL     1      -3.028   3.801   2.574  1.00  0.00    -0.085 Cl
HETATM   24  C15 UNL     1      -4.322   2.038   0.919  1.00  0.00     0.001 A 
HETATM   25  C16 UNL     1      -4.012   0.839   0.140  1.00  0.00     0.065 A 
ENDBRANCH  11  20
BRANCH   1  26
HETATM   26  C2  UNL     1       3.136   2.201  -1.168  1.00  0.00    -0.008 C 
HETATM   27  C1  UNL     1       3.952   3.207  -1.433  1.00  0.00     0.011 C 
ENDBRANCH   1  26
TORSDOF 2
