REMARK  7 active torsions:
REMARK  status: ('A' for Active; 'I' for Inactive)
REMARK    1  A    between atoms: C2_2  and  C3_3 
REMARK    2  A    between atoms: C3_3  and  C4_4 
REMARK    3  A    between atoms: C4_4  and  O2_6 
REMARK    4  A    between atoms: O2_6  and  C5_7 
REMARK    5  A    between atoms: C7_9  and  S1_10 
REMARK    6  A    between atoms: S1_10  and  C8_11 
REMARK    7  A    between atoms: N1_18  and  C15_19 
ROOT
HETATM    1  C5  UNL     1       1.001  -0.790  -0.669  1.00  0.00     0.097 A 
HETATM    2  C6  UNL     1      -0.142  -0.008  -0.591  1.00  0.00     0.076 A 
HETATM    3  C7  UNL     1      -1.116  -0.906  -0.200  1.00  0.00     0.079 A 
HETATM    4  N1  UNL     1      -0.617  -2.146  -0.047  1.00  0.00    -0.344 N 
HETATM    5  C18 UNL     1       0.701  -2.097  -0.334  1.00  0.00     0.129 A 
ENDROOT
BRANCH   3   6
HETATM    6  S1  UNL     1      -2.836  -0.555   0.088  1.00  0.00    -0.072 SA
BRANCH   6   7
HETATM    7  C8  UNL     1      -3.222   1.158  -0.187  1.00  0.00     0.013 A 
HETATM    8  C9  UNL     1      -3.621   1.652  -1.423  1.00  0.00     0.019 A 
HETATM    9  C10 UNL     1      -3.910   3.011  -1.573  1.00  0.00     0.001 A 
HETATM   10  C11 UNL     1      -3.789   3.847  -0.461  1.00  0.00     0.001 A 
HETATM   11  C12 UNL     1      -3.390   3.359   0.780  1.00  0.00     0.008 A 
HETATM   12  C13 UNL     1      -3.106   1.999   0.907  1.00  0.00    -0.045 A 
HETATM   13  C14 UNL     1      -2.679   1.513   2.262  1.00  0.00     0.049 C 
ENDBRANCH   6   7
ENDBRANCH   3   6
BRANCH   4  14
HETATM   14  C15 UNL     1      -1.183  -3.407   0.335  1.00  0.00     0.082 C 
HETATM   15  C16 UNL     1      -0.826  -4.431  -0.743  1.00  0.00     0.032 C 
HETATM   16  C17 UNL     1      -2.658  -3.372   0.560  1.00  0.00     0.032 C 
ENDBRANCH   4  14
BRANCH   1  17
HETATM   17  O2  UNL     1       2.242  -0.274  -1.037  1.00  0.00    -0.277 OA
BRANCH  17  18
HETATM   18  C4  UNL     1       3.158   0.242  -0.118  1.00  0.00     0.264 C 
HETATM   19  O1  UNL     1       2.880   0.259   1.129  1.00  0.00    -0.265 OA
BRANCH  18  20
HETATM   20  C3  UNL     1       4.416   0.738  -0.736  1.00  0.00     0.111 C 
BRANCH  20  21
HETATM   21  C2  UNL     1       5.340   1.274   0.331  1.00  0.00     0.005 C 
HETATM   22  C1  UNL     1       6.595   1.758  -0.370  1.00  0.00     0.005 C 
ENDBRANCH  20  21
ENDBRANCH  18  20
ENDBRANCH  17  18
ENDBRANCH   1  17
TORSDOF 7
