REMARK  1 active torsions:
REMARK  status: ('A' for Active; 'I' for Inactive)
REMARK    1  A    between atoms: C2_2  and  N1_4 
ROOT
HETATM    1  N1  UNL     1       0.277   0.781   0.065  1.00  0.00    -0.344 N 
HETATM    2  C4  UNL     1       1.567   0.375  -0.081  1.00  0.00     0.027 A 
HETATM    3  C5  UNL     1       1.638  -0.983  -0.226  1.00  0.00     0.049 A 
HETATM    4  C6  UNL     1       0.327  -1.430  -0.166  1.00  0.00     0.058 A 
HETATM    5  C7  UNL     1      -0.513  -0.326   0.016  1.00  0.00     0.061 A 
HETATM    6  C8  UNL     1      -1.878  -0.871   0.070  1.00  0.00     0.006 A 
HETATM    7  C9  UNL     1      -3.100  -0.256   0.233  1.00  0.00     0.014 A 
HETATM    8  C10 UNL     1      -4.295  -0.964   0.257  1.00  0.00     0.001 A 
HETATM    9  C11 UNL     1      -4.189  -2.333   0.108  1.00  0.00     0.001 A 
HETATM   10  C12 UNL     1      -2.997  -3.010  -0.058  1.00  0.00     0.016 A 
HETATM   11  C13 UNL     1      -1.830  -2.242  -0.074  1.00  0.00     0.027 A 
HETATM   12  C14 UNL     1      -0.445  -2.675  -0.231  1.00  0.00     0.196 A 
HETATM   13  O1  UNL     1       0.011  -3.827  -0.386  1.00  0.00    -0.286 OA
HETATM   14  C15 UNL     1       2.934  -1.655  -0.400  1.00  0.00     0.162 C 
HETATM   15  O2  UNL     1       2.966  -2.800  -0.932  1.00  0.00    -0.292 OA
HETATM   16  C16 UNL     1       4.099  -0.845   0.105  1.00  0.00     0.084 C 
HETATM   17  C17 UNL     1       3.981   0.487  -0.602  1.00  0.00     0.014 C 
HETATM   18  C18 UNL     1       2.775   1.206  -0.094  1.00  0.00     0.059 C 
ENDROOT
BRANCH   1  19
HETATM   19  C2  UNL     1      -0.208   2.135   0.243  1.00  0.00     0.082 C 
HETATM   20  C1  UNL     1      -0.937   2.545  -1.022  1.00  0.00     0.032 C 
HETATM   21  C3  UNL     1      -0.989   2.338   1.495  1.00  0.00     0.032 C 
ENDBRANCH   1  19
TORSDOF 1
