REMARK  1 active torsions:
REMARK  status: ('A' for Active; 'I' for Inactive)
REMARK    1  A    between atoms: C2_2  and  N1_4 
ROOT
HETATM    1  N1  UNL     1       0.197  -0.756  -0.291  1.00  0.00    -0.340 N 
HETATM    2  C4  UNL     1       1.420  -0.130  -0.048  1.00  0.00     0.051 C 
HETATM    3  C5  UNL     1       1.478   1.165   0.046  1.00  0.00     0.048 C 
HETATM    4  C6  UNL     1       2.561   2.069   0.303  1.00  0.00     0.163 C 
HETATM    5  O1  UNL     1       2.633   3.255  -0.068  1.00  0.00    -0.292 OA
HETATM    6  C7  UNL     1       3.681   1.483   1.093  1.00  0.00     0.088 C 
HETATM    7  C8  UNL     1       4.315   0.441   0.160  1.00  0.00     0.045 C 
HETATM    8  P1  UNL     1       3.076  -0.947   0.171  1.00  0.00    -0.075 P 
HETATM    9  P2  UNL     1      -0.164   1.780  -0.506  1.00  0.00     0.008 P 
HETATM   10  C9  UNL     1      -0.836   0.194  -0.377  1.00  0.00     0.055 C 
HETATM   11  C10 UNL     1      -2.259   0.513  -0.346  1.00  0.00     0.006 A 
HETATM   12  C11 UNL     1      -3.321  -0.184  -0.882  1.00  0.00     0.015 A 
HETATM   13  C12 UNL     1      -4.624   0.290  -0.681  1.00  0.00     0.001 A 
HETATM   14  C13 UNL     1      -4.893   1.453   0.049  1.00  0.00     0.001 A 
HETATM   15  C14 UNL     1      -3.776   2.116   0.567  1.00  0.00     0.016 A 
HETATM   16  C15 UNL     1      -2.440   1.674   0.388  1.00  0.00     0.027 A 
HETATM   17  C16 UNL     1      -1.185   2.316   0.900  1.00  0.00     0.188 C 
HETATM   18  O2  UNL     1      -1.176   2.948   1.986  1.00  0.00    -0.287 OA
HETATM   19  H12 UNL     1       3.054  -1.420   1.564  1.00  0.00     0.064 HD
HETATM   20  H13 UNL     1      -0.259   2.318  -1.582  1.00  0.00     0.072 HD
ENDROOT
BRANCH   1  21
HETATM   21  C2  UNL     1      -0.047  -2.175  -0.443  1.00  0.00     0.082 C 
HETATM   22  C1  UNL     1       0.751  -2.743  -1.607  1.00  0.00     0.032 C 
HETATM   23  C3  UNL     1       0.281  -2.912   0.860  1.00  0.00     0.032 C 
ENDBRANCH   1  21
TORSDOF 1
