REMARK  4 active torsions:
REMARK  status: ('A' for Active; 'I' for Inactive)
REMARK    1  A    between atoms: C2_2  and  C3_3 
REMARK    2  A    between atoms: C2_2  and  N1_10 
REMARK    3  A    between atoms: C3_3  and  C4_4 
REMARK    4  A    between atoms: N1_10  and  C10_11 
ROOT
HETATM    1  N1  UNL     1       1.156   0.707   0.971  1.00  0.00    -0.388 N 
HETATM    2  H16 UNL     1       1.457  -0.120   1.581  1.00  0.00     0.159 HD
ENDROOT
BRANCH   1   3
HETATM    3  C2  UNL     1       0.159   0.855   1.930  1.00  0.00     0.081 C 
HETATM    4  C1  UNL     1      -0.770   2.046   1.576  1.00  0.00     0.032 C 
BRANCH   3   5
HETATM    5  C3  UNL     1      -0.724  -0.382   2.134  1.00  0.00     0.058 C 
BRANCH   5   6
HETATM    6  C4  UNL     1      -1.503  -0.741   0.928  1.00  0.00    -0.082 C 
HETATM    7  C5  UNL     1      -1.283  -1.963   0.387  1.00  0.00    -0.024 C 
HETATM    8  C6  UNL     1      -1.830  -2.712  -0.792  1.00  0.00     0.027 C 
HETATM    9  C7  UNL     1      -2.920  -1.903  -1.472  1.00  0.00     0.004 C 
HETATM   10  C8  UNL     1      -3.572  -1.100  -0.344  1.00  0.00     0.005 C 
HETATM   11  C9  UNL     1      -2.537  -0.073   0.101  1.00  0.00     0.034 C 
ENDBRANCH   5   6
ENDBRANCH   3   5
ENDBRANCH   1   3
BRANCH   1  12
HETATM   12  C10 UNL     1       2.198   0.544  -0.023  1.00  0.00     0.022 A 
HETATM   13  C11 UNL     1       3.217  -0.433  -0.064  1.00  0.00     0.025 A 
HETATM   14  C12 UNL     1       4.093  -0.370  -1.121  1.00  0.00    -0.000 A 
HETATM   15  C13 UNL     1       3.822   0.701  -2.027  1.00  0.00     0.000 A 
HETATM   16  C14 UNL     1       2.583   1.799  -1.874  1.00  0.00     0.094 A 
HETATM   17  C15 UNL     1       1.534   1.667  -0.545  1.00  0.00     0.072 A 
HETATM   18  C18 UNL     1       2.353   3.084  -3.067  1.00  0.00     0.178 A 
HETATM   19  C17 UNL     1       2.058   2.620  -2.211  1.00  0.00     0.019 A 
HETATM   20  C16 UNL     1       1.823   2.215  -1.490  1.00  0.00    -0.026 A 
HETATM   21  O1  UNL     1       3.263   2.894  -3.876  1.00  0.00    -0.291 OA
ENDBRANCH   1  12
TORSDOF 4
