REMARK  2 active torsions:
REMARK  status: ('A' for Active; 'I' for Inactive)
REMARK    1  A    between atoms: C3_3  and  C4_4 
REMARK    2  A    between atoms: C12_18  and  O3_19 
ROOT
HETATM    1  C4  UNL     1       2.098  -0.791   0.587  1.00  0.00     0.045 C 
HETATM    2  C5  UNL     1       1.777   0.470   0.811  1.00  0.00     0.147 C 
HETATM    3  N1  UNL     1       0.678   1.342   0.628  1.00  0.00    -0.247 NA
HETATM    4  C6  UNL     1       0.695   2.099  -0.428  1.00  0.00     0.251 C 
HETATM    5  O1  UNL     1      -0.443   2.855  -0.418  1.00  0.00    -0.340 OA
HETATM    6  C7  UNL     1      -0.450   4.203  -0.016  1.00  0.00     0.225 C 
HETATM    7  C8  UNL     1      -1.870   4.723   0.036  1.00  0.00     0.041 C 
HETATM    8 CL1  UNL     1      -1.707   6.416   0.554  1.00  0.00    -0.089 Cl
HETATM    9  C9  UNL     1      -2.315   3.531  -0.353  1.00  0.00     0.182 C 
HETATM   10  N2  UNL     1      -3.725   3.254  -0.537  1.00  0.00    -0.272 NA
HETATM   11  C10 UNL     1      -4.078   2.041  -0.781  1.00  0.00     0.204 C 
HETATM   12  N3  UNL     1      -3.465   0.799  -0.939  1.00  0.00    -0.316 N 
HETATM   13  C11 UNL     1      -3.067  -0.520  -1.123  1.00  0.00     0.279 C 
HETATM   14  O2  UNL     1      -4.230  -0.890  -1.248  1.00  0.00    -0.265 OA
HETATM   15  C12 UNL     1      -1.912  -1.340  -1.189  1.00  0.00     0.134 C 
HETATM   16  C14 UNL     1      -0.636  -1.515  -1.158  1.00  0.00     0.035 C 
HETATM   17  C15 UNL     1       0.669  -2.128  -1.187  1.00  0.00     0.150 C 
HETATM   18  N4  UNL     1       1.470  -1.928   0.027  1.00  0.00    -0.385 N 
HETATM   19  H12 UNL     1      -2.488   1.124  -0.827  1.00  0.00     0.170 HD
HETATM   20  H19 UNL     1       1.608  -2.808   0.614  1.00  0.00     0.160 HD
ENDROOT
BRANCH   1  21
HETATM   21  C3  UNL     1       3.483  -1.044   1.052  1.00  0.00     0.026 C 
HETATM   22  C2  UNL     1       4.105  -2.186   0.976  1.00  0.00    -0.029 C 
HETATM   23  C1  UNL     1       5.453  -2.590   1.385  1.00  0.00     0.036 C 
ENDBRANCH   1  21
BRANCH  15  24
HETATM   24  O3  UNL     1      -2.193  -2.665  -1.386  1.00  0.00    -0.351 OA
HETATM   25  C13 UNL     1      -2.800  -3.361  -0.294  1.00  0.00     0.210 C 
ENDBRANCH  15  24
TORSDOF 2
