REMARK  7 active torsions:
REMARK  status: ('A' for Active; 'I' for Inactive)
REMARK    1  A    between atoms: C2_2  and  C3_3 
REMARK    2  A    between atoms: C2_2  and  C4_5 
REMARK    3  A    between atoms: C3_3  and  N1_4 
REMARK    4  A    between atoms: C6_7  and  C7_8 
REMARK    5  A    between atoms: C7_8  and  C8_9 
REMARK    6  A    between atoms: C11_12  and  O1_13 
REMARK    7  A    between atoms: C15_17  and  O2_18 
ROOT
HETATM    1  C4  UNL     1      -2.820  -0.100  -0.079  1.00  0.00    -0.036 C 
HETATM    2  C5  UNL     1      -1.622   0.282  -0.492  1.00  0.00    -0.008 C 
HETATM    3  C6  UNL     1      -0.620  -0.018   0.324  1.00  0.00    -0.009 C 
HETATM    4  C15 UNL     1      -0.582  -1.378   0.835  1.00  0.00     0.072 C 
HETATM    5  C17 UNL     1      -1.727  -2.029   0.980  1.00  0.00     0.015 C 
HETATM    6  C18 UNL     1      -3.019  -1.389   0.630  1.00  0.00     0.070 C 
ENDROOT
BRANCH   3   7
HETATM    7  C7  UNL     1       0.374   0.995   0.669  1.00  0.00     0.080 C 
BRANCH   7   8
HETATM    8  C8  UNL     1       1.767   0.680   0.308  1.00  0.00    -0.054 A 
HETATM    9  C9  UNL     1       2.194   0.987  -0.983  1.00  0.00     0.010 A 
HETATM   10  C10 UNL     1       3.479   0.738  -1.422  1.00  0.00     0.037 A 
HETATM   11  C11 UNL     1       4.413   0.164  -0.585  1.00  0.00     0.068 A 
HETATM   12  C13 UNL     1       4.012  -0.147   0.695  1.00  0.00     0.037 A 
HETATM   13  C14 UNL     1       2.731   0.108   1.114  1.00  0.00     0.010 A 
BRANCH  11  14
HETATM   14  O1  UNL     1       5.728  -0.145  -0.876  1.00  0.00    -0.356 OA
HETATM   15  C12 UNL     1       6.291   0.107  -2.129  1.00  0.00     0.210 C 
ENDBRANCH  11  14
ENDBRANCH   7   8
ENDBRANCH   3   7
BRANCH   4  16
HETATM   16  O2  UNL     1       0.625  -1.941   1.148  1.00  0.00    -0.356 OA
HETATM   17  C16 UNL     1       0.761  -2.653   2.364  1.00  0.00     0.210 C 
ENDBRANCH   4  16
BRANCH   1  18
HETATM   18  C2  UNL     1      -4.084   0.648  -0.247  1.00  0.00    -0.033 C 
HETATM   19  C1  UNL     1      -5.302   0.278   0.163  1.00  0.00     0.021 C 
BRANCH  18  20
HETATM   20  C3  UNL     1      -3.911   1.928  -0.947  1.00  0.00     0.304 C 
BRANCH  20  21
HETATM   21  N1  UNL     1      -5.163   2.667  -1.111  1.00  0.00     0.082 N 
HETATM   22  H5  UNL     1      -5.796   2.187  -1.770  1.00  0.00     0.313 HD
HETATM   23  H6  UNL     1      -5.572   2.996  -0.230  1.00  0.00     0.313 HD
ENDBRANCH  20  21
ENDBRANCH  18  20
ENDBRANCH   1  18
TORSDOF 7
