REMARK  3 active torsions:
REMARK  status: ('A' for Active; 'I' for Inactive)
REMARK    1  A    between atoms: O1_2  and  C2_3 
REMARK    2  A    between atoms: C3_4  and  C4_5 
REMARK    3  A    between atoms: C13_15  and  O3_16 
ROOT
HETATM    1  C4  UNL     1       2.334  -1.484   0.229  1.00  0.00     0.007 C 
HETATM    2  C5  UNL     1       1.384  -1.295   1.176  1.00  0.00    -0.055 C 
HETATM    3  C6  UNL     1       0.439  -0.817   2.144  1.00  0.00     0.119 C 
HETATM    4  C7  UNL     1       0.121   0.410   2.434  1.00  0.00     0.116 C 
HETATM    5  O2  UNL     1       0.109   1.998   2.378  1.00  0.00    -0.351 OA
HETATM    6  C8  UNL     1      -1.161   2.067   1.512  1.00  0.00     0.085 A 
HETATM    7  C9  UNL     1      -0.939   1.275   0.323  1.00  0.00     0.065 A 
HETATM    8  C10 UNL     1      -0.500   0.502  -0.677  1.00  0.00     0.017 A 
HETATM    9  C11 UNL     1      -1.655   1.039  -0.586  1.00  0.00     0.009 A 
HETATM   10  C12 UNL     1      -2.714   1.720  -0.198  1.00  0.00     0.024 A 
HETATM   11  C13 UNL     1      -2.467   2.374   1.062  1.00  0.00     0.095 A 
HETATM   12  C15 UNL     1      -2.001  -0.255  -1.370  1.00  0.00     0.092 C 
HETATM   13  C16 UNL     1      -1.828  -0.034  -2.760  1.00  0.00     0.006 C 
HETATM   14  C17 UNL     1      -1.301  -0.561  -3.849  1.00  0.00     0.115 C 
HETATM   15  N1  UNL     1      -0.598  -1.815  -3.860  1.00  0.00    -0.254 NA
HETATM   16  C18 UNL     1      -0.328  -2.511  -2.792  1.00  0.00     0.234 C 
HETATM   17  N2  UNL     1      -0.638  -2.221  -1.504  1.00  0.00    -0.228 NA
HETATM   18  C19 UNL     1      -1.254  -1.420  -0.751  1.00  0.00     0.110 C 
HETATM   19  N3  UNL     1      -0.908  -2.033   0.539  1.00  0.00    -0.374 N 
HETATM   20  C20 UNL     1       0.479  -2.473   0.949  1.00  0.00     0.155 C 
HETATM   21  H19 UNL     1      -1.857  -2.051   1.028  1.00  0.00     0.161 HD
ENDROOT
BRANCH   1  22
HETATM   22  C3  UNL     1       3.104  -2.209  -0.596  1.00  0.00     0.024 C 
HETATM   23  C2  UNL     1       3.990  -1.429  -1.196  1.00  0.00     0.134 C 
BRANCH  23  24
HETATM   24  O1  UNL     1       3.838  -0.094  -0.759  1.00  0.00    -0.368 OA
HETATM   25  C1  UNL     1       4.620   0.410   0.335  1.00  0.00     0.208 C 
ENDBRANCH  23  24
ENDBRANCH   1  22
BRANCH  11  26
HETATM   26  O3  UNL     1      -2.428   3.095   2.272  1.00  0.00    -0.354 OA
HETATM   27  C14 UNL     1      -3.545   3.876   2.683  1.00  0.00     0.210 C 
ENDBRANCH  11  26
TORSDOF 3
