REMARK  8 active torsions:
REMARK  status: ('A' for Active; 'I' for Inactive)
REMARK    1  A    between atoms: C2_2  and  C3_3 
REMARK    2  A    between atoms: C3_3  and  C4_4 
REMARK    3  A    between atoms: C4_4  and  C5_5 
REMARK    4  A    between atoms: C5_5  and  O1_6 
REMARK    5  A    between atoms: O1_6  and  C6_7 
REMARK    6  A    between atoms: C14_19  and  O2_20 
REMARK    7  A    between atoms: O2_20  and  C15_21 
REMARK    8  A    between atoms: C18_24  and  O3_25 
ROOT
HETATM    1  C6  UNL     1       0.833   0.956   0.386  1.00  0.00     0.098 C 
HETATM    2  C7  UNL     1       1.015  -0.355   0.624  1.00  0.00     0.161 C 
HETATM    3  C8  UNL     1       0.151  -1.486   0.966  1.00  0.00     0.100 C 
HETATM    4  N1  UNL     1       1.158  -2.328   0.949  1.00  0.00    -0.258 NA
HETATM    5  C9  UNL     1       0.934  -3.696   1.223  1.00  0.00     0.233 C 
HETATM    6  N2  UNL     1       0.122  -4.139   0.303  1.00  0.00    -0.235 NA
HETATM    7  C10 UNL     1      -0.387  -3.296  -0.744  1.00  0.00     0.233 C 
HETATM    8  N3  UNL     1      -1.651  -3.396  -0.953  1.00  0.00    -0.253 NA
HETATM    9  C11 UNL     1      -2.326  -2.655  -1.928  1.00  0.00     0.137 C 
HETATM   10  C12 UNL     1      -2.751  -1.391  -1.733  1.00  0.00     0.135 C 
HETATM   11  N4  UNL     1      -2.592  -0.627  -0.555  1.00  0.00    -0.273 NA
HETATM   12  C13 UNL     1      -2.390   0.642  -0.625  1.00  0.00     0.125 C 
HETATM   13  C14 UNL     1      -2.208   1.525   0.585  1.00  0.00     0.187 C 
HETATM   14  C17 UNL     1      -1.107   2.475   0.293  1.00  0.00     0.044 C 
HETATM   15  C18 UNL     1       0.184   2.286   0.197  1.00  0.00     0.072 C 
ENDROOT
BRANCH   1  16
HETATM   16  O1  UNL     1       2.237   0.859   0.226  1.00  0.00    -0.378 OA
BRANCH  16  17
HETATM   17  C5  UNL     1       2.918   1.216  -0.936  1.00  0.00     0.168 C 
BRANCH  17  18
HETATM   18  C4  UNL     1       4.402   1.024  -0.690  1.00  0.00     0.027 C 
BRANCH  18  19
HETATM   19  C3  UNL     1       4.630  -0.431  -0.368  1.00  0.00     0.007 C 
BRANCH  19  20
HETATM   20  C2  UNL     1       4.175  -1.212  -1.546  1.00  0.00    -0.010 C 
HETATM   21  C1  UNL     1       3.238  -2.130  -1.594  1.00  0.00     0.005 C 
ENDBRANCH  19  20
ENDBRANCH  18  19
ENDBRANCH  17  18
ENDBRANCH  16  17
ENDBRANCH   1  16
BRANCH  15  22
HETATM   22  O3  UNL     1       1.071   3.302  -0.088  1.00  0.00    -0.362 OA
HETATM   23  H24 UNL     1       1.054   3.912  -0.883  1.00  0.00     0.217 HD
ENDBRANCH  15  22
BRANCH  13  24
HETATM   24  O2  UNL     1      -3.414   2.222   0.712  1.00  0.00    -0.377 OA
BRANCH  24  25
HETATM   25  C15 UNL     1      -3.979   1.886   1.948  1.00  0.00     0.164 C 
HETATM   26  C16 UNL     1      -5.283   2.686   2.001  1.00  0.00     0.033 C 
ENDBRANCH  24  25
ENDBRANCH  13  24
TORSDOF 8
