REMARK  5 active torsions:
REMARK  status: ('A' for Active; 'I' for Inactive)
REMARK    1  A    between atoms: O1_2  and  C2_3 
REMARK    2  A    between atoms: C2_3  and  O2_4 
REMARK    3  A    between atoms: O2_4  and  C3_5 
REMARK    4  A    between atoms: C6_9  and  C7_10 
REMARK    5  A    between atoms: C15_19  and  N2_20 
ROOT
HETATM    1  C3  UNL     1       1.735   0.967  -0.066  1.00  0.00     0.153 C 
HETATM    2  C4  UNL     1       1.120   1.940  -1.019  1.00  0.00     0.029 C 
HETATM    3  C5  UNL     1       0.115   1.491  -1.819  1.00  0.00     0.134 C 
HETATM    4  O3  UNL     1      -0.185   0.127  -1.602  1.00  0.00    -0.353 OA
HETATM    5  C6  UNL     1      -1.577  -0.182  -1.405  1.00  0.00     0.162 C 
HETATM    6  C12 UNL     1      -1.816   0.014   0.076  1.00  0.00     0.038 C 
HETATM    7  C13 UNL     1      -1.565   0.553   1.284  1.00  0.00     0.057 C 
HETATM    8  C14 UNL     1      -0.670   1.505   1.985  1.00  0.00     0.067 A 
HETATM    9  N1  UNL     1      -1.558   2.075   2.800  1.00  0.00    -0.067 NA
HETATM   10  C15 UNL     1      -1.295   3.042   3.706  1.00  0.00     0.720 A 
HETATM   11  N3  UNL     1      -0.038   3.438   3.767  1.00  0.00    -0.075 NA
HETATM   12  C16 UNL     1       0.889   2.883   2.954  1.00  0.00     0.145 A 
HETATM   13  C17 UNL     1       0.651   1.899   2.023  1.00  0.00    -0.011 A 
HETATM   14  C18 UNL     1       1.873   1.515   1.308  1.00  0.00     0.078 C 
ENDROOT
BRANCH   5  15
HETATM   15  C7  UNL     1      -1.744  -1.612  -1.752  1.00  0.00    -0.047 A 
HETATM   16  C8  UNL     1      -0.918  -2.510  -2.288  1.00  0.00     0.005 A 
HETATM   17  C9  UNL     1      -1.535  -3.828  -2.452  1.00  0.00    -0.003 A 
HETATM   18  C10 UNL     1      -2.761  -3.683  -1.993  1.00  0.00    -0.022 A 
HETATM   19  C11 UNL     1      -3.029  -2.309  -1.513  1.00  0.00     0.064 A 
ENDBRANCH   5  15
BRANCH   1  20
HETATM   20  O2  UNL     1       3.006   0.671  -0.596  1.00  0.00    -0.358 OA
BRANCH  20  21
HETATM   21  C2  UNL     1       3.068  -0.618  -1.131  1.00  0.00     0.337 C 
BRANCH  21  22
HETATM   22  O1  UNL     1       2.791  -1.598  -0.187  1.00  0.00    -0.372 OA
HETATM   23  C1  UNL     1       2.838  -2.886  -0.692  1.00  0.00     0.204 C 
ENDBRANCH  21  22
ENDBRANCH  20  21
ENDBRANCH   1  20
BRANCH  10  24
HETATM   24  N2  UNL     1      -2.164   3.716   4.628  1.00  0.00    -0.231 N 
HETATM   25  H17 UNL     1      -2.905   4.056   3.973  1.00  0.00     0.174 HD
HETATM   26  H18 UNL     1      -1.855   3.692   5.623  1.00  0.00     0.174 HD
ENDBRANCH  10  24
TORSDOF 5
