REMARK  6 active torsions:
REMARK  status: ('A' for Active; 'I' for Inactive)
REMARK    1  A    between atoms: C2_2  and  O1_3 
REMARK    2  A    between atoms: O1_3  and  C3_4 
REMARK    3  A    between atoms: C6_7  and  C7_8 
REMARK    4  A    between atoms: C7_8  and  C8_9 
REMARK    5  A    between atoms: C14_17  and  N3_18 
REMARK    6  A    between atoms: C19_24  and  O2_25 
ROOT
HETATM    1  C8  UNL     1      -0.921   0.037  -1.480  1.00  0.00    -0.041 C 
HETATM    2  C9  UNL     1      -1.531   1.218  -1.486  1.00  0.00     0.027 C 
HETATM    3  C10 UNL     1      -2.601   2.114  -1.025  1.00  0.00     0.116 C 
HETATM    4  N1  UNL     1      -3.549   1.908  -0.211  1.00  0.00    -0.241 NA
HETATM    5  C11 UNL     1      -4.549   2.920   0.148  1.00  0.00     0.317 A 
HETATM    6  N2  UNL     1      -5.315   2.204  -0.767  1.00  0.00    -0.240 N 
HETATM    7  C12 UNL     1      -5.248   0.825  -0.303  1.00  0.00     0.127 A 
HETATM    8  C13 UNL     1      -4.438   0.681   0.897  1.00  0.00     0.008 A 
HETATM    9  C14 UNL     1      -3.662   1.558   1.766  1.00  0.00     0.129 A 
HETATM   10  N4  UNL     1      -3.739   2.938   1.287  1.00  0.00    -0.211 NA
HETATM   11  C15 UNL     1      -4.400  -0.732   1.411  1.00  0.00     0.071 C 
HETATM   12  C16 UNL     1      -3.323  -1.553   0.917  1.00  0.00    -0.021 C 
HETATM   13  C17 UNL     1      -2.276  -1.566   0.146  1.00  0.00     0.010 C 
HETATM   14  C18 UNL     1      -1.203  -1.233  -0.770  1.00  0.00    -0.008 C 
HETATM   15  C19 UNL     1      -0.320  -2.218  -1.057  1.00  0.00     0.143 C 
ENDROOT
BRANCH   1  16
HETATM   16  C7  UNL     1       0.282   0.020  -2.394  1.00  0.00     0.078 C 
BRANCH  16  17
HETATM   17  C6  UNL     1       1.562  -0.076  -1.701  1.00  0.00    -0.054 A 
HETATM   18  C5  UNL     1       1.722   1.127  -0.993  1.00  0.00     0.010 A 
HETATM   19  C4  UNL     1       2.869   1.381  -0.224  1.00  0.00     0.037 A 
HETATM   20  C3  UNL     1       3.888   0.426  -0.146  1.00  0.00     0.068 A 
HETATM   21  C21 UNL     1       3.732  -0.745  -0.835  1.00  0.00     0.037 A 
HETATM   22  C20 UNL     1       2.600  -0.972  -1.583  1.00  0.00     0.010 A 
BRANCH  20  23
HETATM   23  O1  UNL     1       5.045   0.611   0.594  1.00  0.00    -0.352 OA
BRANCH  23  24
HETATM   24  C2  UNL     1       6.055  -0.359   0.659  1.00  0.00     0.171 C 
HETATM   25  C1  UNL     1       7.178   0.149   1.543  1.00  0.00     0.034 C 
ENDBRANCH  23  24
ENDBRANCH  20  23
ENDBRANCH  16  17
ENDBRANCH   1  16
BRANCH  15  26
HETATM   26  O2  UNL     1      -0.464  -3.459  -0.460  1.00  0.00    -0.372 OA
HETATM   27  H20 UNL     1      -0.394  -3.659   0.536  1.00  0.00     0.216 HD
ENDBRANCH  15  26
BRANCH   9  28
HETATM   28  N3  UNL     1      -2.969   1.066   2.883  1.00  0.00    -0.384 N 
HETATM   29  H13 UNL     1      -1.939   0.853   2.854  1.00  0.00     0.157 HD
HETATM   30  H14 UNL     1      -3.756   1.018   3.593  1.00  0.00     0.157 HD
ENDBRANCH   9  28
TORSDOF 6
