REMARK  7 active torsions:
REMARK  status: ('A' for Active; 'I' for Inactive)
REMARK    1  A    between atoms: O1_2  and  C2_3 
REMARK    2  A    between atoms: C2_3  and  C3_4 
REMARK    3  A    between atoms: C3_4  and  C4_5 
REMARK    4  A    between atoms: C7_8  and  O2_9 
REMARK    5  A    between atoms: O2_9  and  C8_10 
REMARK    6  A    between atoms: C8_10  and  C9_11 
REMARK    7  A    between atoms: C12_14  and  O3_15 
ROOT
HETATM    1  C4  UNL     1      -3.206   0.285  -1.115  1.00  0.00    -0.037 C 
HETATM    2  C5  UNL     1      -2.175   1.099  -1.043  1.00  0.00     0.012 C 
HETATM    3  C6  UNL     1      -0.785   0.947  -0.662  1.00  0.00     0.038 C 
HETATM    4  C7  UNL     1       0.138   0.110  -0.218  1.00  0.00     0.082 C 
HETATM    5  C16 UNL     1      -0.608  -1.157  -0.038  1.00  0.00     0.032 C 
HETATM    6  C17 UNL     1      -1.350  -2.119  -0.530  1.00  0.00     0.127 C 
HETATM    7  N1  UNL     1      -2.548  -2.439   0.215  1.00  0.00    -0.287 N 
HETATM    8  C18 UNL     1      -2.367  -2.839   1.599  1.00  0.00     0.295 C 
HETATM    9  N2  UNL     1      -0.979  -2.523   2.012  1.00  0.00    -0.279 NA
HETATM   10  C19 UNL     1      -0.442  -1.464   1.418  1.00  0.00     0.128 C 
HETATM   11  N3  UNL     1      -3.241  -2.172  -0.894  1.00  0.00    -0.329 N 
HETATM   12  C20 UNL     1      -3.954  -0.975  -1.084  1.00  0.00     0.178 C 
HETATM   13  H21 UNL     1      -3.525  -2.980  -1.488  1.00  0.00     0.180 HD
ENDROOT
BRANCH   4  14
HETATM   14  O2  UNL     1       1.468   0.063   0.112  1.00  0.00    -0.346 OA
BRANCH  14  15
HETATM   15  C8  UNL     1       2.215   1.101   0.673  1.00  0.00     0.214 C 
BRANCH  15  16
HETATM   16  C9  UNL     1       3.653   0.717   0.744  1.00  0.00    -0.034 A 
HETATM   17  C10 UNL     1       4.355   1.055  -0.403  1.00  0.00     0.012 A 
HETATM   18  C11 UNL     1       5.715   0.781  -0.520  1.00  0.00     0.037 A 
HETATM   19  C12 UNL     1       6.327   0.166   0.542  1.00  0.00     0.068 A 
HETATM   20  C14 UNL     1       5.638  -0.175   1.687  1.00  0.00     0.037 A 
HETATM   21  C15 UNL     1       4.299   0.088   1.813  1.00  0.00     0.012 A 
BRANCH  19  22
HETATM   22  O3  UNL     1       7.677  -0.118   0.463  1.00  0.00    -0.356 OA
HETATM   23  C13 UNL     1       8.347  -0.756   1.542  1.00  0.00     0.210 C 
ENDBRANCH  19  22
ENDBRANCH  15  16
ENDBRANCH  14  15
ENDBRANCH   4  14
BRANCH   1  24
HETATM   24  C3  UNL     1      -4.200   1.269  -1.583  1.00  0.00     0.033 C 
BRANCH  24  25
HETATM   25  C2  UNL     1      -5.480   1.242  -1.885  1.00  0.00     0.134 C 
BRANCH  25  26
HETATM   26  O1  UNL     1      -6.729   1.603  -2.269  1.00  0.00    -0.368 OA
HETATM   27  C1  UNL     1      -7.360   2.678  -1.549  1.00  0.00     0.208 C 
ENDBRANCH  25  26
ENDBRANCH  24  25
ENDBRANCH   1  24
TORSDOF 7
