REMARK  6 active torsions:
REMARK  status: ('A' for Active; 'I' for Inactive)
REMARK    1  A    between atoms: O1_2  and  C2_3 
REMARK    2  A    between atoms: C5_8  and  N3_9 
REMARK    3  A    between atoms: C9_14  and  O2_15 
REMARK    4  A    between atoms: O2_15  and  C10_16 
REMARK    5  A    between atoms: C10_16  and  C11_17 
REMARK    6  A    between atoms: C14_20  and  O3_21 
ROOT
HETATM    1  C2  UNL     1       1.334  -0.294  -1.792  1.00  0.00     0.117 C 
HETATM    2  C3  UNL     1       2.500  -0.376  -2.424  1.00  0.00     0.129 C 
HETATM    3  N1  UNL     1       3.849   0.033  -2.070  1.00  0.00    -0.351 N 
HETATM    4  C4  UNL     1       4.272   0.979  -1.095  1.00  0.00     0.127 C 
HETATM    5  N2  UNL     1       5.423   0.603  -0.626  1.00  0.00    -0.049 NA
HETATM    6  C5  UNL     1       5.595   0.515   0.858  1.00  0.00     0.721 C 
HETATM    7  N4  UNL     1       4.840   0.977   1.870  1.00  0.00    -0.075 NA
HETATM    8  C6  UNL     1       3.388   1.052   1.757  1.00  0.00     0.144 C 
HETATM    9  C7  UNL     1       2.823   1.402   0.580  1.00  0.00    -0.030 C 
HETATM   10  C8  UNL     1       1.500   0.724   0.608  1.00  0.00     0.048 C 
HETATM   11  C9  UNL     1       0.917   0.121  -0.450  1.00  0.00     0.104 C 
HETATM   12  C18 UNL     1       3.568   2.228  -0.501  1.00  0.00     0.119 C 
HETATM   13  H5  UNL     1       4.707  -0.324  -2.465  1.00  0.00     0.166 HD
ENDROOT
BRANCH  11  14
HETATM   14  O2  UNL     1      -0.365  -0.107  -0.047  1.00  0.00    -0.344 OA
BRANCH  14  15
HETATM   15  C10 UNL     1      -1.233   0.885   0.460  1.00  0.00     0.214 C 
BRANCH  15  16
HETATM   16  C11 UNL     1      -2.574   0.353   0.811  1.00  0.00    -0.034 A 
HETATM   17  C12 UNL     1      -2.882  -0.143   2.071  1.00  0.00     0.012 A 
HETATM   18  C13 UNL     1      -4.165  -0.630   2.342  1.00  0.00     0.037 A 
HETATM   19  C14 UNL     1      -5.127  -0.609   1.331  1.00  0.00     0.068 A 
HETATM   20  C16 UNL     1      -4.837  -0.123   0.087  1.00  0.00     0.037 A 
HETATM   21  C17 UNL     1      -3.549   0.360  -0.167  1.00  0.00     0.012 A 
BRANCH  19  22
HETATM   22  O3  UNL     1      -6.391  -1.098   1.627  1.00  0.00    -0.356 OA
HETATM   23  C15 UNL     1      -7.432  -1.119   0.671  1.00  0.00     0.210 C 
ENDBRANCH  19  22
ENDBRANCH  15  16
ENDBRANCH  14  15
ENDBRANCH  11  14
BRANCH   1  24
HETATM   24  O1  UNL     1       0.273  -0.684  -2.555  1.00  0.00    -0.352 OA
HETATM   25  C1  UNL     1      -0.045  -2.084  -2.531  1.00  0.00     0.210 C 
ENDBRANCH   1  24
BRANCH   6  26
HETATM   26  N3  UNL     1       6.778  -0.198   1.273  1.00  0.00    -0.231 N 
HETATM   27  H6  UNL     1       6.879  -1.235   1.113  1.00  0.00     0.174 HD
HETATM   28  H7  UNL     1       7.543   0.368   1.746  1.00  0.00     0.174 HD
ENDBRANCH   6  26
TORSDOF 6
