REMARK  9 active torsions:
REMARK  status: ('A' for Active; 'I' for Inactive)
REMARK    1  A    between atoms: C3_3  and  C4_4 
REMARK    2  A    between atoms: C5_5  and  C6_6 
REMARK    3  A    between atoms: C6_6  and  O1_7 
REMARK    4  A    between atoms: O1_7  and  C7_8 
REMARK    5  A    between atoms: C10_11  and  C11_12 
REMARK    6  A    between atoms: C11_12  and  C12_13 
REMARK    7  A    between atoms: C14_16  and  N2_17 
REMARK    8  A    between atoms: C15_19  and  N4_20 
REMARK    9  A    between atoms: C17_22  and  O2_23 
ROOT
HETATM    1  C1  UNL     1       8.555   1.485   1.385  1.00  0.00     0.112 C 
HETATM    2  C2  UNL     1       7.151   1.233   0.994  1.00  0.00    -0.106 C 
HETATM    3  C3  UNL     1       6.002   1.022   0.669  1.00  0.00    -0.079 C 
ENDROOT
BRANCH   3   4
HETATM    4  C4  UNL     1       4.639   0.789   0.277  1.00  0.00     0.062 C 
HETATM    5  C5  UNL     1       4.056   1.638  -0.576  1.00  0.00     0.008 C 
BRANCH   5   6
HETATM    6  C6  UNL     1       2.666   1.477  -1.030  1.00  0.00     0.204 C 
BRANCH   6   7
HETATM    7  O1  UNL     1       2.143   0.325  -0.412  1.00  0.00    -0.345 OA
BRANCH   7   8
HETATM    8  C7  UNL     1       0.838  -0.068  -0.671  1.00  0.00     0.102 A 
HETATM    9  C8  UNL     1       0.107   0.725  -1.552  1.00  0.00     0.040 A 
HETATM   10  C9  UNL     1      -1.183   0.371  -1.835  1.00  0.00     0.010 A 
HETATM   11  C10 UNL     1      -1.703  -0.765  -1.228  1.00  0.00    -0.051 A 
HETATM   12  C16 UNL     1      -0.978  -1.540  -0.363  1.00  0.00     0.047 A 
HETATM   13  C17 UNL     1       0.324  -1.216  -0.053  1.00  0.00     0.102 A 
BRANCH  11  14
HETATM   14  C11 UNL     1      -3.106  -1.079  -1.586  1.00  0.00     0.082 C 
BRANCH  14  15
HETATM   15  C12 UNL     1      -3.985  -0.257  -0.727  1.00  0.00     0.010 A 
HETATM   16  C13 UNL     1      -4.575   0.873  -1.310  1.00  0.00     0.147 A 
HETATM   17  N1  UNL     1      -5.394   1.716  -0.635  1.00  0.00    -0.075 NA
HETATM   18  C14 UNL     1      -5.675   1.484   0.655  1.00  0.00     0.721 A 
HETATM   19  N3  UNL     1      -5.122   0.409   1.232  1.00  0.00    -0.045 NA
HETATM   20  C15 UNL     1      -4.311  -0.435   0.587  1.00  0.00     0.148 A 
BRANCH  18  21
HETATM   21  N2  UNL     1      -6.540   2.435   1.251  1.00  0.00    -0.231 N 
HETATM   22  H13 UNL     1      -6.291   3.179   1.945  1.00  0.00     0.174 HD
HETATM   23  H14 UNL     1      -7.574   2.530   1.078  1.00  0.00     0.174 HD
ENDBRANCH  18  21
BRANCH  20  24
HETATM   24  N4  UNL     1      -3.752  -1.558   1.226  1.00  0.00    -0.383 N 
HETATM   25  H15 UNL     1      -3.639  -2.532   0.911  1.00  0.00     0.157 HD
HETATM   26  H16 UNL     1      -3.296  -1.782   2.156  1.00  0.00     0.157 HD
ENDBRANCH  20  24
ENDBRANCH  14  15
ENDBRANCH  11  14
BRANCH  13  27
HETATM   27  O2  UNL     1       1.190  -1.883   0.792  1.00  0.00    -0.353 OA
HETATM   28  C18 UNL     1       0.797  -3.058   1.462  1.00  0.00     0.210 C 
ENDBRANCH  13  27
ENDBRANCH   7   8
ENDBRANCH   6   7
ENDBRANCH   5   6
ENDBRANCH   3   4
TORSDOF 9
