REMARK  6 active torsions:
REMARK  status: ('A' for Active; 'I' for Inactive)
REMARK    1  A    between atoms: N1_2  and  C2_3 
REMARK    2  A    between atoms: C2_3  and  N3_14 
REMARK    3  A    between atoms: C3_4  and  O1_5 
REMARK    4  A    between atoms: O1_5  and  C4_6 
REMARK    5  A    between atoms: C8_11  and  O2_12 
REMARK    6  A    between atoms: N3_14  and  C10_15 
ROOT
HETATM    1  C2  UNL     1       0.808   0.705   0.453  1.00  0.00     0.148 C 
HETATM    2  C3  UNL     1      -0.216  -0.114   0.167  1.00  0.00     0.187 C 
ENDROOT
BRANCH   1   3
HETATM    3  N1  UNL     1       0.516   2.107   0.517  1.00  0.00    -0.252 NA
HETATM    4  C1  UNL     1      -0.205   2.500   1.512  1.00  0.00     0.151 C 
ENDBRANCH   1   3
BRANCH   1   5
HETATM    5  N3  UNL     1       2.156   0.323   0.699  1.00  0.00    -0.339 N 
HETATM    6  H12 UNL     1       2.296   0.516   1.725  1.00  0.00     0.167 HD
BRANCH   5   7
HETATM    7  C10 UNL     1       3.187  -0.204  -0.119  1.00  0.00     0.035 A 
HETATM    8  C11 UNL     1       4.422  -0.466   0.484  1.00  0.00     0.029 A 
HETATM    9  C12 UNL     1       5.372  -0.975  -0.373  1.00  0.00     0.004 A 
HETATM   10  C13 UNL     1       5.162  -1.220  -1.717  1.00  0.00     0.024 A 
HETATM   11  C14 UNL     1       3.921  -0.937  -2.237  1.00  0.00     0.036 A 
HETATM   12 CL1  UNL     1       3.717  -1.268  -3.943  1.00  0.00    -0.084 Cl
HETATM   13  C15 UNL     1       2.920  -0.426  -1.447  1.00  0.00     0.053 A 
ENDBRANCH   5   7
ENDBRANCH   1   5
BRANCH   2  14
HETATM   14  O1  UNL     1      -1.087   0.966   0.083  1.00  0.00    -0.336 OA
BRANCH  14  15
HETATM   15  C4  UNL     1      -2.384   0.710  -0.363  1.00  0.00     0.146 A 
HETATM   16  C5  UNL     1      -3.180   1.989  -0.391  1.00  0.00     0.060 C 
HETATM   17  C6  UNL     1      -2.431   0.168  -1.765  1.00  0.00     0.134 A 
HETATM   18  N2  UNL     1      -3.013  -1.001  -1.851  1.00  0.00    -0.271 NA
HETATM   19  C7  UNL     1      -3.411  -1.352  -0.511  1.00  0.00     0.151 A 
HETATM   20  C8  UNL     1      -3.066  -0.400   0.344  1.00  0.00     0.103 A 
BRANCH  20  21
HETATM   21  O2  UNL     1      -3.365  -0.547   1.713  1.00  0.00    -0.355 OA
HETATM   22  C9  UNL     1      -3.441  -1.806   2.332  1.00  0.00     0.209 C 
ENDBRANCH  20  21
ENDBRANCH  14  15
ENDBRANCH   2  14
TORSDOF 6
