REMARK  3 active torsions:
REMARK  status: ('A' for Active; 'I' for Inactive)
REMARK    1  A    between atoms: N1_2  and  C2_3 
REMARK    2  A    between atoms: C4_5  and  N2_6 
REMARK    3  A    between atoms: C18_25  and  O2_26 
ROOT
HETATM    1  C2  UNL     1       3.078   1.433  -0.022  1.00  0.00     0.119 C 
HETATM    2  C3  UNL     1       2.455   0.118   0.085  1.00  0.00     0.028 C 
HETATM    3  C4  UNL     1       2.944  -0.903   0.747  1.00  0.00     0.023 C 
HETATM    4  C5  UNL     1       2.272  -2.193   0.824  1.00  0.00     0.029 C 
HETATM    5  C6  UNL     1       1.122  -2.408   0.225  1.00  0.00     0.004 C 
HETATM    6  C7  UNL     1       0.473  -3.702   0.316  1.00  0.00     0.025 C 
HETATM    7  C8  UNL     1      -0.684  -3.887  -0.296  1.00  0.00     0.144 C 
HETATM    8  O1  UNL     1      -1.879  -3.895  -0.996  1.00  0.00    -0.302 OA
HETATM    9  C9  UNL     1      -2.778  -2.842  -0.810  1.00  0.00     0.211 A 
HETATM   10  N3  UNL     1      -2.704  -1.680  -1.496  1.00  0.00    -0.036 NA
HETATM   11  C10 UNL     1      -3.645  -0.757  -1.205  1.00  0.00     0.729 A 
HETATM   12  N4  UNL     1      -4.627  -0.922  -0.296  1.00  0.00    -0.073 NA
HETATM   13  C11 UNL     1      -4.688  -2.096   0.384  1.00  0.00     0.164 A 
HETATM   14  C12 UNL     1      -3.756  -3.080   0.134  1.00  0.00     0.105 A 
HETATM   15 CL1  UNL     1      -3.866  -4.589   1.035  1.00  0.00    -0.078 Cl
HETATM   16  N5  UNL     1      -3.702   0.517  -1.840  1.00  0.00    -0.185 N 
HETATM   17  C13 UNL     1      -2.496   1.117  -1.422  1.00  0.00     0.082 A 
HETATM   18  C14 UNL     1      -1.480   1.337  -2.334  1.00  0.00     0.035 A 
HETATM   19  C15 UNL     1      -0.297   1.922  -1.929  1.00  0.00     0.031 A 
HETATM   20  C16 UNL     1      -0.117   2.294  -0.610  1.00  0.00     0.030 A 
HETATM   21  C17 UNL     1      -1.133   2.076   0.306  1.00  0.00     0.068 A 
HETATM   22  C18 UNL     1      -2.317   1.489  -0.102  1.00  0.00     0.097 A 
HETATM   23  N6  UNL     1       1.087   2.897  -0.165  1.00  0.00    -0.388 N 
HETATM   24  C20 UNL     1       2.264   2.566   0.586  1.00  0.00     0.148 C 
HETATM   25  H14 UNL     1      -4.371   1.031  -2.470  1.00  0.00     0.184 HD
HETATM   26  H21 UNL     1       0.908   3.857  -0.589  1.00  0.00     0.159 HD
ENDROOT
BRANCH   1  27
HETATM   27  N1  UNL     1       3.477   1.835  -1.333  1.00  0.00    -0.416 N 
HETATM   28  C1  UNL     1       4.427   0.985  -1.980  1.00  0.00     0.140 C 
HETATM   29  H4  UNL     1       2.764   2.271  -1.924  1.00  0.00     0.153 HD
ENDBRANCH   1  27
BRANCH   3  30
HETATM   30  N2  UNL     1       4.185  -0.681   1.405  1.00  0.00    -0.399 N 
HETATM   31  H7  UNL     1       4.575  -0.421   2.340  1.00  0.00     0.156 HD
HETATM   32  H8  UNL     1       5.041  -0.802   0.810  1.00  0.00     0.156 HD
ENDBRANCH   3  30
BRANCH  22  33
HETATM   33  O2  UNL     1      -3.337   1.269   0.815  1.00  0.00    -0.354 OA
HETATM   34  C19 UNL     1      -3.284   1.599   2.182  1.00  0.00     0.210 C 
ENDBRANCH  22  33
TORSDOF 3
