REMARK  7 active torsions:
REMARK  status: ('A' for Active; 'I' for Inactive)
REMARK    1  A    between atoms: O1_2  and  C2_3 
REMARK    2  A    between atoms: C5_6  and  C6_7 
REMARK    3  A    between atoms: N1_8  and  C7_9 
REMARK    4  A    between atoms: N2_10  and  C8_11 
REMARK    5  A    between atoms: C8_11  and  N3_12 
REMARK    6  A    between atoms: N3_12  and  C9_13 
REMARK    7  A    between atoms: C15_21  and  O2_22 
ROOT
HETATM    1  C6  UNL     1      -1.181  -2.248  -1.407  1.00  0.00     0.126 C 
HETATM    2  N1  UNL     1      -0.039  -2.125  -0.823  1.00  0.00    -0.256 NA
ENDROOT
BRANCH   2   3
HETATM    3  C7  UNL     1       1.018  -2.960  -1.325  1.00  0.00     0.228 C 
HETATM    4  N2  UNL     1       2.276  -2.815  -1.099  1.00  0.00    -0.264 NA
BRANCH   4   5
HETATM    5  C8  UNL     1       2.700  -1.717  -0.263  1.00  0.00     0.272 C 
BRANCH   5   6
HETATM    6  N3  UNL     1       3.729  -1.016  -1.004  1.00  0.00    -0.372 N 
HETATM    7  H12 UNL     1       4.065  -1.304  -1.971  1.00  0.00     0.161 HD
BRANCH   6   8
HETATM    8  C9  UNL     1       4.411   0.144  -0.517  1.00  0.00     0.030 A 
HETATM    9  C10 UNL     1       5.400   0.848  -1.185  1.00  0.00     0.029 A 
HETATM   10  C11 UNL     1       5.985   1.955  -0.610  1.00  0.00     0.004 A 
HETATM   11  C12 UNL     1       5.587   2.374   0.645  1.00  0.00     0.024 A 
HETATM   12  C13 UNL     1       4.605   1.693   1.336  1.00  0.00     0.036 A 
HETATM   13 CL1  UNL     1       4.115   2.251   2.940  1.00  0.00    -0.084 Cl
HETATM   14  C14 UNL     1       4.033   0.584   0.735  1.00  0.00     0.053 A 
ENDBRANCH   6   8
ENDBRANCH   5   6
ENDBRANCH   4   5
ENDBRANCH   2   3
BRANCH   1  15
HETATM   15  C5  UNL     1      -2.367  -1.453  -0.999  1.00  0.00     0.268 C 
HETATM   16  C4  UNL     1      -2.842  -0.573  -2.133  1.00  0.00     0.071 C 
HETATM   17  C3  UNL     1      -3.252   0.765  -1.680  1.00  0.00     0.012 C 
HETATM   18  C2  UNL     1      -3.449   1.093  -0.407  1.00  0.00     0.100 C 
HETATM   19  C15 UNL     1      -3.233   0.020   0.591  1.00  0.00     0.414 C 
HETATM   20  N4  UNL     1      -2.033  -0.700   0.185  1.00  0.00     0.128 N 
HETATM   21  H17 UNL     1      -1.269  -0.025   0.010  1.00  0.00     0.320 HD
BRANCH  18  22
HETATM   22  O1  UNL     1      -3.837   2.358   0.025  1.00  0.00    -0.356 OA
HETATM   23  C1  UNL     1      -3.014   3.166   0.842  1.00  0.00     0.209 C 
ENDBRANCH  18  22
BRANCH  19  24
HETATM   24  O2  UNL     1      -4.264  -0.914   0.631  1.00  0.00    -0.357 OA
HETATM   25  C16 UNL     1      -4.805  -1.040   1.907  1.00  0.00     0.204 C 
ENDBRANCH  19  24
ENDBRANCH   1  15
TORSDOF 7
