REMARK  0 active torsions:
REMARK  status: ('A' for Active; 'I' for Inactive)
ROOT
HETATM    1  N1  UNL     1      -2.495   1.244  -1.010  1.00  0.00    -0.402 N 
HETATM    2  C1  UNL     1      -1.447   1.165  -0.267  1.00  0.00     0.014 A 
HETATM    3  C2  UNL     1      -0.420   2.100   0.106  1.00  0.00     0.028 A 
HETATM    4  C3  UNL     1       0.558   1.417   1.038  1.00  0.00     0.047 A 
HETATM    5  C4  UNL     1       1.193   0.213   1.930  1.00  0.00    -0.008 A 
HETATM    6  C5  UNL     1       0.433   0.247   1.383  1.00  0.00     0.079 A 
HETATM    7  C6  UNL     1      -0.649   0.298   0.602  1.00  0.00     0.043 A 
HETATM    8  C7  UNL     1      -1.404  -1.022   0.382  1.00  0.00    -0.009 C 
HETATM    9  C8  UNL     1      -1.672  -1.292  -0.956  1.00  0.00     0.033 C 
HETATM   10  C9  UNL     1      -1.439  -0.809  -2.342  1.00  0.00     0.115 C 
HETATM   11  N2  UNL     1      -0.363  -0.123  -2.750  1.00  0.00    -0.246 NA
HETATM   12  C10 UNL     1       0.772   0.194  -1.764  1.00  0.00     0.125 C 
HETATM   13  N3  UNL     1       1.028   1.479  -1.507  1.00  0.00    -0.256 NA
HETATM   14  C11 UNL     1       2.033   2.084  -0.586  1.00  0.00     0.268 C 
HETATM   15  N4  UNL     1       1.449   2.715   0.682  1.00  0.00    -0.393 N 
HETATM   16  C12 UNL     1       1.220  -1.282  -1.441  1.00  0.00     0.107 C 
HETATM   17  C13 UNL     1       1.033  -1.804  -0.073  1.00  0.00    -0.023 C 
HETATM   18  C14 UNL     1       0.824  -2.186   1.229  1.00  0.00    -0.025 C 
HETATM   19  C15 UNL     1       0.306  -1.026   2.158  1.00  0.00     0.017 A 
HETATM   20  C16 UNL     1      -1.246  -1.154   1.842  1.00  0.00     0.019 C 
HETATM   21  H1  UNL     1      -3.296   0.670  -0.673  1.00  0.00     0.156 HD
HETATM   22  H2  UNL     1      -2.327   1.903  -1.841  1.00  0.00     0.156 HD
HETATM   23  H9  UNL     1       1.336   3.515   1.304  1.00  0.00     0.155 HD
ENDROOT
TORSDOF 0
