REMARK  4 active torsions:
REMARK  status: ('A' for Active; 'I' for Inactive)
REMARK    1  A    between atoms: O1_2  and  C2_3 
REMARK    2  A    between atoms: C6_9  and  N3_10 
REMARK    3  A    between atoms: N3_10  and  C7_11 
REMARK    4  A    between atoms: C15_21  and  O2_22 
ROOT
HETATM    1  C2  UNL     1       3.341  -0.416   0.167  1.00  0.00     0.103 A 
HETATM    2  C3  UNL     1       2.875  -1.340  -0.746  1.00  0.00     0.072 A 
HETATM    3  C4  UNL     1       1.525  -1.365  -0.996  1.00  0.00     0.075 A 
HETATM    4  N1  UNL     1       0.994  -2.233  -1.869  1.00  0.00    -0.241 NA
HETATM    5  C5  UNL     1      -0.329  -2.280  -2.134  1.00  0.00     0.235 A 
HETATM    6  N2  UNL     1      -1.149  -1.423  -1.498  1.00  0.00    -0.224 NA
HETATM    7  C6  UNL     1      -0.722  -0.514  -0.604  1.00  0.00     0.138 A 
HETATM    8  C13 UNL     1       0.636  -0.512  -0.374  1.00  0.00     0.041 A 
HETATM    9  C14 UNL     1       1.151   0.391   0.528  1.00  0.00     0.057 A 
HETATM   10  C15 UNL     1       2.499   0.460   0.817  1.00  0.00     0.102 A 
ENDROOT
BRANCH   7  11
HETATM   11  N3  UNL     1      -1.654   0.351   0.020  1.00  0.00    -0.362 N 
HETATM   12  H6  UNL     1      -1.461   1.086   0.713  1.00  0.00     0.162 HD
BRANCH  11  13
HETATM   13  C7  UNL     1      -3.052   0.207  -0.336  1.00  0.00     0.135 C 
HETATM   14  C8  UNL     1      -3.545  -1.150   0.031  1.00  0.00     0.009 C 
HETATM   15  C9  UNL     1      -4.573  -1.750   0.607  1.00  0.00    -0.035 C 
HETATM   16 CL1  UNL     1      -5.094  -3.352   1.008  1.00  0.00    -0.103 Cl
HETATM   17  B1  UNL     1      -5.933  -0.155   1.166  1.00  0.00     0.239 B 
HETATM   18  C10 UNL     1      -5.055   1.199   0.836  1.00  0.00    -0.099 C 
HETATM   19  C11 UNL     1      -3.905   1.267   0.227  1.00  0.00    -0.063 C 
HETATM   20  C12 UNL     1      -3.376   2.663   0.085  1.00  0.00     0.045 C 
ENDBRANCH  11  13
ENDBRANCH   7  11
BRANCH  10  21
HETATM   21  O2  UNL     1       3.021   1.352   1.711  1.00  0.00    -0.353 OA
HETATM   22  C16 UNL     1       2.220   2.284   2.418  1.00  0.00     0.210 C 
ENDBRANCH  10  21
BRANCH   1  23
HETATM   23  O1  UNL     1       4.695  -0.358   0.447  1.00  0.00    -0.353 OA
HETATM   24  C1  UNL     1       5.646  -1.204  -0.157  1.00  0.00     0.210 C 
ENDBRANCH   1  23
TORSDOF 4
