REMARK  1 active torsions:
REMARK  status: ('A' for Active; 'I' for Inactive)
REMARK    1  A    between atoms: N2_5  and  C4_6 
ROOT
HETATM    1  C4  UNL     1       0.800  -0.063   0.033  1.00  0.00     0.014 C 
HETATM    2  C5  UNL     1       0.280  -1.267   0.123  1.00  0.00     0.026 C 
HETATM    3  C6  UNL     1      -0.772  -2.220   0.300  1.00  0.00     0.019 C 
HETATM    4  C7  UNL     1      -2.031  -2.139   0.513  1.00  0.00     0.085 C 
HETATM    5  N3  UNL     1      -3.328  -2.553   0.731  1.00  0.00    -0.378 N 
HETATM    6  C8  UNL     1      -4.673  -2.233   1.010  1.00  0.00     0.291 C 
HETATM    7  O1  UNL     1      -5.256  -1.471   0.039  1.00  0.00    -0.358 OA
HETATM    8  C9  UNL     1      -4.729  -0.240  -0.209  1.00  0.00     0.261 C 
HETATM    9  N4  UNL     1      -4.727   0.629   0.950  1.00  0.00    -0.280 NA
HETATM   10  C10 UNL     1      -4.036   1.886   0.729  1.00  0.00     0.280 A 
HETATM   11  N5  UNL     1      -2.645   1.625   0.513  1.00  0.00    -0.265 NA
HETATM   12  C11 UNL     1      -1.761   2.545   0.387  1.00  0.00     0.089 A 
HETATM   13 BR1  UNL     1      -3.046   3.920   0.597  1.00  0.00    -0.078 Br
HETATM   14  C12 UNL     1      -0.340   2.211   0.180  1.00  0.00     0.081 C 
HETATM   15 CL1  UNL     1       0.080   3.947   0.103  1.00  0.00    -0.117 Cl
HETATM   16  C13 UNL     1      -0.352   0.854   0.195  1.00  0.00     0.140 C 
HETATM   17  H11 UNL     1      -2.977  -3.543   0.592  1.00  0.00     0.161 HD
HETATM   18  H16 UNL     1      -5.702   0.772   1.282  1.00  0.00     0.126 HD
ENDROOT
BRANCH   1  19
HETATM   19  N2  UNL     1       2.248  -0.080  -0.202  1.00  0.00    -0.380 N 
HETATM   20  C3  UNL     1       3.142   0.843   0.449  1.00  0.00     0.153 C 
HETATM   21  C2  UNL     1       4.525   0.288   0.415  1.00  0.00     0.291 C 
HETATM   22  N1  UNL     1       4.993  -0.078  -0.876  1.00  0.00     0.087 N 
HETATM   23  C1  UNL     1       5.812   0.910  -1.509  1.00  0.00     0.310 C 
HETATM   24  C15 UNL     1       4.038  -0.609  -1.785  1.00  0.00     0.291 C 
HETATM   25  C14 UNL     1       2.757  -1.052  -1.117  1.00  0.00     0.153 C 
ENDBRANCH   1  19
TORSDOF 1
