REMARK  5 active torsions:
REMARK  status: ('A' for Active; 'I' for Inactive)
REMARK    1  A    between atoms: O1_2  and  C2_3 
REMARK    2  A    between atoms: C6_9  and  N3_10 
REMARK    3  A    between atoms: N3_10  and  C7_11 
REMARK    4  A    between atoms: C7_11  and  P1_12 
REMARK    5  A    between atoms: C15_21  and  O2_22 
ROOT
HETATM    1  C2  UNL     1       3.636  -0.210  -0.017  1.00  0.00     0.103 A 
HETATM    2  C3  UNL     1       3.104  -1.355   0.542  1.00  0.00     0.072 A 
HETATM    3  C4  UNL     1       1.737  -1.533   0.599  1.00  0.00     0.075 A 
HETATM    4  N1  UNL     1       1.190  -2.658   1.148  1.00  0.00    -0.241 NA
HETATM    5  C5  UNL     1      -0.165  -2.798   1.186  1.00  0.00     0.235 A 
HETATM    6  N2  UNL     1      -1.017  -1.851   0.691  1.00  0.00    -0.224 NA
HETATM    7  C6  UNL     1      -0.533  -0.725   0.140  1.00  0.00     0.138 A 
HETATM    8  C13 UNL     1       0.840  -0.606   0.113  1.00  0.00     0.041 A 
HETATM    9  C14 UNL     1       1.419   0.517  -0.435  1.00  0.00     0.057 A 
HETATM   10  C15 UNL     1       2.778   0.748  -0.517  1.00  0.00     0.102 A 
ENDROOT
BRANCH   7  11
HETATM   11  N3  UNL     1      -1.424   0.261  -0.375  1.00  0.00    -0.357 N 
HETATM   12  H6  UNL     1      -1.164   1.154  -0.815  1.00  0.00     0.162 HD
BRANCH  11  13
HETATM   13  C7  UNL     1      -2.829  -0.086  -0.236  1.00  0.00     0.071 A 
HETATM   14  C8  UNL     1      -3.630   0.939  -0.950  1.00  0.00     0.032 A 
HETATM   15  C9  UNL     1      -4.616   1.685  -0.523  1.00  0.00     0.032 A 
HETATM   16 CL1  UNL     1      -5.437   2.847  -1.537  1.00  0.00    -0.085 Cl
HETATM   17  C10 UNL     1      -5.011   1.504   0.868  1.00  0.00     0.019 A 
HETATM   18  C11 UNL     1      -4.364   0.613   1.606  1.00  0.00    -0.022 A 
HETATM   19  C12 UNL     1      -3.241  -0.268   1.196  1.00  0.00     0.067 A 
BRANCH  13  20
HETATM   20  P1  UNL     1      -3.153  -1.688  -1.162  1.00  0.00    -0.106 P 
HETATM   21  H7  UNL     1      -2.111  -1.824  -2.157  1.00  0.00     0.057 HD
HETATM   22  H8  UNL     1      -3.237  -2.809  -0.253  1.00  0.00     0.057 HD
ENDBRANCH  13  20
ENDBRANCH  11  13
ENDBRANCH   7  11
BRANCH  10  23
HETATM   23  O2  UNL     1       3.338   1.883  -1.072  1.00  0.00    -0.353 OA
HETATM   24  C16 UNL     1       2.647   2.960  -1.627  1.00  0.00     0.210 C 
ENDBRANCH  10  23
BRANCH   1  25
HETATM   25  O1  UNL     1       5.007  -0.004  -0.088  1.00  0.00    -0.353 OA
HETATM   26  C1  UNL     1       5.962  -0.902   0.385  1.00  0.00     0.210 C 
ENDBRANCH   1  25
TORSDOF 5
