REMARK  8 active torsions:
REMARK  status: ('A' for Active; 'I' for Inactive)
REMARK    1  A    between atoms: C2_2  and  C3_3 
REMARK    2  A    between atoms: C3_3  and  N2_12 
REMARK    3  A    between atoms: C4_4  and  C5_5 
REMARK    4  A    between atoms: C6_6  and  N1_7 
REMARK    5  A    between atoms: N2_12  and  C10_13 
REMARK    6  A    between atoms: C13_16  and  C14_17 
REMARK    7  A    between atoms: C14_17  and  O2_18 
REMARK    8  A    between atoms: C15_19  and  C16_20 
ROOT
HETATM    1  C10 UNL     1      -1.262   0.537   0.217  1.00  0.00     0.141 C 
HETATM    2  C11 UNL     1      -1.428   1.837  -0.032  1.00  0.00     0.037 C 
HETATM    3  C12 UNL     1      -2.510   2.269   0.573  1.00  0.00    -0.000 C 
HETATM    4  C13 UNL     1      -3.550   1.489   0.279  1.00  0.00    -0.016 C 
HETATM    5  C15 UNL     1      -3.539   0.733  -0.970  1.00  0.00    -0.048 C 
HETATM    6  C18 UNL     1      -3.298  -0.424  -1.567  1.00  0.00     0.027 C 
HETATM    7  C19 UNL     1      -2.844  -1.738  -1.218  1.00  0.00     0.118 C 
HETATM    8  N3  UNL     1      -2.476  -2.226  -0.067  1.00  0.00    -0.254 NA
HETATM    9  C20 UNL     1      -2.526  -1.313   1.035  1.00  0.00     0.234 C 
HETATM   10  N4  UNL     1      -2.042  -0.141   1.222  1.00  0.00    -0.224 NA
ENDROOT
BRANCH   1  11
HETATM   11  N2  UNL     1      -0.236   0.027  -0.619  1.00  0.00    -0.344 N 
HETATM   12  H15 UNL     1      -0.350   0.152  -1.672  1.00  0.00     0.167 HD
BRANCH  11  13
HETATM   13  C3  UNL     1       1.021  -0.678  -0.452  1.00  0.00     0.007 C 
HETATM   14  C4  UNL     1       1.292  -2.029  -0.470  1.00  0.00     0.006 C 
BRANCH  13  15
HETATM   15  C2  UNL     1       1.900   0.533  -0.262  1.00  0.00     0.052 C 
HETATM   16  C1  UNL     1       1.525   1.289   0.971  1.00  0.00     0.011 C 
ENDBRANCH  13  15
BRANCH  14  17
HETATM   17  C5  UNL     1       2.726  -1.739  -0.233  1.00  0.00     0.094 C 
HETATM   18  C6  UNL     1       3.719  -2.627  -0.122  1.00  0.00     0.070 C 
BRANCH  18  19
HETATM   19  N1  UNL     1       4.845  -1.742   0.099  1.00  0.00    -0.389 N 
HETATM   20  C7  UNL     1       5.059  -1.143   1.434  1.00  0.00     0.145 C 
HETATM   21  C8  UNL     1       6.541  -1.397   1.619  1.00  0.00     0.189 C 
HETATM   22  O1  UNL     1       7.081  -1.375   0.330  1.00  0.00    -0.371 OA
HETATM   23  C9  UNL     1       6.009  -1.098  -0.517  1.00  0.00     0.287 C 
ENDBRANCH  18  19
ENDBRANCH  14  17
ENDBRANCH  11  13
ENDBRANCH   1  11
BRANCH   4  24
HETATM   24  C14 UNL     1      -4.679   1.416   1.184  1.00  0.00     0.204 C 
BRANCH  24  25
HETATM   25  O2  UNL     1      -4.485   2.189   2.357  1.00  0.00    -0.396 OA
HETATM   26  H18 UNL     1      -5.014   1.793   3.084  1.00  0.00     0.209 HD
ENDBRANCH  24  25
ENDBRANCH   4  24
BRANCH   5  27
HETATM   27  C16 UNL     1      -3.996   1.843  -1.806  1.00  0.00     0.035 C 
HETATM   28  C17 UNL     1      -5.277   2.512  -1.556  1.00  0.00     0.010 C 
ENDBRANCH   5  27
TORSDOF 8
