REMARK  4 active torsions:
REMARK  status: ('A' for Active; 'I' for Inactive)
REMARK    1  A    between atoms: O1_2  and  C2_3 
REMARK    2  A    between atoms: C5_6  and  N1_7 
REMARK    3  A    between atoms: N1_7  and  C6_8 
REMARK    4  A    between atoms: C15_20  and  P1_21 
ROOT
HETATM    1  C2  UNL     1      -2.052  -1.103  -0.240  1.00  0.00     0.080 A 
HETATM    2  C3  UNL     1      -0.792  -0.816   0.226  1.00  0.00     0.055 A 
HETATM    3  C4  UNL     1      -0.433   0.339   0.872  1.00  0.00     0.041 A 
HETATM    4  C5  UNL     1       0.856   0.583   1.324  1.00  0.00     0.142 A 
HETATM    5  N2  UNL     1       1.070   1.757   1.939  1.00  0.00    -0.224 NA
HETATM    6  C12 UNL     1       0.101   2.669   2.121  1.00  0.00     0.236 A 
HETATM    7  N3  UNL     1      -1.170   2.428   1.676  1.00  0.00    -0.241 NA
HETATM    8  C13 UNL     1      -1.435   1.267   1.054  1.00  0.00     0.073 A 
HETATM    9  C14 UNL     1      -2.715   1.024   0.602  1.00  0.00     0.047 A 
HETATM   10  C15 UNL     1      -3.053  -0.168  -0.055  1.00  0.00     0.001 A 
ENDROOT
BRANCH   4  11
HETATM   11  N1  UNL     1       1.763  -0.487   1.047  1.00  0.00    -0.340 N 
HETATM   12  H5  UNL     1       1.580  -1.473   1.268  1.00  0.00     0.167 HD
BRANCH  11  13
HETATM   13  C6  UNL     1       3.043  -0.248   0.424  1.00  0.00     0.035 A 
HETATM   14  C7  UNL     1       3.863  -1.260  -0.035  1.00  0.00     0.029 A 
HETATM   15  C8  UNL     1       5.070  -1.016  -0.626  1.00  0.00     0.004 A 
HETATM   16  C9  UNL     1       5.521   0.301  -0.788  1.00  0.00     0.024 A 
HETATM   17  C10 UNL     1       4.734   1.340  -0.344  1.00  0.00     0.036 A 
HETATM   18 CL1  UNL     1       5.287   3.004  -0.533  1.00  0.00    -0.084 Cl
HETATM   19  C11 UNL     1       3.528   1.029   0.245  1.00  0.00     0.053 A 
ENDBRANCH  11  13
ENDBRANCH   4  11
BRANCH   1  20
HETATM   20  O1  UNL     1      -2.469  -2.243  -0.892  1.00  0.00    -0.355 OA
HETATM   21  C1  UNL     1      -1.557  -3.278  -1.147  1.00  0.00     0.210 C 
ENDBRANCH   1  20
BRANCH  10  22
HETATM   22  P1  UNL     1      -4.799  -0.353  -0.607  1.00  0.00    -0.096 P 
HETATM   23  C16 UNL     1      -5.565   1.336  -0.761  1.00  0.00     0.046 C 
HETATM   24  H12 UNL     1      -4.830  -1.052  -1.885  1.00  0.00     0.062 HD
ENDBRANCH  10  22
TORSDOF 4
