REMARK  3 active torsions:
REMARK  status: ('A' for Active; 'I' for Inactive)
REMARK    1  A    between atoms: O1_2  and  C2_3 
REMARK    2  A    between atoms: C12_16  and  N3_17 
REMARK    3  A    between atoms: N3_17  and  C13_18 
ROOT
HETATM    1  C2  UNL     1      -2.567   1.625   0.357  1.00  0.00     0.096 A 
HETATM    2  C3  UNL     1      -2.380   0.269   0.393  1.00  0.00     0.068 A 
HETATM    3  C4  UNL     1      -1.945  -0.413  -0.723  1.00  0.00     0.033 A 
HETATM    4  C5  UNL     1      -1.717   0.375  -1.865  1.00  0.00     0.032 A 
HETATM    5  C6  UNL     1      -1.908   1.738  -1.886  1.00  0.00     0.034 A 
HETATM    6  C7  UNL     1      -2.351   2.411  -0.735  1.00  0.00     0.063 A 
HETATM    7  N1  UNL     1      -2.434   3.814  -0.942  1.00  0.00    -0.370 N 
HETATM    8  C8  UNL     1      -2.004   4.589   0.219  1.00  0.00     0.272 C 
HETATM    9  N2  UNL     1      -0.841   4.029   0.824  1.00  0.00    -0.259 NA
HETATM   10  C9  UNL     1       0.183   3.539   0.367  1.00  0.00     0.247 C 
HETATM   11  O2  UNL     1       1.314   2.994   0.170  1.00  0.00    -0.341 OA
HETATM   12  C10 UNL     1       2.548   2.740  -0.236  1.00  0.00     0.206 C 
HETATM   13  C11 UNL     1       3.010   1.398   0.292  1.00  0.00     0.029 C 
HETATM   14  C12 UNL     1       3.618   0.361   0.881  1.00  0.00     0.032 C 
HETATM   15  C14 UNL     1       3.053  -0.996   0.721  1.00  0.00     0.029 C 
HETATM   16  C15 UNL     1       1.994  -1.342   0.036  1.00  0.00     0.004 C 
HETATM   17  C16 UNL     1       1.461  -2.686  -0.089  1.00  0.00     0.026 C 
HETATM   18  C17 UNL     1       0.381  -2.957  -0.822  1.00  0.00     0.025 C 
HETATM   19  C18 UNL     1      -0.452  -2.031  -1.621  1.00  0.00     0.179 C 
HETATM   20  N4  UNL     1      -1.671  -1.797  -0.831  1.00  0.00    -0.374 N 
HETATM   21  C19 UNL     1      -2.208  -3.058  -0.405  1.00  0.00     0.143 C 
HETATM   22  C20 UNL     1      -1.591  -4.260  -1.063  1.00  0.00     0.142 C 
HETATM   23  N5  UNL     1      -0.138  -4.304  -0.809  1.00  0.00    -0.386 N 
HETATM   24  C21 UNL     1       0.746  -5.448  -0.556  1.00  0.00     0.149 C 
HETATM   25  H7  UNL     1      -2.777   4.214  -1.840  1.00  0.00     0.161 HD
ENDROOT
BRANCH  14  26
HETATM   26  N3  UNL     1       4.779   0.411   1.705  1.00  0.00    -0.335 N 
HETATM   27  H14 UNL     1       5.146  -0.479   2.110  1.00  0.00     0.168 HD
BRANCH  26  28
HETATM   28  C13 UNL     1       5.569   1.486   2.102  1.00  0.00     0.353 C 
HETATM   29  O3  UNL     1       5.171   2.575   1.645  1.00  0.00    -0.283 OA
ENDBRANCH  26  28
ENDBRANCH  14  26
BRANCH   1  30
HETATM   30  O1  UNL     1      -2.993   2.379   1.400  1.00  0.00    -0.354 OA
HETATM   31  C1  UNL     1      -3.292   1.841   2.652  1.00  0.00     0.210 C 
ENDBRANCH   1  30
TORSDOF 3
