REMARK  3 active torsions:
REMARK  status: ('A' for Active; 'I' for Inactive)
REMARK    1  A    between atoms: C2_2  and  C3_3 
REMARK    2  A    between atoms: C11_14  and  C12_15 
REMARK    3  A    between atoms: C12_15  and  N4_16 
ROOT
HETATM    1  C3  UNL     1      -3.128  -1.743  -0.146  1.00  0.00    -0.079 C 
HETATM    2  C4  UNL     1      -3.350  -1.200   1.070  1.00  0.00     0.022 C 
HETATM    3  C5  UNL     1      -2.927  -0.053   1.891  1.00  0.00     0.118 C 
HETATM    4  N1  UNL     1      -2.075   0.741   1.465  1.00  0.00    -0.255 NA
HETATM    5  C6  UNL     1      -1.543   1.858   2.052  1.00  0.00     0.228 C 
HETATM    6  N2  UNL     1      -0.821   1.947   0.997  1.00  0.00    -0.264 NA
HETATM    7  C7  UNL     1       0.160   2.874   0.602  1.00  0.00     0.267 C 
HETATM    8  N3  UNL     1       0.743   2.627  -0.724  1.00  0.00    -0.394 N 
HETATM    9  C8  UNL     1      -0.190   1.631  -1.031  1.00  0.00     0.041 A 
HETATM   10  C9  UNL     1      -1.382   2.252  -1.581  1.00  0.00     0.039 C 
HETATM   11  C10 UNL     1      -0.142   0.323  -0.992  1.00  0.00     0.006 A 
HETATM   12  C11 UNL     1       1.127   0.857  -0.589  1.00  0.00     0.064 A 
HETATM   13  C16 UNL     1      -0.862  -1.014  -1.022  1.00  0.00     0.018 C 
HETATM   14  C17 UNL     1      -2.316  -0.700  -0.745  1.00  0.00     0.035 C 
HETATM   15  H11 UNL     1       1.218   2.523  -1.638  1.00  0.00     0.155 HD
ENDROOT
BRANCH  12  16
HETATM   16  C12 UNL     1       2.367   0.894  -0.187  1.00  0.00     0.067 C 
BRANCH  16  17
HETATM   17  N4  UNL     1       3.676   0.577   0.242  1.00  0.00    -0.380 N 
HETATM   18  C13 UNL     1       4.824   0.381  -0.625  1.00  0.00     0.150 C 
HETATM   19  C14 UNL     1       5.489  -0.934  -0.395  1.00  0.00     0.205 C 
HETATM   20  O1  UNL     1       4.675  -1.902   0.160  1.00  0.00    -0.317 OA
HETATM   21  S1  UNL     1       4.400  -1.401   1.798  1.00  0.00     0.008 SA
HETATM   22  C15 UNL     1       4.025   0.390   1.665  1.00  0.00     0.227 C 
ENDBRANCH  16  17
ENDBRANCH  12  16
BRANCH   1  23
HETATM   23  C2  UNL     1      -3.517  -2.903  -1.025  1.00  0.00     0.029 C 
HETATM   24  C1  UNL     1      -4.501  -3.822  -0.382  1.00  0.00     0.010 C 
ENDBRANCH   1  23
TORSDOF 3
