REMARK  3 active torsions:
REMARK  status: ('A' for Active; 'I' for Inactive)
REMARK    1  A    between atoms: O1_2  and  C2_3 
REMARK    2  A    between atoms: N1_7  and  C6_8 
REMARK    3  A    between atoms: C9_11  and  N2_12 
ROOT
HETATM    1  C2  UNL     1       3.514  -1.136   2.375  1.00  0.00     0.064 C 
HETATM    2  C3  UNL     1       2.769  -1.489   1.343  1.00  0.00     0.117 C 
HETATM    3  C4  UNL     1       2.064  -1.734   0.133  1.00  0.00     0.160 C 
HETATM    4  C5  UNL     1       2.236  -1.187  -1.028  1.00  0.00     0.211 A 
HETATM    5  N1  UNL     1       1.954  -0.969  -2.380  1.00  0.00     0.047 N 
HETATM    6  N3  UNL     1       3.373  -0.609  -1.826  1.00  0.00    -0.072 NA
HETATM    7  C16 UNL     1       4.196   0.125  -1.187  1.00  0.00     0.271 C 
HETATM    8  O3  UNL     1       4.987   0.916  -0.239  1.00  0.00    -0.362 OA
HETATM    9  C17 UNL     1       4.463   1.006   1.021  1.00  0.00     0.197 C 
HETATM   10  C18 UNL     1       5.108   0.891   2.286  1.00  0.00    -0.002 C 
HETATM   11  C19 UNL     1       4.575  -0.191   2.936  1.00  0.00     0.004 C 
HETATM   12  H6  UNL     1       1.759  -0.815  -3.357  1.00  0.00     0.312 HD
ENDROOT
BRANCH   5  13
HETATM   13  C6  UNL     1       0.606  -0.437  -2.101  1.00  0.00     0.156 A 
HETATM   14  C7  UNL     1      -0.642  -0.952  -2.159  1.00  0.00     0.051 A 
HETATM   15  C8  UNL     1      -1.730  -0.041  -1.781  1.00  0.00    -0.019 A 
HETATM   16  C9  UNL     1      -2.980  -0.434  -1.806  1.00  0.00     0.097 C 
HETATM   17  C14 UNL     1      -1.016   1.171  -1.461  1.00  0.00     0.015 A 
HETATM   18  C15 UNL     1       0.296   0.944  -1.642  1.00  0.00     0.040 A 
BRANCH  16  19
HETATM   19  N2  UNL     1      -3.985   0.501  -1.426  1.00  0.00    -0.385 N 
HETATM   20  C10 UNL     1      -5.227   0.389  -2.212  1.00  0.00     0.148 C 
HETATM   21  C11 UNL     1      -6.453   0.638  -1.393  1.00  0.00     0.187 C 
HETATM   22  O2  UNL     1      -6.327   1.605  -0.423  1.00  0.00    -0.388 OA
HETATM   23  C12 UNL     1      -5.240   1.410   0.408  1.00  0.00     0.187 C 
HETATM   24  C13 UNL     1      -3.927   1.522  -0.371  1.00  0.00     0.148 C 
ENDBRANCH  16  19
ENDBRANCH   5  13
BRANCH   1  25
HETATM   25  O1  UNL     1       3.024  -2.056   3.346  1.00  0.00    -0.386 OA
HETATM   26  C1  UNL     1       2.411  -1.554   4.503  1.00  0.00     0.202 C 
ENDBRANCH   1  25
TORSDOF 3
