REMARK  3 active torsions:
REMARK  status: ('A' for Active; 'I' for Inactive)
REMARK    1  A    between atoms: C2_2  and  C3_3 
REMARK    2  A    between atoms: C3_3  and  N1_4 
REMARK    3  A    between atoms: C10_12  and  N2_13 
ROOT
HETATM    1  N1  UNL     1      -0.488   1.526  -1.222  1.00  0.00    -0.314 N 
HETATM    2  C4  UNL     1       0.922   1.784  -0.973  1.00  0.00     0.307 C 
HETATM    3  O1  UNL     1       1.493   1.072   0.102  1.00  0.00    -0.335 OA
HETATM    4  C5  UNL     1       2.707   0.414  -0.136  1.00  0.00     0.064 A 
HETATM    5  C6  UNL     1       2.477  -0.871   0.238  1.00  0.00     0.025 A 
HETATM    6  C7  UNL     1       1.081  -1.152   0.769  1.00  0.00     0.048 C 
HETATM    7  C8  UNL     1       0.387  -1.864  -0.198  1.00  0.00     0.062 C 
HETATM    8  C9  UNL     1      -0.249  -0.637  -0.314  1.00  0.00     0.080 C 
HETATM    9  C10 UNL     1      -0.876   0.455  -0.368  1.00  0.00     0.109 C 
HETATM   10  N3  UNL     1       0.718  -3.196  -0.431  1.00  0.00    -0.242 NA
HETATM   11  C15 UNL     1       1.903  -3.777  -0.187  1.00  0.00     0.234 C 
HETATM   12  N4  UNL     1       3.150  -3.230   0.430  1.00  0.00    -0.241 NA
HETATM   13  C16 UNL     1       3.492  -1.972   0.126  1.00  0.00     0.070 A 
HETATM   14  C17 UNL     1       4.826  -1.611  -0.413  1.00  0.00     0.029 A 
HETATM   15  C18 UNL     1       4.967  -0.330  -0.737  1.00  0.00    -0.018 A 
HETATM   16  C19 UNL     1       4.024   0.780  -0.647  1.00  0.00     0.092 A 
ENDROOT
BRANCH   9  17
HETATM   17  N2  UNL     1      -1.719  -0.145   0.594  1.00  0.00    -0.363 N 
HETATM   18  C11 UNL     1      -2.903  -0.981   0.333  1.00  0.00     0.150 C 
HETATM   19  C12 UNL     1      -4.087  -0.232   0.899  1.00  0.00     0.187 C 
HETATM   20  O2  UNL     1      -3.935  -0.219   2.289  1.00  0.00    -0.388 OA
HETATM   21  C13 UNL     1      -2.806   0.512   2.656  1.00  0.00     0.187 C 
HETATM   22  C14 UNL     1      -1.549  -0.026   2.052  1.00  0.00     0.150 C 
ENDBRANCH   9  17
BRANCH   1  23
HETATM   23  C3  UNL     1      -1.753   1.641  -1.789  1.00  0.00     0.146 C 
BRANCH  23  24
HETATM   24  C2  UNL     1      -2.526   2.536  -1.200  1.00  0.00    -0.138 C 
HETATM   25  C1  UNL     1      -3.252   3.556  -0.797  1.00  0.00     0.098 C 
ENDBRANCH  23  24
ENDBRANCH   1  23
TORSDOF 3
