REMARK  9 active torsions:
REMARK  status: ('A' for Active; 'I' for Inactive)
REMARK    1  A    between atoms: C2_2  and  C3_3 
REMARK    2  A    between atoms: C3_3  and  N2_12 
REMARK    3  A    between atoms: C4_4  and  C5_5 
REMARK    4  A    between atoms: C5_5  and  C6_6 
REMARK    5  A    between atoms: C6_6  and  N1_7 
REMARK    6  A    between atoms: N2_12  and  C10_13 
REMARK    7  A    between atoms: C14_19  and  C15_20 
REMARK    8  A    between atoms: C17_22  and  C18_23 
REMARK    9  A    between atoms: C18_23  and  O2_24 
ROOT
HETATM    1  C10 UNL     1      -0.890   1.167   1.100  1.00  0.00     0.141 A 
HETATM    2  N3  UNL     1      -0.481   2.390   1.493  1.00  0.00    -0.224 NA
HETATM    3  C11 UNL     1      -1.407   3.392   1.637  1.00  0.00     0.236 A 
HETATM    4  N4  UNL     1      -2.684   3.122   1.382  1.00  0.00    -0.241 NA
HETATM    5  C12 UNL     1      -3.160   1.935   0.989  1.00  0.00     0.072 A 
HETATM    6  C13 UNL     1      -4.475   1.642   0.716  1.00  0.00     0.040 A 
HETATM    7  C14 UNL     1      -4.899   0.372   0.303  1.00  0.00    -0.048 A 
HETATM    8  C17 UNL     1      -3.937  -0.605   0.170  1.00  0.00    -0.028 A 
HETATM    9  C19 UNL     1      -2.598  -0.366   0.431  1.00  0.00     0.027 A 
HETATM   10  C20 UNL     1      -2.221   0.923   0.845  1.00  0.00     0.039 A 
ENDROOT
BRANCH   1  11
HETATM   11  N2  UNL     1       0.108   0.189   0.950  1.00  0.00    -0.347 N 
HETATM   12  H15 UNL     1      -0.205  -0.687   1.393  1.00  0.00     0.167 HD
BRANCH  11  13
HETATM   13  C3  UNL     1       1.364   0.416   0.284  1.00  0.00    -0.007 C 
HETATM   14  C4  UNL     1       2.310  -0.198   0.963  1.00  0.00     0.048 C 
BRANCH  13  15
HETATM   15  C2  UNL     1       1.080   1.240  -0.911  1.00  0.00     0.048 C 
HETATM   16  C1  UNL     1       0.079   0.522  -1.815  1.00  0.00     0.011 C 
ENDBRANCH  13  15
BRANCH  14  17
HETATM   17  C5  UNL     1       3.391   0.206   0.025  1.00  0.00     0.077 C 
BRANCH  17  18
HETATM   18  C6  UNL     1       4.645   0.257  -0.429  1.00  0.00     0.067 C 
BRANCH  18  19
HETATM   19  N1  UNL     1       6.066   0.035  -0.521  1.00  0.00    -0.389 N 
HETATM   20  C7  UNL     1       7.280  -0.224   0.267  1.00  0.00     0.145 C 
HETATM   21  C8  UNL     1       8.185  -0.765  -0.792  1.00  0.00     0.189 C 
HETATM   22  O1  UNL     1       7.416  -0.963  -1.928  1.00  0.00    -0.371 OA
HETATM   23  C9  UNL     1       6.485   0.085  -1.928  1.00  0.00     0.287 C 
ENDBRANCH  18  19
ENDBRANCH  17  18
ENDBRANCH  14  17
ENDBRANCH  11  13
ENDBRANCH   1  11
BRANCH   8  24
HETATM   24  C18 UNL     1      -4.410  -1.917  -0.299  1.00  0.00     0.203 C 
BRANCH  24  25
HETATM   25  O2  UNL     1      -5.049  -2.571   0.749  1.00  0.00    -0.396 OA
HETATM   26  H25 UNL     1      -5.278  -3.507   0.514  1.00  0.00     0.209 HD
ENDBRANCH  24  25
ENDBRANCH   8  24
BRANCH   7  27
HETATM   27  C15 UNL     1      -6.346   0.251   0.084  1.00  0.00     0.035 C 
HETATM   28  C16 UNL     1      -7.098  -0.400   1.197  1.00  0.00     0.010 C 
ENDBRANCH   7  27
TORSDOF 9
