REMARK  0 active torsions:
REMARK  status: ('A' for Active; 'I' for Inactive)
ROOT
HETATM    1  C1  UNL     1      -3.236   1.531   0.364  1.00  0.00     0.007 C 
HETATM    2  C2  UNL     1      -3.530   0.231   0.197  1.00  0.00     0.073 C 
HETATM    3  C3  UNL     1      -2.900  -0.906  -0.508  1.00  0.00     0.339 C 
HETATM    4  N1  UNL     1      -2.699  -1.866   0.581  1.00  0.00     0.121 N 
HETATM    5  C4  UNL     1      -1.463  -1.606   1.261  1.00  0.00     0.303 C 
HETATM    6  C5  UNL     1      -0.485  -1.147   0.192  1.00  0.00     0.012 C 
HETATM    7  C6  UNL     1       0.390  -0.350  -0.469  1.00  0.00    -0.036 C 
HETATM    8  C7  UNL     1       0.903  -1.018  -1.735  1.00  0.00     0.160 C 
HETATM    9  N2  UNL     1       2.221  -1.565  -1.519  1.00  0.00    -0.370 N 
HETATM   10  C8  UNL     1       3.325  -0.948  -0.870  1.00  0.00     0.136 A 
HETATM   11  N3  UNL     1       4.440  -1.723  -0.972  1.00  0.00    -0.224 NA
HETATM   12  C9  UNL     1       5.598  -1.294  -0.411  1.00  0.00     0.234 A 
HETATM   13  N4  UNL     1       5.643  -0.118   0.238  1.00  0.00    -0.253 NA
HETATM   14  C10 UNL     1       4.563   0.682   0.364  1.00  0.00     0.133 A 
HETATM   15  C11 UNL     1       3.362   0.259  -0.206  1.00  0.00     0.028 A 
HETATM   16  C12 UNL     1       2.225   1.189  -0.025  1.00  0.00     0.024 C 
HETATM   17  C13 UNL     1       0.885   0.996  -0.124  1.00  0.00    -0.050 C 
HETATM   18  C14 UNL     1       0.390   2.382   0.207  1.00  0.00     0.039 C 
HETATM   19  C15 UNL     1      -0.982   2.346   0.779  1.00  0.00     0.008 C 
HETATM   20  C16 UNL     1      -1.960   1.887  -0.323  1.00  0.00     0.030 C 
HETATM   21  C17 UNL     1      -3.901  -1.686   1.381  1.00  0.00     0.447 C 
HETATM   22  O1  UNL     1      -4.584  -0.606   0.652  1.00  0.00    -0.324 OA
HETATM   23  H9  UNL     1       2.436  -2.514  -1.857  1.00  0.00     0.161 HD
ENDROOT
TORSDOF 0
