REMARK  6 active torsions:
REMARK  status: ('A' for Active; 'I' for Inactive)
REMARK    1  A    between atoms: C2_2  and  C15_18 
REMARK    2  A    between atoms: C3_3  and  C4_4 
REMARK    3  A    between atoms: C7_9  and  N3_10 
REMARK    4  A    between atoms: N3_10  and  C9_12 
REMARK    5  A    between atoms: C15_18  and  O2_21 
REMARK    6  A    between atoms: C16_19  and  O1_20 
ROOT
HETATM    1  C4  UNL     1      -0.421  -1.039  -0.891  1.00  0.00     0.028 A 
HETATM    2  C5  UNL     1      -0.788  -1.972  -1.863  1.00  0.00     0.133 A 
HETATM    3  N1  UNL     1      -0.019  -3.032  -2.148  1.00  0.00    -0.253 NA
HETATM    4  C6  UNL     1       1.151  -3.266  -1.521  1.00  0.00     0.234 A 
HETATM    5  N2  UNL     1       1.554  -2.399  -0.576  1.00  0.00    -0.223 NA
HETATM    6  C7  UNL     1       0.800  -1.327  -0.271  1.00  0.00     0.143 A 
ENDROOT
BRANCH   1   7
HETATM    7  C3  UNL     1      -1.258   0.094  -0.573  1.00  0.00     0.026 C 
HETATM    8  C2  UNL     1      -2.567   0.090  -0.412  1.00  0.00    -0.024 C 
HETATM    9  C1  UNL     1      -3.327  -1.176  -0.555  1.00  0.00     0.051 C 
BRANCH   8  10
HETATM   10  C15 UNL     1      -3.140   1.384  -0.096  1.00  0.00     0.119 C 
HETATM   11  C16 UNL     1      -4.425   1.507   0.080  1.00  0.00     0.170 C 
BRANCH  11  12
HETATM   12  O1  UNL     1      -5.522   0.622   0.038  1.00  0.00    -0.370 OA
HETATM   13  H16 UNL     1      -5.744   0.143  -0.835  1.00  0.00     0.216 HD
ENDBRANCH  11  12
BRANCH  10  14
HETATM   14  O2  UNL     1      -2.448   2.547   0.046  1.00  0.00    -0.239 OA
HETATM   15 CL1  UNL     1      -3.074   4.016  -0.622  1.00  0.00     0.067 Cl
ENDBRANCH  10  14
ENDBRANCH   8  10
ENDBRANCH   1   7
BRANCH   6  16
HETATM   16  N3  UNL     1       1.217  -0.405   0.725  1.00  0.00    -0.335 N 
HETATM   17  C8  UNL     1       0.437  -0.071   1.925  1.00  0.00     0.158 C 
BRANCH  16  18
HETATM   18  C9  UNL     1       2.465   0.260   0.590  1.00  0.00     0.035 A 
HETATM   19  C10 UNL     1       2.899   1.167   1.540  1.00  0.00     0.029 A 
HETATM   20  C11 UNL     1       4.111   1.842   1.460  1.00  0.00     0.002 A 
HETATM   21  C12 UNL     1       4.933   1.609   0.390  1.00  0.00     0.000 A 
HETATM   22  C13 UNL     1       4.546   0.702  -0.600  1.00  0.00     0.002 A 
HETATM   23  C14 UNL     1       3.331   0.067  -0.458  1.00  0.00     0.029 A 
ENDBRANCH  16  18
ENDBRANCH   6  16
TORSDOF 6
