REMARK  4 active torsions:
REMARK  status: ('A' for Active; 'I' for Inactive)
REMARK    1  A    between atoms: O1_2  and  C2_3 
REMARK    2  A    between atoms: C12_15  and  N3_16 
REMARK       I    between atoms: N3_16  and  C13_17 
REMARK    3  A    between atoms: C13_17  and  C14_19 
REMARK    4  A    between atoms: C16_22  and  C17_23 
ROOT
HETATM    1  C14 UNL     1       2.880   0.739  -1.332  1.00  0.00     0.109 C 
HETATM    2  C15 UNL     1       3.614   1.545  -2.266  1.00  0.00     0.105 C 
HETATM    3  N4  UNL     1       4.201   2.215  -3.041  1.00  0.00    -0.191 NA
HETATM    4  C16 UNL     1       3.481  -0.102  -0.518  1.00  0.00     0.006 C 
ENDROOT
BRANCH   1   5
HETATM    5  C13 UNL     1       1.442   0.937  -1.373  1.00  0.00     0.267 C 
HETATM    6  N3  UNL     1       0.555   0.238  -0.529  1.00  0.00    -0.307 N 
HETATM    7  H17 UNL     1       0.960  -0.453   0.154  1.00  0.00     0.170 HD
HETATM    8  O2  UNL     1       0.867   1.722  -2.135  1.00  0.00    -0.267 OA
BRANCH   6   9
HETATM    9  C12 UNL     1      -0.857   0.411  -0.544  1.00  0.00     0.127 C 
HETATM   10  C11 UNL     1      -1.838  -0.264   0.263  1.00  0.00     0.077 C 
HETATM   11  C10 UNL     1      -2.759  -0.837   0.958  1.00  0.00     0.043 C 
HETATM   12  N1  UNL     1      -4.177  -0.560   0.834  1.00  0.00    -0.360 N 
HETATM   13  C9  UNL     1      -2.900  -1.844   2.036  1.00  0.00     0.329 C 
HETATM   14  C5  UNL     1      -4.589   0.604   1.540  1.00  0.00     0.073 C 
HETATM   15  C6  UNL     1      -4.771  -1.609  -0.013  1.00  0.00     0.158 C 
HETATM   16  C4  UNL     1      -4.099   1.573   0.837  1.00  0.00     0.062 C 
HETATM   17  C3  UNL     1      -3.763   2.884   0.395  1.00  0.00     0.018 C 
HETATM   18  C2  UNL     1      -3.059   2.700  -0.729  1.00  0.00     0.062 C 
HETATM   19  C22 UNL     1      -2.667   1.496  -1.479  1.00  0.00     0.215 C 
HETATM   20  N5  UNL     1      -1.237   1.310  -1.437  1.00  0.00    -0.266 NA
HETATM   21  C7  UNL     1      -4.039  -2.916   0.224  1.00  0.00     0.292 C 
HETATM   22  N2  UNL     1      -3.535  -3.020   1.552  1.00  0.00     0.091 N 
HETATM   23  C8  UNL     1      -2.844  -4.246   1.821  1.00  0.00     0.310 C 
BRANCH  18  24
HETATM   24  O1  UNL     1      -2.608   3.857  -1.340  1.00  0.00    -0.359 OA
HETATM   25  C1  UNL     1      -1.424   4.003  -2.055  1.00  0.00     0.209 C 
ENDBRANCH  18  24
ENDBRANCH   6   9
ENDBRANCH   1   5
BRANCH   4  26
HETATM   26  C17 UNL     1       4.872  -0.487  -0.274  1.00  0.00     0.010 C 
HETATM   27  C18 UNL     1       5.861   0.415  -1.009  1.00  0.00     0.008 C 
HETATM   28  C19 UNL     1       7.168  -0.018  -0.352  1.00  0.00     0.001 C 
HETATM   29  C20 UNL     1       6.795  -0.387   1.058  1.00  0.00     0.001 C 
HETATM   30  C21 UNL     1       5.289  -0.206   1.167  1.00  0.00     0.008 C 
ENDBRANCH   4  26
TORSDOF 4
