REMARK  6 active torsions:
REMARK  status: ('A' for Active; 'I' for Inactive)
REMARK    1  A    between atoms: O1_1  and  C1_2 
REMARK    2  A    between atoms: C1_2  and  C14_19 
REMARK    3  A    between atoms: C2_3  and  C3_4 
REMARK    4  A    between atoms: C5_6  and  C6_7 
REMARK    5  A    between atoms: C6_7  and  O2_8 
REMARK    6  A    between atoms: O2_8  and  C7_9 
ROOT
HETATM    1  C3  UNL     1       2.343   0.276  -0.330  1.00  0.00     0.062 A 
HETATM    2  C4  UNL     1       0.998   0.538  -0.229  1.00  0.00     0.061 A 
HETATM    3  C5  UNL     1       0.297   1.065  -1.295  1.00  0.00     0.062 A 
HETATM    4  N1  UNL     1       0.933   1.341  -2.481  1.00  0.00    -0.244 NA
HETATM    5  C13 UNL     1       2.269   1.071  -2.556  1.00  0.00     0.234 A 
HETATM    6  N2  UNL     1       2.961   0.553  -1.513  1.00  0.00    -0.242 NA
ENDROOT
BRANCH   3   7
HETATM    7  C6  UNL     1      -1.157   1.315  -1.082  1.00  0.00     0.235 C 
BRANCH   7   8
HETATM    8  O2  UNL     1      -1.599   0.284  -0.195  1.00  0.00    -0.345 OA
BRANCH   8   9
HETATM    9  C7  UNL     1      -2.887   0.160   0.246  1.00  0.00     0.070 A 
HETATM   10  C8  UNL     1      -3.257  -0.863   1.104  1.00  0.00     0.037 A 
HETATM   11  C9  UNL     1      -4.573  -0.955   1.526  1.00  0.00     0.004 A 
HETATM   12  C10 UNL     1      -5.525  -0.044   1.108  1.00  0.00     0.024 A 
HETATM   13  C11 UNL     1      -5.181   1.002   0.241  1.00  0.00     0.036 A 
HETATM   14 CL1  UNL     1      -6.406   2.141  -0.274  1.00  0.00    -0.084 Cl
HETATM   15  C12 UNL     1      -3.866   1.045  -0.145  1.00  0.00     0.060 A 
ENDBRANCH   8   9
ENDBRANCH   7   8
ENDBRANCH   3   7
BRANCH   1  16
HETATM   16  C2  UNL     1       3.324  -0.220   0.614  1.00  0.00     0.066 C 
HETATM   17  C1  UNL     1       4.223  -1.156   0.486  1.00  0.00     0.073 C 
BRANCH  17  18
HETATM   18  O1  UNL     1       4.914  -1.219   1.729  1.00  0.00    -0.362 OA
HETATM   19  H1  UNL     1       5.693  -0.548   1.762  1.00  0.00     0.217 HD
ENDBRANCH  17  18
BRANCH  17  20
HETATM   20  C14 UNL     1       4.969  -2.227  -0.205  1.00  0.00     0.286 C 
HETATM   21  F1  UNL     1       6.300  -1.976  -0.305  1.00  0.00    -0.248 F 
ENDBRANCH  17  20
ENDBRANCH   1  16
TORSDOF 6
