REMARK  8 active torsions:
REMARK  status: ('A' for Active; 'I' for Inactive)
REMARK    1  A    between atoms: C2_2  and  C3_3 
REMARK    2  A    between atoms: C4_4  and  C5_5 
REMARK    3  A    between atoms: C5_5  and  C6_6 
REMARK    4  A    between atoms: C6_6  and  O1_7 
REMARK    5  A    between atoms: O1_7  and  C7_8 
REMARK    6  A    between atoms: C9_10  and  C10_11 
REMARK    7  A    between atoms: C10_11  and  O2_12 
REMARK    8  A    between atoms: C14_16  and  O3_17 
ROOT
HETATM    1  C7  UNL     1      -1.511  -0.155  -1.113  1.00  0.00     0.176 C 
HETATM    2  C8  UNL     1      -1.278   0.113   0.173  1.00  0.00     0.003 C 
HETATM    3  C9  UNL     1      -0.522   1.322   0.225  1.00  0.00     0.036 C 
HETATM    4  C12 UNL     1      -1.520  -0.393   1.518  1.00  0.00     0.102 C 
HETATM    5  C13 UNL     1      -2.108  -1.727   1.584  1.00  0.00     0.036 C 
HETATM    6  C14 UNL     1      -2.398  -2.083   2.822  1.00  0.00     0.159 C 
HETATM    7  N1  UNL     1      -2.417  -2.670   0.598  1.00  0.00    -0.352 N 
HETATM    8  C16 UNL     1      -2.616  -2.336  -0.770  1.00  0.00     0.210 C 
HETATM    9  N2  UNL     1      -2.257  -1.328  -1.473  1.00  0.00    -0.219 NA
HETATM   10  H19 UNL     1      -2.514  -3.674   0.859  1.00  0.00     0.166 HD
ENDROOT
BRANCH   1  11
HETATM   11  O1  UNL     1      -1.061   0.656  -2.130  1.00  0.00    -0.304 OA
BRANCH  11  12
HETATM   12  C6  UNL     1      -0.166   0.200  -3.087  1.00  0.00     0.144 C 
BRANCH  12  13
HETATM   13  C5  UNL     1       1.066   0.049  -2.637  1.00  0.00     0.025 C 
BRANCH  13  14
HETATM   14  C4  UNL     1       2.072  -0.430  -3.595  1.00  0.00     0.002 C 
HETATM   15  C3  UNL     1       3.307  -0.605  -3.214  1.00  0.00    -0.004 C 
BRANCH  15  16
HETATM   16  C2  UNL     1       3.835  -0.368  -1.870  1.00  0.00    -0.026 C 
HETATM   17  C1  UNL     1       5.068  -0.529  -1.446  1.00  0.00     0.031 C 
ENDBRANCH  15  16
ENDBRANCH  13  14
ENDBRANCH  12  13
ENDBRANCH  11  12
ENDBRANCH   1  11
BRANCH   3  18
HETATM   18  C10 UNL     1       0.110   2.295   0.732  1.00  0.00     0.134 C 
BRANCH  18  19
HETATM   19  O2  UNL     1       0.763   3.292   1.386  1.00  0.00    -0.368 OA
HETATM   20  C11 UNL     1       1.742   4.077   0.694  1.00  0.00     0.208 C 
ENDBRANCH  18  19
ENDBRANCH   3  18
BRANCH   6  21
HETATM   21  O3  UNL     1      -2.153  -1.243   3.918  1.00  0.00    -0.366 OA
HETATM   22  C15 UNL     1      -3.244  -0.685   4.630  1.00  0.00     0.209 C 
ENDBRANCH   6  21
TORSDOF 8
