REMARK  4 active torsions:
REMARK  status: ('A' for Active; 'I' for Inactive)
REMARK    1  A    between atoms: O1_2  and  C2_3 
REMARK    2  A    between atoms: C6_9  and  O2_10 
REMARK    3  A    between atoms: O2_10  and  C7_11 
REMARK    4  A    between atoms: C15_20  and  O3_21 
ROOT
HETATM    1  C2  UNL     1      -3.291   0.043   0.109  1.00  0.00     0.103 A 
HETATM    2  C3  UNL     1      -2.913   1.362   0.263  1.00  0.00     0.072 A 
HETATM    3  C4  UNL     1      -1.551   1.586   0.269  1.00  0.00     0.075 A 
HETATM    4  N1  UNL     1      -1.155   2.869   0.419  1.00  0.00    -0.241 NA
HETATM    5  C5  UNL     1       0.121   3.237   0.444  1.00  0.00     0.236 A 
HETATM    6  N2  UNL     1       1.057   2.289   0.314  1.00  0.00    -0.217 NA
HETATM    7  C6  UNL     1       0.776   0.987   0.161  1.00  0.00     0.183 A 
HETATM    8  C13 UNL     1      -0.559   0.635   0.139  1.00  0.00     0.049 A 
HETATM    9  C14 UNL     1      -1.017  -0.659  -0.011  1.00  0.00     0.057 A 
HETATM   10  C15 UNL     1      -2.360  -0.963  -0.027  1.00  0.00     0.102 A 
ENDROOT
BRANCH   7  11
HETATM   11  O2  UNL     1       1.626  -0.095   0.016  1.00  0.00    -0.291 OA
BRANCH  11  12
HETATM   12  C7  UNL     1       2.990  -0.068  -0.002  1.00  0.00     0.079 A 
HETATM   13  C8  UNL     1       3.513  -1.354  -0.166  1.00  0.00     0.037 A 
HETATM   14  C9  UNL     1       4.881  -1.599  -0.216  1.00  0.00     0.004 A 
HETATM   15  C10 UNL     1       5.725  -0.501  -0.096  1.00  0.00     0.024 A 
HETATM   16  C11 UNL     1       5.237   0.788   0.068  1.00  0.00     0.036 A 
HETATM   17 CL1  UNL     1       6.261   2.195   0.222  1.00  0.00    -0.084 Cl
HETATM   18  C12 UNL     1       3.874   0.959   0.109  1.00  0.00     0.061 A 
ENDBRANCH  11  12
ENDBRANCH   7  11
BRANCH  10  19
HETATM   19  O3  UNL     1      -2.835  -2.258  -0.177  1.00  0.00    -0.353 OA
HETATM   20  C16 UNL     1      -2.047  -3.396  -0.328  1.00  0.00     0.210 C 
ENDBRANCH  10  19
BRANCH   1  21
HETATM   21  O1  UNL     1      -4.650  -0.249   0.095  1.00  0.00    -0.353 OA
HETATM   22  C1  UNL     1      -5.596   0.789   0.235  1.00  0.00     0.210 C 
ENDBRANCH   1  21
TORSDOF 4
