REMARK  5 active torsions:
REMARK  status: ('A' for Active; 'I' for Inactive)
REMARK    1  A    between atoms: O1_2  and  C2_3 
REMARK    2  A    between atoms: C2_3  and  C3_4 
REMARK    3  A    between atoms: C7_10  and  O2_11 
REMARK    4  A    between atoms: O2_11  and  C8_12 
REMARK    5  A    between atoms: C16_21  and  O3_22 
ROOT
HETATM    1  C3  UNL     1       2.679   0.269   0.475  1.00  0.00     0.001 A 
HETATM    2  C4  UNL     1       2.018   0.108   1.680  1.00  0.00     0.045 A 
HETATM    3  C5  UNL     1       0.636   0.048   1.716  1.00  0.00     0.073 A 
HETATM    4  N1  UNL     1       0.005  -0.113   2.909  1.00  0.00    -0.241 NA
HETATM    5  C6  UNL     1      -1.360  -0.169   2.883  1.00  0.00     0.236 A 
HETATM    6  N2  UNL     1      -2.041  -0.069   1.728  1.00  0.00    -0.217 NA
HETATM    7  C7  UNL     1      -1.426   0.091   0.544  1.00  0.00     0.183 A 
HETATM    8  C14 UNL     1      -0.029   0.155   0.514  1.00  0.00     0.049 A 
HETATM    9  C15 UNL     1       0.633   0.315  -0.685  1.00  0.00     0.055 A 
HETATM   10  C16 UNL     1       2.011   0.375  -0.729  1.00  0.00     0.077 A 
ENDROOT
BRANCH   7  11
HETATM   11  O2  UNL     1      -2.073   0.202  -0.680  1.00  0.00    -0.291 OA
BRANCH  11  12
HETATM   12  C8  UNL     1      -3.469   0.125  -0.616  1.00  0.00     0.079 A 
HETATM   13  C9  UNL     1      -3.870  -1.186  -0.776  1.00  0.00     0.037 A 
HETATM   14  C10 UNL     1      -5.218  -1.545  -0.753  1.00  0.00     0.004 A 
HETATM   15  C11 UNL     1      -6.153  -0.548  -0.565  1.00  0.00     0.024 A 
HETATM   16  C12 UNL     1      -5.739   0.750  -0.407  1.00  0.00     0.036 A 
HETATM   17 CL1  UNL     1      -6.852   2.095  -0.160  1.00  0.00    -0.084 Cl
HETATM   18  C13 UNL     1      -4.408   1.128  -0.426  1.00  0.00     0.061 A 
ENDBRANCH  11  12
ENDBRANCH   7  11
BRANCH  10  19
HETATM   19  O3  UNL     1       2.775   0.534  -1.877  1.00  0.00    -0.355 OA
HETATM   20  C17 UNL     1       2.092   0.645  -3.117  1.00  0.00     0.210 C 
ENDBRANCH  10  19
BRANCH   1  21
HETATM   21  C2  UNL     1       4.176   0.315   0.539  1.00  0.00     0.208 C 
BRANCH  21  22
HETATM   22  O1  UNL     1       4.683  -0.921   0.114  1.00  0.00    -0.391 OA
HETATM   23  C1  UNL     1       6.062  -0.877   0.172  1.00  0.00     0.201 C 
ENDBRANCH  21  22
ENDBRANCH   1  21
TORSDOF 5
