REMARK  3 active torsions:
REMARK  status: ('A' for Active; 'I' for Inactive)
REMARK    1  A    between atoms: O1_2  and  C2_3 
REMARK    2  A    between atoms: C6_9  and  N3_10 
REMARK    3  A    between atoms: C15_19  and  O2_20 
ROOT
HETATM    1  C2  UNL     1       3.347   0.472   0.020  1.00  0.00     0.103 A 
HETATM    2  C3  UNL     1       2.941   1.048   1.206  1.00  0.00     0.072 A 
HETATM    3  C4  UNL     1       1.619   1.109   1.579  1.00  0.00     0.075 A 
HETATM    4  N1  UNL     1       1.156   1.667   2.712  1.00  0.00    -0.241 NA
HETATM    5  C5  UNL     1      -0.150   1.710   3.020  1.00  0.00     0.236 A 
HETATM    6  N2  UNL     1      -1.056   1.183   2.186  1.00  0.00    -0.224 NA
HETATM    7  C6  UNL     1      -0.703   0.589   1.008  1.00  0.00     0.140 A 
HETATM    8  C13 UNL     1       0.649   0.585   0.760  1.00  0.00     0.041 A 
HETATM    9  C14 UNL     1       1.036   0.017  -0.409  1.00  0.00     0.057 A 
HETATM   10  C15 UNL     1       2.359  -0.048  -0.789  1.00  0.00     0.102 A 
ENDROOT
BRANCH   7  11
HETATM   11  N3  UNL     1      -1.767   0.011   0.251  1.00  0.00    -0.357 N 
HETATM   12  C7  UNL     1      -3.069   0.687   0.424  1.00  0.00     0.129 C 
HETATM   13  C8  UNL     1      -3.936  -0.160   1.360  1.00  0.00     0.047 C 
HETATM   14  C9  UNL     1      -4.187  -1.455   0.686  1.00  0.00    -0.027 C 
HETATM   15  C10 UNL     1      -3.277  -1.814  -0.207  1.00  0.00    -0.006 C 
HETATM   16  C11 UNL     1      -2.009  -1.096  -0.644  1.00  0.00     0.104 C 
HETATM   17  C12 UNL     1      -2.324  -0.591  -2.026  1.00  0.00     0.037 C 
ENDBRANCH   7  11
BRANCH  10  18
HETATM   18  O2  UNL     1       2.762  -0.630  -1.984  1.00  0.00    -0.353 OA
HETATM   19  C16 UNL     1       1.749  -1.163  -2.815  1.00  0.00     0.210 C 
ENDBRANCH  10  18
BRANCH   1  20
HETATM   20  O1  UNL     1       4.669   0.404  -0.365  1.00  0.00    -0.353 OA
HETATM   21  C1  UNL     1       5.731   0.903   0.390  1.00  0.00     0.210 C 
ENDBRANCH   1  20
TORSDOF 3
