REMARK  4 active torsions:
REMARK  status: ('A' for Active; 'I' for Inactive)
REMARK    1  A    between atoms: O1_2  and  C2_3 
REMARK    2  A    between atoms: N1_9  and  C8_10 
REMARK    3  A    between atoms: C12_14  and  O2_15 
REMARK    4  A    between atoms: C14_17  and  O3_18 
ROOT
HETATM    1  C2  UNL     1       3.903  -0.420   0.482  1.00  0.00     0.070 A 
HETATM    2  C3  UNL     1       4.879   0.521   0.139  1.00  0.00     0.039 A 
HETATM    3  C4  UNL     1       4.524   1.772  -0.367  1.00  0.00     0.037 A 
HETATM    4  C5  UNL     1       3.181   2.116  -0.545  1.00  0.00     0.087 A 
HETATM    5  C6  UNL     1       2.254   1.161  -0.194  1.00  0.00     0.088 A 
HETATM    6  C7  UNL     1       2.583  -0.070   0.302  1.00  0.00     0.070 A 
HETATM    7  N1  UNL     1       0.868   1.392  -0.338  1.00  0.00    -0.253 N 
HETATM    8  N2  UNL     1       0.561   2.677  -0.869  1.00  0.00    -0.287 N 
HETATM    9  C17 UNL     1       1.515   3.664  -1.232  1.00  0.00     0.224 A 
HETATM   10  N3  UNL     1       2.770   3.373  -1.067  1.00  0.00    -0.240 NA
HETATM   11  H18 UNL     1      -0.455   2.947  -1.016  1.00  0.00     0.188 HD
ENDROOT
BRANCH   7  12
HETATM   12  C8  UNL     1      -0.241   0.574  -0.002  1.00  0.00     0.060 A 
HETATM   13  C9  UNL     1      -0.544  -0.161   1.124  1.00  0.00     0.041 A 
HETATM   14  C10 UNL     1      -1.698  -0.911   1.190  1.00  0.00    -0.024 A 
HETATM   15  C11 UNL     1      -1.907  -1.658   2.458  1.00  0.00     0.051 C 
HETATM   16  C12 UNL     1      -2.612  -0.977   0.158  1.00  0.00     0.107 A 
HETATM   17  C14 UNL     1      -2.329  -0.248  -0.979  1.00  0.00     0.104 A 
HETATM   18  C16 UNL     1      -1.175   0.503  -1.046  1.00  0.00     0.071 A 
BRANCH  16  19
HETATM   19  O2  UNL     1      -3.720  -1.760   0.353  1.00  0.00    -0.353 OA
HETATM   20  C13 UNL     1      -4.933  -1.330   0.903  1.00  0.00     0.210 C 
ENDBRANCH  16  19
BRANCH  17  21
HETATM   21  O3  UNL     1      -3.266  -0.334  -1.996  1.00  0.00    -0.353 OA
HETATM   22  C15 UNL     1      -3.198   0.311  -3.233  1.00  0.00     0.210 C 
ENDBRANCH  17  21
ENDBRANCH   7  12
BRANCH   1  23
HETATM   23  O1  UNL     1       4.275  -1.650   0.980  1.00  0.00    -0.356 OA
HETATM   24  C1  UNL     1       3.347  -2.652   1.348  1.00  0.00     0.210 C 
ENDBRANCH   1  23
TORSDOF 4
