REMARK  5 active torsions:
REMARK  status: ('A' for Active; 'I' for Inactive)
REMARK    1  A    between atoms: C2_2  and  C3_3 
REMARK    2  A    between atoms: C5_5  and  N1_6 
REMARK    3  A    between atoms: N1_6  and  C6_7 
REMARK    4  A    between atoms: C11_14  and  O1_15 
REMARK    5  A    between atoms: C16_20  and  O2_21 
ROOT
HETATM    1  N1  UNL     1       0.362  -0.089   0.191  1.00  0.00    -0.340 N 
HETATM    2  H7  UNL     1       1.029   0.475   0.759  1.00  0.00     0.167 HD
ENDROOT
BRANCH   1   3
HETATM    3  C5  UNL     1      -0.913   0.520   0.358  1.00  0.00     0.038 A 
HETATM    4  C4  UNL     1      -1.087   1.661  -0.533  1.00  0.00     0.062 A 
HETATM    5  C3  UNL     1      -2.099   2.511  -0.602  1.00  0.00     0.054 A 
HETATM    6  O3  UNL     1      -3.253   2.518   0.168  1.00  0.00    -0.324 OA
HETATM    7  C18 UNL     1      -3.777   1.612   1.084  1.00  0.00     0.178 A 
HETATM    8  C16 UNL     1      -3.109   0.546   1.530  1.00  0.00     0.092 A 
HETATM    9  C15 UNL     1      -1.772   0.037   1.243  1.00  0.00     0.068 A 
BRANCH   5  10
HETATM   10  C2  UNL     1      -2.142   3.655  -1.583  1.00  0.00     0.060 C 
HETATM   11  C1  UNL     1      -2.237   4.917  -0.741  1.00  0.00     0.012 C 
ENDBRANCH   5  10
BRANCH   8  12
HETATM   12  O2  UNL     1      -3.851  -0.215   2.448  1.00  0.00    -0.354 OA
HETATM   13  C17 UNL     1      -3.317  -1.385   3.029  1.00  0.00     0.210 C 
ENDBRANCH   8  12
ENDBRANCH   1   3
BRANCH   1  14
HETATM   14  C6  UNL     1       0.517  -1.241  -0.629  1.00  0.00     0.142 A 
HETATM   15  N2  UNL     1      -0.618  -1.671  -1.203  1.00  0.00    -0.224 NA
HETATM   16  C7  UNL     1      -0.556  -2.773  -2.006  1.00  0.00     0.236 A 
HETATM   17  N3  UNL     1       0.631  -3.379  -2.190  1.00  0.00    -0.241 NA
HETATM   18  C8  UNL     1       1.757  -2.940  -1.612  1.00  0.00     0.072 A 
HETATM   19  C9  UNL     1       2.971  -3.594  -1.826  1.00  0.00     0.035 A 
HETATM   20  C14 UNL     1       1.757  -1.819  -0.780  1.00  0.00     0.041 A 
HETATM   21  C10 UNL     1       4.100  -3.079  -1.191  1.00  0.00     0.039 A 
HETATM   22  C11 UNL     1       4.100  -1.961  -0.361  1.00  0.00     0.069 A 
HETATM   23  C13 UNL     1       2.888  -1.338  -0.171  1.00  0.00     0.054 A 
BRANCH  22  24
HETATM   24  O1  UNL     1       5.274  -1.521   0.228  1.00  0.00    -0.356 OA
HETATM   25  C12 UNL     1       5.214  -0.380   1.062  1.00  0.00     0.210 C 
ENDBRANCH  22  24
ENDBRANCH   1  14
TORSDOF 5
