REMARK  5 active torsions:
REMARK  status: ('A' for Active; 'I' for Inactive)
REMARK    1  A    between atoms: C2_2  and  O1_3 
REMARK    2  A    between atoms: O1_3  and  C3_4 
REMARK    3  A    between atoms: C5_6  and  C6_7 
REMARK    4  A    between atoms: C14_18  and  O3_19 
REMARK    5  A    between atoms: C16_21  and  O4_22 
ROOT
HETATM    1  C3  UNL     1      -2.344   0.625   0.335  1.00  0.00     0.105 A 
HETATM    2  C4  UNL     1      -1.043   1.026   0.281  1.00  0.00     0.053 A 
HETATM    3  C5  UNL     1      -0.128   0.153  -0.265  1.00  0.00    -0.006 A 
HETATM    4  C13 UNL     1      -0.494  -1.086  -0.743  1.00  0.00     0.053 A 
HETATM    5  C14 UNL     1      -1.807  -1.497  -0.691  1.00  0.00     0.105 A 
HETATM    6  C16 UNL     1      -2.736  -0.630  -0.146  1.00  0.00     0.135 A 
ENDROOT
BRANCH   3   7
HETATM    7  C6  UNL     1       1.272   0.557  -0.349  1.00  0.00     0.046 C 
HETATM    8  N1  UNL     1       1.648   1.726   0.072  1.00  0.00    -0.246 NA
HETATM    9  C7  UNL     1       3.012   2.153   0.006  1.00  0.00     0.232 C 
HETATM   10  N2  UNL     1       3.625   1.297   0.805  1.00  0.00    -0.254 NA
HETATM   11  C8  UNL     1       5.012   1.344   1.038  1.00  0.00     0.117 C 
HETATM   12  C9  UNL     1       5.573   0.153   0.879  1.00  0.00     0.016 C 
HETATM   13  C10 UNL     1       4.885  -1.089   0.514  1.00  0.00    -0.019 C 
HETATM   14  C11 UNL     1       3.958  -1.987   0.192  1.00  0.00     0.025 C 
HETATM   15  O2  UNL     1       2.851  -1.147   0.232  1.00  0.00     0.000 OA
HETATM   16  C12 UNL     1       2.347  -0.322  -0.868  1.00  0.00     0.066 C 
ENDBRANCH   3   7
BRANCH   1  17
HETATM   17  O1  UNL     1      -3.426   1.321   0.833  1.00  0.00    -0.349 OA
BRANCH  17  18
HETATM   18  C2  UNL     1      -3.384   2.606   1.395  1.00  0.00     0.171 C 
HETATM   19  C1  UNL     1      -2.867   3.634   0.417  1.00  0.00     0.034 C 
ENDBRANCH  17  18
ENDBRANCH   1  17
BRANCH   5  20
HETATM   20  O3  UNL     1      -2.157  -2.752  -1.180  1.00  0.00    -0.353 OA
HETATM   21  C15 UNL     1      -1.240  -3.642  -1.732  1.00  0.00     0.210 C 
ENDBRANCH   5  20
BRANCH   6  22
HETATM   22  O4  UNL     1      -4.041  -1.125  -0.131  1.00  0.00    -0.351 OA
HETATM   23  C17 UNL     1      -4.547  -1.856   0.942  1.00  0.00     0.210 C 
ENDBRANCH   6  22
TORSDOF 5
