REMARK  7 active torsions:
REMARK  status: ('A' for Active; 'I' for Inactive)
REMARK    1  A    between atoms: O1_2  and  C2_3 
REMARK    2  A    between atoms: C2_3  and  O2_4 
REMARK    3  A    between atoms: O2_4  and  C3_5 
REMARK    4  A    between atoms: C3_5  and  C4_6 
REMARK    5  A    between atoms: C7_10  and  N1_11 
REMARK    6  A    between atoms: N1_11  and  C8_12 
REMARK    7  A    between atoms: C13_19  and  O4_20 
ROOT
HETATM    1  N1  UNL     1       1.654  -0.862  -0.498  1.00  0.00    -0.364 N 
HETATM    2  H12 UNL     1       1.990  -1.586  -1.163  1.00  0.00     0.162 HD
ENDROOT
BRANCH   1   3
HETATM    3  C7  UNL     1       0.260  -0.862  -0.124  1.00  0.00     0.130 C 
HETATM    4  C6  UNL     1       0.145  -1.089   1.368  1.00  0.00     0.203 C 
HETATM    5  O3  UNL     1      -1.151  -1.639   1.666  1.00  0.00    -0.360 OA
HETATM    6  C5  UNL     1      -2.347  -0.981   1.316  1.00  0.00     0.143 C 
HETATM    7  C4  UNL     1      -2.732   0.025   0.558  1.00  0.00    -0.013 C 
HETATM    8  C17 UNL     1      -1.653   0.744  -0.183  1.00  0.00     0.009 C 
HETATM    9  C16 UNL     1      -0.378   0.440  -0.509  1.00  0.00     0.001 C 
BRANCH   7  10
HETATM   10  C3  UNL     1      -3.980   0.711   0.188  1.00  0.00     0.211 C 
BRANCH  10  11
HETATM   11  O2  UNL     1      -5.106   0.218   0.734  1.00  0.00    -0.362 OA
BRANCH  11  12
HETATM   12  C2  UNL     1      -5.580  -0.987   0.323  1.00  0.00     0.337 C 
BRANCH  12  13
HETATM   13  O1  UNL     1      -5.862  -0.918  -1.060  1.00  0.00    -0.372 OA
HETATM   14  C1  UNL     1      -6.825   0.073  -1.299  1.00  0.00     0.204 C 
ENDBRANCH  12  13
ENDBRANCH  11  12
ENDBRANCH  10  11
ENDBRANCH   7  10
ENDBRANCH   1   3
BRANCH   1  15
HETATM   15  C8  UNL     1       2.480   0.136   0.074  1.00  0.00     0.138 A 
HETATM   16  N2  UNL     1       1.963   1.040   0.924  1.00  0.00    -0.224 NA
HETATM   17  C9  UNL     1       2.702   2.006   1.494  1.00  0.00     0.235 A 
HETATM   18  N3  UNL     1       4.036   2.136   1.247  1.00  0.00    -0.241 NA
HETATM   19  C10 UNL     1       4.627   1.257   0.396  1.00  0.00     0.072 A 
HETATM   20  C11 UNL     1       5.975   1.353   0.119  1.00  0.00     0.035 A 
HETATM   21  C15 UNL     1       3.830   0.283  -0.165  1.00  0.00     0.041 A 
HETATM   22  C12 UNL     1       6.586   0.462  -0.747  1.00  0.00     0.039 A 
HETATM   23  C13 UNL     1       5.795  -0.516  -1.312  1.00  0.00     0.066 A 
HETATM   24  C14 UNL     1       4.453  -0.580  -1.010  1.00  0.00     0.054 A 
BRANCH  23  25
HETATM   25  O4  UNL     1       6.484  -1.375  -2.172  1.00  0.00    -0.361 OA
HETATM   26  H16 UNL     1       6.979  -2.153  -1.715  1.00  0.00     0.217 HD
ENDBRANCH  23  25
ENDBRANCH   1  15
TORSDOF 7
