REMARK  3 active torsions:
REMARK  status: ('A' for Active; 'I' for Inactive)
REMARK    1  A    between atoms: O1_1  and  C1_2 
REMARK    2  A    between atoms: C8_9  and  O2_10 
REMARK    3  A    between atoms: O2_10  and  C9_11 
ROOT
HETATM    1  C1  UNL     1      -4.231   1.192   1.557  1.00  0.00     0.156 C 
HETATM    2  C2  UNL     1      -3.425   0.327   0.972  1.00  0.00     0.032 C 
HETATM    3  C3  UNL     1      -3.585  -0.454  -0.330  1.00  0.00     0.062 C 
HETATM    4  C4  UNL     1      -2.509   0.058  -1.133  1.00  0.00     0.033 C 
HETATM    5  C5  UNL     1      -2.007  -0.379  -2.398  1.00  0.00    -0.030 C 
HETATM    6  C6  UNL     1      -0.684  -0.808  -2.347  1.00  0.00    -0.020 C 
HETATM    7  C7  UNL     1       0.532  -1.030  -1.477  1.00  0.00     0.185 C 
HETATM    8  C8  UNL     1       0.552  -0.759  -0.136  1.00  0.00     0.144 C 
HETATM    9  N1  UNL     1       0.335  -0.401   1.251  1.00  0.00    -0.251 NA
HETATM   10  C15 UNL     1      -0.781  -0.154   1.772  1.00  0.00     0.204 C 
HETATM   11  N2  UNL     1      -2.171  -0.061   1.526  1.00  0.00    -0.353 N 
HETATM   12  H15 UNL     1      -2.673  -0.724   2.194  1.00  0.00     0.166 HD
ENDROOT
BRANCH   8  13
HETATM   13  O2  UNL     1       1.690  -0.965   0.684  1.00  0.00    -0.323 OA
BRANCH  13  14
HETATM   14  C9  UNL     1       2.957  -0.573   0.318  1.00  0.00     0.073 A 
HETATM   15  C10 UNL     1       3.878  -0.901   1.314  1.00  0.00     0.037 A 
HETATM   16  C11 UNL     1       5.233  -0.607   1.180  1.00  0.00     0.004 A 
HETATM   17  C12 UNL     1       5.670   0.019   0.045  1.00  0.00     0.024 A 
HETATM   18  C13 UNL     1       4.757   0.333  -0.919  1.00  0.00     0.036 A 
HETATM   19 CL1  UNL     1       5.264   1.133  -2.387  1.00  0.00    -0.084 Cl
HETATM   20  C14 UNL     1       3.412   0.058  -0.821  1.00  0.00     0.060 A 
ENDBRANCH  13  14
ENDBRANCH   8  13
BRANCH   1  21
HETATM   21  O1  UNL     1      -5.326   1.260   0.704  1.00  0.00    -0.371 OA
HETATM   22  H1  UNL     1      -6.149   0.662   0.825  1.00  0.00     0.216 HD
ENDBRANCH   1  21
TORSDOF 3
