REMARK  4 active torsions:
REMARK  status: ('A' for Active; 'I' for Inactive)
REMARK    1  A    between atoms: O1_2  and  C2_3 
REMARK    2  A    between atoms: C6_9  and  P1_10 
REMARK    3  A    between atoms: P1_10  and  C7_11 
REMARK    4  A    between atoms: C15_20  and  O2_21 
ROOT
HETATM    1  C2  UNL     1      -3.506  -0.084   0.247  1.00  0.00     0.103 A 
HETATM    2  C3  UNL     1      -3.025  -1.269  -0.246  1.00  0.00     0.072 A 
HETATM    3  C4  UNL     1      -1.702  -1.443  -0.581  1.00  0.00     0.073 A 
HETATM    4  N1  UNL     1      -1.176  -2.598  -1.073  1.00  0.00    -0.241 NA
HETATM    5  C5  UNL     1       0.133  -2.680  -1.375  1.00  0.00     0.234 A 
HETATM    6  N2  UNL     1       1.006  -1.649  -1.215  1.00  0.00    -0.240 NA
HETATM    7  C6  UNL     1       0.560  -0.466  -0.729  1.00  0.00     0.076 A 
HETATM    8  C13 UNL     1      -0.791  -0.396  -0.424  1.00  0.00     0.025 A 
HETATM    9  C14 UNL     1      -1.309   0.780   0.074  1.00  0.00     0.055 A 
HETATM   10  C15 UNL     1      -2.639   0.976   0.417  1.00  0.00     0.102 A 
ENDROOT
BRANCH   7  11
HETATM   11  P1  UNL     1       1.668   0.950  -0.492  1.00  0.00    -0.039 P 
HETATM   12  H6  UNL     1       1.600   1.833  -1.643  1.00  0.00     0.069 HD
BRANCH  11  13
HETATM   13  C7  UNL     1       3.379   0.454  -0.179  1.00  0.00    -0.026 A 
HETATM   14  C8  UNL     1       4.414   1.304  -0.507  1.00  0.00     0.012 A 
HETATM   15  C9  UNL     1       5.705   0.849  -0.235  1.00  0.00     0.003 A 
HETATM   16  C10 UNL     1       5.933  -0.386   0.333  1.00  0.00     0.024 A 
HETATM   17  C11 UNL     1       4.871  -1.226   0.655  1.00  0.00     0.034 A 
HETATM   18 CL1  UNL     1       5.200  -2.781   1.372  1.00  0.00    -0.084 Cl
HETATM   19  C12 UNL     1       3.595  -0.774   0.385  1.00  0.00     0.036 A 
ENDBRANCH  11  13
ENDBRANCH   7  11
BRANCH  10  20
HETATM   20  O2  UNL     1      -3.143   2.151   0.912  1.00  0.00    -0.353 OA
HETATM   21  C16 UNL     1      -2.425   3.326   1.151  1.00  0.00     0.210 C 
ENDBRANCH  10  20
BRANCH   1  22
HETATM   22  O1  UNL     1      -4.848   0.011   0.559  1.00  0.00    -0.353 OA
HETATM   23  C1  UNL     1      -5.671  -1.127   0.354  1.00  0.00     0.210 C 
ENDBRANCH   1  22
TORSDOF 4
