REMARK  6 active torsions:
REMARK  status: ('A' for Active; 'I' for Inactive)
REMARK    1  A    between atoms: O1_2  and  C2_3 
REMARK    2  A    between atoms: C7_10  and  N3_11 
REMARK    3  A    between atoms: N3_11  and  C8_12 
REMARK    4  A    between atoms: C12_16  and  C13_17 
REMARK    5  A    between atoms: C13_17  and  O2_18 
REMARK    6  A    between atoms: C14_19  and  O3_20 
ROOT
HETATM    1  N3  UNL     1       0.298  -0.106  -1.118  1.00  0.00    -0.340 N 
HETATM    2  H7  UNL     1       0.821  -0.749  -1.742  1.00  0.00     0.167 HD
ENDROOT
BRANCH   1   3
HETATM    3  C7  UNL     1       1.095   0.955  -0.692  1.00  0.00     0.142 A 
HETATM    4  N2  UNL     1       0.543   2.213  -0.692  1.00  0.00    -0.224 NA
HETATM    5  C6  UNL     1       1.234   3.291  -0.284  1.00  0.00     0.236 A 
HETATM    6  N1  UNL     1       2.528   3.235   0.160  1.00  0.00    -0.241 NA
HETATM    7  C5  UNL     1       3.140   2.025   0.188  1.00  0.00     0.072 A 
HETATM    8  C4  UNL     1       4.437   1.893   0.632  1.00  0.00     0.035 A 
HETATM    9  C17 UNL     1       2.377   0.983  -0.238  1.00  0.00     0.041 A 
HETATM   10  C3  UNL     1       5.004   0.613   0.644  1.00  0.00     0.039 A 
HETATM   11  C2  UNL     1       4.315  -0.509   0.232  1.00  0.00     0.069 A 
HETATM   12  C18 UNL     1       3.004  -0.259  -0.198  1.00  0.00     0.054 A 
BRANCH  11  13
HETATM   13  O1  UNL     1       4.809  -1.792   0.219  1.00  0.00    -0.356 OA
HETATM   14  C1  UNL     1       6.111  -2.062   0.652  1.00  0.00     0.210 C 
ENDBRANCH  11  13
ENDBRANCH   1   3
BRANCH   1  15
HETATM   15  C8  UNL     1      -1.088  -0.277  -0.732  1.00  0.00     0.036 A 
HETATM   16  C9  UNL     1      -1.839  -1.144  -1.538  1.00  0.00     0.037 A 
HETATM   17  C10 UNL     1      -3.168  -1.325  -1.121  1.00  0.00    -0.049 A 
HETATM   18  C11 UNL     1      -3.934  -2.255  -2.005  1.00  0.00     0.049 C 
HETATM   19  C12 UNL     1      -3.706  -0.692   0.009  1.00  0.00     0.005 A 
HETATM   20  C14 UNL     1      -2.821   0.118   0.666  1.00  0.00     0.079 A 
HETATM   21  C16 UNL     1      -1.506   0.396   0.389  1.00  0.00     0.066 A 
BRANCH  19  22
HETATM   22  C13 UNL     1      -5.106  -0.947   0.372  1.00  0.00     0.206 C 
BRANCH  22  23
HETATM   23  O2  UNL     1      -5.571  -0.030   1.320  1.00  0.00    -0.396 OA
HETATM   24  H14 UNL     1      -5.515  -0.369   2.256  1.00  0.00     0.209 HD
ENDBRANCH  22  23
ENDBRANCH  19  22
BRANCH  20  25
HETATM   25  O3  UNL     1      -3.475   0.692   1.775  1.00  0.00    -0.355 OA
HETATM   26  C15 UNL     1      -2.711   1.561   2.583  1.00  0.00     0.210 C 
ENDBRANCH  20  25
ENDBRANCH   1  15
TORSDOF 6
