REMARK  2 active torsions:
REMARK  status: ('A' for Active; 'I' for Inactive)
REMARK    1  A    between atoms: O1_2  and  C2_3 
REMARK    2  A    between atoms: C11_16  and  O4_17 
ROOT
HETATM    1  C2  UNL     1       3.097  -0.089  -1.347  1.00  0.00     0.083 C 
HETATM    2  C3  UNL     1       2.310   0.454  -0.376  1.00  0.00     0.140 C 
HETATM    3  C4  UNL     1       2.655   1.674   0.405  1.00  0.00     0.010 C 
HETATM    4  C5  UNL     1       1.646   1.878   1.234  1.00  0.00     0.040 C 
HETATM    5  C6  UNL     1       0.542   0.884   1.144  1.00  0.00     0.145 C 
HETATM    6  C7  UNL     1      -0.679   1.367   1.831  1.00  0.00     0.149 C 
HETATM    7  N1  UNL     1      -0.807   2.450   2.506  1.00  0.00    -0.222 NA
HETATM    8  C8  UNL     1       0.335   3.264   2.708  1.00  0.00     0.235 C 
HETATM    9  N2  UNL     1       1.439   2.871   2.205  1.00  0.00    -0.246 NA
HETATM   10  O2  UNL     1      -1.802   0.589   1.751  1.00  0.00    -0.312 OA
HETATM   11  C9  UNL     1      -3.141   1.047   1.758  1.00  0.00     0.346 C 
HETATM   12  O3  UNL     1      -4.020   0.052   1.691  1.00  0.00    -0.360 OA
HETATM   13  C10 UNL     1      -4.163  -0.827   0.691  1.00  0.00     0.234 C 
HETATM   14  C11 UNL     1      -3.021  -1.566   0.186  1.00  0.00     0.069 C 
HETATM   15  C13 UNL     1      -2.102  -2.381  -0.210  1.00  0.00     0.036 C 
HETATM   16  C14 UNL     1      -0.843  -2.679  -0.797  1.00  0.00     0.022 C 
HETATM   17  C15 UNL     1       0.226  -2.234  -1.339  1.00  0.00     0.116 C 
HETATM   18  N3  UNL     1       1.398  -2.075  -1.911  1.00  0.00    -0.275 NA
HETATM   19  C16 UNL     1       2.365  -1.274  -1.855  1.00  0.00     0.122 C 
ENDROOT
BRANCH   1  20
HETATM   20  O1  UNL     1       4.210  -0.297  -2.258  1.00  0.00    -0.384 OA
HETATM   21  C1  UNL     1       5.407  -0.735  -1.592  1.00  0.00     0.202 C 
ENDBRANCH   1  20
BRANCH  14  22
HETATM   22  O4  UNL     1      -2.253  -0.513  -0.267  1.00  0.00    -0.358 OA
HETATM   23  C12 UNL     1      -2.609   0.201  -1.450  1.00  0.00     0.209 C 
ENDBRANCH  14  22
TORSDOF 2
