REMARK  6 active torsions:
REMARK  status: ('A' for Active; 'I' for Inactive)
REMARK    1  A    between atoms: C2_2  and  C3_3 
REMARK    2  A    between atoms: C3_3  and  O1_4 
REMARK    3  A    between atoms: C6_7  and  N1_8 
REMARK    4  A    between atoms: N1_8  and  C7_9 
REMARK    5  A    between atoms: C12_16  and  O2_17 
REMARK    6  A    between atoms: C17_22  and  O3_23 
ROOT
HETATM    1  N1  UNL     1       0.476   0.522   0.040  1.00  0.00    -0.340 N 
HETATM    2  H8  UNL     1       0.823   1.505   0.047  1.00  0.00     0.167 HD
ENDROOT
BRANCH   1   3
HETATM    3  C6  UNL     1      -0.946   0.526   0.129  1.00  0.00     0.035 A 
HETATM    4  C5  UNL     1      -1.872   0.140  -0.759  1.00  0.00     0.051 A 
HETATM    5  C3  UNL     1      -3.265   0.332  -0.213  1.00  0.00     0.146 A 
HETATM    6  C17 UNL     1      -2.953   0.896   1.137  1.00  0.00     0.090 A 
HETATM    7  C16 UNL     1      -1.649   1.005   1.329  1.00  0.00     0.065 A 
BRANCH   5   8
HETATM    8  C2  UNL     1      -4.034   1.273  -1.039  1.00  0.00     0.012 C 
HETATM    9  C1  UNL     1      -5.200   1.343  -1.659  1.00  0.00     0.010 C 
ENDBRANCH   5   8
BRANCH   5  10
HETATM   10  O1  UNL     1      -3.838  -0.906  -0.041  1.00  0.00    -0.370 OA
HETATM   11  C4  UNL     1      -4.018  -1.556  -1.251  1.00  0.00     0.204 C 
ENDBRANCH   5  10
BRANCH   6  12
HETATM   12  O3  UNL     1      -4.033   1.204   1.942  1.00  0.00    -0.356 OA
HETATM   13  C18 UNL     1      -3.909   1.777   3.217  1.00  0.00     0.209 C 
ENDBRANCH   6  12
ENDBRANCH   1   3
BRANCH   1  14
HETATM   14  C7  UNL     1       1.154  -0.726  -0.038  1.00  0.00     0.142 A 
HETATM   15  N2  UNL     1       0.396  -1.812  -0.027  1.00  0.00    -0.224 NA
HETATM   16  C8  UNL     1       0.967  -3.049  -0.097  1.00  0.00     0.236 A 
HETATM   17  N3  UNL     1       2.322  -3.191  -0.179  1.00  0.00    -0.241 NA
HETATM   18  C9  UNL     1       3.080  -2.054  -0.187  1.00  0.00     0.072 A 
HETATM   19  C10 UNL     1       4.463  -2.239  -0.271  1.00  0.00     0.035 A 
HETATM   20  C15 UNL     1       2.530  -0.792  -0.118  1.00  0.00     0.041 A 
HETATM   21  C11 UNL     1       5.195  -1.060  -0.276  1.00  0.00     0.039 A 
HETATM   22  C12 UNL     1       4.675   0.214  -0.208  1.00  0.00     0.069 A 
HETATM   23  C14 UNL     1       3.306   0.348  -0.127  1.00  0.00     0.054 A 
BRANCH  22  24
HETATM   24  O2  UNL     1       5.488   1.337  -0.219  1.00  0.00    -0.356 OA
HETATM   25  C13 UNL     1       6.875   1.309  -0.298  1.00  0.00     0.210 C 
ENDBRANCH  22  24
ENDBRANCH   1  14
TORSDOF 6
