REMARK  5 active torsions:
REMARK  status: ('A' for Active; 'I' for Inactive)
REMARK    1  A    between atoms: O1_2  and  C2_3 
REMARK    2  A    between atoms: C5_6  and  N1_7 
REMARK    3  A    between atoms: N1_7  and  C6_8 
REMARK    4  A    between atoms: C10_14  and  O2_15 
REMARK    5  A    between atoms: C12_17  and  O3_18 
ROOT
HETATM    1  C6  UNL     1      -0.055   0.456   0.120  1.00  0.00     0.142 A 
HETATM    2  N2  UNL     1       0.767   1.419   0.573  1.00  0.00    -0.224 NA
HETATM    3  C7  UNL     1       0.272   2.633   0.956  1.00  0.00     0.236 A 
HETATM    4  N3  UNL     1      -1.072   2.828   0.862  1.00  0.00    -0.241 NA
HETATM    5  C8  UNL     1      -1.887   1.884   0.417  1.00  0.00     0.075 A 
HETATM    6  C9  UNL     1      -3.263   2.057   0.310  1.00  0.00     0.072 A 
HETATM    7  C10 UNL     1      -4.080   1.038  -0.162  1.00  0.00     0.103 A 
HETATM    8  C12 UNL     1      -3.590  -0.186  -0.550  1.00  0.00     0.102 A 
HETATM    9  C14 UNL     1      -2.227  -0.375  -0.451  1.00  0.00     0.057 A 
HETATM   10  C15 UNL     1      -1.415   0.632   0.017  1.00  0.00     0.042 A 
ENDROOT
BRANCH   1  11
HETATM   11  N1  UNL     1       0.582  -0.759  -0.246  1.00  0.00    -0.340 N 
HETATM   12  H6  UNL     1       0.195  -1.650  -0.619  1.00  0.00     0.167 HD
BRANCH  11  13
HETATM   13  C5  UNL     1       1.994  -0.890  -0.120  1.00  0.00     0.039 A 
HETATM   14  C4  UNL     1       2.640  -1.810   0.607  1.00  0.00     0.033 A 
HETATM   15  C3  UNL     1       4.050  -2.019   0.794  1.00  0.00     0.045 A 
HETATM   16  C2  UNL     1       5.004  -1.297   0.247  1.00  0.00     0.096 A 
HETATM   17  S1  UNL     1       4.385   0.047  -0.811  1.00  0.00    -0.148 SA
HETATM   18  C16 UNL     1       2.741   0.114  -0.890  1.00  0.00     0.068 A 
HETATM   19  H17 UNL     1       5.223   1.058  -1.300  1.00  0.00     0.102 HD
BRANCH  16  20
HETATM   20  O1  UNL     1       6.357  -1.477   0.410  1.00  0.00    -0.350 OA
HETATM   21  C1  UNL     1       7.316  -1.290  -0.620  1.00  0.00     0.210 C 
ENDBRANCH  16  20
ENDBRANCH  11  13
ENDBRANCH   1  11
BRANCH   8  22
HETATM   22  O3  UNL     1      -4.474  -1.125  -1.002  1.00  0.00    -0.353 OA
HETATM   23  C13 UNL     1      -4.198  -2.420  -1.441  1.00  0.00     0.210 C 
ENDBRANCH   8  22
BRANCH   7  24
HETATM   24  O2  UNL     1      -5.429   1.317  -0.226  1.00  0.00    -0.353 OA
HETATM   25  C11 UNL     1      -5.956   2.555   0.161  1.00  0.00     0.210 C 
ENDBRANCH   7  24
TORSDOF 5
