REMARK  8 active torsions:
REMARK  status: ('A' for Active; 'I' for Inactive)
REMARK    1  A    between atoms: O1_2  and  C2_3 
REMARK    2  A    between atoms: C2_3  and  C3_4 
REMARK    3  A    between atoms: C4_5  and  C5_6 
REMARK    4  A    between atoms: C6_7  and  C7_8 
REMARK    5  A    between atoms: C7_8  and  N1_9 
REMARK    6  A    between atoms: N1_9  and  C8_10 
REMARK    7  A    between atoms: C12_16  and  O2_17 
REMARK    8  A    between atoms: C14_19  and  O3_20 
ROOT
HETATM    1  C8  UNL     1      -0.293  -1.584   0.773  1.00  0.00     0.137 A 
HETATM    2  N2  UNL     1       0.450  -2.303  -0.060  1.00  0.00    -0.224 NA
HETATM    3  C9  UNL     1       0.186  -2.388  -1.375  1.00  0.00     0.235 A 
HETATM    4  N3  UNL     1      -0.862  -1.739  -1.920  1.00  0.00    -0.241 NA
HETATM    5  C10 UNL     1      -1.684  -0.973  -1.144  1.00  0.00     0.075 A 
HETATM    6  C11 UNL     1      -2.759  -0.304  -1.691  1.00  0.00     0.072 A 
HETATM    7  C12 UNL     1      -3.577   0.464  -0.887  1.00  0.00     0.103 A 
HETATM    8  C14 UNL     1      -3.285   0.536   0.460  1.00  0.00     0.102 A 
HETATM    9  C16 UNL     1      -2.195  -0.153   0.969  1.00  0.00     0.057 A 
HETATM   10  C17 UNL     1      -1.359  -0.927   0.196  1.00  0.00     0.041 A 
ENDROOT
BRANCH   1  11
HETATM   11  N1  UNL     1      -0.003  -1.512   2.170  1.00  0.00    -0.371 N 
HETATM   12  H12 UNL     1      -0.521  -0.996   2.892  1.00  0.00     0.161 HD
BRANCH  11  13
HETATM   13  C7  UNL     1       1.167  -2.256   2.647  1.00  0.00     0.148 C 
BRANCH  13  14
HETATM   14  C6  UNL     1       2.379  -1.662   2.046  1.00  0.00    -0.007 C 
HETATM   15  C5  UNL     1       2.599  -0.649   1.228  1.00  0.00    -0.003 C 
BRANCH  15  16
HETATM   16  C4  UNL     1       3.968  -0.347   0.837  1.00  0.00    -0.002 C 
HETATM   17  C3  UNL     1       4.224   0.654   0.024  1.00  0.00    -0.001 C 
BRANCH  17  18
HETATM   18  C2  UNL     1       3.362   1.640  -0.651  1.00  0.00     0.194 C 
BRANCH  18  19
HETATM   19  O1  UNL     1       3.445   1.608  -2.028  1.00  0.00    -0.392 OA
HETATM   20  C1  UNL     1       4.696   1.857  -2.533  1.00  0.00     0.201 C 
ENDBRANCH  18  19
ENDBRANCH  17  18
ENDBRANCH  15  16
ENDBRANCH  13  14
ENDBRANCH  11  13
ENDBRANCH   1  11
BRANCH   8  21
HETATM   21  O3  UNL     1      -4.108   1.309   1.268  1.00  0.00    -0.353 OA
HETATM   22  C15 UNL     1      -3.800   1.379   2.661  1.00  0.00     0.210 C 
ENDBRANCH   8  21
BRANCH   7  23
HETATM   23  O2  UNL     1      -4.655   1.147  -1.378  1.00  0.00    -0.353 OA
HETATM   24  C13 UNL     1      -5.093   1.188  -2.695  1.00  0.00     0.210 C 
ENDBRANCH   7  23
TORSDOF 8
