REMARK  5 active torsions:
REMARK  status: ('A' for Active; 'I' for Inactive)
REMARK    1  A    between atoms: C2_2  and  O1_3 
REMARK    2  A    between atoms: O1_3  and  C3_4 
REMARK    3  A    between atoms: C8_9  and  O2_10 
REMARK    4  A    between atoms: N1_12  and  C10_13 
REMARK    5  A    between atoms: C13_16  and  O3_17 
ROOT
HETATM    1  C3  UNL     1      -2.432   0.835   1.281  1.00  0.00     0.102 A 
HETATM    2  C4  UNL     1      -1.488   1.662   1.909  1.00  0.00     0.050 A 
HETATM    3  C5  UNL     1      -0.121   1.530   1.636  1.00  0.00    -0.008 A 
HETATM    4  C6  UNL     1       0.311   0.579   0.741  1.00  0.00     0.051 A 
HETATM    5  C7  UNL     1      -0.609  -0.217   0.138  1.00  0.00     0.070 A 
HETATM    6  C8  UNL     1      -1.983  -0.133   0.370  1.00  0.00     0.103 A 
HETATM    7  N1  UNL     1       1.709   0.499   0.509  1.00  0.00    -0.309 N 
HETATM    8  C16 UNL     1       2.476   1.435   1.251  1.00  0.00     0.208 A 
HETATM    9  N2  UNL     1       2.074   2.316   2.082  1.00  0.00    -0.280 NA
HETATM   10  C17 UNL     1       0.682   2.484   2.394  1.00  0.00     0.191 A 
ENDROOT
BRANCH   7  11
HETATM   11  C10 UNL     1       2.166  -0.462  -0.394  1.00  0.00     0.024 A 
HETATM   12  C11 UNL     1       1.904  -0.252  -1.668  1.00  0.00     0.028 A 
HETATM   13  C12 UNL     1       2.429  -1.321  -2.516  1.00  0.00     0.034 A 
HETATM   14  C13 UNL     1       3.033  -2.212  -1.704  1.00  0.00     0.051 A 
HETATM   15  C15 UNL     1       2.925  -1.758  -0.295  1.00  0.00     0.122 A 
BRANCH  14  16
HETATM   16  O3  UNL     1       3.713  -3.424  -1.891  1.00  0.00    -0.360 OA
HETATM   17  C14 UNL     1       4.605  -3.514  -3.005  1.00  0.00     0.209 C 
ENDBRANCH  14  16
ENDBRANCH   7  11
BRANCH   6  18
HETATM   18  O2  UNL     1      -2.841  -1.006  -0.308  1.00  0.00    -0.353 OA
HETATM   19  C9  UNL     1      -2.248  -1.933  -1.195  1.00  0.00     0.210 C 
ENDBRANCH   6  18
BRANCH   1  20
HETATM   20  O1  UNL     1      -3.784   0.818   1.420  1.00  0.00    -0.349 OA
BRANCH  20  21
HETATM   21  C2  UNL     1      -4.617   1.602   2.201  1.00  0.00     0.171 C 
HETATM   22  C1  UNL     1      -4.596   3.069   1.930  1.00  0.00     0.034 C 
ENDBRANCH  20  21
ENDBRANCH   1  20
TORSDOF 5
