REMARK  2 active torsions:
REMARK  status: ('A' for Active; 'I' for Inactive)
REMARK    1  A    between atoms: O1_2  and  C2_3 
REMARK    2  A    between atoms: C7_8  and  O2_9 
ROOT
HETATM    1  C2  UNL     1      -2.821  -0.603  -0.132  1.00  0.00     0.102 A 
HETATM    2  C3  UNL     1      -1.758  -1.454  -0.016  1.00  0.00     0.049 A 
HETATM    3  C4  UNL     1      -0.409  -1.151  -0.190  1.00  0.00    -0.026 A 
HETATM    4  C5  UNL     1      -0.107   0.176  -0.520  1.00  0.00     0.067 A 
HETATM    5  C6  UNL     1      -1.174   1.040  -0.639  1.00  0.00     0.071 A 
HETATM    6  C7  UNL     1      -2.529   0.725  -0.462  1.00  0.00     0.103 A 
HETATM    7  N1  UNL     1       1.058   0.898  -0.764  1.00  0.00    -0.243 N 
HETATM    8  C9  UNL     1       1.323   1.860  -1.527  1.00  0.00     0.232 A 
HETATM    9  N2  UNL     1       2.431   1.454  -0.787  1.00  0.00    -0.257 N 
HETATM   10  C10 UNL     1       3.523   2.065  -0.519  1.00  0.00     0.094 C 
HETATM   11  C11 UNL     1       4.051   0.912   0.273  1.00  0.00     0.074 C 
HETATM   12  C12 UNL     1       4.263  -0.265  -0.602  1.00  0.00    -0.021 C 
HETATM   13  C13 UNL     1       3.438  -1.245  -0.332  1.00  0.00     0.005 C 
HETATM   14  C14 UNL     1       2.456  -1.111   0.730  1.00  0.00    -0.036 A 
HETATM   15  C15 UNL     1       1.647  -0.822   1.720  1.00  0.00     0.209 A 
HETATM   16  I1  UNL     1       0.969   0.451   3.215  1.00  0.00    -0.183 I 
HETATM   17  O3  UNL     1       1.377  -1.979   1.128  1.00  0.00     0.000 OA
HETATM   18  C16 UNL     1       0.503  -2.310  -0.005  1.00  0.00     0.045 C 
ENDROOT
BRANCH   1  19
HETATM   19  O1  UNL     1      -4.139  -0.990   0.058  1.00  0.00    -0.353 OA
HETATM   20  C1  UNL     1      -4.388  -2.339   0.390  1.00  0.00     0.210 C 
ENDBRANCH   1  19
BRANCH   6  21
HETATM   21  O2  UNL     1      -3.599   1.599  -0.583  1.00  0.00    -0.353 OA
HETATM   22  C8  UNL     1      -3.386   2.958  -0.915  1.00  0.00     0.210 C 
ENDBRANCH   6  21
TORSDOF 2
