REMARK  7 active torsions:
REMARK  status: ('A' for Active; 'I' for Inactive)
REMARK    1  A    between atoms: C3_3  and  O1_4 
REMARK    2  A    between atoms: C3_3  and  C5_6 
REMARK    3  A    between atoms: C5_6  and  O2_7 
REMARK    4  A    between atoms: C5_6  and  C7_9 
REMARK    5  A    between atoms: C10_14  and  N3_15 
REMARK    6  A    between atoms: N3_15  and  C11_16 
REMARK    7  A    between atoms: C14_19  and  O3_20 
ROOT
HETATM    1  C7  UNL     1      -0.346  -0.864   0.209  1.00  0.00     0.040 A 
HETATM    2  C8  UNL     1      -0.620  -1.916   1.058  1.00  0.00     0.132 A 
HETATM    3  N1  UNL     1       0.305  -2.635   1.723  1.00  0.00    -0.253 NA
HETATM    4  C9  UNL     1       1.616  -2.321   1.562  1.00  0.00     0.234 A 
HETATM    5  N2  UNL     1       1.905  -1.299   0.739  1.00  0.00    -0.224 NA
HETATM    6  C10 UNL     1       0.998  -0.577   0.074  1.00  0.00     0.136 A 
ENDROOT
BRANCH   6   7
HETATM    7  N3  UNL     1       1.421   0.482  -0.769  1.00  0.00    -0.363 N 
HETATM    8  H14 UNL     1       0.836   1.119  -1.338  1.00  0.00     0.162 HD
BRANCH   7   9
HETATM    9  C11 UNL     1       2.805   0.770  -0.903  1.00  0.00     0.132 A 
HETATM   10  C12 UNL     1       3.444   1.137   0.412  1.00  0.00     0.005 A 
HETATM   11  C13 UNL     1       4.417   0.306   0.756  1.00  0.00     0.034 A 
HETATM   12  C14 UNL     1       4.528  -0.701  -0.297  1.00  0.00     0.064 A 
HETATM   13  C15 UNL     1       3.622  -0.439  -1.228  1.00  0.00     0.038 A 
BRANCH  12  14
HETATM   14  O3  UNL     1       5.433  -1.754  -0.313  1.00  0.00    -0.361 OA
HETATM   15  H18 UNL     1       6.365  -1.670  -0.722  1.00  0.00     0.217 HD
ENDBRANCH  12  14
ENDBRANCH   7   9
ENDBRANCH   6   7
BRANCH   1  16
HETATM   16  C5  UNL     1      -1.437  -0.160  -0.459  1.00  0.00     0.215 C 
BRANCH  16  17
HETATM   17  C3  UNL     1      -2.591   0.176   0.446  1.00  0.00     0.075 C 
HETATM   18  C2  UNL     1      -2.856   1.435   0.837  1.00  0.00     0.004 C 
HETATM   19  C1  UNL     1      -2.262   2.768   0.603  1.00  0.00     0.038 C 
BRANCH  17  20
HETATM   20  O1  UNL     1      -3.410  -0.866   0.891  1.00  0.00    -0.358 OA
HETATM   21  C4  UNL     1      -4.730  -0.664   1.346  1.00  0.00     0.209 C 
ENDBRANCH  17  20
ENDBRANCH  16  17
BRANCH  16  22
HETATM   22  O2  UNL     1      -1.880  -0.787  -1.613  1.00  0.00    -0.379 OA
HETATM   23  C6  UNL     1      -1.738  -0.035  -2.747  1.00  0.00     0.202 C 
ENDBRANCH  16  22
ENDBRANCH   1  16
TORSDOF 7
