REMARK  5 active torsions:
REMARK  status: ('A' for Active; 'I' for Inactive)
REMARK    1  A    between atoms: O1_2  and  C2_3 
REMARK    2  A    between atoms: C5_7  and  C6_8 
REMARK    3  A    between atoms: C6_8  and  N2_9 
REMARK    4  A    between atoms: N2_9  and  C7_10 
REMARK    5  A    between atoms: C10_13  and  O2_14 
ROOT
HETATM    1  C2  UNL     1      -3.873   0.819   0.254  1.00  0.00     0.082 C 
HETATM    2  C3  UNL     1      -2.757   0.110   0.163  1.00  0.00     0.025 A 
HETATM    3  C4  UNL     1      -2.550  -1.249  -0.327  1.00  0.00     0.132 A 
HETATM    4  N1  UNL     1      -1.295  -1.546  -0.236  1.00  0.00    -0.262 NA
HETATM    5  C5  UNL     1      -0.566  -0.458   0.303  1.00  0.00     0.063 A 
HETATM    6  C13 UNL     1      -1.412   0.531   0.545  1.00  0.00     0.006 A 
HETATM    7  C14 UNL     1      -1.037   1.837   1.110  1.00  0.00     0.038 C 
HETATM    8  C15 UNL     1      -1.764   2.962   1.212  1.00  0.00     0.136 C 
HETATM    9  O3  UNL     1      -3.071   3.048   0.762  1.00  0.00    -0.357 OA
HETATM   10  C16 UNL     1      -4.154   2.180   0.733  1.00  0.00     0.239 C 
ENDROOT
BRANCH   5  11
HETATM   11  C6  UNL     1       0.880  -0.480   0.531  1.00  0.00     0.179 C 
BRANCH  11  12
HETATM   12  N2  UNL     1       1.611  -0.706  -0.724  1.00  0.00    -0.384 N 
HETATM   13  H7  UNL     1       1.119  -0.830  -1.633  1.00  0.00     0.160 HD
BRANCH  12  14
HETATM   14  C7  UNL     1       3.042  -0.762  -0.714  1.00  0.00     0.028 A 
HETATM   15  C8  UNL     1       3.812  -0.970  -1.844  1.00  0.00     0.032 A 
HETATM   16  C9  UNL     1       5.176  -1.017  -1.799  1.00  0.00     0.039 A 
HETATM   17  C10 UNL     1       5.817  -0.853  -0.592  1.00  0.00     0.065 A 
HETATM   18  C11 UNL     1       5.094  -0.641   0.573  1.00  0.00     0.039 A 
HETATM   19  C12 UNL     1       3.735  -0.602   0.472  1.00  0.00     0.032 A 
BRANCH  17  20
HETATM   20  O2  UNL     1       7.194  -0.889  -0.475  1.00  0.00    -0.361 OA
HETATM   21  H10 UNL     1       7.595  -1.428   0.305  1.00  0.00     0.217 HD
ENDBRANCH  17  20
ENDBRANCH  12  14
ENDBRANCH  11  12
ENDBRANCH   5  11
BRANCH   1  22
HETATM   22  O1  UNL     1      -4.989   0.125  -0.196  1.00  0.00    -0.357 OA
HETATM   23  C1  UNL     1      -5.723  -0.742   0.652  1.00  0.00     0.209 C 
ENDBRANCH   1  22
TORSDOF 5
