REMARK  3 active torsions:
REMARK  status: ('A' for Active; 'I' for Inactive)
REMARK    1  A    between atoms: O1_2  and  C2_3 
REMARK    2  A    between atoms: C6_9  and  C7_10 
REMARK    3  A    between atoms: C15_19  and  O3_20 
ROOT
HETATM    1  C2  UNL     1       2.901   0.344  -1.273  1.00  0.00     0.103 A 
HETATM    2  C3  UNL     1       2.481  -0.903  -1.738  1.00  0.00     0.072 A 
HETATM    3  C4  UNL     1       1.304  -1.475  -1.329  1.00  0.00     0.073 A 
HETATM    4  N1  UNL     1       0.838  -2.642  -1.787  1.00  0.00    -0.241 NA
HETATM    5  C5  UNL     1      -0.337  -3.146  -1.400  1.00  0.00     0.234 A 
HETATM    6  N2  UNL     1      -1.091  -2.481  -0.522  1.00  0.00    -0.240 NA
HETATM    7  C6  UNL     1      -0.729  -1.286   0.021  1.00  0.00     0.080 A 
HETATM    8  C13 UNL     1       0.480  -0.852  -0.439  1.00  0.00     0.025 A 
HETATM    9  C14 UNL     1       0.876   0.369   0.022  1.00  0.00     0.055 A 
HETATM   10  C15 UNL     1       2.035   0.964  -0.363  1.00  0.00     0.102 A 
ENDROOT
BRANCH   7  11
HETATM   11  C7  UNL     1      -1.706  -0.759   0.931  1.00  0.00    -0.008 C 
HETATM   12  C8  UNL     1      -1.658   0.051   1.964  1.00  0.00     0.013 C 
HETATM   13  C9  UNL     1      -2.429   0.738   3.020  1.00  0.00     0.196 C 
HETATM   14  O2  UNL     1      -3.713   0.196   3.039  1.00  0.00    -0.384 OA
HETATM   15  C10 UNL     1      -4.442   0.409   1.896  1.00  0.00     0.195 C 
HETATM   16  C11 UNL     1      -4.362  -0.785   0.971  1.00  0.00     0.000 C 
HETATM   17  C12 UNL     1      -3.113  -1.172   0.643  1.00  0.00     0.011 C 
ENDBRANCH   7  11
BRANCH  10  18
HETATM   18  O3  UNL     1       2.483   2.201   0.077  1.00  0.00    -0.353 OA
HETATM   19  C16 UNL     1       1.720   2.976   1.013  1.00  0.00     0.210 C 
ENDBRANCH  10  18
BRANCH   1  20
HETATM   20  O1  UNL     1       4.092   0.926  -1.685  1.00  0.00    -0.353 OA
HETATM   21  C1  UNL     1       4.899   0.244  -2.594  1.00  0.00     0.210 C 
ENDBRANCH   1  20
TORSDOF 3
