REMARK  6 active torsions:
REMARK  status: ('A' for Active; 'I' for Inactive)
REMARK    1  A    between atoms: O1_2  and  C2_3 
REMARK    2  A    between atoms: C6_9  and  N3_10 
REMARK    3  A    between atoms: N3_10  and  C7_11 
REMARK    4  A    between atoms: C10_14  and  B1_15 
REMARK    5  A    between atoms: B1_15  and  O2_16 
REMARK    6  A    between atoms: C15_21  and  O3_22 
ROOT
HETATM    1  C2  UNL     1      -3.825  -0.953   0.853  1.00  0.00     0.103 A 
HETATM    2  C3  UNL     1      -3.136  -1.982   0.248  1.00  0.00     0.072 A 
HETATM    3  C4  UNL     1      -1.845  -1.802  -0.118  1.00  0.00     0.075 A 
HETATM    4  N1  UNL     1      -1.224  -2.862  -0.714  1.00  0.00    -0.241 NA
HETATM    5  C5  UNL     1       0.054  -2.772  -1.109  1.00  0.00     0.236 A 
HETATM    6  N2  UNL     1       0.698  -1.620  -0.905  1.00  0.00    -0.224 NA
HETATM    7  C6  UNL     1       0.194  -0.523  -0.336  1.00  0.00     0.142 A 
HETATM    8  C13 UNL     1      -1.119  -0.644   0.060  1.00  0.00     0.042 A 
HETATM    9  C14 UNL     1      -1.849   0.352   0.667  1.00  0.00     0.057 A 
HETATM   10  C15 UNL     1      -3.163   0.240   1.065  1.00  0.00     0.102 A 
ENDROOT
BRANCH   7  11
HETATM   11  N3  UNL     1       0.869   0.698  -0.119  1.00  0.00    -0.340 N 
HETATM   12  H6  UNL     1       0.419   1.502   0.354  1.00  0.00     0.167 HD
BRANCH  11  13
HETATM   13  C7  UNL     1       2.196   1.020  -0.486  1.00  0.00     0.033 A 
HETATM   14  C8  UNL     1       3.003   0.214  -1.255  1.00  0.00     0.029 A 
HETATM   15  C9  UNL     1       4.291   0.506  -1.614  1.00  0.00    -0.001 A 
HETATM   16  C10 UNL     1       4.866   1.684  -1.198  1.00  0.00    -0.070 A 
HETATM   17  C11 UNL     1       4.122   2.534  -0.430  1.00  0.00    -0.001 A 
HETATM   18  C12 UNL     1       2.836   2.187  -0.103  1.00  0.00     0.029 A 
BRANCH  16  19
HETATM   19  B1  UNL     1       6.321   2.080  -1.565  1.00  0.00     0.343 B 
HETATM   20  H9  UNL     1       6.664   3.231  -1.606  1.00  0.00     0.013 HD
BRANCH  19  21
HETATM   21  O2  UNL     1       7.432   1.138  -1.358  1.00  0.00    -0.461 OA
HETATM   22  H10 UNL     1       7.091   0.341  -0.855  1.00  0.00     0.182 HD
ENDBRANCH  19  21
ENDBRANCH  16  19
ENDBRANCH  11  13
ENDBRANCH   7  11
BRANCH  10  23
HETATM   23  O3  UNL     1      -3.836   1.312   1.681  1.00  0.00    -0.353 OA
HETATM   24  C16 UNL     1      -3.123   2.515   1.880  1.00  0.00     0.210 C 
ENDBRANCH  10  23
BRANCH   1  25
HETATM   25  O1  UNL     1      -5.149  -1.043   1.262  1.00  0.00    -0.353 OA
HETATM   26  C1  UNL     1      -5.823  -2.264   1.044  1.00  0.00     0.210 C 
ENDBRANCH   1  25
TORSDOF 6
