REMARK  6 active torsions:
REMARK  status: ('A' for Active; 'I' for Inactive)
REMARK    1  A    between atoms: C2_2  and  C3_3 
REMARK    2  A    between atoms: C4_4  and  C5_5 
REMARK    3  A    between atoms: C5_5  and  N1_6 
REMARK    4  A    between atoms: N1_6  and  C6_7 
REMARK    5  A    between atoms: C10_13  and  O1_14 
REMARK    6  A    between atoms: C12_16  and  O2_17 
ROOT
HETATM    1  C6  UNL     1       0.563   0.218  -0.578  1.00  0.00     0.137 A 
HETATM    2  N2  UNL     1       1.496  -0.635  -0.193  1.00  0.00    -0.224 NA
HETATM    3  C7  UNL     1       1.209  -1.775   0.455  1.00  0.00     0.235 A 
HETATM    4  N3  UNL     1      -0.079  -2.111   0.749  1.00  0.00    -0.241 NA
HETATM    5  C8  UNL     1      -1.099  -1.291   0.389  1.00  0.00     0.075 A 
HETATM    6  C9  UNL     1      -2.412  -1.604   0.673  1.00  0.00     0.072 A 
HETATM    7  C10 UNL     1      -3.416  -0.749   0.292  1.00  0.00     0.103 A 
HETATM    8  C12 UNL     1      -3.102   0.417  -0.372  1.00  0.00     0.102 A 
HETATM    9  C14 UNL     1      -1.771   0.688  -0.634  1.00  0.00     0.057 A 
HETATM   10  C15 UNL     1      -0.732  -0.142  -0.270  1.00  0.00     0.041 A 
ENDROOT
BRANCH   1  11
HETATM   11  N1  UNL     1       0.908   1.426  -1.268  1.00  0.00    -0.371 N 
HETATM   12  H10 UNL     1       0.247   2.155  -1.608  1.00  0.00     0.161 HD
BRANCH  11  13
HETATM   13  C5  UNL     1       2.327   1.672  -1.524  1.00  0.00     0.148 C 
BRANCH  13  14
HETATM   14  C4  UNL     1       3.102   1.743  -0.272  1.00  0.00    -0.011 C 
HETATM   15  C3  UNL     1       4.117   1.062   0.233  1.00  0.00    -0.029 C 
BRANCH  15  16
HETATM   16  C2  UNL     1       4.770  -0.076  -0.462  1.00  0.00     0.022 C 
HETATM   17  C1  UNL     1       4.665  -1.359   0.371  1.00  0.00     0.009 C 
ENDBRANCH  15  16
ENDBRANCH  13  14
ENDBRANCH  11  13
ENDBRANCH   1  11
BRANCH   8  18
HETATM   18  O2  UNL     1      -4.141   1.261  -0.743  1.00  0.00    -0.353 OA
HETATM   19  C13 UNL     1      -3.785   2.451  -1.423  1.00  0.00     0.210 C 
ENDBRANCH   8  18
BRANCH   7  20
HETATM   20  O1  UNL     1      -4.749  -1.032   0.561  1.00  0.00    -0.353 OA
HETATM   21  C11 UNL     1      -5.181  -2.182   1.226  1.00  0.00     0.210 C 
ENDBRANCH   7  20
TORSDOF 6
