REMARK  5 active torsions:
REMARK  status: ('A' for Active; 'I' for Inactive)
REMARK    1  A    between atoms: C2_2  and  C3_3 
REMARK    2  A    between atoms: C6_6  and  N1_7 
REMARK    3  A    between atoms: N1_7  and  C7_8 
REMARK    4  A    between atoms: C10_11  and  O1_12 
REMARK    5  A    between atoms: C16_20  and  O2_21 
ROOT
HETATM    1  C3  UNL     1      -2.422  -0.563   0.896  1.00  0.00    -0.024 A 
HETATM    2  C4  UNL     1      -1.074  -0.412   0.649  1.00  0.00     0.027 A 
HETATM    3  C5  UNL     1      -0.479   0.643  -0.004  1.00  0.00     0.039 A 
HETATM    4  C6  UNL     1       0.865   0.755  -0.229  1.00  0.00     0.142 A 
HETATM    5  N2  UNL     1       1.238   1.860  -0.883  1.00  0.00    -0.224 NA
HETATM    6  C13 UNL     1       0.400   2.796  -1.298  1.00  0.00     0.236 A 
HETATM    7  N3  UNL     1      -0.943   2.687  -1.074  1.00  0.00    -0.241 NA
HETATM    8  C14 UNL     1      -1.383   1.597  -0.420  1.00  0.00     0.074 A 
HETATM    9  C15 UNL     1      -2.737   1.507  -0.206  1.00  0.00     0.070 A 
HETATM   10  C16 UNL     1      -3.277   0.425   0.455  1.00  0.00     0.076 A 
ENDROOT
BRANCH   4  11
HETATM   11  N1  UNL     1       1.738  -0.251   0.230  1.00  0.00    -0.340 N 
HETATM   12  H7  UNL     1       1.401  -1.061   0.748  1.00  0.00     0.167 HD
BRANCH  11  13
HETATM   13  C7  UNL     1       3.144  -0.332   0.076  1.00  0.00     0.033 A 
HETATM   14  C8  UNL     1       3.855   0.518  -0.738  1.00  0.00     0.032 A 
HETATM   15  C9  UNL     1       5.218   0.477  -0.905  1.00  0.00     0.039 A 
HETATM   16  C10 UNL     1       5.968  -0.459  -0.236  1.00  0.00     0.065 A 
HETATM   17  C11 UNL     1       5.311  -1.341   0.596  1.00  0.00     0.039 A 
HETATM   18  C12 UNL     1       3.945  -1.247   0.720  1.00  0.00     0.032 A 
BRANCH  16  19
HETATM   19  O1  UNL     1       7.344  -0.617  -0.308  1.00  0.00    -0.361 OA
HETATM   20  H10 UNL     1       7.877   0.251  -0.444  1.00  0.00     0.217 HD
ENDBRANCH  16  19
ENDBRANCH  11  13
ENDBRANCH   4  11
BRANCH   1  21
HETATM   21  C2  UNL     1      -3.005  -1.722   1.603  1.00  0.00     0.037 C 
HETATM   22  C1  UNL     1      -3.682  -2.683   0.630  1.00  0.00     0.010 C 
ENDBRANCH   1  21
BRANCH  10  23
HETATM   23  O2  UNL     1      -4.641   0.312   0.682  1.00  0.00    -0.355 OA
HETATM   24  C17 UNL     1      -5.505   1.350   0.216  1.00  0.00     0.210 C 
ENDBRANCH  10  23
TORSDOF 5
