REMARK  3 active torsions:
REMARK  status: ('A' for Active; 'I' for Inactive)
REMARK    1  A    between atoms: B1_1  and  C1_2 
REMARK    2  A    between atoms: C2_3  and  C3_4 
REMARK    3  A    between atoms: C14_18  and  O1_19 
ROOT
HETATM    1  C3  UNL     1       2.018   0.390  -0.661  1.00  0.00     0.034 A 
HETATM    2  C4  UNL     1       1.362   1.648  -0.972  1.00  0.00     0.058 A 
HETATM    3  N1  UNL     1       1.013   1.841  -2.206  1.00  0.00    -0.245 NA
HETATM    4  C5  UNL     1       1.321   0.782  -3.048  1.00  0.00     0.235 A 
HETATM    5  N2  UNL     1       1.926  -0.420  -2.791  1.00  0.00    -0.224 NA
HETATM    6  C6  UNL     1       2.316  -0.691  -1.535  1.00  0.00     0.137 A 
HETATM    7  N3  UNL     1       2.818  -1.773  -0.773  1.00  0.00    -0.371 N 
HETATM    8  C7  UNL     1       1.795  -2.579  -0.048  1.00  0.00     0.148 C 
HETATM    9  C8  UNL     1       0.620  -1.764   0.297  1.00  0.00    -0.007 C 
HETATM   10  C9  UNL     1      -0.631  -1.351   0.384  1.00  0.00     0.004 C 
HETATM   11  C10 UNL     1      -1.720  -0.422   0.800  1.00  0.00    -0.060 C 
HETATM   12  C11 UNL     1      -2.834  -0.963   0.370  1.00  0.00    -0.024 C 
HETATM   13  C12 UNL     1      -4.116  -0.281   0.623  1.00  0.00     0.036 C 
HETATM   14  C13 UNL     1      -1.332   0.915   1.323  1.00  0.00     0.071 C 
HETATM   15  C14 UNL     1      -0.044   1.358   0.506  1.00  0.00     0.057 C 
HETATM   16  C16 UNL     1       1.294   1.991   0.404  1.00  0.00     0.157 C 
HETATM   17  H4  UNL     1       3.757  -1.489  -1.095  1.00  0.00     0.161 HD
ENDROOT
BRANCH   1  18
HETATM   18  C2  UNL     1       2.783   0.237   0.645  1.00  0.00     0.010 C 
HETATM   19  C1  UNL     1       2.794   0.227   1.960  1.00  0.00    -0.118 C 
BRANCH  19  20
HETATM   20  B1  UNL     1       1.948   0.444   3.499  1.00  0.00     0.157 B 
HETATM   21  H1  UNL     1       1.416  -0.205   4.846  1.00  0.00    -0.030 HD
ENDBRANCH  19  20
ENDBRANCH   1  18
BRANCH  15  22
HETATM   22  O1  UNL     1      -0.664   0.807  -0.714  1.00  0.00    -0.389 OA
HETATM   23  C15 UNL     1      -1.593   1.725  -1.292  1.00  0.00     0.202 C 
ENDBRANCH  15  22
TORSDOF 3
