REMARK  3 active torsions:
REMARK  status: ('A' for Active; 'I' for Inactive)
REMARK    1  A    between atoms: C2_2  and  C3_3 
REMARK    2  A    between atoms: C8_8  and  O1_9 
REMARK    3  A    between atoms: O1_9  and  C9_10 
ROOT
HETATM    1  C3  UNL     1       1.091  -1.607  -0.408  1.00  0.00     0.109 C 
HETATM    2  C4  UNL     1       1.706  -0.500  -1.122  1.00  0.00     0.043 C 
HETATM    3  C5  UNL     1       1.782   0.804  -1.343  1.00  0.00     0.008 C 
HETATM    4  C6  UNL     1       1.082   2.049  -0.817  1.00  0.00     0.159 C 
HETATM    5  C7  UNL     1      -0.350   1.557  -0.718  1.00  0.00     0.068 C 
HETATM    6  C8  UNL     1      -1.278   0.977  -0.034  1.00  0.00     0.179 C 
HETATM    7  O2  UNL     1      -1.273   0.423   1.276  1.00  0.00    -0.318 OA
HETATM    8  C11 UNL     1       0.135   0.391   1.691  1.00  0.00     0.096 C 
HETATM    9  C12 UNL     1       1.402   0.860   2.012  1.00  0.00     0.107 C 
HETATM   10  C13 UNL     1       2.791   1.287   2.375  1.00  0.00     0.117 C 
HETATM   11  N1  UNL     1       2.858   2.579   2.024  1.00  0.00    -0.255 NA
HETATM   12  C14 UNL     1       1.594   3.023   1.431  1.00  0.00     0.227 C 
HETATM   13  N2  UNL     1       1.719   2.336   0.367  1.00  0.00    -0.270 NA
HETATM   14  C15 UNL     1       0.357  -1.057   1.858  1.00  0.00     0.214 C 
HETATM   15  O3  UNL     1       0.096  -1.686   0.572  1.00  0.00    -0.340 OA
ENDROOT
BRANCH   6  16
HETATM   16  O1  UNL     1      -2.602   0.569  -0.054  1.00  0.00    -0.331 OA
BRANCH  16  17
HETATM   17  C9  UNL     1      -3.112  -0.107  -1.210  1.00  0.00     0.173 C 
HETATM   18  C10 UNL     1      -4.548  -0.454  -0.993  1.00  0.00     0.034 C 
ENDBRANCH  16  17
ENDBRANCH   6  16
BRANCH   1  19
HETATM   19  C2  UNL     1       1.460  -2.836  -0.645  1.00  0.00    -0.119 C 
HETATM   20  C1  UNL     1       1.762  -4.011  -1.165  1.00  0.00     0.099 C 
ENDBRANCH   1  19
TORSDOF 3
