REMARK  5 active torsions:
REMARK  status: ('A' for Active; 'I' for Inactive)
REMARK    1  A    between atoms: O1_2  and  C2_3 
REMARK    2  A    between atoms: C6_9  and  N3_10 
REMARK    3  A    between atoms: N3_10  and  C7_11 
REMARK    4  A    between atoms: C11_15  and  O2_16 
REMARK    5  A    between atoms: C15_20  and  O3_21 
ROOT
HETATM    1  C2  UNL     1       3.218  -0.178  -0.418  1.00  0.00     0.103 A 
HETATM    2  C3  UNL     1       3.144   0.632  -1.528  1.00  0.00     0.072 A 
HETATM    3  C4  UNL     1       1.781   0.660  -1.979  1.00  0.00     0.075 A 
HETATM    4  N1  UNL     1       1.718   1.498  -3.095  1.00  0.00    -0.241 NA
HETATM    5  C5  UNL     1       0.491   1.722  -3.642  1.00  0.00     0.236 A 
HETATM    6  N2  UNL     1      -0.656   1.151  -3.094  1.00  0.00    -0.224 NA
HETATM    7  C6  UNL     1      -0.354   0.367  -2.026  1.00  0.00     0.141 A 
HETATM    8  C13 UNL     1       0.705  -0.032  -1.363  1.00  0.00     0.042 A 
HETATM    9  C14 UNL     1       0.935  -0.810  -0.299  1.00  0.00     0.057 A 
HETATM   10  C15 UNL     1       2.155  -0.928   0.194  1.00  0.00     0.102 A 
ENDROOT
BRANCH   7  11
HETATM   11  N3  UNL     1      -1.399   0.248  -1.003  1.00  0.00    -0.344 N 
HETATM   12  H6  UNL     1      -1.256   1.194  -0.420  1.00  0.00     0.167 HD
BRANCH  11  13
HETATM   13  C7  UNL     1      -2.378   0.150  -0.034  1.00  0.00     0.013 C 
HETATM   14  C8  UNL     1      -3.527   0.768  -0.369  1.00  0.00     0.002 C 
HETATM   15  C9  UNL     1      -4.915   1.053   0.167  1.00  0.00     0.058 C 
HETATM   16  C10 UNL     1      -5.155  -0.169   1.048  1.00  0.00     0.009 C 
HETATM   17  C11 UNL     1      -4.003  -0.712   1.529  1.00  0.00     0.045 C 
HETATM   18  C12 UNL     1      -2.595  -0.278   1.317  1.00  0.00     0.120 C 
BRANCH  17  19
HETATM   19  O2  UNL     1      -3.998  -1.850   2.370  1.00  0.00    -0.365 OA
HETATM   20  H11 UNL     1      -3.772  -2.687   1.841  1.00  0.00     0.217 HD
ENDBRANCH  17  19
ENDBRANCH  11  13
ENDBRANCH   7  11
BRANCH  10  21
HETATM   21  O3  UNL     1       2.626  -1.595   1.163  1.00  0.00    -0.353 OA
HETATM   22  C16 UNL     1       2.745  -2.257   2.286  1.00  0.00     0.210 C 
ENDBRANCH  10  21
BRANCH   1  23
HETATM   23  O1  UNL     1       4.389  -0.287   0.392  1.00  0.00    -0.353 OA
HETATM   24  C1  UNL     1       5.299   0.831   0.284  1.00  0.00     0.210 C 
ENDBRANCH   1  23
TORSDOF 5
