REMARK  3 active torsions:
REMARK  status: ('A' for Active; 'I' for Inactive)
REMARK    1  A    between atoms: C2_2  and  C3_3 
REMARK    2  A    between atoms: C9_13  and  N3_14 
REMARK    3  A    between atoms: C13_18  and  O2_19 
ROOT
HETATM    1  C3  UNL     1      -3.482  -0.269  -0.730  1.00  0.00     0.067 C 
HETATM    2  C4  UNL     1      -3.121   0.922  -1.592  1.00  0.00     0.179 C 
HETATM    3  O1  UNL     1      -2.173   1.638  -0.833  1.00  0.00    -0.386 OA
HETATM    4  C5  UNL     1      -0.931   0.974  -1.046  1.00  0.00     0.212 C 
HETATM    5  C6  UNL     1      -0.955  -0.357  -0.404  1.00  0.00     0.037 A 
HETATM    6  C7  UNL     1      -2.217  -0.889  -0.274  1.00  0.00     0.056 A 
HETATM    7  N1  UNL     1      -2.330  -2.107   0.333  1.00  0.00    -0.222 NA
HETATM    8  C8  UNL     1      -1.210  -2.741   0.780  1.00  0.00     0.225 A 
HETATM    9 CL1  UNL     1      -1.279  -4.303   1.568  1.00  0.00    -0.041 Cl
HETATM   10  N2  UNL     1      -0.017  -2.158   0.616  1.00  0.00    -0.200 NA
HETATM   11  C9  UNL     1       0.194  -0.966   0.032  1.00  0.00     0.143 A 
ENDROOT
BRANCH  11  12
HETATM   12  N3  UNL     1       1.513  -0.475  -0.106  1.00  0.00    -0.338 N 
HETATM   13  C10 UNL     1       1.895   0.546  -0.980  1.00  0.00     0.089 C 
HETATM   14  C11 UNL     1       2.733   1.563  -0.852  1.00  0.00    -0.003 C 
HETATM   15  C12 UNL     1       3.559   1.918   0.358  1.00  0.00     0.092 C 
HETATM   16  C13 UNL     1       4.301   0.676   0.771  1.00  0.00     0.044 C 
HETATM   17  C14 UNL     1       3.742  -0.515   0.901  1.00  0.00     0.025 C 
HETATM   18  C15 UNL     1       2.459  -1.189   0.771  1.00  0.00     0.160 C 
BRANCH  16  19
HETATM   19  O2  UNL     1       5.657   0.833   1.024  1.00  0.00    -0.365 OA
HETATM   20  H13 UNL     1       6.121   1.644   0.682  1.00  0.00     0.217 HD
ENDBRANCH  16  19
ENDBRANCH  11  12
BRANCH   1  21
HETATM   21  C2  UNL     1      -4.174   0.260   0.477  1.00  0.00     0.002 C 
HETATM   22  C1  UNL     1      -4.429  -0.842   1.208  1.00  0.00     0.006 C 
ENDBRANCH   1  21
TORSDOF 3
