REMARK  7 active torsions:
REMARK  status: ('A' for Active; 'I' for Inactive)
REMARK    1  A    between atoms: O1_2  and  C2_3 
REMARK    2  A    between atoms: C7_11  and  N3_12 
REMARK    3  A    between atoms: N3_12  and  C8_13 
REMARK    4  A    between atoms: C10_15  and  O2_16 
REMARK    5  A    between atoms: C12_18  and  O3_19 
REMARK    6  A    between atoms: C14_21  and  O4_22 
REMARK    7  A    between atoms: C19_27  and  O5_28 
ROOT
HETATM    1  C2  UNL     1      -4.106   0.646   0.546  1.00  0.00     0.079 C 
HETATM    2  C3  UNL     1      -2.872   0.199   0.430  1.00  0.00     0.053 C 
HETATM    3  C4  UNL     1      -2.347  -1.017  -0.120  1.00  0.00     0.041 A 
HETATM    4  C5  UNL     1      -3.108  -2.122  -0.425  1.00  0.00     0.074 A 
HETATM    5  N1  UNL     1      -2.553  -3.247  -0.937  1.00  0.00    -0.218 NA
HETATM    6  C6  UNL     1      -1.229  -3.228  -1.131  1.00  0.00     0.225 A 
HETATM    7 CL1  UNL     1      -0.363  -4.617  -1.791  1.00  0.00    -0.041 Cl
HETATM    8  N2  UNL     1      -0.536  -2.145  -0.825  1.00  0.00    -0.200 NA
HETATM    9  C7  UNL     1      -1.001  -0.998  -0.317  1.00  0.00     0.144 A 
HETATM   10  C17 UNL     1      -4.549  -2.352  -0.299  1.00  0.00     0.031 C 
HETATM   11  C18 UNL     1      -5.421  -1.376  -0.055  1.00  0.00     0.013 C 
HETATM   12  C19 UNL     1      -5.406   0.073   0.163  1.00  0.00     0.197 C 
ENDROOT
BRANCH   9  13
HETATM   13  N3  UNL     1      -0.194   0.132  -0.039  1.00  0.00    -0.340 N 
HETATM   14  H5  UNL     1      -0.496   1.067   0.274  1.00  0.00     0.167 HD
BRANCH  13  15
HETATM   15  C8  UNL     1       1.221   0.239  -0.137  1.00  0.00     0.039 A 
HETATM   16  C9  UNL     1       1.963   1.403  -0.175  1.00  0.00     0.069 A 
HETATM   17  C10 UNL     1       3.332   1.440  -0.270  1.00  0.00     0.106 A 
HETATM   18  C12 UNL     1       4.060   0.277  -0.333  1.00  0.00     0.135 A 
HETATM   19  C14 UNL     1       3.354  -0.930  -0.296  1.00  0.00     0.106 A 
HETATM   20  C16 UNL     1       1.967  -0.910  -0.200  1.00  0.00     0.069 A 
BRANCH  17  21
HETATM   21  O2  UNL     1       3.939   2.692  -0.298  1.00  0.00    -0.353 OA
HETATM   22  C11 UNL     1       3.147   3.885  -0.232  1.00  0.00     0.210 C 
ENDBRANCH  17  21
BRANCH  18  23
HETATM   23  O3  UNL     1       5.429   0.437  -0.427  1.00  0.00    -0.351 OA
HETATM   24  C13 UNL     1       6.326   0.517   0.635  1.00  0.00     0.210 C 
ENDBRANCH  18  23
BRANCH  19  25
HETATM   25  O4  UNL     1       4.169  -2.036  -0.364  1.00  0.00    -0.353 OA
HETATM   26  C15 UNL     1       3.782  -3.373  -0.348  1.00  0.00     0.210 C 
ENDBRANCH  19  25
ENDBRANCH  13  15
ENDBRANCH   9  13
BRANCH   1  27
HETATM   27  O1  UNL     1      -4.271   1.914   1.147  1.00  0.00    -0.357 OA
HETATM   28  C1  UNL     1      -4.036   2.992   0.221  1.00  0.00     0.209 C 
ENDBRANCH   1  27
BRANCH  12  29
HETATM   29  O5  UNL     1      -6.016   0.808  -0.860  1.00  0.00    -0.385 OA
HETATM   30  H20 UNL     1      -5.416   0.766  -1.641  1.00  0.00     0.210 HD
ENDBRANCH  12  29
TORSDOF 7
