REMARK  6 active torsions:
REMARK  status: ('A' for Active; 'I' for Inactive)
REMARK    1  A    between atoms: O1_2  and  C2_3 
REMARK    2  A    between atoms: C4_5  and  O2_6 
REMARK    3  A    between atoms: C6_8  and  N1_9 
REMARK    4  A    between atoms: C11_15  and  O3_16 
REMARK    5  A    between atoms: C13_18  and  O4_19 
REMARK    6  A    between atoms: O4_19  and  C14_20 
ROOT
HETATM    1  N1  UNL     1      -0.652   1.440  -0.447  1.00  0.00    -0.308 N 
HETATM    2  C7  UNL     1       0.111   1.978  -1.450  1.00  0.00     0.385 A 
HETATM    3  N2  UNL     1       0.890   1.408  -1.011  1.00  0.00     0.120 N 
HETATM    4  C8  UNL     1       0.381   0.779   0.010  1.00  0.00     0.317 A 
HETATM    5  C9  UNL     1       1.726   0.358   0.031  1.00  0.00     0.045 A 
HETATM    6  C10 UNL     1       2.328  -0.526   0.950  1.00  0.00     0.051 A 
HETATM    7  C11 UNL     1       3.696  -0.812   0.786  1.00  0.00     0.101 A 
HETATM    8  C13 UNL     1       4.303  -0.184  -0.273  1.00  0.00     0.103 A 
HETATM    9  C15 UNL     1       3.764   0.678  -1.186  1.00  0.00     0.077 A 
HETATM   10  C16 UNL     1       2.365   1.011  -1.073  1.00  0.00     0.288 A 
HETATM   11  N3  UNL     1       1.423   1.745  -1.661  1.00  0.00    -0.023 NA
ENDROOT
BRANCH   1  12
HETATM   12  C6  UNL     1      -2.026   1.445   0.091  1.00  0.00     0.142 A 
HETATM   13  C4  UNL     1      -3.012   0.794  -0.808  1.00  0.00     0.172 A 
HETATM   14  C3  UNL     1      -3.848  -0.238  -0.176  1.00  0.00     0.043 A 
HETATM   15  C2  UNL     1      -3.886  -0.709   1.079  1.00  0.00     0.066 A 
HETATM   16  C18 UNL     1      -2.912  -0.058   1.943  1.00  0.00     0.034 A 
HETATM   17  C17 UNL     1      -2.164   0.852   1.420  1.00  0.00     0.004 A 
BRANCH  13  18
HETATM   18  O2  UNL     1      -2.285   0.274  -1.898  1.00  0.00    -0.384 OA
HETATM   19  C5  UNL     1      -2.707   0.863  -3.083  1.00  0.00     0.202 C 
ENDBRANCH  13  18
BRANCH  15  20
HETATM   20  O1  UNL     1      -4.741  -1.699   1.532  1.00  0.00    -0.356 OA
HETATM   21  C1  UNL     1      -6.141  -1.638   1.240  1.00  0.00     0.210 C 
ENDBRANCH  15  20
ENDBRANCH   1  12
BRANCH   7  22
HETATM   22  O3  UNL     1       4.317  -1.658   1.648  1.00  0.00    -0.353 OA
HETATM   23  C12 UNL     1       3.584  -2.247   2.706  1.00  0.00     0.210 C 
ENDBRANCH   7  22
BRANCH   8  24
HETATM   24  O4  UNL     1       5.643  -0.393  -0.525  1.00  0.00    -0.334 OA
BRANCH  24  25
HETATM   25  C14 UNL     1       6.356   0.194  -1.571  1.00  0.00     0.290 C 
HETATM   26 CL1  UNL     1       8.047  -0.393  -1.469  1.00  0.00    -0.102 Cl
ENDBRANCH  24  25
ENDBRANCH   8  24
TORSDOF 6
