REMARK  6 active torsions:
REMARK  status: ('A' for Active; 'I' for Inactive)
REMARK    1  A    between atoms: O1_2  and  C2_3 
REMARK    2  A    between atoms: C6_7  and  N1_8 
REMARK    3  A    between atoms: N1_8  and  C7_9 
REMARK    4  A    between atoms: C11_16  and  O2_17 
REMARK    5  A    between atoms: C13_19  and  O3_20 
REMARK    6  A    between atoms: C18_25  and  O4_26 
ROOT
HETATM    1  C7  UNL     1      -0.831   0.624   0.402  1.00  0.00     0.144 A 
HETATM    2  N2  UNL     1      -0.221   1.823   0.436  1.00  0.00    -0.200 NA
HETATM    3  C8  UNL     1      -0.946   2.945   0.273  1.00  0.00     0.225 A 
HETATM    4 CL1  UNL     1      -0.219   4.525   0.306  1.00  0.00    -0.041 Cl
HETATM    5  N3  UNL     1      -2.272   2.824   0.078  1.00  0.00    -0.218 NA
HETATM    6  C9  UNL     1      -2.909   1.632   0.039  1.00  0.00     0.077 A 
HETATM    7  C10 UNL     1      -4.278   1.532  -0.163  1.00  0.00     0.072 A 
HETATM    8  C11 UNL     1      -4.915   0.296  -0.200  1.00  0.00     0.103 A 
HETATM    9  C13 UNL     1      -4.158  -0.845  -0.030  1.00  0.00     0.102 A 
HETATM   10  C15 UNL     1      -2.788  -0.779   0.174  1.00  0.00     0.057 A 
HETATM   11  C16 UNL     1      -2.187   0.461   0.205  1.00  0.00     0.042 A 
ENDROOT
BRANCH   1  12
HETATM   12  N1  UNL     1       0.007  -0.483   0.582  1.00  0.00    -0.340 N 
HETATM   13  H8  UNL     1      -0.172  -1.510   0.605  1.00  0.00     0.167 HD
BRANCH  12  14
HETATM   14  C6  UNL     1       1.404  -0.340   0.784  1.00  0.00     0.033 C 
HETATM   15  C5  UNL     1       1.907   0.345   1.799  1.00  0.00     0.006 C 
HETATM   16  C4  UNL     1       3.227   0.724   2.354  1.00  0.00     0.059 C 
HETATM   17  C3  UNL     1       4.362   0.429   1.451  1.00  0.00     0.017 C 
HETATM   18  C2  UNL     1       4.614  -0.228   0.331  1.00  0.00     0.098 C 
HETATM   19  C18 UNL     1       3.572  -0.951  -0.386  1.00  0.00     0.103 C 
HETATM   20  C17 UNL     1       2.253  -0.999  -0.202  1.00  0.00     0.068 C 
BRANCH  18  21
HETATM   21  O1  UNL     1       5.894  -0.211  -0.144  1.00  0.00    -0.353 OA
HETATM   22  C1  UNL     1       6.627   0.944  -0.412  1.00  0.00     0.210 C 
ENDBRANCH  18  21
BRANCH  19  23
HETATM   23  O4  UNL     1       4.050  -1.729  -1.454  1.00  0.00    -0.353 OA
HETATM   24  C19 UNL     1       4.047  -1.250  -2.782  1.00  0.00     0.210 C 
ENDBRANCH  19  23
ENDBRANCH  12  14
ENDBRANCH   1  12
BRANCH   9  25
HETATM   25  O3  UNL     1      -4.789  -2.086  -0.066  1.00  0.00    -0.353 OA
HETATM   26  C14 UNL     1      -4.092  -3.291   0.097  1.00  0.00     0.210 C 
ENDBRANCH   9  25
BRANCH   8  27
HETATM   27  O2  UNL     1      -6.276   0.152  -0.399  1.00  0.00    -0.353 OA
HETATM   28  C12 UNL     1      -7.151   1.242  -0.583  1.00  0.00     0.210 C 
ENDBRANCH   8  27
TORSDOF 6
