REMARK  7 active torsions:
REMARK  status: ('A' for Active; 'I' for Inactive)
REMARK    1  A    between atoms: O1_2  and  C2_3 
REMARK    2  A    between atoms: C2_3  and  O4_23 
REMARK    3  A    between atoms: C3_4  and  C4_5 
REMARK    4  A    between atoms: C5_6  and  N1_8 
REMARK    5  A    between atoms: N1_8  and  C7_9 
REMARK    6  A    between atoms: C11_15  and  O2_16 
REMARK    7  A    between atoms: C13_18  and  O3_19 
ROOT
HETATM    1  C7  UNL     1      -0.431   0.112   0.568  1.00  0.00     0.141 A 
HETATM    2  N2  UNL     1       0.414   1.150   0.685  1.00  0.00    -0.224 NA
HETATM    3  C8  UNL     1      -0.059   2.428   0.762  1.00  0.00     0.236 A 
HETATM    4  N3  UNL     1      -1.409   2.636   0.718  1.00  0.00    -0.241 NA
HETATM    5  C9  UNL     1      -2.240   1.583   0.600  1.00  0.00     0.075 A 
HETATM    6  C10 UNL     1      -3.596   1.882   0.563  1.00  0.00     0.072 A 
HETATM    7  C11 UNL     1      -4.460   0.809   0.442  1.00  0.00     0.103 A 
HETATM    8  C13 UNL     1      -4.011  -0.493   0.362  1.00  0.00     0.102 A 
HETATM    9  C15 UNL     1      -2.662  -0.784   0.399  1.00  0.00     0.057 A 
HETATM   10  C16 UNL     1      -1.799   0.280   0.520  1.00  0.00     0.042 A 
ENDROOT
BRANCH   1  11
HETATM   11  N1  UNL     1       0.152  -1.172   0.494  1.00  0.00    -0.344 N 
HETATM   12  H9  UNL     1      -0.248  -2.107   0.405  1.00  0.00     0.167 HD
BRANCH  11  13
HETATM   13  C5  UNL     1       1.568  -1.300   0.545  1.00  0.00     0.007 C 
HETATM   14  C4  UNL     1       2.319  -0.637  -0.350  1.00  0.00     0.029 C 
HETATM   15  C6  UNL     1       2.305  -2.141   1.548  1.00  0.00     0.068 C 
BRANCH  14  16
HETATM   16  C3  UNL     1       3.769  -0.764  -0.303  1.00  0.00     0.065 C 
HETATM   17  C2  UNL     1       4.498  -0.115  -1.179  1.00  0.00     0.179 C 
BRANCH  17  18
HETATM   18  O1  UNL     1       3.572   0.562  -1.960  1.00  0.00    -0.336 OA
HETATM   19  C1  UNL     1       3.767   0.804  -3.335  1.00  0.00     0.212 C 
ENDBRANCH  17  18
BRANCH  17  20
HETATM   20  O4  UNL     1       5.865  -0.133  -1.263  1.00  0.00    -0.336 OA
HETATM   21  C17 UNL     1       6.660   0.233  -0.154  1.00  0.00     0.212 C 
ENDBRANCH  17  20
ENDBRANCH  14  16
ENDBRANCH  11  13
ENDBRANCH   1  11
BRANCH   8  22
HETATM   22  O3  UNL     1      -4.924  -1.507   0.243  1.00  0.00    -0.353 OA
HETATM   23  C14 UNL     1      -4.603  -2.863   0.153  1.00  0.00     0.210 C 
ENDBRANCH   8  22
BRANCH   7  24
HETATM   24  O2  UNL     1      -5.831   1.060   0.400  1.00  0.00    -0.353 OA
HETATM   25  C12 UNL     1      -6.236   2.418   0.487  1.00  0.00     0.210 C 
ENDBRANCH   7  24
TORSDOF 7
