REMARK  7 active torsions:
REMARK  status: ('A' for Active; 'I' for Inactive)
REMARK    1  A    between atoms: O1_2  and  C2_3 
REMARK    2  A    between atoms: C9_13  and  C10_14 
REMARK    3  A    between atoms: C10_14  and  C11_15 
REMARK    4  A    between atoms: C12_16  and  C13_17 
REMARK    5  A    between atoms: C12_16  and  C14_19 
REMARK    6  A    between atoms: C13_17  and  O3_18 
REMARK    7  A    between atoms: C14_19  and  O4_20 
ROOT
HETATM    1  C2  UNL     1      -2.853   1.284  -0.414  1.00  0.00     0.102 C 
HETATM    2  C3  UNL     1      -4.073   1.668  -0.084  1.00  0.00     0.172 C 
HETATM    3  O2  UNL     1      -5.030   0.840   0.470  1.00  0.00    -0.356 OA
HETATM    4  C4  UNL     1      -5.296  -0.510   0.473  1.00  0.00     0.204 C 
HETATM    5  C5  UNL     1      -4.176  -1.440   0.382  1.00  0.00     0.032 C 
HETATM    6  C6  UNL     1      -2.899  -1.254   0.066  1.00  0.00     0.069 C 
HETATM    7  N1  UNL     1      -2.477  -2.602   0.202  1.00  0.00    -0.242 NA
HETATM    8  C7  UNL     1      -1.441  -3.233  -0.243  1.00  0.00     0.232 C 
HETATM    9  N2  UNL     1      -0.305  -2.843  -1.045  1.00  0.00    -0.258 NA
HETATM   10  C8  UNL     1       0.276  -1.697  -1.155  1.00  0.00     0.099 C 
HETATM   11  C9  UNL     1       0.326  -0.271  -0.744  1.00  0.00     0.053 C 
HETATM   12  C16 UNL     1      -0.993   0.360  -0.604  1.00  0.00     0.000 C 
HETATM   13  C17 UNL     1      -2.221  -0.020  -0.295  1.00  0.00     0.025 C 
ENDROOT
BRANCH  11  14
HETATM   14  C10 UNL     1       1.073  -0.094   0.565  1.00  0.00     0.041 C 
BRANCH  14  15
HETATM   15  C11 UNL     1       2.445  -0.573   0.437  1.00  0.00    -0.014 C 
HETATM   16  C12 UNL     1       3.653  -0.055   0.573  1.00  0.00    -0.005 C 
BRANCH  16  17
HETATM   17  C13 UNL     1       3.993   1.319   0.936  1.00  0.00     0.205 C 
BRANCH  17  18
HETATM   18  O3  UNL     1       2.949   2.172   1.164  1.00  0.00    -0.396 OA
HETATM   19  H16 UNL     1       3.114   2.800   1.918  1.00  0.00     0.209 HD
ENDBRANCH  17  18
ENDBRANCH  16  17
BRANCH  16  20
HETATM   20  C14 UNL     1       4.768  -0.961   0.332  1.00  0.00     0.084 C 
HETATM   21  C15 UNL     1       6.008  -0.584   0.430  1.00  0.00     0.121 C 
HETATM   22 CL1  UNL     1       6.931   0.839   0.806  1.00  0.00    -0.094 Cl
BRANCH  20  23
HETATM   23  O4  UNL     1       4.600  -2.293  -0.020  1.00  0.00    -0.359 OA
HETATM   24  H17 UNL     1       4.636  -3.046   0.676  1.00  0.00     0.217 HD
ENDBRANCH  20  23
ENDBRANCH  16  20
ENDBRANCH  14  15
ENDBRANCH  11  14
BRANCH   1  25
HETATM   25  O1  UNL     1      -2.035   2.260  -0.958  1.00  0.00    -0.353 OA
HETATM   26  C1  UNL     1      -2.360   3.108  -2.018  1.00  0.00     0.210 C 
ENDBRANCH   1  25
TORSDOF 7
