REMARK  3 active torsions:
REMARK  status: ('A' for Active; 'I' for Inactive)
REMARK    1  A    between atoms: O1_2  and  C2_3 
REMARK    2  A    between atoms: C13_18  and  O3_19 
REMARK    3  A    between atoms: C15_21  and  O4_22 
ROOT
HETATM    1  C2  UNL     1       2.575  -0.835  -0.217  1.00  0.00     0.100 C 
HETATM    2  C3  UNL     1       1.510  -1.623  -0.473  1.00  0.00     0.041 C 
HETATM    3  C4  UNL     1       0.162  -1.246  -1.061  1.00  0.00     0.147 C 
HETATM    4  N1  UNL     1       0.349  -0.644  -2.367  1.00  0.00    -0.291 NA
HETATM    5  C5  UNL     1       1.300   0.135  -2.830  1.00  0.00     0.114 C 
HETATM    6  C6  UNL     1       2.437   0.768  -2.115  1.00  0.00     0.058 C 
HETATM    7  C7  UNL     1       2.759   0.506  -0.831  1.00  0.00     0.106 C 
HETATM    8  O2  UNL     1       3.273   1.676  -0.208  1.00  0.00    -0.311 OA
HETATM    9  C8  UNL     1       2.616   2.920  -0.400  1.00  0.00     0.405 C 
HETATM   10  N2  UNL     1       1.569   2.465   0.248  1.00  0.00     0.076 NA
HETATM   11  C9  UNL     1       0.375   3.146   0.512  1.00  0.00     0.812 C 
HETATM   12  N3  UNL     1      -0.880   2.875   0.674  1.00  0.00    -0.246 NA
HETATM   13  C10 UNL     1      -1.363   1.546   0.593  1.00  0.00     0.086 C 
HETATM   14  C11 UNL     1      -0.686   1.026  -0.470  1.00  0.00     0.021 C 
HETATM   15  C12 UNL     1      -0.488  -0.389  -0.053  1.00  0.00     0.099 C 
HETATM   16  C13 UNL     1      -1.933  -0.688   0.237  1.00  0.00     0.091 C 
HETATM   17  C15 UNL     1      -2.182   0.387   1.033  1.00  0.00     0.126 C 
ENDROOT
BRANCH   1  18
HETATM   18  O1  UNL     1       3.502  -1.332   0.652  1.00  0.00    -0.353 OA
HETATM   19  C1  UNL     1       3.486  -1.287   2.044  1.00  0.00     0.210 C 
ENDBRANCH   1  18
BRANCH  16  20
HETATM   20  O3  UNL     1      -3.066  -1.476   0.098  1.00  0.00    -0.357 OA
HETATM   21  C14 UNL     1      -3.502  -2.067  -1.107  1.00  0.00     0.209 C 
ENDBRANCH  16  20
BRANCH  17  22
HETATM   22  O4  UNL     1      -2.975   0.759   2.148  1.00  0.00    -0.351 OA
HETATM   23  C16 UNL     1      -4.211   0.103   2.364  1.00  0.00     0.210 C 
ENDBRANCH  17  22
TORSDOF 3
