REMARK  4 active torsions:
REMARK  status: ('A' for Active; 'I' for Inactive)
REMARK       I    between atoms: C2_2  and  N1_4 
REMARK    1  A    between atoms: N1_4  and  C3_5 
REMARK    2  A    between atoms: C7_9  and  O2_10 
REMARK    3  A    between atoms: O2_10  and  C8_11 
REMARK    4  A    between atoms: C9_13  and  N3_14 
ROOT
HETATM    1  C3  UNL     1      -1.977  -0.676  -0.113  1.00  0.00     0.037 A 
HETATM    2  C4  UNL     1      -2.062  -1.668   0.833  1.00  0.00     0.029 A 
HETATM    3  C5  UNL     1      -1.009  -2.423   1.278  1.00  0.00     0.005 A 
HETATM    4  C6  UNL     1       0.244  -2.191   0.751  1.00  0.00     0.037 A 
HETATM    5  C7  UNL     1       0.364  -1.216  -0.188  1.00  0.00     0.080 A 
HETATM    6  C12 UNL     1      -0.714  -0.472  -0.615  1.00  0.00     0.066 A 
ENDROOT
BRANCH   5   7
HETATM    7  O2  UNL     1       1.600  -0.939  -0.753  1.00  0.00    -0.290 OA
BRANCH   7   8
HETATM    8  C8  UNL     1       2.498  -0.011  -0.243  1.00  0.00     0.212 A 
HETATM    9  N2  UNL     1       3.640   0.073  -0.985  1.00  0.00    -0.036 NA
HETATM   10  C9  UNL     1       4.629   0.904  -0.664  1.00  0.00     0.733 A 
HETATM   11  N4  UNL     1       4.539   1.696   0.408  1.00  0.00    -0.073 NA
HETATM   12  C10 UNL     1       3.436   1.656   1.175  1.00  0.00     0.164 A 
HETATM   13  C11 UNL     1       2.397   0.803   0.865  1.00  0.00     0.105 A 
HETATM   14 CL1  UNL     1       0.894   0.617   1.744  1.00  0.00    -0.078 Cl
BRANCH  10  15
HETATM   15  N3  UNL     1       5.826   1.014  -1.411  1.00  0.00    -0.159 N 
HETATM   16  I1  UNL     1       7.386   2.305  -0.932  1.00  0.00     0.073 I 
HETATM   17  H8  UNL     1       6.157   0.534  -2.267  1.00  0.00     0.191 HD
ENDBRANCH  10  15
ENDBRANCH   7   8
ENDBRANCH   5   7
BRANCH   1  18
HETATM   18  N1  UNL     1      -3.023   0.134  -0.610  1.00  0.00    -0.327 N 
HETATM   19  C2  UNL     1      -4.395   0.132  -0.269  1.00  0.00     0.218 C 
HETATM   20  C1  UNL     1      -5.419   1.025  -0.849  1.00  0.00     0.117 C 
HETATM   21  O1  UNL     1      -4.816  -0.672   0.585  1.00  0.00    -0.274 OA
HETATM   22  H4  UNL     1      -2.828   0.858  -1.334  1.00  0.00     0.169 HD
ENDBRANCH   1  18
TORSDOF 4
