REMARK  5 active torsions:
REMARK  status: ('A' for Active; 'I' for Inactive)
REMARK    1  A    between atoms: O1_2  and  C2_3 
REMARK    2  A    between atoms: N1_6  and  C5_7 
REMARK    3  A    between atoms: C9_13  and  O2_14 
REMARK    4  A    between atoms: C11_16  and  O3_17 
REMARK    5  A    between atoms: C16_22  and  O4_23 
ROOT
HETATM    1  C5  UNL     1      -0.023   1.533  -1.005  1.00  0.00     0.147 A 
HETATM    2  N2  UNL     1      -0.157   2.843  -1.299  1.00  0.00    -0.223 NA
HETATM    3  C6  UNL     1       0.890   3.685  -1.317  1.00  0.00     0.236 A 
HETATM    4  N3  UNL     1       2.140   3.242  -1.036  1.00  0.00    -0.241 NA
HETATM    5  C7  UNL     1       2.347   1.940  -0.733  1.00  0.00     0.075 A 
HETATM    6  C8  UNL     1       3.623   1.473  -0.443  1.00  0.00     0.072 A 
HETATM    7  C9  UNL     1       3.774   0.126  -0.138  1.00  0.00     0.103 A 
HETATM    8  C11 UNL     1       2.709  -0.768  -0.112  1.00  0.00     0.102 A 
HETATM    9  C13 UNL     1       1.463  -0.241  -0.410  1.00  0.00     0.057 A 
HETATM   10  C14 UNL     1       1.257   1.095  -0.720  1.00  0.00     0.042 A 
ENDROOT
BRANCH   1  11
HETATM   11  N1  UNL     1      -1.081   0.583  -0.965  1.00  0.00    -0.313 N 
HETATM   12  C4  UNL     1      -1.485  -0.178  -2.115  1.00  0.00     0.113 C 
HETATM   13  C3  UNL     1      -2.200  -1.231  -1.852  1.00  0.00     0.031 C 
HETATM   14  C2  UNL     1      -3.086  -1.211  -0.871  1.00  0.00     0.115 C 
HETATM   15  C16 UNL     1      -2.748  -0.483   0.359  1.00  0.00     0.118 C 
HETATM   16  C15 UNL     1      -1.764   0.388   0.282  1.00  0.00     0.137 C 
BRANCH  14  17
HETATM   17  O1  UNL     1      -4.262  -1.902  -1.131  1.00  0.00    -0.352 OA
HETATM   18  C1  UNL     1      -5.505  -1.644  -0.552  1.00  0.00     0.210 C 
ENDBRANCH  14  17
BRANCH  15  19
HETATM   19  O4  UNL     1      -3.516  -0.808   1.456  1.00  0.00    -0.352 OA
HETATM   20  C17 UNL     1      -4.240   0.273   2.063  1.00  0.00     0.210 C 
ENDBRANCH  15  19
ENDBRANCH   1  11
BRANCH   8  21
HETATM   21  O3  UNL     1       2.892  -2.115   0.197  1.00  0.00    -0.353 OA
HETATM   22  C12 UNL     1       1.733  -2.930   0.193  1.00  0.00     0.210 C 
ENDBRANCH   8  21
BRANCH   7  23
HETATM   23  O2  UNL     1       5.031  -0.392   0.159  1.00  0.00    -0.353 OA
HETATM   24  C10 UNL     1       6.188   0.431   0.161  1.00  0.00     0.210 C 
ENDBRANCH   7  23
TORSDOF 5
