REMARK  7 active torsions:
REMARK  status: ('A' for Active; 'I' for Inactive)
REMARK    1  A    between atoms: O1_2  and  C2_3 
REMARK    2  A    between atoms: C2_3  and  C3_4 
REMARK    3  A    between atoms: C3_4  and  C4_5 
REMARK    4  A    between atoms: C3_4  and  O4_24 
REMARK    5  A    between atoms: C5_6  and  C6_7 
REMARK    6  A    between atoms: C12_14  and  O2_15 
REMARK    7  A    between atoms: C14_17  and  O3_18 
ROOT
HETATM    1  C6  UNL     1      -0.806  -0.311   0.249  1.00  0.00     0.260 A 
HETATM    2  C7  UNL     1      -0.707  -1.799   0.315  1.00  0.00     0.355 A 
HETATM    3  C8  UNL     1       0.649  -2.335   0.060  1.00  0.00     0.317 A 
HETATM    4  N1  UNL     1       0.264  -1.079   0.076  1.00  0.00     0.052 N 
HETATM    5  C9  UNL     1       1.229  -0.208  -0.163  1.00  0.00     0.225 A 
HETATM    6  C10 UNL     1       2.567  -0.271  -0.434  1.00  0.00     0.047 A 
HETATM    7  C11 UNL     1       3.075   0.978  -0.600  1.00  0.00     0.057 A 
HETATM    8  C12 UNL     1       4.419   0.763  -0.867  1.00  0.00     0.102 A 
HETATM    9  C14 UNL     1       4.987  -0.520  -0.921  1.00  0.00     0.103 A 
HETATM   10  C16 UNL     1       4.231  -1.687  -0.707  1.00  0.00     0.071 A 
HETATM   11  C17 UNL     1       2.885  -1.611  -0.433  1.00  0.00     0.071 A 
HETATM   12  N2  UNL     1       1.949  -2.545  -0.196  1.00  0.00    -0.243 NA
HETATM   13  N3  UNL     1       0.206   0.734  -0.004  1.00  0.00    -0.331 N 
HETATM   14  H18 UNL     1       0.560   1.668  -0.119  1.00  0.00     0.164 HD
ENDROOT
BRANCH   1  15
HETATM   15  C5  UNL     1      -1.922   0.386   0.415  1.00  0.00     0.039 C 
HETATM   16  C4  UNL     1      -3.328   0.194   0.687  1.00  0.00     0.034 C 
BRANCH  16  17
HETATM   17  C3  UNL     1      -4.470   0.806   0.863  1.00  0.00     0.069 C 
BRANCH  17  18
HETATM   18  C2  UNL     1      -5.661  -0.006   1.128  1.00  0.00     0.231 C 
BRANCH  18  19
HETATM   19  O1  UNL     1      -5.416  -1.357   1.160  1.00  0.00    -0.390 OA
HETATM   20  C1  UNL     1      -6.614  -2.038   1.415  1.00  0.00     0.201 C 
ENDBRANCH  18  19
ENDBRANCH  17  18
BRANCH  17  21
HETATM   21  O4  UNL     1      -4.488   2.189   0.788  1.00  0.00    -0.358 OA
HETATM   22  C18 UNL     1      -4.515   2.917  -0.424  1.00  0.00     0.209 C 
ENDBRANCH  17  21
ENDBRANCH  16  17
ENDBRANCH   1  15
BRANCH   8  23
HETATM   23  O2  UNL     1       5.223   1.881  -1.087  1.00  0.00    -0.353 OA
HETATM   24  C13 UNL     1       4.662   3.168  -1.034  1.00  0.00     0.210 C 
ENDBRANCH   8  23
BRANCH   9  25
HETATM   25  O3  UNL     1       6.337  -0.638  -1.193  1.00  0.00    -0.353 OA
HETATM   26  C15 UNL     1       7.056  -1.821  -1.284  1.00  0.00     0.210 C 
ENDBRANCH   9  25
TORSDOF 7
