REMARK  8 active torsions:
REMARK  status: ('A' for Active; 'I' for Inactive)
REMARK    1  A    between atoms: C2_2  and  C3_3 
REMARK    2  A    between atoms: C4_4  and  C5_5 
REMARK    3  A    between atoms: C5_5  and  C6_6 
REMARK    4  A    between atoms: C5_5  and  N4_25 
REMARK    5  A    between atoms: C6_6  and  C7_7 
REMARK    6  A    between atoms: C10_12  and  O1_13 
REMARK    7  A    between atoms: O1_13  and  C11_14 
REMARK    8  A    between atoms: C15_18  and  N2_19 
REMARK       I    between atoms: N2_19  and  C16_20 
ROOT
HETATM    1  C7  UNL     1      -0.048   0.940  -0.417  1.00  0.00     0.130 A 
HETATM    2  N1  UNL     1       0.371   1.442  -1.594  1.00  0.00    -0.244 NA
HETATM    3  C8  UNL     1       1.580   1.188  -2.131  1.00  0.00     0.147 A 
HETATM    4  C9  UNL     1       2.386   0.356  -1.382  1.00  0.00     0.104 A 
HETATM    5 CL1  UNL     1       3.974  -0.047  -1.972  1.00  0.00    -0.078 Cl
HETATM    6  C10 UNL     1       1.998  -0.182  -0.172  1.00  0.00     0.195 A 
HETATM    7  N3  UNL     1       0.769   0.132   0.283  1.00  0.00    -0.207 NA
ENDROOT
BRANCH   1   8
HETATM    8  C6  UNL     1      -1.414   1.317   0.039  1.00  0.00     0.110 C 
BRANCH   8   9
HETATM    9  C5  UNL     1      -2.477   0.348  -0.450  1.00  0.00     0.113 C 
BRANCH   9  10
HETATM   10  C4  UNL     1      -2.248  -1.025   0.024  1.00  0.00    -0.001 C 
HETATM   11  C3  UNL     1      -3.041  -2.030   0.281  1.00  0.00    -0.003 C 
BRANCH  11  12
HETATM   12  C2  UNL     1      -4.468  -2.304   0.238  1.00  0.00    -0.010 C 
HETATM   13  C1  UNL     1      -5.225  -3.377   0.521  1.00  0.00     0.011 C 
ENDBRANCH  11  12
ENDBRANCH   9  10
BRANCH   9  14
HETATM   14  N4  UNL     1      -3.757   0.899  -0.062  1.00  0.00    -0.379 N 
HETATM   15  C19 UNL     1      -3.976   0.960   1.349  1.00  0.00     0.103 C 
HETATM   16  C20 UNL     1      -5.199   1.135   1.828  1.00  0.00     0.102 C 
HETATM   17  N5  UNL     1      -6.251   1.256   0.880  1.00  0.00    -0.391 N 
HETATM   18  C21 UNL     1      -7.605   1.429   1.387  1.00  0.00     0.148 C 
HETATM   19  C22 UNL     1      -6.152   1.230  -0.555  1.00  0.00     0.141 C 
HETATM   20  C23 UNL     1      -4.729   1.357  -1.035  1.00  0.00     0.143 C 
ENDBRANCH   9  14
ENDBRANCH   8   9
ENDBRANCH   1   8
BRANCH   6  21
HETATM   21  O1  UNL     1       2.763  -1.017   0.617  1.00  0.00    -0.290 OA
BRANCH  21  22
HETATM   22  C11 UNL     1       4.047  -1.432   0.287  1.00  0.00     0.080 A 
HETATM   23  C12 UNL     1       4.342  -2.571  -0.440  1.00  0.00     0.037 A 
HETATM   24  C13 UNL     1       5.664  -2.865  -0.697  1.00  0.00     0.005 A 
HETATM   25  C14 UNL     1       6.685  -2.053  -0.247  1.00  0.00     0.029 A 
HETATM   26  C15 UNL     1       6.398  -0.905   0.485  1.00  0.00     0.037 A 
HETATM   27  C18 UNL     1       5.060  -0.616   0.740  1.00  0.00     0.066 A 
BRANCH  26  28
HETATM   28  N2  UNL     1       7.434  -0.031   0.972  1.00  0.00    -0.327 N 
HETATM   29  C16 UNL     1       7.894   1.057   0.172  1.00  0.00     0.218 C 
HETATM   30  C17 UNL     1       8.949   1.993   0.602  1.00  0.00     0.117 C 
HETATM   31  O2  UNL     1       7.306   1.148  -0.957  1.00  0.00    -0.274 OA
HETATM   32  H13 UNL     1       7.867  -0.173   1.913  1.00  0.00     0.169 HD
ENDBRANCH  26  28
ENDBRANCH  21  22
ENDBRANCH   6  21
TORSDOF 8
