REMARK  8 active torsions:
REMARK  status: ('A' for Active; 'I' for Inactive)
REMARK    1  A    between atoms: O1_2  and  C2_3 
REMARK    2  A    between atoms: C5_6  and  N1_7 
REMARK    3  A    between atoms: N1_7  and  C6_8 
REMARK    4  A    between atoms: C6_8  and  C15_21 
REMARK    5  A    between atoms: C7_10  and  B1_11 
REMARK    6  A    between atoms: C10_14  and  O2_15 
REMARK    7  A    between atoms: C12_17  and  O3_18 
REMARK    8  A    between atoms: C17_23  and  O4_24 
ROOT
HETATM    1  C6  UNL     1       0.153   0.970  -2.241  1.00  0.00     0.159 A 
HETATM    2  N2  UNL     1       0.119   2.743  -3.148  1.00  0.00    -0.269 NA
HETATM    3  C7  UNL     1       0.706   2.512  -2.841  1.00  0.00     0.020 A 
ENDROOT
BRANCH   1   4
HETATM    4  N1  UNL     1      -0.956   0.053  -2.116  1.00  0.00    -0.358 N 
HETATM    5  H6  UNL     1      -0.928  -0.558  -2.940  1.00  0.00     0.162 HD
BRANCH   4   6
HETATM    6  C5  UNL     1      -1.646   0.303  -0.925  1.00  0.00     0.033 A 
HETATM    7  C4  UNL     1      -2.544  -0.689  -0.674  1.00  0.00     0.032 A 
HETATM    8  C3  UNL     1      -3.376  -0.719   0.425  1.00  0.00     0.042 A 
HETATM    9  C2  UNL     1      -3.234   0.355   1.280  1.00  0.00     0.101 A 
HETATM   10  C17 UNL     1      -2.320   1.369   1.030  1.00  0.00     0.103 A 
HETATM   11  C16 UNL     1      -1.503   1.368  -0.079  1.00  0.00     0.068 A 
BRANCH   9  12
HETATM   12  O1  UNL     1      -4.005   0.483   2.451  1.00  0.00    -0.353 OA
HETATM   13  C1  UNL     1      -4.933  -0.559   2.693  1.00  0.00     0.210 C 
ENDBRANCH   9  12
BRANCH  10  14
HETATM   14  O4  UNL     1      -2.205   2.430   1.910  1.00  0.00    -0.353 OA
HETATM   15  C18 UNL     1      -1.264   3.448   1.627  1.00  0.00     0.210 C 
ENDBRANCH  10  14
ENDBRANCH   4   6
ENDBRANCH   1   4
BRANCH   1  16
HETATM   16  C15 UNL     1       1.708   0.762  -1.633  1.00  0.00     0.015 A 
HETATM   17  C8  UNL     1       3.341   1.354  -1.403  1.00  0.00    -0.027 A 
HETATM   18  B1  UNL     1       2.262   1.849  -2.002  1.00  0.00     0.268 B 
HETATM   19  C9  UNL     1       3.587   0.262  -0.778  1.00  0.00     0.013 A 
HETATM   20  C10 UNL     1       3.385  -0.950  -0.238  1.00  0.00     0.097 A 
HETATM   21  C12 UNL     1       2.120  -1.381  -0.430  1.00  0.00     0.097 A 
HETATM   22  C14 UNL     1       1.184  -0.599  -1.122  1.00  0.00     0.018 A 
BRANCH  20  23
HETATM   23  O2  UNL     1       4.354  -1.645   0.422  1.00  0.00    -0.353 OA
HETATM   24  C11 UNL     1       5.672  -1.234   0.642  1.00  0.00     0.210 C 
ENDBRANCH  20  23
BRANCH  21  25
HETATM   25  O3  UNL     1       1.867  -2.594   0.092  1.00  0.00    -0.353 OA
HETATM   26  C13 UNL     1       0.583  -3.211  -0.021  1.00  0.00     0.210 C 
ENDBRANCH  21  25
ENDBRANCH   1  16
TORSDOF 8
