REMARK  4 active torsions:
REMARK  status: ('A' for Active; 'I' for Inactive)
REMARK    1  A    between atoms: O1_2  and  C2_3 
REMARK    2  A    between atoms: N1_7  and  C6_8 
REMARK    3  A    between atoms: C10_14  and  O2_15 
REMARK    4  A    between atoms: C12_17  and  O3_18 
ROOT
HETATM    1  C6  UNL     1       0.034   0.602  -1.147  1.00  0.00     0.147 A 
HETATM    2  N2  UNL     1       0.351   1.274  -2.288  1.00  0.00    -0.223 NA
HETATM    3  C7  UNL     1      -0.593   2.005  -2.927  1.00  0.00     0.236 A 
HETATM    4  N3  UNL     1      -1.859   2.103  -2.479  1.00  0.00    -0.241 NA
HETATM    5  C8  UNL     1      -2.182   1.444  -1.353  1.00  0.00     0.075 A 
HETATM    6  C9  UNL     1      -3.461   1.488  -0.823  1.00  0.00     0.072 A 
HETATM    7  C10 UNL     1      -3.730   0.784   0.339  1.00  0.00     0.103 A 
HETATM    8  C12 UNL     1      -2.786   0.035   1.004  1.00  0.00     0.102 A 
HETATM    9  C14 UNL     1      -1.491  -0.026   0.491  1.00  0.00     0.057 A 
HETATM   10  C15 UNL     1      -1.256   0.686  -0.667  1.00  0.00     0.042 A 
ENDROOT
BRANCH   1  11
HETATM   11  N1  UNL     1       1.134  -0.117  -0.600  1.00  0.00    -0.315 N 
HETATM   12  C5  UNL     1       1.293  -1.471  -1.015  1.00  0.00     0.098 C 
HETATM   13  C4  UNL     1       2.452  -2.140  -1.074  1.00  0.00     0.020 C 
HETATM   14  C3  UNL     1       3.813  -1.683  -0.743  1.00  0.00     0.040 C 
HETATM   15  C2  UNL     1       4.168  -0.583  -0.057  1.00  0.00     0.091 C 
HETATM   16  C17 UNL     1       3.244   0.416   0.519  1.00  0.00     0.083 C 
HETATM   17  C16 UNL     1       1.942   0.640   0.308  1.00  0.00     0.124 C 
HETATM   18 CL1  UNL     1       4.019   1.475   1.677  1.00  0.00    -0.080 Cl
BRANCH  15  19
HETATM   19  O1  UNL     1       5.524  -0.363   0.129  1.00  0.00    -0.354 OA
HETATM   20  C1  UNL     1       6.438  -1.279   0.660  1.00  0.00     0.210 C 
ENDBRANCH  15  19
ENDBRANCH   1  11
BRANCH   8  21
HETATM   21  O3  UNL     1      -3.135  -0.642   2.164  1.00  0.00    -0.353 OA
HETATM   22  C13 UNL     1      -2.125  -1.401   2.814  1.00  0.00     0.210 C 
ENDBRANCH   8  21
BRANCH   7  23
HETATM   23  O2  UNL     1      -5.051   0.877   0.816  1.00  0.00    -0.353 OA
HETATM   24  C11 UNL     1      -6.011   1.660   0.115  1.00  0.00     0.210 C 
ENDBRANCH   7  23
TORSDOF 4
