REMARK  7 active torsions:
REMARK  status: ('A' for Active; 'I' for Inactive)
REMARK    1  A    between atoms: O1_2  and  C2_3 
REMARK    2  A    between atoms: C7_8  and  O2_9 
REMARK    3  A    between atoms: N2_12  and  O3_13 
REMARK    4  A    between atoms: N3_14  and  C9_15 
REMARK    5  A    between atoms: C13_19  and  C14_20 
REMARK    6  A    between atoms: C14_20  and  O4_21 
REMARK    7  A    between atoms: C15_22  and  O5_23 
ROOT
HETATM    1  C2  UNL     1       4.229  -1.055  -0.656  1.00  0.00     0.102 A 
HETATM    2  C3  UNL     1       2.855  -1.048  -0.735  1.00  0.00     0.055 A 
HETATM    3  C4  UNL     1       2.047  -0.171  -0.045  1.00  0.00     0.015 A 
HETATM    4  C5  UNL     1       2.707   0.738   0.763  1.00  0.00     0.095 A 
HETATM    5  C6  UNL     1       4.079   0.782   0.885  1.00  0.00     0.074 A 
HETATM    6  C7  UNL     1       4.827  -0.124   0.167  1.00  0.00     0.103 A 
HETATM    7  N1  UNL     1       2.030   1.596   1.445  1.00  0.00    -0.128 NA
HETATM    8  N2  UNL     1       0.634   1.610   1.371  1.00  0.00    -0.064 N 
HETATM    9  N3  UNL     1      -0.103   0.730   0.582  1.00  0.00    -0.224 N 
HETATM   10  C18 UNL     1       0.727  -0.177  -0.133  1.00  0.00     0.134 A 
ENDROOT
BRANCH   9  11
HETATM   11  C9  UNL     1      -1.510   0.681   0.431  1.00  0.00     0.063 A 
HETATM   12  C10 UNL     1      -2.413   1.657   0.776  1.00  0.00     0.039 A 
HETATM   13  C11 UNL     1      -3.764   1.564   0.625  1.00  0.00    -0.049 A 
HETATM   14  C12 UNL     1      -4.692   2.659   1.018  1.00  0.00     0.049 C 
HETATM   15  C13 UNL     1      -4.312   0.402   0.080  1.00  0.00     0.005 A 
HETATM   16  C15 UNL     1      -3.430  -0.608  -0.282  1.00  0.00     0.079 A 
HETATM   17  C17 UNL     1      -2.070  -0.457  -0.105  1.00  0.00     0.069 A 
BRANCH  15  18
HETATM   18  C14 UNL     1      -5.781   0.302  -0.085  1.00  0.00     0.206 C 
BRANCH  18  19
HETATM   19  O4  UNL     1      -6.150   1.080  -1.205  1.00  0.00    -0.396 OA
HETATM   20  H16 UNL     1      -5.409   1.068  -1.869  1.00  0.00     0.209 HD
ENDBRANCH  18  19
ENDBRANCH  15  18
BRANCH  16  21
HETATM   21  O5  UNL     1      -4.054  -1.720  -0.812  1.00  0.00    -0.355 OA
HETATM   22  C16 UNL     1      -3.436  -2.885  -1.261  1.00  0.00     0.210 C 
ENDBRANCH  16  21
ENDBRANCH   9  11
BRANCH   8  23
HETATM   23  O3  UNL     1      -0.012   2.529   2.117  1.00  0.00    -0.251 OA
HETATM   24  H9  UNL     1      -0.341   2.051   2.941  1.00  0.00     0.248 HD
ENDBRANCH   8  23
BRANCH   1  25
HETATM   25  O1  UNL     1       5.053  -1.930  -1.344  1.00  0.00    -0.353 OA
HETATM   26  C1  UNL     1       4.504  -2.906  -2.203  1.00  0.00     0.210 C 
ENDBRANCH   1  25
BRANCH   6  27
HETATM   27  O2  UNL     1       6.231  -0.088   0.284  1.00  0.00    -0.353 OA
HETATM   28  C8  UNL     1       6.804   0.886   1.142  1.00  0.00     0.210 C 
ENDBRANCH   6  27
TORSDOF 7
