REMARK  6 active torsions:
REMARK  status: ('A' for Active; 'I' for Inactive)
REMARK    1  A    between atoms: O1_2  and  C2_3 
REMARK    2  A    between atoms: C9_12  and  O2_13 
REMARK    3  A    between atoms: C12_16  and  O3_17 
REMARK    4  A    between atoms: C16_22  and  C17_23 
REMARK    5  A    between atoms: C17_23  and  C18_24 
REMARK    6  A    between atoms: C18_24  and  O5_25 
ROOT
HETATM    1  C2  UNL     1       1.103  -1.916  -0.103  1.00  0.00     0.065 C 
HETATM    2  C3  UNL     1       1.382  -0.694   0.443  1.00  0.00     0.066 C 
HETATM    3  C4  UNL     1       0.743   0.597   0.014  1.00  0.00     0.067 C 
HETATM    4  N1  UNL     1       0.439   0.881  -1.245  1.00  0.00    -0.270 NA
HETATM    5  C5  UNL     1       0.058  -0.185  -2.205  1.00  0.00     0.270 C 
HETATM    6  N2  UNL     1      -0.748  -1.098  -1.342  1.00  0.00    -0.373 N 
HETATM    7  C6  UNL     1       0.009  -2.348  -1.086  1.00  0.00     0.184 C 
HETATM    8  C7  UNL     1      -1.976  -0.341  -0.994  1.00  0.00     0.106 A 
HETATM    9  C8  UNL     1      -1.586  -0.979   0.153  1.00  0.00     0.122 A 
HETATM   10  C9  UNL     1      -1.611  -0.246   1.313  1.00  0.00     0.073 A 
HETATM   11  C11 UNL     1      -2.018   0.560   0.321  1.00  0.00     0.153 A 
HETATM   12  C12 UNL     1      -2.363   1.029  -0.868  1.00  0.00     0.145 A 
HETATM   13  C14 UNL     1      -2.376   0.362  -2.072  1.00  0.00     0.026 A 
HETATM   14  O4  UNL     1      -2.086   1.668   1.241  1.00  0.00    -0.341 OA
HETATM   15  C15 UNL     1      -0.740   2.148   1.551  1.00  0.00     0.150 C 
HETATM   16  C16 UNL     1       0.391   1.651   0.999  1.00  0.00     0.016 C 
ENDROOT
BRANCH  16  17
HETATM   17  C17 UNL     1       1.552   2.360   1.531  1.00  0.00     0.039 C 
BRANCH  17  18
HETATM   18  C18 UNL     1       2.782   2.077   1.162  1.00  0.00     0.132 C 
BRANCH  18  19
HETATM   19  O5  UNL     1       3.862   1.478   0.521  1.00  0.00    -0.373 OA
HETATM   20  H20 UNL     1       3.736   0.842  -0.264  1.00  0.00     0.216 HD
ENDBRANCH  18  19
ENDBRANCH  17  18
ENDBRANCH  16  17
BRANCH   1  21
HETATM   21  O1  UNL     1       2.037  -2.786   0.409  1.00  0.00    -0.358 OA
HETATM   22  C1  UNL     1       3.369  -2.885  -0.032  1.00  0.00     0.209 C 
ENDBRANCH   1  21
BRANCH  10  23
HETATM   23  O2  UNL     1      -1.389  -0.238   2.664  1.00  0.00    -0.361 OA
HETATM   24  C10 UNL     1      -0.938  -1.370   3.340  1.00  0.00     0.209 C 
ENDBRANCH  10  23
BRANCH  12  25
HETATM   25  O3  UNL     1      -2.794   2.285  -1.211  1.00  0.00    -0.375 OA
HETATM   26  C13 UNL     1      -3.120   2.617  -2.525  1.00  0.00     0.203 C 
ENDBRANCH  12  25
TORSDOF 6
