REMARK  10 active torsions:
REMARK  status: ('A' for Active; 'I' for Inactive)
REMARK    1  A    between atoms: C2_2  and  C3_3 
REMARK    2  A    between atoms: C3_3  and  O3_21 
REMARK    3  A    between atoms: N1_4  and  C4_5 
REMARK    4  A    between atoms: C4_5  and  S1_6 
REMARK    5  A    between atoms: S1_6  and  C5_7 
REMARK    6  A    between atoms: C5_7  and  N2_8 
REMARK    7  A    between atoms: C6_9  and  N3_10 
REMARK    8  A    between atoms: C7_11  and  N4_12 
REMARK    9  A    between atoms: N4_12  and  C8_13 
REMARK   10  A    between atoms: C10_15  and  O1_16 
ROOT
HETATM    1  N3  UNL     1       1.370  -0.057   0.613  1.00  0.00    -0.237 NA
HETATM    2  C7  UNL     1       2.062   0.925   0.125  1.00  0.00     0.204 C 
ENDROOT
BRANCH   1   3
HETATM    3  C6  UNL     1       0.205  -0.552  -0.031  1.00  0.00     0.245 C 
HETATM    4  N2  UNL     1      -0.355  -1.266  -0.949  1.00  0.00    -0.191 NA
BRANCH   4   5
HETATM    5  C5  UNL     1      -1.732  -1.294  -0.998  1.00  0.00     0.044 C 
BRANCH   5   6
HETATM    6  S1  UNL     1      -3.587  -1.308  -1.043  1.00  0.00     0.037 SA
BRANCH   6   7
HETATM    7  C4  UNL     1      -5.428  -1.291  -1.079  1.00  0.00     0.046 C 
BRANCH   7   8
HETATM    8  N1  UNL     1      -6.805  -1.255  -1.115  1.00  0.00    -0.173 NA
HETATM    9  C3  UNL     1      -7.431  -0.226  -0.696  1.00  0.00     0.172 C 
BRANCH   9  10
HETATM   10  C2  UNL     1      -6.772   0.954  -0.163  1.00  0.00     0.048 C 
HETATM   11  C1  UNL     1      -7.540   1.934   0.230  1.00  0.00     0.015 C 
ENDBRANCH   9  10
BRANCH   9  12
HETATM   12  O3  UNL     1      -8.807  -0.356  -0.803  1.00  0.00    -0.339 OA
HETATM   13  C14 UNL     1      -9.392  -1.163  -1.819  1.00  0.00     0.211 C 
ENDBRANCH   9  12
ENDBRANCH   7   8
ENDBRANCH   6   7
ENDBRANCH   5   6
ENDBRANCH   4   5
ENDBRANCH   1   3
BRANCH   2  14
HETATM   14  N4  UNL     1       3.198   1.317   0.866  1.00  0.00    -0.374 N 
HETATM   15  H6  UNL     1       3.592   2.269   0.832  1.00  0.00     0.161 HD
BRANCH  14  16
HETATM   16  C8  UNL     1       3.851   0.341   1.722  1.00  0.00     0.131 C 
HETATM   17  C9  UNL     1       4.301  -0.781   0.856  1.00  0.00     0.034 C 
HETATM   18  C10 UNL     1       5.382  -0.421   0.174  1.00  0.00     0.067 C 
HETATM   19  C12 UNL     1       6.039   0.884   0.255  1.00  0.00     0.231 C 
HETATM   20  O2  UNL     1       5.923   1.539   1.457  1.00  0.00    -0.382 OA
HETATM   21  C13 UNL     1       5.085   0.920   2.369  1.00  0.00     0.197 C 
BRANCH  18  22
HETATM   22  O1  UNL     1       5.842  -1.440  -0.653  1.00  0.00    -0.358 OA
HETATM   23  C11 UNL     1       7.148  -1.292  -1.194  1.00  0.00     0.209 C 
ENDBRANCH  18  22
ENDBRANCH  14  16
ENDBRANCH   2  14
TORSDOF 10
