REMARK  8 active torsions:
REMARK  status: ('A' for Active; 'I' for Inactive)
REMARK    1  A    between atoms: O1_2  and  C2_3 
REMARK    2  A    between atoms: C4_5  and  N1_6 
REMARK    3  A    between atoms: N1_6  and  C5_7 
REMARK    4  A    between atoms: C7_9  and  O2_10 
REMARK    5  A    between atoms: C9_12  and  O3_13 
REMARK    6  A    between atoms: C11_15  and  O4_16 
REMARK    7  A    between atoms: O4_16  and  C12_17 
REMARK    8  A    between atoms: C12_17  and  O5_18 
ROOT
HETATM    1  C5  UNL     1      -0.552   0.401   0.414  1.00  0.00     0.035 A 
HETATM    2  C6  UNL     1      -1.108   0.996  -0.691  1.00  0.00     0.069 A 
HETATM    3  C7  UNL     1      -2.417   0.925  -1.108  1.00  0.00     0.106 A 
HETATM    4  C9  UNL     1      -3.214   0.159  -0.289  1.00  0.00     0.135 A 
HETATM    5  C11 UNL     1      -2.737  -0.470   0.835  1.00  0.00     0.110 A 
HETATM    6  C13 UNL     1      -1.416  -0.346   1.178  1.00  0.00     0.069 A 
ENDROOT
BRANCH   1   7
HETATM    7  N1  UNL     1       0.785   0.485   0.840  1.00  0.00    -0.354 N 
HETATM    8  H5  UNL     1       0.988  -0.080   1.726  1.00  0.00     0.163 HD
BRANCH   7   9
HETATM    9  C4  UNL     1       2.074   1.155   0.418  1.00  0.00     0.193 A 
HETATM   10  C3  UNL     1       3.075   0.638   1.368  1.00  0.00     0.072 C 
HETATM   11  C2  UNL     1       3.662  -0.474   0.873  1.00  0.00     0.069 C 
HETATM   12  C17 UNL     1       3.606  -1.192  -0.427  1.00  0.00     0.039 C 
HETATM   13  C16 UNL     1       2.855  -0.607  -1.406  1.00  0.00     0.035 C 
HETATM   14  C15 UNL     1       2.331   0.663  -0.921  1.00  0.00     0.090 A 
HETATM   15  N3  UNL     1       2.216   1.693  -1.727  1.00  0.00    -0.242 NA
HETATM   16  C14 UNL     1       1.906   2.887  -0.978  1.00  0.00     0.230 A 
HETATM   17  N2  UNL     1       1.838   2.533   0.291  1.00  0.00    -0.240 NA
BRANCH  11  18
HETATM   18  O1  UNL     1       4.615  -1.141   1.689  1.00  0.00    -0.356 OA
HETATM   19  C1  UNL     1       5.965  -0.931   1.333  1.00  0.00     0.210 C 
ENDBRANCH  11  18
ENDBRANCH   7   9
ENDBRANCH   1   7
BRANCH   3  20
HETATM   20  O2  UNL     1      -2.912   1.543  -2.222  1.00  0.00    -0.353 OA
HETATM   21  C8  UNL     1      -2.180   2.335  -3.105  1.00  0.00     0.210 C 
ENDBRANCH   3  20
BRANCH   5  22
HETATM   22  O4  UNL     1      -3.609  -1.219   1.597  1.00  0.00    -0.323 OA
BRANCH  22  23
HETATM   23  C12 UNL     1      -3.269  -1.923   2.771  1.00  0.00     0.341 C 
BRANCH  23  24
HETATM   24  O5  UNL     1      -2.296  -2.863   2.427  1.00  0.00    -0.377 OA
HETATM   25  H15 UNL     1      -2.294  -3.650   3.012  1.00  0.00     0.212 HD
ENDBRANCH  23  24
ENDBRANCH  22  23
ENDBRANCH   5  22
BRANCH   4  26
HETATM   26  O3  UNL     1      -4.557   0.012  -0.606  1.00  0.00    -0.351 OA
HETATM   27  C10 UNL     1      -4.899  -1.086  -1.446  1.00  0.00     0.210 C 
ENDBRANCH   4  26
TORSDOF 8
