REMARK  8 active torsions:
REMARK  status: ('A' for Active; 'I' for Inactive)
REMARK    1  A    between atoms: O1_2  and  C2_3 
REMARK    2  A    between atoms: C2_3  and  P1_4 
REMARK    3  A    between atoms: P1_4  and  C3_5 
REMARK    4  A    between atoms: C4_6  and  O2_7 
REMARK    5  A    between atoms: C7_10  and  N1_11 
REMARK    6  A    between atoms: C8_12  and  C9_13 
REMARK    7  A    between atoms: C11_15  and  O3_16 
REMARK    8  A    between atoms: C16_22  and  N3_23 
ROOT
HETATM    1  C9  UNL     1       3.216   0.713   0.070  1.00  0.00     0.010 A 
HETATM    2  C10 UNL     1       3.416  -0.721   0.224  1.00  0.00     0.053 A 
HETATM    3  C11 UNL     1       4.652  -1.219   0.392  1.00  0.00     0.089 A 
HETATM    4  C13 UNL     1       5.757  -0.276   0.411  1.00  0.00     0.080 A 
HETATM    5  C14 UNL     1       7.074  -0.800   0.593  1.00  0.00     0.102 C 
HETATM    6  N2  UNL     1       8.153  -1.244   0.731  1.00  0.00    -0.191 NA
HETATM    7  C15 UNL     1       5.631   1.029   0.276  1.00  0.00     0.057 A 
HETATM    8  C16 UNL     1       4.321   1.658   0.089  1.00  0.00     0.061 A 
ENDROOT
BRANCH   3   9
HETATM    9  O3  UNL     1       4.696  -2.587   0.527  1.00  0.00    -0.354 OA
HETATM   10  C12 UNL     1       5.779  -3.370   0.943  1.00  0.00     0.210 C 
ENDBRANCH   3   9
BRANCH   8  11
HETATM   11  N3  UNL     1       4.319   2.927  -0.032  1.00  0.00    -0.299 NA
HETATM   12  H18 UNL     1       3.515   3.547  -0.170  1.00  0.00     0.187 HD
ENDBRANCH   8  11
BRANCH   1  13
HETATM   13  C8  UNL     1       2.060   1.260  -0.093  1.00  0.00     0.102 C 
HETATM   14  N1  UNL     1       0.729   1.239  -0.220  1.00  0.00    -0.368 N 
HETATM   15  H11 UNL     1       0.875   0.167  -0.292  1.00  0.00     0.165 HD
BRANCH  14  16
HETATM   16  C7  UNL     1      -0.639   1.213  -0.351  1.00  0.00     0.016 A 
HETATM   17  C6  UNL     1      -1.266   1.595  -1.443  1.00  0.00     0.062 A 
HETATM   18  C4  UNL     1      -2.664   1.426  -1.178  1.00  0.00     0.077 A 
HETATM   19  C3  UNL     1      -2.931   0.952   0.048  1.00  0.00    -0.015 A 
HETATM   20  C17 UNL     1      -1.620   0.741   0.700  1.00  0.00     0.099 A 
BRANCH  18  21
HETATM   21  O2  UNL     1      -3.749   1.686  -2.001  1.00  0.00    -0.355 OA
HETATM   22  C5  UNL     1      -4.328   0.681  -2.818  1.00  0.00     0.210 C 
ENDBRANCH  18  21
BRANCH  19  23
HETATM   23  P1  UNL     1      -4.430   0.536   0.984  1.00  0.00    -0.071 P 
HETATM   24  H6  UNL     1      -5.465   1.499   0.675  1.00  0.00     0.064 HD
BRANCH  23  25
HETATM   25  C2  UNL     1      -4.973  -1.193   0.687  1.00  0.00     0.202 C 
BRANCH  25  26
HETATM   26  O1  UNL     1      -6.358  -1.289   0.549  1.00  0.00    -0.392 OA
HETATM   27  C1  UNL     1      -6.941  -0.840   1.716  1.00  0.00     0.201 C 
ENDBRANCH  25  26
ENDBRANCH  23  25
ENDBRANCH  19  23
ENDBRANCH  14  16
ENDBRANCH   1  13
TORSDOF 8
