REMARK  6 active torsions:
REMARK  status: ('A' for Active; 'I' for Inactive)
REMARK    1  A    between atoms: C4_4  and  O1_5 
REMARK    2  A    between atoms: C6_7  and  N1_8 
REMARK    3  A    between atoms: N1_8  and  C7_9 
REMARK    4  A    between atoms: C8_10  and  C9_11 
REMARK    5  A    between atoms: C9_11  and  O2_13 
REMARK    6  A    between atoms: O2_13  and  P1_14 
ROOT
HETATM    1  C1  UNL     1      -4.896  -1.469  -1.310  1.00  0.00     0.026 C 
HETATM    2  C2  UNL     1      -3.927  -0.998  -0.600  1.00  0.00    -0.014 C 
HETATM    3  C3  UNL     1      -3.708   0.153   0.373  1.00  0.00     0.050 C 
HETATM    4  C4  UNL     1      -2.479   0.716   0.574  1.00  0.00     0.101 C 
HETATM    5  C6  UNL     1      -1.123   0.215   0.075  1.00  0.00     0.194 C 
HETATM    6  C11 UNL     1      -0.991  -1.277   0.443  1.00  0.00     0.038 C 
HETATM    7  C12 UNL     1      -1.662  -2.445   0.060  1.00  0.00     0.033 C 
HETATM    8  C13 UNL     1      -2.640  -1.772  -0.865  1.00  0.00     0.067 C 
HETATM    9  N2  UNL     1      -2.402  -1.568  -2.199  1.00  0.00    -0.242 NA
HETATM   10  C14 UNL     1      -1.341  -0.456  -2.393  1.00  0.00     0.231 C 
HETATM   11  N3  UNL     1      -1.005   0.339  -1.370  1.00  0.00    -0.240 NA
ENDROOT
BRANCH   5  12
HETATM   12  N1  UNL     1      -0.130   0.927   0.779  1.00  0.00    -0.363 N 
HETATM   13  H7  UNL     1      -0.287   1.661   1.506  1.00  0.00     0.162 HD
BRANCH  12  14
HETATM   14  C7  UNL     1       1.112   0.426   0.281  1.00  0.00     0.087 C 
HETATM   15  C8  UNL     1       2.075  -0.151   0.971  1.00  0.00     0.055 C 
BRANCH  15  16
HETATM   16  C9  UNL     1       3.420  -0.728   0.627  1.00  0.00     0.336 C 
HETATM   17  F1  UNL     1       3.478  -2.080   0.805  1.00  0.00    -0.215 F 
BRANCH  16  18
HETATM   18  O2  UNL     1       3.604  -0.474  -0.730  1.00  0.00    -0.329 OA
BRANCH  18  19
HETATM   19  P1  UNL     1       4.962   0.577  -0.948  1.00  0.00     0.012 P 
HETATM   20  C10 UNL     1       6.485  -0.154  -0.160  1.00  0.00     0.072 C 
HETATM   21  H11 UNL     1       4.665   1.863  -0.322  1.00  0.00     0.087 HD
ENDBRANCH  18  19
ENDBRANCH  16  18
ENDBRANCH  15  16
ENDBRANCH  12  14
ENDBRANCH   5  12
BRANCH   4  22
HETATM   22  O1  UNL     1      -2.825   1.858   1.352  1.00  0.00    -0.355 OA
HETATM   23  C5  UNL     1      -2.702   3.107   0.669  1.00  0.00     0.209 C 
ENDBRANCH   4  22
TORSDOF 6
