REMARK  3 active torsions:
REMARK  status: ('A' for Active; 'I' for Inactive)
REMARK    1  A    between atoms: O1_2  and  C2_3 
REMARK    2  A    between atoms: C10_12  and  C11_13 
REMARK    3  A    between atoms: C11_13  and  N2_14 
ROOT
HETATM    1  C2  UNL     1      -3.495   1.354  -0.763  1.00  0.00     0.070 A 
HETATM    2  C3  UNL     1      -2.932   1.933  -1.888  1.00  0.00     0.039 A 
HETATM    3  C4  UNL     1      -1.665   1.493  -2.312  1.00  0.00     0.042 A 
HETATM    4  C5  UNL     1      -0.904   0.493  -1.677  1.00  0.00     0.096 A 
HETATM    5  C6  UNL     1      -1.491  -0.062  -0.560  1.00  0.00     0.068 A 
HETATM    6  C7  UNL     1      -2.727   0.363  -0.143  1.00  0.00     0.069 A 
HETATM    7  N1  UNL     1      -0.921  -1.070   0.266  1.00  0.00    -0.364 N 
HETATM    8  C8  UNL     1      -0.081  -1.140   1.404  1.00  0.00     0.085 C 
HETATM    9  C9  UNL     1       1.095  -1.099   1.941  1.00  0.00    -0.003 C 
HETATM   10  C10 UNL     1       2.249  -0.868   1.019  1.00  0.00     0.039 C 
HETATM   11  C13 UNL     1       1.759  -0.735  -0.368  1.00  0.00     0.035 A 
HETATM   12  C14 UNL     1       1.763  -1.188  -1.594  1.00  0.00    -0.045 A 
HETATM   13  O2  UNL     1       2.579  -1.952  -0.801  1.00  0.00     0.000 OA
HETATM   14  C15 UNL     1       1.023  -0.644  -2.709  1.00  0.00     0.210 C 
HETATM   15  O3  UNL     1       0.208   0.456  -2.479  1.00  0.00    -0.345 OA
HETATM   16  H7  UNL     1      -1.358  -1.854  -0.255  1.00  0.00     0.165 HD
HETATM   17  H15 UNL     1       3.109  -2.758  -1.163  1.00  0.00     0.000 HD
ENDROOT
BRANCH  10  18
HETATM   18  C11 UNL     1       2.996   0.287   1.527  1.00  0.00     0.104 C 
BRANCH  18  19
HETATM   19  N2  UNL     1       4.255   0.342   1.792  1.00  0.00    -0.221 NA
HETATM   20  C12 UNL     1       4.782   1.569   2.280  1.00  0.00     0.194 A 
HETATM   21  N3  UNL     1       5.645   0.715   1.830  1.00  0.00    -0.234 NA
HETATM   22  H13 UNL     1       5.300  -0.205   1.460  1.00  0.00     0.142 HD
ENDBRANCH  18  19
ENDBRANCH  10  18
BRANCH   1  23
HETATM   23  O1  UNL     1      -4.730   1.686  -0.233  1.00  0.00    -0.356 OA
HETATM   24  C1  UNL     1      -5.207   1.017   0.935  1.00  0.00     0.210 C 
ENDBRANCH   1  23
TORSDOF 3
