REMARK  5 active torsions:
REMARK  status: ('A' for Active; 'I' for Inactive)
REMARK    1  A    between atoms: C2_3  and  C3_4 
REMARK    2  A    between atoms: C10_13  and  O1_14 
REMARK    3  A    between atoms: C12_16  and  O2_17 
REMARK    4  A    between atoms: C15_20  and  O3_21 
REMARK    5  A    between atoms: C15_20  and  O4_22 
ROOT
HETATM    1  C3  UNL     1      -1.884   0.229  -0.286  1.00  0.00     0.144 C 
HETATM    2  C4  UNL     1      -2.405  -0.872  -1.083  1.00  0.00     0.042 C 
HETATM    3  N2  UNL     1      -3.036  -0.760  -2.236  1.00  0.00    -0.304 NA
HETATM    4  C5  UNL     1      -2.375  -2.335  -0.812  1.00  0.00     0.044 C 
HETATM    5  C6  UNL     1      -1.475  -3.106  -0.167  1.00  0.00     0.090 C 
HETATM    6  N3  UNL     1      -0.212  -2.817   0.498  1.00  0.00    -0.365 N 
HETATM    7  C7  UNL     1       0.708  -1.754   0.264  1.00  0.00     0.046 A 
HETATM    8  C8  UNL     1       1.959  -2.364   0.427  1.00  0.00     0.033 A 
HETATM    9  C9  UNL     1       3.082  -1.586   0.229  1.00  0.00     0.042 A 
HETATM   10  C10 UNL     1       2.930  -0.248  -0.118  1.00  0.00     0.102 A 
HETATM   11  C12 UNL     1       1.686   0.356  -0.278  1.00  0.00     0.115 A 
HETATM   12  C14 UNL     1       0.535  -0.429  -0.078  1.00  0.00     0.067 A 
HETATM   13  C15 UNL     1      -0.484   0.613  -0.347  1.00  0.00     0.209 C 
HETATM   14  H6  UNL     1      -3.153   0.217  -2.573  1.00  0.00     0.186 HD
HETATM   15  H9  UNL     1       0.108  -3.458   1.251  1.00  0.00     0.165 HD
ENDROOT
BRANCH  13  16
HETATM   16  O3  UNL     1      -0.289   1.552   0.711  1.00  0.00    -0.360 OA
HETATM   17  H18 UNL     1      -0.394   1.025   1.547  1.00  0.00     0.213 HD
ENDBRANCH  13  16
BRANCH  13  18
HETATM   18  O4  UNL     1      -0.091   1.252  -1.496  1.00  0.00    -0.355 OA
HETATM   19  C16 UNL     1      -0.827   2.391  -1.725  1.00  0.00     0.206 C 
ENDBRANCH  13  18
BRANCH   1  20
HETATM   20  C2  UNL     1      -2.256   0.018   1.187  1.00  0.00     0.262 C 
HETATM   21  N1  UNL     1      -3.361   0.180   1.856  1.00  0.00    -0.427 NA
HETATM   22  C1  UNL     1      -4.576   0.651   1.225  1.00  0.00     0.131 C 
ENDBRANCH   1  20
BRANCH  11  23
HETATM   23  O2  UNL     1       1.903   1.670  -0.623  1.00  0.00    -0.352 OA
HETATM   24  C13 UNL     1       2.105   2.770   0.216  1.00  0.00     0.210 C 
ENDBRANCH  11  23
BRANCH  10  25
HETATM   25  O1  UNL     1       4.171   0.366  -0.275  1.00  0.00    -0.353 OA
HETATM   26  C11 UNL     1       5.394  -0.273  -0.106  1.00  0.00     0.210 C 
ENDBRANCH  10  25
TORSDOF 5
