REMARK  5 active torsions:
REMARK  status: ('A' for Active; 'I' for Inactive)
REMARK    1  A    between atoms: O1_2  and  C2_3 
REMARK    2  A    between atoms: C4_5  and  N1_6 
REMARK    3  A    between atoms: N1_6  and  C5_7 
REMARK    4  A    between atoms: C13_20  and  O4_21 
REMARK    5  A    between atoms: C15_23  and  O5_24 
ROOT
HETATM    1  N1  UNL     1       0.910  -0.056   0.878  1.00  0.00    -0.339 N 
HETATM    2  H5  UNL     1       0.938  -0.221   1.905  1.00  0.00     0.167 HD
ENDROOT
BRANCH   1   3
HETATM    3  C4  UNL     1      -0.458  -0.266   0.539  1.00  0.00     0.052 A 
HETATM    4  C3  UNL     1      -1.456   0.555   0.997  1.00  0.00     0.070 A 
HETATM    5  C2  UNL     1      -2.815   0.548   0.794  1.00  0.00     0.106 A 
HETATM    6  C15 UNL     1      -3.482  -0.399   0.006  1.00  0.00     0.136 A 
HETATM    7  C13 UNL     1      -2.846  -1.447  -0.668  1.00  0.00     0.118 A 
HETATM    8  P1  UNL     1      -1.104  -1.541  -0.486  1.00  0.00     0.038 P 
BRANCH   5   9
HETATM    9  O1  UNL     1      -3.766   1.408   1.284  1.00  0.00    -0.353 OA
HETATM   10  C1  UNL     1      -3.436   2.476   2.115  1.00  0.00     0.210 C 
ENDBRANCH   5   9
BRANCH   6  11
HETATM   11  O5  UNL     1      -4.852  -0.444  -0.221  1.00  0.00    -0.351 OA
HETATM   12  C16 UNL     1      -5.475   0.298  -1.256  1.00  0.00     0.210 C 
ENDBRANCH   6  11
BRANCH   7  13
HETATM   13  O4  UNL     1      -3.225  -2.488  -1.479  1.00  0.00    -0.352 OA
HETATM   14  C14 UNL     1      -4.566  -2.698  -1.820  1.00  0.00     0.210 C 
ENDBRANCH   7  13
ENDBRANCH   1   3
BRANCH   1  15
HETATM   15  C5  UNL     1       2.026   0.296   0.106  1.00  0.00     0.138 C 
HETATM   16  N2  UNL     1       2.029   0.426  -1.227  1.00  0.00    -0.224 NA
HETATM   17  C6  UNL     1       2.762  -0.446  -1.989  1.00  0.00     0.237 C 
HETATM   18  N3  UNL     1       4.002  -0.979  -2.099  1.00  0.00    -0.230 NA
HETATM   19  C7  UNL     1       5.054  -0.142  -2.034  1.00  0.00     0.259 C 
HETATM   20  O2  UNL     1       5.546   0.805  -1.243  1.00  0.00    -0.306 OA
HETATM   21  C8  UNL     1       5.134   0.735  -0.000  1.00  0.00     0.078 C 
HETATM   22  C9  UNL     1       4.033   1.523   0.280  1.00  0.00     0.048 C 
HETATM   23  C12 UNL     1       5.760  -0.107   1.064  1.00  0.00     0.233 C 
HETATM   24  C10 UNL     1       3.202   0.530   0.772  1.00  0.00     0.014 C 
HETATM   25  C11 UNL     1       3.626  -0.214   1.983  1.00  0.00     0.210 C 
HETATM   26  O3  UNL     1       4.989  -0.028   2.238  1.00  0.00    -0.380 OA
ENDBRANCH   1  15
TORSDOF 5
