REMARK  7 active torsions:
REMARK  status: ('A' for Active; 'I' for Inactive)
REMARK    1  A    between atoms: O1_2  and  C2_3 
REMARK    2  A    between atoms: C3_5  and  N1_6 
REMARK    3  A    between atoms: N1_6  and  C4_7 
REMARK    4  A    between atoms: C8_13  and  O2_14 
REMARK    5  A    between atoms: C10_16  and  O3_17 
REMARK    6  A    between atoms: C15_22  and  O4_23 
REMARK    7  A    between atoms: C17_25  and  O5_26 
ROOT
HETATM    1  C4  UNL     1       1.072  -0.502   0.391  1.00  0.00     0.142 A 
HETATM    2  N2  UNL     1       0.606  -1.720   0.712  1.00  0.00    -0.224 NA
HETATM    3  C5  UNL     1       1.405  -2.760   0.987  1.00  0.00     0.236 A 
HETATM    4  N3  UNL     1       2.761  -2.634   0.956  1.00  0.00    -0.241 NA
HETATM    5  C6  UNL     1       3.297  -1.443   0.643  1.00  0.00     0.075 A 
HETATM    6  C7  UNL     1       4.671  -1.340   0.617  1.00  0.00     0.072 A 
HETATM    7  C8  UNL     1       5.193  -0.105   0.293  1.00  0.00     0.103 A 
HETATM    8  C10 UNL     1       4.394   0.982   0.005  1.00  0.00     0.102 A 
HETATM    9  C12 UNL     1       3.025   0.796   0.052  1.00  0.00     0.057 A 
HETATM   10  C13 UNL     1       2.446  -0.394   0.365  1.00  0.00     0.042 A 
ENDROOT
BRANCH   1  11
HETATM   11  N1  UNL     1       0.187   0.555   0.111  1.00  0.00    -0.339 N 
HETATM   12  H4  UNL     1       0.417   1.518  -0.142  1.00  0.00     0.167 HD
BRANCH  11  13
HETATM   13  C3  UNL     1      -1.214   0.270   0.183  1.00  0.00     0.052 A 
HETATM   14  P1  UNL     1      -1.833  -1.318   0.600  1.00  0.00     0.038 P 
HETATM   15  C2  UNL     1      -3.578  -1.355   0.606  1.00  0.00     0.118 A 
HETATM   16  C17 UNL     1      -4.215  -0.173   0.293  1.00  0.00     0.136 A 
HETATM   17  C15 UNL     1      -3.546   0.988  -0.011  1.00  0.00     0.106 A 
HETATM   18  C14 UNL     1      -2.207   1.198  -0.063  1.00  0.00     0.070 A 
BRANCH  15  19
HETATM   19  O1  UNL     1      -4.065  -2.606   0.935  1.00  0.00    -0.352 OA
HETATM   20  C1  UNL     1      -5.386  -3.011   1.045  1.00  0.00     0.210 C 
ENDBRANCH  15  19
BRANCH  16  21
HETATM   21  O5  UNL     1      -5.608  -0.280   0.317  1.00  0.00    -0.351 OA
HETATM   22  C18 UNL     1      -6.357  -0.614  -0.833  1.00  0.00     0.210 C 
ENDBRANCH  16  21
BRANCH  17  23
HETATM   23  O4  UNL     1      -4.414   2.037  -0.289  1.00  0.00    -0.353 OA
HETATM   24  C16 UNL     1      -3.841   3.285  -0.616  1.00  0.00     0.210 C 
ENDBRANCH  17  23
ENDBRANCH  11  13
ENDBRANCH   1  11
BRANCH   8  25
HETATM   25  O3  UNL     1       4.951   2.201  -0.316  1.00  0.00    -0.353 OA
HETATM   26  C11 UNL     1       4.130   3.309  -0.609  1.00  0.00     0.210 C 
ENDBRANCH   8  25
BRANCH   7  27
HETATM   27  O2  UNL     1       6.589   0.053   0.253  1.00  0.00    -0.353 OA
HETATM   28  C9  UNL     1       7.427  -1.050   0.545  1.00  0.00     0.210 C 
ENDBRANCH   7  27
TORSDOF 7
