REMARK  5 active torsions:
REMARK  status: ('A' for Active; 'I' for Inactive)
REMARK    1  A    between atoms: O1_2  and  C2_3 
REMARK    2  A    between atoms: C4_5  and  N1_6 
REMARK    3  A    between atoms: C8_10  and  C9_11 
REMARK    4  A    between atoms: C12_16  and  O2_17 
REMARK    5  A    between atoms: C14_19  and  O3_20 
ROOT
HETATM    1  C2  UNL     1      -2.083  -1.072  -0.088  1.00  0.00     0.106 A 
HETATM    2  C3  UNL     1      -0.751  -1.005   0.260  1.00  0.00     0.071 A 
HETATM    3  C4  UNL     1      -0.044   0.189   0.353  1.00  0.00     0.063 A 
HETATM    4  C11 UNL     1      -0.802   1.297   0.065  1.00  0.00     0.071 A 
HETATM    5  C12 UNL     1      -2.134   1.288  -0.287  1.00  0.00     0.106 A 
HETATM    6  C14 UNL     1      -2.789   0.080  -0.366  1.00  0.00     0.135 A 
ENDROOT
BRANCH   3   7
HETATM    7  N1  UNL     1       1.326   0.198   0.713  1.00  0.00    -0.245 N 
HETATM    8  C5  UNL     1       2.006   1.429   0.853  1.00  0.00     0.119 C 
HETATM    9  C6  UNL     1       3.292   1.667   0.632  1.00  0.00     0.020 C 
HETATM   10  C7  UNL     1       4.355   0.740   0.190  1.00  0.00     0.011 C 
HETATM   11  C8  UNL     1       4.272  -0.599   0.218  1.00  0.00    -0.030 C 
HETATM   12  C10 UNL     1       3.130  -1.410   0.686  1.00  0.00     0.147 C 
HETATM   13  N2  UNL     1       1.882  -1.076   0.897  1.00  0.00    -0.180 NA
BRANCH  11  14
HETATM   14  C9  UNL     1       5.452  -1.350  -0.272  1.00  0.00     0.119 C 
HETATM   15  I1  UNL     1       6.221  -2.595   1.299  1.00  0.00    -0.085 I 
ENDBRANCH  11  14
ENDBRANCH   3   7
BRANCH   1  16
HETATM   16  O1  UNL     1      -2.753  -2.281  -0.170  1.00  0.00    -0.353 OA
HETATM   17  C1  UNL     1      -2.186  -3.530   0.078  1.00  0.00     0.210 C 
ENDBRANCH   1  16
BRANCH   5  18
HETATM   18  O2  UNL     1      -2.836   2.450  -0.564  1.00  0.00    -0.353 OA
HETATM   19  C13 UNL     1      -2.128   3.679  -0.474  1.00  0.00     0.210 C 
ENDBRANCH   5  18
BRANCH   6  20
HETATM   20  O3  UNL     1      -4.118   0.007  -0.712  1.00  0.00    -0.351 OA
HETATM   21  C15 UNL     1      -5.181   0.053   0.212  1.00  0.00     0.210 C 
ENDBRANCH   6  20
TORSDOF 5
