REMARK  8 active torsions:
REMARK  status: ('A' for Active; 'I' for Inactive)
REMARK    1  A    between atoms: O1_2  and  C2_3 
REMARK    2  A    between atoms: C2_3  and  C3_4 
REMARK    3  A    between atoms: C3_4  and  C4_5 
REMARK    4  A    between atoms: C4_5  and  N1_6 
REMARK    5  A    between atoms: N1_6  and  C5_7 
REMARK    6  A    between atoms: C15_19  and  O2_20 
REMARK    7  A    between atoms: C15_19  and  C17_22 
REMARK    8  A    between atoms: C19_25  and  N4_26 
ROOT
HETATM    1  C4  UNL     1       0.601  -0.408  -1.806  1.00  0.00     0.151 C 
ENDROOT
BRANCH   1   2
HETATM    2  C3  UNL     1       1.884   0.163  -1.419  1.00  0.00     0.032 C 
BRANCH   2   3
HETATM    3  C2  UNL     1       2.412   0.768  -0.373  1.00  0.00     0.102 C 
HETATM    4  C15 UNL     1       3.792   1.202  -0.388  1.00  0.00     0.137 C 
BRANCH   3   5
HETATM    5  O1  UNL     1       1.843   1.094   0.847  1.00  0.00    -0.353 OA
HETATM    6  C1  UNL     1       1.601   2.466   1.108  1.00  0.00     0.210 C 
ENDBRANCH   3   5
BRANCH   4   7
HETATM    7  O2  UNL     1       3.950   2.496  -0.865  1.00  0.00    -0.351 OA
HETATM    8  C16 UNL     1       5.131   3.187  -0.502  1.00  0.00     0.210 C 
ENDBRANCH   4   7
BRANCH   4   9
HETATM    9  C17 UNL     1       4.803   0.478  -0.001  1.00  0.00     0.139 A 
HETATM   10  O3  UNL     1       6.193   0.545   0.124  1.00  0.00    -0.315 OA
HETATM   11  C18 UNL     1       6.248  -0.737   0.620  1.00  0.00     0.174 A 
HETATM   12  C19 UNL     1       4.953  -0.862   0.526  1.00  0.00     0.085 A 
BRANCH  12  13
HETATM   13  N4  UNL     1       4.030  -1.903   0.823  1.00  0.00    -0.395 N 
HETATM   14  H21 UNL     1       4.220  -2.558   1.615  1.00  0.00     0.156 HD
HETATM   15  H22 UNL     1       3.141  -2.058   0.278  1.00  0.00     0.156 HD
ENDBRANCH  12  13
ENDBRANCH   4   9
ENDBRANCH   2   3
ENDBRANCH   1   2
BRANCH   1  16
HETATM   16  N1  UNL     1      -0.438  -0.315  -0.793  1.00  0.00    -0.370 N 
HETATM   17  H7  UNL     1      -0.133   0.143   0.068  1.00  0.00     0.161 HD
BRANCH  16  18
HETATM   18  C5  UNL     1      -1.721  -0.848  -1.090  1.00  0.00     0.137 A 
HETATM   19  N2  UNL     1      -1.970  -1.424  -2.278  1.00  0.00    -0.224 NA
HETATM   20  C6  UNL     1      -3.161  -1.944  -2.613  1.00  0.00     0.236 A 
HETATM   21  N3  UNL     1      -4.186  -1.898  -1.722  1.00  0.00    -0.241 NA
HETATM   22  C7  UNL     1      -4.031  -1.341  -0.510  1.00  0.00     0.078 A 
HETATM   23  C8  UNL     1      -5.072  -1.298   0.388  1.00  0.00    -0.032 A 
HETATM   24  C14 UNL     1      -2.787  -0.824  -0.220  1.00  0.00     0.039 A 
HETATM   25  C9  UNL     1      -6.379  -1.885  -0.021  1.00  0.00     0.050 C 
HETATM   26  C10 UNL     1      -4.919  -0.725   1.640  1.00  0.00     0.015 A 
HETATM   27  C11 UNL     1      -3.674  -0.207   1.929  1.00  0.00    -0.060 A 
HETATM   28  C12 UNL     1      -3.525   0.405   3.279  1.00  0.00     0.048 C 
HETATM   29  C13 UNL     1      -2.633  -0.254   1.025  1.00  0.00     0.024 A 
ENDBRANCH  16  18
ENDBRANCH   1  16
TORSDOF 8
