REMARK  4 active torsions:
REMARK  status: ('A' for Active; 'I' for Inactive)
REMARK    1  A    between atoms: O1_2  and  C2_3 
REMARK    2  A    between atoms: C8_9  and  O2_10 
REMARK    3  A    between atoms: C10_12  and  O3_13 
REMARK    4  A    between atoms: C17_23  and  O5_24 
ROOT
HETATM    1  C2  UNL     1      -3.176   1.751   1.103  1.00  0.00     0.100 C 
HETATM    2  C3  UNL     1      -1.911   2.177   0.896  1.00  0.00     0.019 C 
HETATM    3  C4  UNL     1      -0.720   1.362   0.457  1.00  0.00    -0.016 C 
HETATM    4  C5  UNL     1       0.433   1.824   1.139  1.00  0.00     0.076 C 
HETATM    5  C6  UNL     1       1.648   1.042   0.744  1.00  0.00    -0.047 A 
HETATM    6  C7  UNL     1       2.768   1.283  -0.072  1.00  0.00     0.047 A 
HETATM    7  C8  UNL     1       3.781   0.360  -0.310  1.00  0.00     0.104 A 
HETATM    8  C10 UNL     1       3.699  -0.873   0.279  1.00  0.00     0.135 A 
HETATM    9  C12 UNL     1       2.667  -1.254   1.098  1.00  0.00     0.107 A 
HETATM   10  C13 UNL     1       1.718  -0.292   1.284  1.00  0.00     0.047 A 
HETATM   11  O4  UNL     1       2.438  -2.433   1.746  1.00  0.00    -0.327 OA
HETATM   12  C14 UNL     1       1.292  -3.227   1.424  1.00  0.00     0.325 C 
HETATM   13  N1  UNL     1       0.039  -2.596   1.625  1.00  0.00    -0.259 NA
HETATM   14  C15 UNL     1      -0.817  -2.366   0.670  1.00  0.00     0.203 C 
HETATM   15  N2  UNL     1      -2.123  -1.779   0.493  1.00  0.00    -0.352 N 
HETATM   16  C16 UNL     1      -2.301  -0.385   0.263  1.00  0.00     0.047 C 
HETATM   17  C17 UNL     1      -3.311   0.328   0.734  1.00  0.00     0.123 C 
HETATM   18  C19 UNL     1      -1.292   0.325  -0.547  1.00  0.00     0.070 C 
HETATM   19  H17 UNL     1      -3.035  -2.246   0.509  1.00  0.00     0.166 HD
ENDROOT
BRANCH   1  20
HETATM   20  O1  UNL     1      -4.159   2.569   1.592  1.00  0.00    -0.353 OA
HETATM   21  C1  UNL     1      -4.854   3.394   0.675  1.00  0.00     0.210 C 
ENDBRANCH   1  20
BRANCH  17  22
HETATM   22  O5  UNL     1      -4.527  -0.304   0.879  1.00  0.00    -0.351 OA
HETATM   23  C18 UNL     1      -5.325  -0.608  -0.231  1.00  0.00     0.210 C 
ENDBRANCH  17  22
BRANCH   7  24
HETATM   24  O2  UNL     1       4.767   0.820  -1.133  1.00  0.00    -0.353 OA
HETATM   25  C9  UNL     1       4.732   2.119  -1.680  1.00  0.00     0.210 C 
ENDBRANCH   7  24
BRANCH   8  26
HETATM   26  O3  UNL     1       4.705  -1.792   0.043  1.00  0.00    -0.351 OA
HETATM   27  C11 UNL     1       4.673  -2.719  -1.021  1.00  0.00     0.210 C 
ENDBRANCH   8  26
TORSDOF 4
