REMARK  4 active torsions:
REMARK  status: ('A' for Active; 'I' for Inactive)
REMARK    1  A    between atoms: O1_2  and  C2_3 
REMARK    2  A    between atoms: C4_5  and  N1_6 
REMARK    3  A    between atoms: N1_6  and  C5_7 
REMARK    4  A    between atoms: C17_22  and  O3_23 
ROOT
HETATM    1  C2  UNL     1      -3.210   0.643   1.373  1.00  0.00     0.106 A 
HETATM    2  C3  UNL     1      -1.863   0.857   1.220  1.00  0.00     0.069 A 
HETATM    3  C4  UNL     1      -0.996   0.035   0.490  1.00  0.00     0.039 A 
HETATM    4  C14 UNL     1      -1.633  -1.045  -0.081  1.00  0.00     0.069 A 
HETATM    5  C15 UNL     1      -2.974  -1.355   0.008  1.00  0.00     0.106 A 
HETATM    6  O2  UNL     1      -3.533  -2.353  -0.528  1.00  0.00    -0.353 OA
HETATM    7  C16 UNL     1      -4.000  -3.424  -1.132  1.00  0.00     0.210 C 
HETATM    8  C17 UNL     1      -3.755  -0.466   0.763  1.00  0.00     0.135 A 
ENDROOT
BRANCH   8   9
HETATM    9  O3  UNL     1      -5.110  -0.697   0.907  1.00  0.00    -0.351 OA
HETATM   10  C18 UNL     1      -6.126  -0.234   0.074  1.00  0.00     0.210 C 
ENDBRANCH   8   9
BRANCH   3  11
HETATM   11  N1  UNL     1       0.379   0.356   0.402  1.00  0.00    -0.340 N 
HETATM   12  H5  UNL     1       0.665   1.238   0.884  1.00  0.00     0.167 HD
BRANCH  11  13
HETATM   13  C5  UNL     1       1.382  -0.376  -0.258  1.00  0.00     0.141 A 
HETATM   14  N2  UNL     1       1.233  -1.524  -0.933  1.00  0.00    -0.224 NA
HETATM   15  C6  UNL     1       2.203  -2.205  -1.552  1.00  0.00     0.236 A 
HETATM   16  N3  UNL     1       3.467  -1.748  -1.532  1.00  0.00    -0.241 NA
HETATM   17  C7  UNL     1       3.704  -0.602  -0.876  1.00  0.00     0.074 A 
HETATM   18  C8  UNL     1       2.686   0.080  -0.246  1.00  0.00     0.036 A 
HETATM   19  C12 UNL     1       4.862   0.018  -0.731  1.00  0.00    -0.047 A 
HETATM   20  C9  UNL     1       3.213   1.179   0.323  1.00  0.00    -0.000 A 
HETATM   21  C10 UNL     1       4.683   1.265   0.072  1.00  0.00     0.036 A 
HETATM   22  C11 UNL     1       5.105   2.489  -0.663  1.00  0.00     0.019 C 
HETATM   23  C13 UNL     1       6.200  -0.396  -1.255  1.00  0.00     0.046 C 
ENDBRANCH  11  13
ENDBRANCH   3  11
BRANCH   1  24
HETATM   24  O1  UNL     1      -3.993   1.510   2.115  1.00  0.00    -0.353 OA
HETATM   25  C1  UNL     1      -3.467   2.649   2.749  1.00  0.00     0.210 C 
ENDBRANCH   1  24
TORSDOF 4
