REMARK  7 active torsions:
REMARK  status: ('A' for Active; 'I' for Inactive)
REMARK    1  A    between atoms: O1_2  and  C2_3 
REMARK    2  A    between atoms: C2_3  and  C3_4 
REMARK    3  A    between atoms: C9_10  and  N1_11 
REMARK    4  A    between atoms: N1_11  and  C10_12 
REMARK    5  A    between atoms: C10_12  and  C11_13 
REMARK    6  A    between atoms: C13_15  and  O2_16 
REMARK    7  A    between atoms: C13_15  and  O3_17 
ROOT
HETATM    1  C3  UNL     1      -3.471   0.078   0.302  1.00  0.00    -0.004 A 
HETATM    2  C4  UNL     1      -3.307   0.710  -0.904  1.00  0.00     0.018 A 
HETATM    3  C5  UNL     1      -2.081   1.064  -1.394  1.00  0.00    -0.060 A 
HETATM    4  C6  UNL     1      -1.991   1.729  -2.717  1.00  0.00     0.048 C 
HETATM    5  C7  UNL     1      -0.981   0.767  -0.632  1.00  0.00     0.024 A 
HETATM    6  C8  UNL     1      -0.993   0.130   0.612  1.00  0.00     0.040 A 
HETATM    7  C9  UNL     1       0.160  -0.151   1.361  1.00  0.00     0.137 A 
HETATM    8  N2  UNL     1      -0.051  -0.765   2.534  1.00  0.00    -0.224 NA
HETATM    9  C15 UNL     1      -1.265  -1.097   2.977  1.00  0.00     0.236 A 
HETATM   10  N3  UNL     1      -2.305  -0.798   2.211  1.00  0.00    -0.241 NA
HETATM   11  C16 UNL     1      -2.292  -0.191   1.020  1.00  0.00     0.080 A 
ENDROOT
BRANCH   7  12
HETATM   12  N1  UNL     1       1.303   0.290   0.693  1.00  0.00    -0.370 N 
HETATM   13  H11 UNL     1       1.966  -0.077   1.456  1.00  0.00     0.161 HD
BRANCH  12  14
HETATM   14  C10 UNL     1       2.461   0.722   0.043  1.00  0.00     0.160 C 
BRANCH  14  15
HETATM   15  C11 UNL     1       3.483  -0.324  -0.264  1.00  0.00    -0.008 C 
HETATM   16  C12 UNL     1       3.025  -1.434  -1.109  1.00  0.00     0.050 C 
HETATM   17  C13 UNL     1       4.727  -0.314   0.167  1.00  0.00     0.181 C 
BRANCH  17  18
HETATM   18  O2  UNL     1       5.772  -1.204  -0.033  1.00  0.00    -0.341 OA
HETATM   19  H17 UNL     1       5.505  -2.149  -0.287  1.00  0.00     0.220 HD
ENDBRANCH  17  18
BRANCH  17  20
HETATM   20  O3  UNL     1       5.648   0.364   0.906  1.00  0.00    -0.336 OA
HETATM   21  C14 UNL     1       6.428   1.450   0.507  1.00  0.00     0.212 C 
ENDBRANCH  17  20
ENDBRANCH  14  15
ENDBRANCH  12  14
ENDBRANCH   7  12
BRANCH   1  22
HETATM   22  C2  UNL     1      -4.670  -0.370   1.020  1.00  0.00     0.208 C 
BRANCH  22  23
HETATM   23  O1  UNL     1      -5.799  -0.416   0.277  1.00  0.00    -0.391 OA
HETATM   24  C1  UNL     1      -5.921  -1.275  -0.765  1.00  0.00     0.201 C 
ENDBRANCH  22  23
ENDBRANCH   1  22
TORSDOF 7
