REMARK  1 active torsions:
REMARK  status: ('A' for Active; 'I' for Inactive)
REMARK    1  A    between atoms: C3_5  and  N2_6 
ROOT
HETATM    1  N2  UNL     1       1.849  -0.620  -0.022  1.00  0.00    -0.165 N 
HETATM    2  C4  UNL     1       1.329  -1.935   0.149  1.00  0.00     0.115 C 
HETATM    3  C5  UNL     1       0.099  -2.484   0.154  1.00  0.00     0.020 C 
HETATM    4  C6  UNL     1      -1.202  -1.837  -0.032  1.00  0.00     0.027 C 
HETATM    5  C7  UNL     1      -1.698  -0.660   0.247  1.00  0.00     0.013 C 
HETATM    6  N3  UNL     1      -3.002  -0.928  -0.286  1.00  0.00    -0.393 N 
HETATM    7  C8  UNL     1      -3.985  -0.067  -0.874  1.00  0.00     0.119 C 
HETATM    8  C9  UNL     1      -4.249   1.208  -0.151  1.00  0.00     0.020 C 
HETATM    9  C10 UNL     1      -3.005   2.064  -0.004  1.00  0.00     0.002 C 
HETATM   10  C11 UNL     1      -2.178   1.622   1.155  1.00  0.00     0.015 C 
HETATM   11  C12 UNL     1      -1.182   0.552   0.880  1.00  0.00     0.059 C 
HETATM   12  C13 UNL     1      -0.017   1.071   0.103  1.00  0.00     0.002 C 
HETATM   13  C14 UNL     1       1.176   0.613  -0.253  1.00  0.00     0.111 C 
HETATM   14  H5  UNL     1      -3.245  -1.957  -0.215  1.00  0.00     0.159 HD
ENDROOT
BRANCH   1  15
HETATM   15  C3  UNL     1       3.262  -0.504   0.044  1.00  0.00     0.732 A 
HETATM   16  N1  UNL     1       3.813   0.713  -0.110  1.00  0.00    -0.073 NA
HETATM   17  C2  UNL     1       5.168   0.887  -0.057  1.00  0.00     0.161 A 
HETATM   18  C1  UNL     1       5.907  -0.258   0.163  1.00  0.00     0.070 A 
HETATM   19 CL1  UNL     1       7.670  -0.161   0.253  1.00  0.00    -0.081 Cl
HETATM   20  C15 UNL     1       5.371  -1.531   0.327  1.00  0.00     0.161 A 
HETATM   21  N4  UNL     1       4.018  -1.595   0.256  1.00  0.00    -0.073 NA
ENDBRANCH   1  15
TORSDOF 1
