REMARK  1 active torsions:
REMARK  status: ('A' for Active; 'I' for Inactive)
REMARK    1  A    between atoms: O1_2  and  C2_3 
ROOT
HETATM    1  C2  UNL     1       3.436   0.582   0.470  1.00  0.00     0.067 A 
HETATM    2  C3  UNL     1       3.636  -0.531   1.197  1.00  0.00     0.046 A 
HETATM    3  C4  UNL     1       2.321  -1.246   1.464  1.00  0.00     0.183 A 
HETATM    4  O2  UNL     1       2.386  -2.482   0.900  1.00  0.00    -0.355 OA
HETATM    5  C5  UNL     1       1.222  -2.912   0.321  1.00  0.00     0.342 C 
HETATM    6  N1  UNL     1       0.087  -3.032   1.177  1.00  0.00    -0.166 NA
HETATM    7  N2  UNL     1      -1.114  -2.879   0.803  1.00  0.00    -0.147 NA
HETATM    8  C6  UNL     1      -1.494  -2.561  -0.547  1.00  0.00     0.251 C 
HETATM    9  N3  UNL     1      -1.533  -1.704  -1.543  1.00  0.00    -0.270 NA
HETATM   10  C7  UNL     1      -0.924  -0.394  -1.273  1.00  0.00     0.149 C 
HETATM   11  C8  UNL     1      -1.832   0.658  -1.800  1.00  0.00     0.060 C 
HETATM   12  C9  UNL     1      -3.088   0.851  -1.076  1.00  0.00    -0.018 C 
HETATM   13  C10 UNL     1      -3.432   1.217   0.168  1.00  0.00    -0.066 C 
HETATM   14  C11 UNL     1      -4.869   1.323   0.610  1.00  0.00     0.048 C 
HETATM   15  C12 UNL     1      -2.445   1.548   1.212  1.00  0.00     0.008 C 
HETATM   16  C13 UNL     1      -1.251   1.052   1.410  1.00  0.00     0.014 C 
HETATM   17  P1  UNL     1      -0.398  -0.222   0.459  1.00  0.00    -0.035 P 
HETATM   18  C14 UNL     1       1.371  -0.352   0.774  1.00  0.00    -0.012 A 
HETATM   19  C15 UNL     1       1.986   0.699   0.199  1.00  0.00     0.047 A 
ENDROOT
BRANCH   1  20
HETATM   20  O1  UNL     1       4.664   1.212   0.243  1.00  0.00    -0.356 OA
HETATM   21  C1  UNL     1       4.676   2.174  -0.817  1.00  0.00     0.210 C 
ENDBRANCH   1  20
TORSDOF 1
