REMARK  4 active torsions:
REMARK  status: ('A' for Active; 'I' for Inactive)
REMARK    1  A    between atoms: C2_2  and  C3_3 
REMARK    2  A    between atoms: C11_13  and  O1_14 
REMARK    3  A    between atoms: C13_16  and  O2_17 
REMARK    4  A    between atoms: C15_19  and  O3_20 
ROOT
HETATM    1  C3  UNL     1       3.467  -0.254  -0.890  1.00  0.00    -0.061 A 
HETATM    2  C4  UNL     1       3.526  -1.411  -0.222  1.00  0.00    -0.007 A 
HETATM    3  C5  UNL     1       2.158  -1.661   0.361  1.00  0.00     0.066 A 
HETATM    4  C6  UNL     1       2.348  -1.768   1.806  1.00  0.00     0.006 C 
HETATM    5  C7  UNL     1       1.768  -2.651   2.600  1.00  0.00     0.115 C 
HETATM    6  N1  UNL     1       0.854  -3.649   2.166  1.00  0.00    -0.256 NA
HETATM    7  C8  UNL     1      -0.023  -3.285   1.298  1.00  0.00     0.207 C 
HETATM    8  N2  UNL     1      -0.891  -2.714   0.368  1.00  0.00    -0.350 N 
HETATM    9  C9  UNL     1      -1.066  -1.314   0.201  1.00  0.00     0.046 C 
HETATM   10  C10 UNL     1      -2.370  -1.168   0.000  1.00  0.00     0.069 C 
HETATM   11  C11 UNL     1      -3.089   0.106  -0.231  1.00  0.00     0.102 C 
HETATM   12  C13 UNL     1      -2.674   1.311   0.199  1.00  0.00     0.111 C 
HETATM   13  C15 UNL     1      -1.478   1.680   0.964  1.00  0.00     0.201 C 
HETATM   14  C16 UNL     1      -0.247   0.987   0.570  1.00  0.00     0.025 C 
HETATM   15  C17 UNL     1      -0.044  -0.281   0.241  1.00  0.00    -0.003 C 
HETATM   16  C18 UNL     1       1.362  -0.494  -0.079  1.00  0.00    -0.034 A 
HETATM   17  C19 UNL     1       2.136   0.326  -0.812  1.00  0.00     0.015 A 
HETATM   18  H11 UNL     1      -1.418  -3.401  -0.213  1.00  0.00     0.166 HD
ENDROOT
BRANCH   1  19
HETATM   19  C2  UNL     1       4.607   0.374  -1.624  1.00  0.00     0.034 C 
HETATM   20  C1  UNL     1       4.923   1.733  -1.067  1.00  0.00     0.010 C 
ENDBRANCH   1  19
BRANCH  13  21
HETATM   21  O3  UNL     1      -1.286   3.048   0.773  1.00  0.00    -0.385 OA
HETATM   22  H20 UNL     1      -1.187   3.194  -0.218  1.00  0.00     0.210 HD
ENDBRANCH  13  21
BRANCH  11  23
HETATM   23  O1  UNL     1      -4.291   0.035  -0.954  1.00  0.00    -0.353 OA
HETATM   24  C12 UNL     1      -4.439   0.447  -2.281  1.00  0.00     0.210 C 
ENDBRANCH  11  23
BRANCH  12  25
HETATM   25  O2  UNL     1      -3.584   2.306  -0.188  1.00  0.00    -0.354 OA
HETATM   26  C14 UNL     1      -4.651   2.548   0.732  1.00  0.00     0.209 C 
ENDBRANCH  12  25
TORSDOF 4
