REMARK  4 active torsions:
REMARK  status: ('A' for Active; 'I' for Inactive)
REMARK    1  A    between atoms: O1_2  and  C2_3 
REMARK    2  A    between atoms: N1_6  and  C5_7 
REMARK    3  A    between atoms: N3_10  and  C7_11 
REMARK    4  A    between atoms: C14_18  and  O2_19 
ROOT
HETATM    1  C2  UNL     1      -2.356  -0.036  -0.122  1.00  0.00     0.103 A 
HETATM    2  C3  UNL     1      -1.984   0.999  -0.861  1.00  0.00     0.073 A 
HETATM    3  C4  UNL     1      -0.563   1.305  -1.072  1.00  0.00     0.089 A 
HETATM    4  N1  UNL     1      -0.090   2.273  -1.762  1.00  0.00    -0.240 NA
HETATM    5  C6  UNL     1       0.422   0.420  -0.431  1.00  0.00     0.089 A 
HETATM    6  N3  UNL     1       1.665   0.623  -0.569  1.00  0.00    -0.247 NA
HETATM    7  C13 UNL     1      -0.095  -0.699   0.366  1.00  0.00     0.073 A 
HETATM    8  C14 UNL     1      -1.387  -0.909   0.509  1.00  0.00     0.103 A 
ENDROOT
BRANCH   6   9
HETATM    9  C7  UNL     1       2.737  -0.101  -0.044  1.00  0.00     0.057 A 
HETATM   10  C8  UNL     1       3.004  -1.456  -0.140  1.00  0.00     0.031 A 
HETATM   11  C9  UNL     1       4.133  -1.970   0.461  1.00  0.00     0.002 A 
HETATM   12  C10 UNL     1       5.025  -1.172   1.168  1.00  0.00     0.000 A 
HETATM   13  C11 UNL     1       4.770   0.175   1.270  1.00  0.00     0.002 A 
HETATM   14  C12 UNL     1       3.638   0.691   0.667  1.00  0.00     0.031 A 
ENDBRANCH   6   9
BRANCH   4  15
HETATM   15  C5  UNL     1      -0.842   3.241  -2.459  1.00  0.00     0.224 C 
HETATM   16  N2  UNL     1      -0.526   4.204  -1.639  1.00  0.00    -0.293 NA
HETATM   17  H6  UNL     1      -0.888   5.164  -1.784  1.00  0.00     0.187 HD
ENDBRANCH   4  15
BRANCH   8  18
HETATM   18  O2  UNL     1      -1.883  -1.968   1.264  1.00  0.00    -0.353 OA
HETATM   19  C15 UNL     1      -2.603  -1.655   2.442  1.00  0.00     0.210 C 
ENDBRANCH   8  18
BRANCH   1  20
HETATM   20  O1  UNL     1      -3.738  -0.154  -0.046  1.00  0.00    -0.353 OA
HETATM   21  C1  UNL     1      -4.396  -0.723  -1.163  1.00  0.00     0.210 C 
ENDBRANCH   1  20
TORSDOF 4
