REMARK  9 active torsions:
REMARK  status: ('A' for Active; 'I' for Inactive)
REMARK    1  A    between atoms: C2_2  and  C3_3 
REMARK    2  A    between atoms: C5_5  and  N1_6 
REMARK    3  A    between atoms: C8_11  and  P1_12 
REMARK    4  A    between atoms: P1_12  and  C9_13 
REMARK    5  A    between atoms: C11_15  and  C12_16 
REMARK    6  A    between atoms: C12_16  and  C13_17 
REMARK    7  A    between atoms: C13_17  and  O1_18 
REMARK    8  A    between atoms: C15_20  and  O2_21 
REMARK    9  A    between atoms: C17_23  and  O3_24 
ROOT
HETATM    1  N1  UNL     1      -0.305   0.893   0.864  1.00  0.00    -0.289 N 
HETATM    2  C6  UNL     1      -0.501   1.754   1.903  1.00  0.00     0.218 A 
HETATM    3  N2  UNL     1       0.519   2.245   2.617  1.00  0.00    -0.236 NA
HETATM    4  C7  UNL     1       1.803   1.899   2.330  1.00  0.00     0.236 A 
HETATM    5  N3  UNL     1       1.975   1.049   1.303  1.00  0.00    -0.223 NA
HETATM    6  C8  UNL     1       0.952   0.555   0.584  1.00  0.00     0.148 A 
ENDROOT
BRANCH   1   7
HETATM    7  C5  UNL     1      -1.490   0.458   0.198  1.00  0.00     0.045 A 
HETATM    8  C4  UNL     1      -1.862  -0.826  -0.150  1.00  0.00     0.040 A 
HETATM    9  C3  UNL     1      -3.050  -1.054  -0.794  1.00  0.00    -0.020 A 
HETATM   10  C17 UNL     1      -3.901  -0.045  -1.116  1.00  0.00     0.105 A 
HETATM   11  C15 UNL     1      -3.575   1.255  -0.791  1.00  0.00     0.103 A 
HETATM   12  C14 UNL     1      -2.375   1.488  -0.139  1.00  0.00     0.069 A 
BRANCH   9  13
HETATM   13  C2  UNL     1      -3.414  -2.451  -1.150  1.00  0.00     0.037 C 
HETATM   14  C1  UNL     1      -4.470  -2.940  -0.172  1.00  0.00     0.010 C 
ENDBRANCH   9  13
BRANCH  10  15
HETATM   15  O3  UNL     1      -5.118  -0.271  -1.776  1.00  0.00    -0.357 OA
HETATM   16  H22 UNL     1      -5.944   0.237  -1.542  1.00  0.00     0.217 HD
ENDBRANCH  10  15
BRANCH  11  17
HETATM   17  O2  UNL     1      -4.446   2.284  -1.121  1.00  0.00    -0.353 OA
HETATM   18  C16 UNL     1      -4.207   3.628  -0.835  1.00  0.00     0.210 C 
ENDBRANCH  11  17
ENDBRANCH   1   7
BRANCH   6  19
HETATM   19  P1  UNL     1       1.157  -0.505  -0.703  1.00  0.00     0.026 P 
BRANCH  19  20
HETATM   20  C9  UNL     1       2.903  -0.977  -1.097  1.00  0.00    -0.048 C 
HETATM   21  C10 UNL     1       3.115  -2.230  -1.862  1.00  0.00     0.049 C 
HETATM   22  C11 UNL     1       3.994  -0.322  -0.772  1.00  0.00    -0.016 C 
BRANCH  22  23
HETATM   23  C12 UNL     1       5.473  -0.272  -0.836  1.00  0.00     0.054 C 
BRANCH  23  24
HETATM   24  C13 UNL     1       6.072  -0.275   0.555  1.00  0.00     0.168 C 
BRANCH  24  25
HETATM   25  O1  UNL     1       7.455  -0.231   0.539  1.00  0.00    -0.401 OA
HETATM   26  H17 UNL     1       7.821   0.567   0.090  1.00  0.00     0.209 HD
ENDBRANCH  24  25
ENDBRANCH  23  24
ENDBRANCH  22  23
ENDBRANCH  19  20
ENDBRANCH   6  19
TORSDOF 9
