REMARK  7 active torsions:
REMARK  status: ('A' for Active; 'I' for Inactive)
REMARK       I    between atoms: C2_2  and  N1_4 
REMARK    1  A    between atoms: N1_4  and  C3_5 
REMARK    2  A    between atoms: C7_9  and  O2_10 
REMARK    3  A    between atoms: O2_10  and  C8_11 
REMARK    4  A    between atoms: C9_13  and  C10_14 
REMARK    5  A    between atoms: C13_17  and  N3_18 
REMARK    6  A    between atoms: C20_26  and  O3_27 
REMARK    7  A    between atoms: C23_31  and  N6_32 
ROOT
HETATM    1  C8  UNL     1       2.237  -0.396  -1.030  1.00  0.00     0.200 A 
HETATM    2  N2  UNL     1       0.971  -0.308  -0.526  1.00  0.00    -0.202 NA
HETATM    3  C9  UNL     1      -0.003   0.349  -1.160  1.00  0.00     0.165 A 
HETATM    4  N5  UNL     1       0.249   0.960  -2.352  1.00  0.00    -0.238 NA
HETATM    5  C22 UNL     1       1.482   0.899  -2.887  1.00  0.00     0.152 A 
HETATM    6  C23 UNL     1       2.487   0.221  -2.231  1.00  0.00     0.097 A 
ENDROOT
BRANCH   3   7
HETATM    7  C10 UNL     1      -1.366   0.459  -0.643  1.00  0.00     0.045 A 
HETATM    8  C11 UNL     1      -2.366   1.142  -1.311  1.00  0.00     0.020 A 
HETATM    9  C12 UNL     1      -3.654   1.249  -0.827  1.00  0.00     0.030 A 
HETATM   10  C13 UNL     1      -3.995   0.660   0.373  1.00  0.00     0.033 A 
HETATM   11  C19 UNL     1      -3.001  -0.022   1.044  1.00  0.00     0.067 A 
HETATM   12  C20 UNL     1      -1.706  -0.133   0.564  1.00  0.00     0.084 A 
BRANCH  10  13
HETATM   13  N3  UNL     1      -5.303   0.739   0.915  1.00  0.00    -0.377 N 
HETATM   14  C14 UNL     1      -5.773   0.173   2.159  1.00  0.00     0.153 C 
HETATM   15  C15 UNL     1      -6.846  -0.848   1.824  1.00  0.00     0.291 C 
HETATM   16  N4  UNL     1      -7.824  -0.308   0.901  1.00  0.00     0.087 N 
HETATM   17  C16 UNL     1      -7.807  -0.959  -0.373  1.00  0.00     0.310 C 
HETATM   18  C17 UNL     1      -7.714   1.109   0.740  1.00  0.00     0.291 C 
HETATM   19  C18 UNL     1      -6.344   1.452   0.199  1.00  0.00     0.153 C 
ENDBRANCH  10  13
BRANCH  12  20
HETATM   20  O3  UNL     1      -0.693  -0.817   1.225  1.00  0.00    -0.355 OA
HETATM   21  C21 UNL     1      -1.041  -1.422   2.458  1.00  0.00     0.210 C 
ENDBRANCH  12  20
ENDBRANCH   3   7
BRANCH   1  22
HETATM   22  O2  UNL     1       3.068  -1.123  -0.200  1.00  0.00    -0.290 OA
BRANCH  22  23
HETATM   23  C7  UNL     1       4.397  -1.392  -0.422  1.00  0.00     0.080 A 
HETATM   24  C6  UNL     1       4.763  -2.528  -1.111  1.00  0.00     0.037 A 
HETATM   25  C5  UNL     1       6.105  -2.746  -1.304  1.00  0.00     0.005 A 
HETATM   26  C4  UNL     1       7.010  -1.835  -0.808  1.00  0.00     0.029 A 
HETATM   27  C3  UNL     1       6.677  -0.697  -0.119  1.00  0.00     0.037 A 
HETATM   28  C24 UNL     1       5.337  -0.506   0.057  1.00  0.00     0.066 A 
BRANCH  27  29
HETATM   29  N1  UNL     1       7.569   0.266   0.408  1.00  0.00    -0.327 N 
HETATM   30  C2  UNL     1       8.974   0.303   0.363  1.00  0.00     0.218 C 
HETATM   31  C1  UNL     1       9.825   1.359   0.948  1.00  0.00     0.117 C 
HETATM   32  O1  UNL     1       9.605  -0.611  -0.207  1.00  0.00    -0.274 OA
HETATM   33  H4  UNL     1       7.197   1.094   0.916  1.00  0.00     0.169 HD
ENDBRANCH  27  29
ENDBRANCH  22  23
ENDBRANCH   1  22
BRANCH   6  34
HETATM   34  N6  UNL     1       3.830   0.073  -2.671  1.00  0.00    -0.394 N 
HETATM   35  H26 UNL     1       4.740   0.571  -2.567  1.00  0.00     0.156 HD
HETATM   36  H27 UNL     1       3.975  -0.767  -3.275  1.00  0.00     0.156 HD
ENDBRANCH   6  34
TORSDOF 7
