REMARK  5 active torsions:
REMARK  status: ('A' for Active; 'I' for Inactive)
REMARK    1  A    between atoms: N1_2  and  C2_3 
REMARK    2  A    between atoms: C2_3  and  C11_15 
REMARK    3  A    between atoms: C5_6  and  O1_7 
REMARK    4  A    between atoms: C7_9  and  C8_10 
REMARK    5  A    between atoms: C8_10  and  N2_11 
ROOT
HETATM    1  C2  UNL     1       1.374   0.430  -0.436  1.00  0.00     0.078 C 
HETATM    2  C3  UNL     1       0.132   0.122  -0.173  1.00  0.00     0.024 A 
HETATM    3  C4  UNL     1      -0.876   0.855  -0.929  1.00  0.00     0.053 A 
HETATM    4  C5  UNL     1      -2.175   0.616  -0.701  1.00  0.00     0.077 A 
HETATM    5  C7  UNL     1      -2.663  -0.354   0.276  1.00  0.00     0.005 A 
HETATM    6  C9  UNL     1      -1.800  -1.048   0.990  1.00  0.00     0.043 A 
HETATM    7  C10 UNL     1      -0.372  -0.840   0.797  1.00  0.00     0.061 A 
HETATM    8  N3  UNL     1       0.505  -1.489   1.478  1.00  0.00    -0.299 NA
HETATM    9  H12 UNL     1       0.165  -2.183   2.177  1.00  0.00     0.187 HD
ENDROOT
BRANCH   1  10
HETATM   10  N1  UNL     1       1.648   1.433  -1.411  1.00  0.00    -0.270 NA
HETATM   11  C1  UNL     1       1.446   1.127  -2.661  1.00  0.00     0.149 C 
ENDBRANCH   1  10
BRANCH   1  12
HETATM   12  C11 UNL     1       2.679  -0.016  -0.030  1.00  0.00    -0.006 A 
HETATM   13  C12 UNL     1       2.892  -1.375  -0.111  1.00  0.00     0.014 A 
HETATM   14  C13 UNL     1       4.128  -1.885   0.302  1.00  0.00     0.001 A 
HETATM   15  C14 UNL     1       5.119  -1.068   0.780  1.00  0.00     0.000 A 
HETATM   16  C15 UNL     1       4.905   0.292   0.860  1.00  0.00     0.001 A 
HETATM   17  C16 UNL     1       3.690   0.815   0.457  1.00  0.00     0.014 A 
ENDBRANCH   1  12
BRANCH   4  18
HETATM   18  O1  UNL     1      -3.195   1.287  -1.393  1.00  0.00    -0.355 OA
HETATM   19  C6  UNL     1      -3.440   2.617  -0.914  1.00  0.00     0.210 C 
ENDBRANCH   4  18
BRANCH   5  20
HETATM   20  C8  UNL     1      -4.120  -0.576   0.491  1.00  0.00     0.308 C 
BRANCH  20  21
HETATM   21  N2  UNL     1      -4.369  -1.568   1.509  1.00  0.00     0.082 N 
HETATM   22  H9  UNL     1      -4.221  -2.520   1.171  1.00  0.00     0.313 HD
HETATM   23  H10 UNL     1      -3.909  -1.329   2.409  1.00  0.00     0.313 HD
ENDBRANCH  20  21
ENDBRANCH   5  20
TORSDOF 5
