REMARK  5 active torsions:
REMARK  status: ('A' for Active; 'I' for Inactive)
REMARK    1  A    between atoms: O1_2  and  C2_3 
REMARK    2  A    between atoms: C6_9  and  S1_10 
REMARK    3  A    between atoms: S1_10  and  C7_11 
REMARK    4  A    between atoms: C14_19  and  N3_20 
REMARK    5  A    between atoms: N3_20  and  O2_21 
ROOT
HETATM    1  C2  UNL     1      -3.013  -0.447   0.410  1.00  0.00     0.050 A 
HETATM    2  C3  UNL     1      -2.597  -1.626   0.814  1.00  0.00     0.064 A 
HETATM    3  C4  UNL     1      -1.263  -2.017   0.401  1.00  0.00     0.071 A 
HETATM    4  N1  UNL     1      -0.743  -3.202   0.759  1.00  0.00    -0.241 NA
HETATM    5  C5  UNL     1       0.500  -3.534   0.356  1.00  0.00     0.234 A 
HETATM    6  N2  UNL     1       1.208  -2.671  -0.403  1.00  0.00    -0.234 NA
HETATM    7  C6  UNL     1       0.701  -1.460  -0.780  1.00  0.00     0.110 A 
HETATM    8  C13 UNL     1      -0.571  -1.112  -0.372  1.00  0.00     0.027 A 
HETATM    9  C14 UNL     1      -0.972   0.226  -0.860  1.00  0.00     0.127 A 
HETATM   10  C15 UNL     1      -2.359   0.606  -0.421  1.00  0.00     0.091 A 
ENDROOT
BRANCH   7  11
HETATM   11  S1  UNL     1       1.876  -0.553  -1.777  1.00  0.00    -0.070 SA
BRANCH  11  12
HETATM   12  C7  UNL     1       2.896   0.426  -0.682  1.00  0.00     0.008 A 
HETATM   13  C8  UNL     1       4.032  -0.277  -0.264  1.00  0.00     0.019 A 
HETATM   14  C9  UNL     1       4.949   0.310   0.589  1.00  0.00     0.003 A 
HETATM   15  C10 UNL     1       4.751   1.619   1.046  1.00  0.00     0.024 A 
HETATM   16  C11 UNL     1       3.619   2.281   0.612  1.00  0.00     0.035 A 
HETATM   17 CL1  UNL     1       3.209   3.937   1.087  1.00  0.00    -0.084 Cl
HETATM   18  C12 UNL     1       2.707   1.719  -0.226  1.00  0.00     0.042 A 
ENDBRANCH  11  12
ENDBRANCH   7  11
BRANCH   9  19
HETATM   19  N3  UNL     1      -0.956   0.218  -2.313  1.00  0.00    -0.199 NA
HETATM   20  H11 UNL     1      -1.611  -0.529  -2.618  1.00  0.00     0.154 HD
BRANCH  19  21
HETATM   21  O2  UNL     1      -1.309   1.400  -2.829  1.00  0.00    -0.315 OA
HETATM   22  H12 UNL     1      -1.822   1.249  -3.675  1.00  0.00     0.236 HD
ENDBRANCH  19  21
ENDBRANCH   9  19
BRANCH   1  23
HETATM   23  O1  UNL     1      -4.295  -0.052   0.798  1.00  0.00    -0.360 OA
HETATM   24  C1  UNL     1      -4.574   0.819   1.852  1.00  0.00     0.209 C 
ENDBRANCH   1  23
TORSDOF 5
