REMARK  4 active torsions:
REMARK  status: ('A' for Active; 'I' for Inactive)
REMARK    1  A    between atoms: O1_2  and  C2_3 
REMARK    2  A    between atoms: C6_9  and  S1_10 
REMARK    3  A    between atoms: S1_10  and  C7_11 
REMARK    4  A    between atoms: C15_20  and  O2_21 
ROOT
HETATM    1  C2  UNL     1       2.882  -0.352  -0.290  1.00  0.00     0.103 A 
HETATM    2  C3  UNL     1       2.544  -1.670  -0.539  1.00  0.00     0.072 A 
HETATM    3  C4  UNL     1       1.223  -1.919  -0.925  1.00  0.00     0.074 A 
HETATM    4  N1  UNL     1       0.892  -3.220  -1.170  1.00  0.00    -0.241 NA
HETATM    5  C5  UNL     1      -0.387  -3.455  -1.542  1.00  0.00     0.234 A 
HETATM    6  N2  UNL     1      -1.323  -2.478  -1.677  1.00  0.00    -0.234 NA
HETATM    7  C6  UNL     1      -0.996  -1.177  -1.433  1.00  0.00     0.112 A 
HETATM    8  C13 UNL     1       0.300  -0.902  -1.051  1.00  0.00     0.031 A 
HETATM    9  C14 UNL     1       0.702   0.387  -0.788  1.00  0.00     0.056 A 
HETATM   10  C15 UNL     1       1.994   0.698  -0.403  1.00  0.00     0.102 A 
ENDROOT
BRANCH   7  11
HETATM   11  S1  UNL     1      -2.145   0.181  -1.580  1.00  0.00    -0.070 SA
BRANCH  11  12
HETATM   12  C7  UNL     1      -3.005   0.487  -0.051  1.00  0.00     0.008 A 
HETATM   13  C8  UNL     1      -2.727  -0.308   1.058  1.00  0.00     0.019 A 
HETATM   14  C9  UNL     1      -3.460   0.034   2.175  1.00  0.00     0.003 A 
HETATM   15  C10 UNL     1      -4.397   1.038   2.291  1.00  0.00     0.024 A 
HETATM   16  C11 UNL     1      -4.600   1.773   1.120  1.00  0.00     0.035 A 
HETATM   17 CL1  UNL     1      -5.781   3.092   1.145  1.00  0.00    -0.084 Cl
HETATM   18  C12 UNL     1      -3.920   1.519  -0.057  1.00  0.00     0.042 A 
ENDBRANCH  11  12
ENDBRANCH   7  11
BRANCH  10  19
HETATM   19  O2  UNL     1       2.443   1.990  -0.127  1.00  0.00    -0.353 OA
HETATM   20  C16 UNL     1       1.633   3.122  -0.209  1.00  0.00     0.210 C 
ENDBRANCH  10  19
BRANCH   1  21
HETATM   21  O1  UNL     1       4.189  -0.066   0.097  1.00  0.00    -0.353 OA
HETATM   22  C1  UNL     1       5.174  -1.065   0.242  1.00  0.00     0.210 C 
ENDBRANCH   1  21
TORSDOF 4
