REMARK  3 active torsions:
REMARK  status: ('A' for Active; 'I' for Inactive)
REMARK    1  A    between atoms: O1_2  and  C2_3 
REMARK    2  A    between atoms: C8_11  and  N3_12 
REMARK    3  A    between atoms: C15_19  and  O2_20 
ROOT
HETATM    1  C2  UNL     1      -2.275   0.333   0.147  1.00  0.00     0.097 A 
HETATM    2  C3  UNL     1      -1.800   0.931   1.229  1.00  0.00     0.014 A 
HETATM    3  C4  UNL     1      -0.562   0.876   2.054  1.00  0.00     0.053 A 
HETATM    4  C5  UNL     1       0.438  -0.153   1.504  1.00  0.00     0.058 A 
HETATM    5  C6  UNL     1       0.579  -1.139   2.573  1.00  0.00     0.109 A 
HETATM    6  N1  UNL     1       1.674  -1.381   3.207  1.00  0.00    -0.257 NA
HETATM    7  C7  UNL     1       2.865  -0.651   2.868  1.00  0.00     0.228 A 
HETATM    8  N2  UNL     1       2.789   0.200   1.960  1.00  0.00    -0.255 NA
HETATM    9  C8  UNL     1       1.670   0.565   1.189  1.00  0.00     0.230 A 
HETATM   10  C14 UNL     1      -0.222  -0.749   0.292  1.00  0.00     0.032 A 
HETATM   11  C15 UNL     1      -1.346  -0.652  -0.399  1.00  0.00     0.098 A 
ENDROOT
BRANCH   9  12
HETATM   12  N3  UNL     1       2.096   0.454  -0.209  1.00  0.00    -0.341 N 
HETATM   13  C9  UNL     1       1.306   0.894  -1.312  1.00  0.00     0.105 C 
HETATM   14  C10 UNL     1       1.580   0.575  -2.545  1.00  0.00    -0.009 C 
HETATM   15  C11 UNL     1       2.790   0.303  -2.942  1.00  0.00     0.015 C 
HETATM   16  C12 UNL     1       3.678  -0.181  -1.892  1.00  0.00     0.018 C 
HETATM   17  C13 UNL     1       3.350  -0.108  -0.609  1.00  0.00     0.092 C 
ENDBRANCH   9  12
BRANCH  11  18
HETATM   18  O2  UNL     1      -1.517  -1.454  -1.513  1.00  0.00    -0.353 OA
HETATM   19  C16 UNL     1      -1.933  -0.847  -2.717  1.00  0.00     0.210 C 
ENDBRANCH  11  18
BRANCH   1  20
HETATM   20  O1  UNL     1      -3.480   0.492  -0.525  1.00  0.00    -0.353 OA
HETATM   21  C1  UNL     1      -4.712  -0.033  -0.126  1.00  0.00     0.210 C 
ENDBRANCH   1  20
TORSDOF 3
