REMARK  5 active torsions:
REMARK  status: ('A' for Active; 'I' for Inactive)
REMARK    1  A    between atoms: O1_2  and  C2_3 
REMARK    2  A    between atoms: C6_9  and  S1_10 
REMARK    3  A    between atoms: S1_10  and  C7_11 
REMARK    4  A    between atoms: C7_11  and  C8_12 
REMARK    5  A    between atoms: C12_18  and  O2_19 
ROOT
HETATM    1  C2  UNL     1      -2.619  -0.630  -0.052  1.00  0.00     0.103 A 
HETATM    2  C3  UNL     1      -2.039  -0.950   1.158  1.00  0.00     0.072 A 
HETATM    3  C4  UNL     1      -0.810  -0.480   1.563  1.00  0.00     0.074 A 
HETATM    4  N1  UNL     1      -0.265  -0.806   2.747  1.00  0.00    -0.241 NA
HETATM    5  C5  UNL     1       0.936  -0.347   3.145  1.00  0.00     0.234 A 
HETATM    6  N2  UNL     1       1.615   0.482   2.299  1.00  0.00    -0.234 NA
HETATM    7  C6  UNL     1       1.086   0.810   1.126  1.00  0.00     0.107 A 
HETATM    8  C10 UNL     1      -0.144   0.355   0.691  1.00  0.00     0.031 A 
HETATM    9  C11 UNL     1      -0.656   0.723  -0.539  1.00  0.00     0.056 A 
HETATM   10  C12 UNL     1      -1.909   0.218  -0.904  1.00  0.00     0.102 A 
ENDROOT
BRANCH   7  11
HETATM   11  S1  UNL     1       2.066   1.906   0.093  1.00  0.00    -0.105 SA
BRANCH  11  12
HETATM   12  C7  UNL     1       3.127   0.815  -0.927  1.00  0.00     0.110 C 
BRANCH  12  13
HETATM   13  C8  UNL     1       4.072   0.129  -0.011  1.00  0.00     0.015 C 
HETATM   14  C9  UNL     1       5.371   0.214  -0.068  1.00  0.00     0.077 A 
HETATM   15 CL1  UNL     1       7.012   0.610  -0.510  1.00  0.00    -0.099 Cl
HETATM   16 BR1  UNL     1       6.579  -0.660   1.101  1.00  0.00    -0.015 Br
ENDBRANCH  12  13
ENDBRANCH  11  12
ENDBRANCH   7  11
BRANCH  10  17
HETATM   17  O2  UNL     1      -2.431   0.584  -2.138  1.00  0.00    -0.353 OA
HETATM   18  C13 UNL     1      -1.648   1.448  -2.942  1.00  0.00     0.210 C 
ENDBRANCH  10  17
BRANCH   1  19
HETATM   19  O1  UNL     1      -3.835  -1.066  -0.508  1.00  0.00    -0.353 OA
HETATM   20  C1  UNL     1      -4.698  -1.921   0.195  1.00  0.00     0.210 C 
ENDBRANCH   1  19
TORSDOF 5
