REMARK  2 active torsions:
REMARK  status: ('A' for Active; 'I' for Inactive)
REMARK    1  A    between atoms: C2_2  and  C3_3 
REMARK    2  A    between atoms: N1_10  and  C10_11 
ROOT
HETATM    1  C10 UNL     1       0.579   0.102  -0.862  1.00  0.00     0.144 A 
HETATM    2  N2  UNL     1       0.526  -0.143  -2.187  1.00  0.00    -0.223 NA
HETATM    3  C11 UNL     1       1.594  -0.758  -2.771  1.00  0.00     0.236 A 
HETATM    4  N3  UNL     1       2.687  -1.118  -2.040  1.00  0.00    -0.241 NA
HETATM    5  C12 UNL     1       2.724  -0.868  -0.728  1.00  0.00     0.072 A 
HETATM    6  C13 UNL     1       3.824  -1.212   0.033  1.00  0.00     0.034 A 
HETATM    7  C14 UNL     1       3.805  -0.911   1.398  1.00  0.00     0.026 A 
HETATM    8  C15 UNL     1       2.740  -0.280   2.048  1.00  0.00     0.035 A 
HETATM    9 CL1  UNL     1       2.845   0.039   3.759  1.00  0.00    -0.084 Cl
HETATM   10  C16 UNL     1       1.655   0.048   1.248  1.00  0.00     0.041 A 
HETATM   11  C17 UNL     1       1.666  -0.247  -0.101  1.00  0.00     0.041 A 
ENDROOT
BRANCH   1  12
HETATM   12  N1  UNL     1      -0.637   0.732  -0.267  1.00  0.00    -0.329 N 
HETATM   13  C3  UNL     1      -1.254  -0.420   0.335  1.00  0.00     0.136 A 
HETATM   14  C4  UNL     1      -2.431  -0.263   1.225  1.00  0.00     0.011 A 
HETATM   15  C5  UNL     1      -3.394   0.552   1.825  1.00  0.00     0.063 A 
HETATM   16  C6  UNL     1      -2.766   1.521   1.152  1.00  0.00    -0.074 A 
HETATM   17  C7  UNL     1      -2.240   2.297   0.596  1.00  0.00    -0.073 A 
HETATM   18  C8  UNL     1      -1.596   3.204  -0.075  1.00  0.00     0.082 A 
HETATM   19  C9  UNL     1      -0.717   2.213  -0.520  1.00  0.00     0.102 A 
BRANCH  13  20
HETATM   20  C2  UNL     1      -1.735  -1.330  -0.792  1.00  0.00    -0.008 C 
HETATM   21  C1  UNL     1      -2.839  -0.844  -1.358  1.00  0.00     0.009 C 
ENDBRANCH  13  20
ENDBRANCH   1  12
TORSDOF 2
