REMARK  5 active torsions:
REMARK  status: ('A' for Active; 'I' for Inactive)
REMARK    1  A    between atoms: N2_7  and  C6_8 
REMARK    2  A    between atoms: C6_8  and  C7_9 
REMARK    3  A    between atoms: N3_11  and  C9_12 
REMARK    4  A    between atoms: C13_16  and  O1_17 
REMARK    5  A    between atoms: O1_17  and  C14_18 
ROOT
HETATM    1  C9  UNL     1      -0.119   0.177  -0.978  1.00  0.00     0.033 A 
HETATM    2  C10 UNL     1       0.406   1.305  -1.621  1.00  0.00     0.029 A 
HETATM    3  C11 UNL     1      -0.448   2.377  -1.764  1.00  0.00     0.005 A 
HETATM    4  C12 UNL     1      -1.758   2.356  -1.303  1.00  0.00     0.037 A 
HETATM    5  C13 UNL     1      -2.264   1.213  -0.662  1.00  0.00     0.079 A 
HETATM    6  C21 UNL     1      -1.414   0.168  -0.528  1.00  0.00     0.066 A 
ENDROOT
BRANCH   1   7
HETATM    7  N3  UNL     1       0.575  -1.057  -0.697  1.00  0.00    -0.371 N 
HETATM    8  C7  UNL     1       1.942  -1.572  -0.716  1.00  0.00     0.131 A 
HETATM    9  C8  UNL     1       0.789  -2.434  -0.294  1.00  0.00     0.150 A 
BRANCH   8  10
HETATM   10  C6  UNL     1       2.888  -1.104   0.375  1.00  0.00     0.299 C 
BRANCH  10  11
HETATM   11  N2  UNL     1       3.922  -0.291  -0.177  1.00  0.00     0.098 N 
HETATM   12  C2  UNL     1       4.598   0.486   0.823  1.00  0.00     0.247 C 
HETATM   13  C1  UNL     1       3.686   1.555   1.388  1.00  0.00     0.045 C 
HETATM   14  C3  UNL     1       5.808   1.209   0.286  1.00  0.00     0.304 C 
HETATM   15  N1  UNL     1       6.548   0.464  -0.687  1.00  0.00     0.087 N 
HETATM   16  C4  UNL     1       6.234  -0.954  -0.607  1.00  0.00     0.299 C 
HETATM   17  H7  UNL     1       6.254   0.786  -1.657  1.00  0.00     0.316 HD
HETATM   18  C5  UNL     1       4.773  -1.092  -0.999  1.00  0.00     0.302 C 
ENDBRANCH  10  11
ENDBRANCH   8  10
ENDBRANCH   1   7
BRANCH   5  19
HETATM   19  O1  UNL     1      -3.569   1.502  -0.329  1.00  0.00    -0.293 OA
BRANCH  19  20
HETATM   20  C14 UNL     1      -4.441   0.666   0.315  1.00  0.00     0.183 C 
HETATM   21  N4  UNL     1      -3.976  -0.516   0.783  1.00  0.00    -0.229 NA
HETATM   22  C15 UNL     1      -5.217  -1.312   1.001  1.00  0.00     0.065 C 
HETATM   23  C16 UNL     1      -5.811  -2.184   0.190  1.00  0.00     0.029 C 
HETATM   24  C20 UNL     1      -5.696  -0.679   2.308  1.00  0.00     0.330 C 
HETATM   25  C17 UNL     1      -6.642  -1.119  -0.552  1.00  0.00     0.001 C 
HETATM   26  C18 UNL     1      -6.800   0.262  -0.430  1.00  0.00     0.017 C 
HETATM   27  C19 UNL     1      -5.880   0.990   0.531  1.00  0.00     0.320 C 
HETATM   28  N5  UNL     1      -6.252   0.631   1.882  1.00  0.00     0.105 N 
HETATM   29  H24 UNL     1      -5.887   1.373   2.552  1.00  0.00     0.317 HD
ENDBRANCH  19  20
ENDBRANCH   5  19
TORSDOF 5
