REMARK  3 active torsions:
REMARK  status: ('A' for Active; 'I' for Inactive)
REMARK    1  A    between atoms: O1_2  and  C2_3 
REMARK    2  A    between atoms: C6_9  and  S1_10 
REMARK    3  A    between atoms: S1_10  and  C7_11 
ROOT
HETATM    1  C2  UNL     1      -3.009   0.781  -0.048  1.00  0.00     0.108 A 
HETATM    2  C3  UNL     1      -2.959  -0.596   0.095  1.00  0.00     0.072 A 
HETATM    3  C4  UNL     1      -1.842  -1.298  -0.311  1.00  0.00     0.074 A 
HETATM    4  N1  UNL     1      -1.869  -2.650  -0.137  1.00  0.00    -0.241 NA
HETATM    5  C5  UNL     1      -0.772  -3.323  -0.538  1.00  0.00     0.234 A 
HETATM    6  N2  UNL     1       0.312  -2.704  -1.089  1.00  0.00    -0.234 NA
HETATM    7  C6  UNL     1       0.333  -1.366  -1.260  1.00  0.00     0.112 A 
HETATM    8  C13 UNL     1      -0.759  -0.618  -0.869  1.00  0.00     0.032 A 
HETATM    9  C14 UNL     1      -0.785   0.736  -1.021  1.00  0.00     0.062 A 
HETATM   10  C15 UNL     1      -1.921   1.436  -0.606  1.00  0.00     0.150 A 
HETATM   11  F1  UNL     1      -1.824   2.787  -0.811  1.00  0.00    -0.203 F 
ENDROOT
BRANCH   7  12
HETATM   12  S1  UNL     1       1.725  -0.495  -1.977  1.00  0.00    -0.070 SA
BRANCH  12  13
HETATM   13  C7  UNL     1       2.902  -0.008  -0.707  1.00  0.00     0.008 A 
HETATM   14  C8  UNL     1       2.626  -0.336   0.604  1.00  0.00     0.019 A 
HETATM   15  C9  UNL     1       3.562   0.061   1.544  1.00  0.00     0.003 A 
HETATM   16  C10 UNL     1       4.695   0.745   1.151  1.00  0.00     0.024 A 
HETATM   17  C11 UNL     1       4.923   1.049  -0.175  1.00  0.00     0.035 A 
HETATM   18 CL1  UNL     1       6.375   1.919  -0.630  1.00  0.00    -0.084 Cl
HETATM   19  C12 UNL     1       4.016   0.673  -1.154  1.00  0.00     0.042 A 
ENDBRANCH  12  13
ENDBRANCH   7  12
BRANCH   1  20
HETATM   20  O1  UNL     1      -4.007   1.660   0.285  1.00  0.00    -0.353 OA
HETATM   21  C1  UNL     1      -5.243   1.318   0.869  1.00  0.00     0.210 C 
ENDBRANCH   1  20
TORSDOF 3
