REMARK  4 active torsions:
REMARK  status: ('A' for Active; 'I' for Inactive)
REMARK    1  A    between atoms: C2_2  and  O1_3 
REMARK    2  A    between atoms: C2_2  and  C4_5 
REMARK    3  A    between atoms: C7_8  and  S1_9 
REMARK    4  A    between atoms: S1_9  and  C8_10 
ROOT
HETATM    1  C4  UNL     1      -2.133   0.406   0.481  1.00  0.00     0.027 A 
HETATM    2  C5  UNL     1      -1.286   0.321  -0.534  1.00  0.00     0.033 A 
HETATM    3  C6  UNL     1      -0.206   1.065   0.086  1.00  0.00     0.030 A 
HETATM    4  C7  UNL     1       1.028   1.666   0.236  1.00  0.00     0.112 A 
HETATM    5  N1  UNL     1       1.329   2.307   1.382  1.00  0.00    -0.234 NA
HETATM    6  C14 UNL     1       0.475   2.396   2.414  1.00  0.00     0.235 A 
HETATM    7  N2  UNL     1      -0.729   1.816   2.281  1.00  0.00    -0.240 NA
HETATM    8  C15 UNL     1      -1.092   1.162   1.166  1.00  0.00     0.084 A 
ENDROOT
BRANCH   4   9
HETATM    9  S1  UNL     1       2.133   1.522  -1.162  1.00  0.00    -0.070 SA
BRANCH   9  10
HETATM   10  C8  UNL     1       3.108   0.022  -0.972  1.00  0.00     0.008 A 
HETATM   11  C9  UNL     1       2.566  -1.133  -1.532  1.00  0.00     0.019 A 
HETATM   12  C10 UNL     1       3.254  -2.336  -1.432  1.00  0.00     0.003 A 
HETATM   13  C11 UNL     1       4.466  -2.350  -0.773  1.00  0.00     0.024 A 
HETATM   14  C12 UNL     1       4.990  -1.195  -0.223  1.00  0.00     0.035 A 
HETATM   15 CL1  UNL     1       6.532  -1.203   0.616  1.00  0.00    -0.084 Cl
HETATM   16  C13 UNL     1       4.332   0.014  -0.306  1.00  0.00     0.042 A 
ENDBRANCH   9  10
ENDBRANCH   4   9
BRANCH   1  17
HETATM   17  C2  UNL     1      -3.473  -0.066   0.724  1.00  0.00     0.071 C 
HETATM   18  C1  UNL     1      -4.012   0.227   1.905  1.00  0.00     0.051 C 
BRANCH  17  19
HETATM   19  O1  UNL     1      -4.168  -0.783  -0.209  1.00  0.00    -0.356 OA
HETATM   20  C3  UNL     1      -5.126  -0.205  -1.044  1.00  0.00     0.210 C 
ENDBRANCH  17  19
ENDBRANCH   1  17
TORSDOF 4
