REMARK  0 active torsions:
REMARK  status: ('A' for Active; 'I' for Inactive)
ROOT
HETATM    1 CL1  UNL     1       0.732   3.658  -1.762  1.00  0.00    -0.176 Cl
HETATM    2  C1  UNL     1      -0.551   2.634  -1.189  1.00  0.00     0.000 A 
HETATM    3  C2  UNL     1       0.544   2.220  -0.630  1.00  0.00     0.135 A 
HETATM    4  C3  UNL     1       1.713   1.715   0.020  1.00  0.00     0.026 C 
HETATM    5  C4  UNL     1       2.381   0.909   0.829  1.00  0.00     0.048 C 
HETATM    6  C5  UNL     1       2.130  -0.222   1.751  1.00  0.00     0.172 C 
HETATM    7  N1  UNL     1       2.569  -1.451   1.128  1.00  0.00    -0.223 NA
HETATM    8  C6  UNL     1       1.532  -2.200   0.476  1.00  0.00     0.140 C 
HETATM    9  C7  UNL     1       0.395  -1.398   0.009  1.00  0.00     0.191 C 
HETATM   10  O1  UNL     1      -0.667  -2.133  -0.629  1.00  0.00    -0.354 OA
HETATM   11  C8  UNL     1      -1.891  -1.433  -0.765  1.00  0.00     0.047 C 
HETATM   12  C9  UNL     1      -1.662  -0.212  -1.298  1.00  0.00     0.039 C 
HETATM   13  C10 UNL     1      -2.260   0.973  -0.621  1.00  0.00    -0.055 C 
HETATM   14  C11 UNL     1      -2.981   0.744   0.462  1.00  0.00    -0.019 C 
HETATM   15  C12 UNL     1      -3.796  -0.509   0.525  1.00  0.00     0.034 C 
HETATM   16  C13 UNL     1      -3.354  -1.488  -0.558  1.00  0.00     0.068 C 
HETATM   17  C14 UNL     1      -1.965   2.280  -1.261  1.00  0.00     0.085 C 
HETATM   18  N2  UNL     1       3.732  -1.257   0.396  1.00  0.00    -0.313 N 
HETATM   19  C15 UNL     1       4.481  -0.037   0.669  1.00  0.00     0.218 C 
HETATM   20  N3  UNL     1       3.812   1.125   0.750  1.00  0.00    -0.247 NA
HETATM   21  H17 UNL     1       4.143  -1.873  -0.326  1.00  0.00     0.181 HD
ENDROOT
TORSDOF 0
