REMARK  8 active torsions:
REMARK  status: ('A' for Active; 'I' for Inactive)
REMARK    1  A    between atoms: O1_2  and  C2_3 
REMARK    2  A    between atoms: C2_3  and  C3_4 
REMARK    3  A    between atoms: C3_4  and  O2_5 
REMARK    4  A    between atoms: C3_4  and  C5_7 
REMARK    5  A    between atoms: C13_17  and  C14_18 
REMARK    6  A    between atoms: C15_19  and  N2_20 
REMARK    7  A    between atoms: N2_20  and  O3_21 
REMARK    8  A    between atoms: O3_21  and  N3_22 
ROOT
HETATM    1  C5  UNL     1      -0.928  -0.441  -0.205  1.00  0.00     0.027 A 
HETATM    2  C6  UNL     1      -0.557  -1.962   0.129  1.00  0.00     0.056 C 
HETATM    3  C7  UNL     1       0.575  -2.022   0.928  1.00  0.00     0.002 C 
HETATM    4  C8  UNL     1       1.652  -1.301   1.681  1.00  0.00     0.064 C 
HETATM    5  C9  UNL     1       3.023  -1.120   1.094  1.00  0.00     0.031 C 
HETATM    6  N1  UNL     1       4.211  -1.306   0.764  1.00  0.00    -0.304 NA
HETATM    7  C10 UNL     1       2.434   0.222   0.605  1.00  0.00    -0.016 A 
HETATM    8  C11 UNL     1       1.456   1.030   0.216  1.00  0.00     0.127 A 
HETATM    9  C12 UNL     1       0.170   0.570   0.035  1.00  0.00     0.036 A 
HETATM   10 CL1  UNL     1      -1.169   1.739  -0.485  1.00  0.00    -0.203 Cl
HETATM   11  C13 UNL     1      -0.824   1.217  -0.312  1.00  0.00     0.056 A 
HETATM   12  C14 UNL     1       0.675   1.614  -0.076  1.00  0.00     0.058 A 
HETATM   13  C15 UNL     1       2.142   1.626   0.235  1.00  0.00     0.094 A 
HETATM   14  H13 UNL     1       4.829  -0.677   0.213  1.00  0.00     0.186 HD
ENDROOT
BRANCH   1  15
HETATM   15  C3  UNL     1      -2.056  -0.652  -0.958  1.00  0.00     0.054 C 
BRANCH  15  16
HETATM   16  C2  UNL     1      -2.575  -2.015  -1.237  1.00  0.00     0.227 C 
BRANCH  16  17
HETATM   17  O1  UNL     1      -3.885  -2.162  -0.744  1.00  0.00    -0.390 OA
HETATM   18  C1  UNL     1      -3.933  -1.961   0.630  1.00  0.00     0.201 C 
ENDBRANCH  16  17
ENDBRANCH  15  16
BRANCH  15  19
HETATM   19  O2  UNL     1      -2.993   0.157  -1.634  1.00  0.00    -0.362 OA
HETATM   20  C4  UNL     1      -2.962   0.181  -3.027  1.00  0.00     0.209 C 
ENDBRANCH  15  19
ENDBRANCH   1  15
BRANCH  13  21
HETATM   21  N2  UNL     1       3.006   2.715   0.179  1.00  0.00    -0.268 N 
HETATM   22  H16 UNL     1       3.422   2.780  -0.784  1.00  0.00     0.190 HD
BRANCH  21  23
HETATM   23  O3  UNL     1       2.823   3.110   1.465  1.00  0.00    -0.191 OA
BRANCH  23  24
HETATM   24  N3  UNL     1       3.828   3.897   1.914  1.00  0.00    -0.189 NA
HETATM   25  H17 UNL     1       3.427   4.729   2.426  1.00  0.00     0.152 HD
HETATM   26  H18 UNL     1       4.330   4.246   1.076  1.00  0.00     0.152 HD
ENDBRANCH  23  24
ENDBRANCH  21  23
ENDBRANCH  13  21
TORSDOF 8
