REMARK  5 active torsions:
REMARK  status: ('A' for Active; 'I' for Inactive)
REMARK    1  A    between atoms: O1_2  and  C2_3 
REMARK    2  A    between atoms: C4_5  and  N1_6 
REMARK    3  A    between atoms: N1_6  and  C5_7 
REMARK    4  A    between atoms: N2_8  and  C6_9 
REMARK    5  A    between atoms: C13_17  and  O2_18 
ROOT
HETATM    1  C2  UNL     1      -2.298   1.413   0.235  1.00  0.00     0.079 A 
HETATM    2  C3  UNL     1      -1.194   1.432   1.089  1.00  0.00     0.066 A 
HETATM    3  C4  UNL     1      -0.709   0.240   1.587  1.00  0.00     0.038 A 
HETATM    4  C12 UNL     1      -1.284  -0.975   1.265  1.00  0.00     0.066 A 
HETATM    5  C13 UNL     1      -2.385  -1.018   0.416  1.00  0.00     0.079 A 
HETATM    6  C15 UNL     1      -2.869   0.184  -0.082  1.00  0.00     0.005 A 
HETATM    7  C16 UNL     1      -4.048   0.291  -1.010  1.00  0.00     0.054 C 
ENDROOT
BRANCH   3   8
HETATM    8  N1  UNL     1       0.426   0.181   2.477  1.00  0.00    -0.351 N 
HETATM    9  H5  UNL     1       0.278   0.197   3.524  1.00  0.00     0.166 HD
BRANCH   8  10
HETATM   10  C5  UNL     1       1.713   0.101   1.832  1.00  0.00     0.208 C 
HETATM   11  N2  UNL     1       1.767  -0.298   0.608  1.00  0.00    -0.244 NA
BRANCH  11  12
HETATM   12  C6  UNL     1       3.029  -0.381  -0.039  1.00  0.00     0.058 A 
HETATM   13  C7  UNL     1       4.304  -0.265   0.470  1.00  0.00     0.033 A 
HETATM   14  C8  UNL     1       5.387  -0.384  -0.375  1.00  0.00     0.026 A 
HETATM   15  C9  UNL     1       5.244  -0.616  -1.716  1.00  0.00     0.034 A 
HETATM   16 CL1  UNL     1       6.695  -0.746  -2.678  1.00  0.00    -0.084 Cl
HETATM   17  C10 UNL     1       3.981  -0.733  -2.235  1.00  0.00     0.026 A 
HETATM   18  C11 UNL     1       2.863  -0.617  -1.407  1.00  0.00     0.033 A 
ENDBRANCH  11  12
ENDBRANCH   8  10
ENDBRANCH   3   8
BRANCH   1  19
HETATM   19  O1  UNL     1      -2.778   2.616  -0.261  1.00  0.00    -0.355 OA
HETATM   20  C1  UNL     1      -2.203   3.856   0.058  1.00  0.00     0.210 C 
ENDBRANCH   1  19
BRANCH   5  21
HETATM   21  O2  UNL     1      -3.096  -2.099  -0.024  1.00  0.00    -0.355 OA
HETATM   22  C14 UNL     1      -2.808  -3.436   0.335  1.00  0.00     0.210 C 
ENDBRANCH   5  21
TORSDOF 5
