REMARK  3 active torsions:
REMARK  status: ('A' for Active; 'I' for Inactive)
REMARK    1  A    between atoms: C2_2  and  C3_3 
REMARK    2  A    between atoms: C5_6  and  O2_7 
REMARK    3  A    between atoms: C8_10  and  C9_11 
ROOT
HETATM    1  C9  UNL     1       0.381   0.276   0.192  1.00  0.00    -0.066 C 
HETATM    2  C10 UNL     1       0.523   1.600  -0.114  1.00  0.00     0.029 C 
HETATM    3  C11 UNL     1       1.474   2.430  -0.907  1.00  0.00     0.049 C 
HETATM    4 CL1  UNL     1       0.989   4.142  -0.868  1.00  0.00    -0.083 Cl
HETATM    5  C12 UNL     1       2.577   2.194  -1.623  1.00  0.00     0.106 C 
HETATM    6  N1  UNL     1       3.520   1.199  -2.099  1.00  0.00    -0.397 N 
HETATM    7  C13 UNL     1       4.354   0.188  -1.511  1.00  0.00     0.119 C 
HETATM    8  C14 UNL     1       3.740  -1.034  -0.969  1.00  0.00     0.020 C 
HETATM    9  C15 UNL     1       2.649  -0.839   0.074  1.00  0.00     0.006 C 
HETATM   10  C16 UNL     1       1.460  -0.254  -0.607  1.00  0.00     0.035 C 
HETATM   11  H14 UNL     1       3.620   1.196  -3.165  1.00  0.00     0.158 HD
ENDROOT
BRANCH   1  12
HETATM   12  C8  UNL     1      -0.680  -0.287   1.040  1.00  0.00     0.072 A 
HETATM   13  C3  UNL     1      -1.608  -1.221   0.424  1.00  0.00    -0.046 A 
HETATM   14  C4  UNL     1      -2.910  -0.958   0.662  1.00  0.00     0.148 A 
HETATM   15  O1  UNL     1      -3.493   0.088   1.410  1.00  0.00    -0.300 OA
HETATM   16  C5  UNL     1      -2.646   1.007   2.010  1.00  0.00     0.181 A 
HETATM   17  C7  UNL     1      -1.377   0.773   1.798  1.00  0.00     0.051 A 
BRANCH  13  18
HETATM   18  C2  UNL     1      -1.422  -2.419  -0.410  1.00  0.00     0.033 C 
HETATM   19  C1  UNL     1      -2.756  -3.126  -0.688  1.00  0.00     0.010 C 
ENDBRANCH  13  18
BRANCH  16  20
HETATM   20  O2  UNL     1      -3.010   2.099   2.778  1.00  0.00    -0.336 OA
HETATM   21  C6  UNL     1      -4.373   2.437   2.948  1.00  0.00     0.212 C 
ENDBRANCH  16  20
ENDBRANCH   1  12
TORSDOF 3
