REMARK  6 active torsions:
REMARK  status: ('A' for Active; 'I' for Inactive)
REMARK    1  A    between atoms: O1_2  and  C2_3 
REMARK    2  A    between atoms: C3_4  and  C4_5 
REMARK    3  A    between atoms: C4_5  and  N1_6 
REMARK    4  A    between atoms: N1_6  and  C5_7 
REMARK    5  A    between atoms: C14_19  and  O2_20 
REMARK    6  A    between atoms: C15_22  and  O3_23 
ROOT
HETATM    1  N1  UNL     1      -1.070  -0.236  -0.436  1.00  0.00    -0.370 N 
HETATM    2  H6  UNL     1      -0.768   0.721  -0.701  1.00  0.00     0.161 HD
ENDROOT
BRANCH   1   3
HETATM    3  C4  UNL     1      -0.015  -1.191  -0.159  1.00  0.00     0.162 C 
BRANCH   3   4
HETATM    4  C3  UNL     1       1.322  -0.573  -0.319  1.00  0.00    -0.006 A 
HETATM    5  C2  UNL     1       2.314  -0.413   0.551  1.00  0.00     0.089 A 
HETATM    6  C15 UNL     1       3.479   0.269  -0.067  1.00  0.00     0.236 A 
HETATM    7  C14 UNL     1       3.002   0.485  -1.457  1.00  0.00     0.105 A 
HETATM    8  C13 UNL     1       1.771   0.003  -1.594  1.00  0.00     0.048 A 
BRANCH   5   9
HETATM    9  O1  UNL     1       2.086  -0.897   1.832  1.00  0.00    -0.357 OA
HETATM   10  C1  UNL     1       2.918  -0.622   2.944  1.00  0.00     0.209 C 
ENDBRANCH   5   9
BRANCH   6  11
HETATM   11  O3  UNL     1       4.647  -0.479  -0.026  1.00  0.00    -0.377 OA
HETATM   12  C16 UNL     1       5.641   0.232   0.605  1.00  0.00     0.203 C 
ENDBRANCH   6  11
BRANCH   7  13
HETATM   13  O2  UNL     1       3.699   1.100  -2.511  1.00  0.00    -0.242 OA
HETATM   14 CL2  UNL     1       5.332   0.658  -2.813  1.00  0.00     0.067 Cl
ENDBRANCH   7  13
ENDBRANCH   3   4
ENDBRANCH   1   3
BRANCH   1  15
HETATM   15  C5  UNL     1      -2.414  -0.680  -0.325  1.00  0.00     0.137 A 
HETATM   16  N2  UNL     1      -2.704  -1.938   0.024  1.00  0.00    -0.224 NA
HETATM   17  C6  UNL     1      -3.933  -2.426   0.149  1.00  0.00     0.235 A 
HETATM   18  N3  UNL     1      -5.027  -1.649  -0.079  1.00  0.00    -0.241 NA
HETATM   19  C7  UNL     1      -4.817  -0.371  -0.434  1.00  0.00     0.072 A 
HETATM   20  C8  UNL     1      -5.904   0.428  -0.668  1.00  0.00     0.034 A 
HETATM   21  C12 UNL     1      -3.529   0.085  -0.549  1.00  0.00     0.040 A 
HETATM   22  C9  UNL     1      -5.742   1.764  -1.040  1.00  0.00     0.026 A 
HETATM   23  C10 UNL     1      -4.432   2.234  -1.159  1.00  0.00     0.035 A 
HETATM   24 CL1  UNL     1      -4.180   3.905  -1.624  1.00  0.00    -0.084 Cl
HETATM   25  C11 UNL     1      -3.358   1.407  -0.918  1.00  0.00     0.041 A 
ENDBRANCH   1  15
TORSDOF 6
