REMARK  5 active torsions:
REMARK  status: ('A' for Active; 'I' for Inactive)
REMARK    1  A    between atoms: C6_6  and  N1_7 
REMARK    2  A    between atoms: N1_7  and  C7_8 
REMARK    3  A    between atoms: C9_10  and  O1_11 
REMARK    4  A    between atoms: C11_13  and  O2_14 
REMARK    5  A    between atoms: C12_16  and  O3_17 
ROOT
HETATM    1  C7  UNL     1      -1.134   0.669   0.048  1.00  0.00     0.038 A 
HETATM    2  C8  UNL     1      -1.651   1.007   1.360  1.00  0.00     0.069 A 
HETATM    3  C9  UNL     1      -2.964   0.431   1.196  1.00  0.00     0.108 A 
HETATM    4  C11 UNL     1      -3.462  -0.189   0.163  1.00  0.00     0.158 A 
HETATM    5  C12 UNL     1      -2.794  -0.390  -0.917  1.00  0.00     0.108 A 
HETATM    6  C14 UNL     1      -1.433   0.059  -1.077  1.00  0.00     0.069 A 
ENDROOT
BRANCH   1   7
HETATM    7  N1  UNL     1       0.219   1.034  -0.190  1.00  0.00    -0.344 N 
HETATM    8  H7  UNL     1       0.217   2.101  -0.427  1.00  0.00     0.167 HD
BRANCH   7   9
HETATM    9  C6  UNL     1       1.510   0.392  -0.180  1.00  0.00     0.108 C 
HETATM   10  C5  UNL     1       2.710   0.699  -1.011  1.00  0.00     0.112 C 
HETATM   11  C4  UNL     1       3.910   0.236  -0.318  1.00  0.00     0.066 A 
HETATM   12  C3  UNL     1       4.872   0.894  -1.270  1.00  0.00     0.009 A 
HETATM   13  N3  UNL     1       3.936  -0.682   0.864  1.00  0.00    -0.271 NA
HETATM   14  C2  UNL     1       5.420   0.213  -0.340  1.00  0.00     0.049 A 
HETATM   15  C15 UNL     1       2.815  -0.870   1.286  1.00  0.00     0.229 C 
HETATM   16  N2  UNL     1       1.443  -0.391   0.967  1.00  0.00    -0.229 NA
HETATM   17  C1  UNL     1       6.088  -0.368   0.416  1.00  0.00     0.008 C 
ENDBRANCH   7   9
ENDBRANCH   1   7
BRANCH   3  18
HETATM   18  O1  UNL     1      -4.223   0.275   1.946  1.00  0.00    -0.353 OA
HETATM   19  C10 UNL     1      -4.381   0.880   3.255  1.00  0.00     0.210 C 
ENDBRANCH   3  18
BRANCH   5  20
HETATM   20  O3  UNL     1      -3.543  -1.036  -1.879  1.00  0.00    -0.353 OA
HETATM   21  C13 UNL     1      -3.090  -1.127  -3.270  1.00  0.00     0.210 C 
ENDBRANCH   5  20
BRANCH   4  22
HETATM   22  O2  UNL     1      -4.763  -0.749  -0.138  1.00  0.00    -0.235 OA
HETATM   23 CL1  UNL     1      -6.023   0.083   0.800  1.00  0.00     0.068 Cl
ENDBRANCH   4  22
TORSDOF 5
