REMARK  5 active torsions:
REMARK  status: ('A' for Active; 'I' for Inactive)
REMARK    1  A    between atoms: C4_6  and  C5_7 
REMARK    2  A    between atoms: C6_8  and  C7_9 
REMARK    3  A    between atoms: C7_9  and  N2_10 
REMARK       I    between atoms: N2_10  and  C8_11 
REMARK    4  A    between atoms: C8_11  and  C9_13 
REMARK    5  A    between atoms: C10_14  and  C11_15 
ROOT
HETATM    1  C5  UNL     1      -1.258  -1.223   1.861  1.00  0.00     0.002 C 
HETATM    2  C6  UNL     1      -0.249  -2.070   1.943  1.00  0.00    -0.007 C 
ENDROOT
BRANCH   1   3
HETATM    3  C4  UNL     1      -1.941  -0.979   0.607  1.00  0.00     0.056 C 
HETATM    4  C3  UNL     1      -2.957  -0.147   0.449  1.00  0.00     0.149 A 
HETATM    5  O1  UNL     1      -3.589   0.063  -0.770  1.00  0.00    -0.274 OA
HETATM    6  N3  UNL     1      -3.501   0.616   1.521  1.00  0.00    -0.345 N 
HETATM    7  C2  UNL     1      -4.654   0.943  -0.906  1.00  0.00     0.189 A 
HETATM    8  N1  UNL     1      -5.213   1.106  -2.066  1.00  0.00    -0.270 NA
HETATM    9  C15 UNL     1      -5.165   1.696   0.235  1.00  0.00     0.102 A 
HETATM   10  C1  UNL     1      -4.693   0.347  -3.196  1.00  0.00     0.180 C 
HETATM   11  C14 UNL     1      -4.590   1.524   1.415  1.00  0.00     0.118 A 
HETATM   12 CL1  UNL     1      -6.508   2.804   0.056  1.00  0.00    -0.078 Cl
HETATM   13  H17 UNL     1      -3.107   0.540   2.484  1.00  0.00     0.167 HD
ENDBRANCH   1   3
BRANCH   2  14
HETATM   14  C7  UNL     1       0.374  -2.898   0.881  1.00  0.00     0.150 C 
BRANCH  14  15
HETATM   15  N2  UNL     1       1.766  -2.489   0.810  1.00  0.00    -0.354 N 
HETATM   16  C8  UNL     1       2.171  -1.170   0.508  1.00  0.00     0.241 C 
HETATM   17  O2  UNL     1       1.241  -0.323   0.293  1.00  0.00    -0.269 OA
HETATM   18  H9  UNL     1       2.585  -3.138   0.977  1.00  0.00     0.163 HD
BRANCH  16  19
HETATM   19  C9  UNL     1       3.553  -0.717   0.427  1.00  0.00     0.070 C 
HETATM   20  C10 UNL     1       3.846   0.541   0.138  1.00  0.00    -0.017 C 
BRANCH  20  21
HETATM   21  C11 UNL     1       5.276   0.951   0.067  1.00  0.00     0.008 A 
HETATM   22  C12 UNL     1       5.603   2.407  -0.053  1.00  0.00     0.009 A 
HETATM   23  C13 UNL     1       5.800   1.508  -1.237  1.00  0.00     0.009 A 
ENDBRANCH  20  21
ENDBRANCH  16  19
ENDBRANCH  14  15
ENDBRANCH   2  14
TORSDOF 5
