REMARK  7 active torsions:
REMARK  status: ('A' for Active; 'I' for Inactive)
REMARK    1  A    between atoms: O1_2  and  C2_3 
REMARK    2  A    between atoms: C3_5  and  C4_6 
REMARK    3  A    between atoms: C4_6  and  C5_7 
REMARK    4  A    between atoms: C5_7  and  O2_8 
REMARK    5  A    between atoms: C6_9  and  C7_10 
REMARK    6  A    between atoms: C11_16  and  O3_17 
REMARK    7  A    between atoms: C13_19  and  O4_20 
ROOT
HETATM    1  C7  UNL     1      -0.727  -1.383   1.338  1.00  0.00     0.076 A 
HETATM    2  N1  UNL     1      -0.586  -2.134   2.472  1.00  0.00    -0.241 NA
HETATM    3  C8  UNL     1      -1.540  -2.077   3.408  1.00  0.00     0.234 A 
HETATM    4  N2  UNL     1      -2.623  -1.308   3.263  1.00  0.00    -0.238 NA
HETATM    5  C9  UNL     1      -2.868  -0.537   2.208  1.00  0.00     0.109 A 
HETATM    6  C10 UNL     1      -1.864  -0.624   1.270  1.00  0.00     0.061 A 
HETATM    7  C11 UNL     1      -2.382   0.226   0.372  1.00  0.00     0.118 A 
HETATM    8  C13 UNL     1      -3.450   0.324   1.362  1.00  0.00     0.132 A 
ENDROOT
BRANCH   1   9
HETATM    9  C6  UNL     1       0.335  -1.473   0.343  1.00  0.00     0.065 C 
HETATM   10  C5  UNL     1       0.923  -0.567  -0.454  1.00  0.00     0.049 C 
BRANCH  10  11
HETATM   11  C4  UNL     1       2.011  -0.851  -1.423  1.00  0.00     0.096 C 
BRANCH  11  12
HETATM   12  C3  UNL     1       3.191  -0.017  -1.046  1.00  0.00     0.049 C 
HETATM   13  C2  UNL     1       4.358  -0.536  -0.703  1.00  0.00     0.221 C 
HETATM   14  F1  UNL     1       5.350  -1.412  -0.421  1.00  0.00    -0.179 F 
BRANCH  13  15
HETATM   15  O1  UNL     1       5.541   0.136  -0.330  1.00  0.00    -0.332 OA
HETATM   16  C1  UNL     1       6.114   1.166  -1.113  1.00  0.00     0.212 C 
ENDBRANCH  13  15
ENDBRANCH  11  12
ENDBRANCH  10  11
BRANCH  10  17
HETATM   17  O2  UNL     1       0.680   0.793  -0.570  1.00  0.00    -0.365 OA
HETATM   18  H7  UNL     1       0.286   1.254  -1.366  1.00  0.00     0.217 HD
ENDBRANCH  10  17
ENDBRANCH   1   9
BRANCH   7  19
HETATM   19  O3  UNL     1      -2.389   0.918  -0.808  1.00  0.00    -0.352 OA
HETATM   20  C12 UNL     1      -2.544   0.256  -2.073  1.00  0.00     0.210 C 
ENDBRANCH   7  19
BRANCH   8  21
HETATM   21  O4  UNL     1      -4.667   0.925   1.655  1.00  0.00    -0.351 OA
HETATM   22  C14 UNL     1      -5.142   2.049   0.921  1.00  0.00     0.210 C 
ENDBRANCH   8  21
TORSDOF 7
