REMARK  7 active torsions:
REMARK  status: ('A' for Active; 'I' for Inactive)
REMARK    1  A    between atoms: C2_2  and  C3_3 
REMARK    2  A    between atoms: C3_3  and  C4_4 
REMARK    3  A    between atoms: C5_5  and  C6_6 
REMARK    4  A    between atoms: C5_5  and  O3_23 
REMARK    5  A    between atoms: C9_9  and  N1_10 
REMARK    6  A    between atoms: N1_10  and  C10_11 
REMARK    7  A    between atoms: C10_11  and  O1_12 
ROOT
HETATM    1  C6  UNL     1       2.201  -0.192  -1.375  1.00  0.00     0.064 C 
HETATM    2  C7  UNL     1       0.922  -0.357  -1.122  1.00  0.00     0.045 A 
HETATM    3  C8  UNL     1       0.225   0.147   0.065  1.00  0.00     0.137 A 
HETATM    4  C9  UNL     1      -1.216  -0.216  -0.043  1.00  0.00     0.109 A 
HETATM    5  N2  UNL     1      -1.846  -0.864  -0.957  1.00  0.00    -0.229 NA
HETATM    6  C17 UNL     1      -1.052  -1.309  -2.050  1.00  0.00     0.235 A 
HETATM    7  N3  UNL     1       0.205  -1.076  -2.115  1.00  0.00    -0.246 NA
ENDROOT
BRANCH   4   8
HETATM    8  N1  UNL     1      -2.055   0.219   1.043  1.00  0.00    -0.341 N 
HETATM    9  H12 UNL     1      -1.584   0.434   1.974  1.00  0.00     0.164 HD
BRANCH   8  10
HETATM   10  C10 UNL     1      -3.459   0.356   0.878  1.00  0.00     0.174 C 
HETATM   11  C11 UNL     1      -4.196  -0.841   0.502  1.00  0.00     0.042 C 
HETATM   12  C12 UNL     1      -5.472  -0.853   0.138  1.00  0.00    -0.059 C 
HETATM   13  C13 UNL     1      -5.885  -2.264  -0.176  1.00  0.00     0.048 C 
HETATM   14  C14 UNL     1      -6.461   0.221   0.006  1.00  0.00     0.030 C 
HETATM   15  C15 UNL     1      -6.203   1.539  -0.071  1.00  0.00     0.135 C 
HETATM   16  O2  UNL     1      -4.910   2.099  -0.036  1.00  0.00    -0.358 OA
HETATM   17  C16 UNL     1      -3.671   1.396  -0.221  1.00  0.00     0.239 C 
BRANCH  10  18
HETATM   18  O1  UNL     1      -3.999   0.905   2.039  1.00  0.00    -0.365 OA
HETATM   19  H13 UNL     1      -3.309   1.303   2.626  1.00  0.00     0.213 HD
ENDBRANCH  10  18
ENDBRANCH   8  10
ENDBRANCH   4   8
BRANCH   1  20
HETATM   20  C5  UNL     1       3.130   0.540  -0.481  1.00  0.00     0.066 C 
HETATM   21  C4  UNL     1       4.390   0.662  -0.879  1.00  0.00     0.010 C 
BRANCH  21  22
HETATM   22  C3  UNL     1       5.671   1.228  -0.467  1.00  0.00     0.029 C 
BRANCH  22  23
HETATM   23  C2  UNL     1       6.758   0.196  -0.349  1.00  0.00    -0.001 C 
HETATM   24  C1  UNL     1       6.457  -0.877   0.647  1.00  0.00     0.005 C 
ENDBRANCH  22  23
ENDBRANCH  21  22
BRANCH  20  25
HETATM   25  O3  UNL     1       2.845   1.113   0.722  1.00  0.00    -0.356 OA
HETATM   26  C18 UNL     1       3.222   0.551   1.957  1.00  0.00     0.210 C 
ENDBRANCH  20  25
ENDBRANCH   1  20
TORSDOF 7
