REMARK  9 active torsions:
REMARK  status: ('A' for Active; 'I' for Inactive)
REMARK    1  A    between atoms: C3_3  and  N1_4 
REMARK    2  A    between atoms: N1_4  and  C4_5 
REMARK    3  A    between atoms: C6_7  and  O1_8 
REMARK    4  A    between atoms: C9_11  and  O2_12 
REMARK    5  A    between atoms: C13_18  and  C14_19 
REMARK    6  A    between atoms: C14_19  and  C15_20 
REMARK    7  A    between atoms: C15_20  and  C16_21 
REMARK    8  A    between atoms: C15_20  and  O4_24 
REMARK    9  A    between atoms: C16_21  and  O3_22 
ROOT
HETATM    1  C1  UNL     1       1.408  -1.845   1.115  1.00  0.00     0.049 C 
HETATM    2  C2  UNL     1       1.270  -0.709   0.450  1.00  0.00     0.017 A 
HETATM    3  C3  UNL     1       0.041  -0.188   0.139  1.00  0.00     0.138 A 
HETATM    4  N2  UNL     1       0.074   0.968  -0.535  1.00  0.00    -0.224 NA
HETATM    5  C12 UNL     1       1.195   1.603  -0.900  1.00  0.00     0.235 A 
HETATM    6  N3  UNL     1       2.374   1.050  -0.571  1.00  0.00    -0.241 NA
HETATM    7  C13 UNL     1       2.459  -0.111   0.107  1.00  0.00     0.071 A 
ENDROOT
BRANCH   3   8
HETATM    8  N1  UNL     1      -1.141  -0.870   0.532  1.00  0.00    -0.340 N 
HETATM    9  H3  UNL     1      -0.999  -1.778   1.069  1.00  0.00     0.167 HD
BRANCH   8  10
HETATM   10  C4  UNL     1      -2.497  -0.522   0.316  1.00  0.00     0.038 A 
HETATM   11  C5  UNL     1      -3.531  -1.311   0.793  1.00  0.00     0.066 A 
HETATM   12  C6  UNL     1      -4.851  -0.999   0.598  1.00  0.00     0.073 A 
HETATM   13  C8  UNL     1      -5.214   0.126  -0.088  1.00  0.00     0.073 A 
HETATM   14  C9  UNL     1      -4.219   0.962  -0.593  1.00  0.00     0.073 A 
HETATM   15  C11 UNL     1      -2.917   0.594  -0.364  1.00  0.00     0.066 A 
BRANCH  12  16
HETATM   16  O1  UNL     1      -5.806  -1.854   1.115  1.00  0.00    -0.356 OA
HETATM   17  C7  UNL     1      -7.160  -1.574   0.939  1.00  0.00     0.210 C 
ENDBRANCH  12  16
BRANCH  14  18
HETATM   18  O2  UNL     1      -4.587   2.104  -1.290  1.00  0.00    -0.356 OA
HETATM   19  C10 UNL     1      -5.971   2.354  -1.448  1.00  0.00     0.210 C 
ENDBRANCH  14  18
ENDBRANCH   8  10
ENDBRANCH   3   8
BRANCH   7  20
HETATM   20  C14 UNL     1       3.601  -0.655   0.428  1.00  0.00     0.071 C 
BRANCH  20  21
HETATM   21  C15 UNL     1       4.815   0.030   0.035  1.00  0.00     0.092 C 
BRANCH  21  22
HETATM   22  C16 UNL     1       5.995  -0.466   0.327  1.00  0.00     0.170 C 
BRANCH  22  23
HETATM   23  O3  UNL     1       7.267  -0.925   0.598  1.00  0.00    -0.365 OA
HETATM   24  C17 UNL     1       8.293  -0.799  -0.393  1.00  0.00     0.209 C 
ENDBRANCH  22  23
ENDBRANCH  21  22
BRANCH  21  25
HETATM   25  O4  UNL     1       5.549   1.028  -0.542  1.00  0.00    -0.354 OA
HETATM   26  C18 UNL     1       5.081   2.159  -1.210  1.00  0.00     0.210 C 
ENDBRANCH  21  25
ENDBRANCH  20  21
ENDBRANCH   7  20
TORSDOF 9
