REMARK  8 active torsions:
REMARK  status: ('A' for Active; 'I' for Inactive)
REMARK    1  A    between atoms: O1_2  and  C2_3 
REMARK    2  A    between atoms: C2_3  and  C3_4 
REMARK    3  A    between atoms: C5_6  and  N1_7 
REMARK    4  A    between atoms: N1_7  and  C6_8 
REMARK    5  A    between atoms: C8_10  and  O2_11 
REMARK    6  A    between atoms: C11_14  and  O3_15 
REMARK    7  A    between atoms: C15_21  and  C16_22 
REMARK    8  A    between atoms: C16_22  and  O4_23 
ROOT
HETATM    1  C3  UNL     1      -2.156  -0.225   0.852  1.00  0.00     0.011 C 
HETATM    2  C4  UNL     1      -1.715   0.153  -0.310  1.00  0.00    -0.004 C 
HETATM    3  C5  UNL     1      -0.366   0.689  -0.406  1.00  0.00     0.130 C 
HETATM    4  N2  UNL     1       0.090   1.280  -1.452  1.00  0.00    -0.268 NA
HETATM    5  C14 UNL     1      -0.614   1.511  -2.662  1.00  0.00     0.182 C 
HETATM    6  P1  UNL     1      -1.715   0.023  -2.979  1.00  0.00    -0.097 P 
HETATM    7  C15 UNL     1      -2.732  -0.045  -1.391  1.00  0.00     0.073 C 
HETATM    8  H19 UNL     1      -2.588   0.298  -4.111  1.00  0.00     0.060 HD
ENDROOT
BRANCH   3   9
HETATM    9  N1  UNL     1       0.553   0.596   0.668  1.00  0.00    -0.341 N 
HETATM   10  H7  UNL     1       0.153   0.737   1.642  1.00  0.00     0.167 HD
BRANCH   9  11
HETATM   11  C6  UNL     1       1.941   0.331   0.559  1.00  0.00     0.038 A 
HETATM   12  C7  UNL     1       2.624   0.082  -0.607  1.00  0.00     0.066 A 
HETATM   13  C8  UNL     1       3.972  -0.169  -0.689  1.00  0.00     0.073 A 
HETATM   14  C10 UNL     1       4.733  -0.181   0.461  1.00  0.00     0.073 A 
HETATM   15  C11 UNL     1       4.085   0.064   1.651  1.00  0.00     0.073 A 
HETATM   16  C13 UNL     1       2.731   0.311   1.686  1.00  0.00     0.066 A 
BRANCH  13  17
HETATM   17  O2  UNL     1       4.601  -0.414  -1.905  1.00  0.00    -0.356 OA
HETATM   18  C9  UNL     1       3.922  -0.425  -3.132  1.00  0.00     0.210 C 
ENDBRANCH  13  17
BRANCH  15  19
HETATM   19  O3  UNL     1       4.792   0.066   2.845  1.00  0.00    -0.356 OA
HETATM   20  C12 UNL     1       4.139   0.319   4.089  1.00  0.00     0.210 C 
ENDBRANCH  15  19
ENDBRANCH   9  11
ENDBRANCH   3   9
BRANCH   1  21
HETATM   21  C2  UNL     1      -3.465  -0.800   1.254  1.00  0.00     0.195 C 
BRANCH  21  22
HETATM   22  O1  UNL     1      -3.273  -2.058   1.817  1.00  0.00    -0.392 OA
HETATM   23  C1  UNL     1      -4.448  -2.674   2.223  1.00  0.00     0.201 C 
ENDBRANCH  21  22
ENDBRANCH   1  21
BRANCH   7  24
HETATM   24  C16 UNL     1      -3.597   1.185  -1.430  1.00  0.00     0.178 C 
BRANCH  24  25
HETATM   25  O4  UNL     1      -4.560   1.029  -2.429  1.00  0.00    -0.400 OA
HETATM   26  H23 UNL     1      -5.253   1.732  -2.219  1.00  0.00     0.209 HD
ENDBRANCH  24  25
ENDBRANCH   7  24
TORSDOF 8
