REMARK  4 active torsions:
REMARK  status: ('A' for Active; 'I' for Inactive)
REMARK    1  A    between atoms: O1_2  and  C2_3 
REMARK    2  A    between atoms: C4_5  and  N1_6 
REMARK    3  A    between atoms: N1_6  and  C5_7 
REMARK    4  A    between atoms: C16_21  and  O3_22 
ROOT
HETATM    1  C5  UNL     1       0.709   0.742  -1.413  1.00  0.00     0.141 A 
HETATM    2  N2  UNL     1       0.851   0.749  -2.748  1.00  0.00    -0.224 NA
HETATM    3  C6  UNL     1       2.002   0.490  -3.373  1.00  0.00     0.236 A 
HETATM    4  N3  UNL     1       3.075   0.207  -2.619  1.00  0.00    -0.241 NA
HETATM    5  C7  UNL     1       3.058   0.169  -1.275  1.00  0.00     0.072 A 
HETATM    6  C8  UNL     1       1.840   0.445  -0.687  1.00  0.00     0.037 A 
HETATM    7  C9  UNL     1       1.508   0.471   0.592  1.00  0.00     0.017 C 
HETATM    8  C10 UNL     1       1.998   0.299   1.979  1.00  0.00     0.203 C 
HETATM    9  O2  UNL     1       3.381   0.555   2.081  1.00  0.00    -0.359 OA
HETATM   10  C11 UNL     1       4.578  -0.040   1.642  1.00  0.00     0.141 C 
HETATM   11  C12 UNL     1       4.925  -0.314   0.377  1.00  0.00    -0.038 C 
HETATM   12  C13 UNL     1       6.260  -0.949   0.203  1.00  0.00     0.050 C 
HETATM   13  C14 UNL     1       4.299  -0.130  -0.936  1.00  0.00     0.041 C 
ENDROOT
BRANCH   1  14
HETATM   14  N1  UNL     1      -0.533   1.042  -0.796  1.00  0.00    -0.340 N 
HETATM   15  H5  UNL     1      -0.325   2.061  -0.576  1.00  0.00     0.167 HD
BRANCH  14  16
HETATM   16  C4  UNL     1      -1.776   0.454  -0.458  1.00  0.00     0.038 A 
HETATM   17  C3  UNL     1      -2.575   1.145   0.421  1.00  0.00     0.066 A 
HETATM   18  C2  UNL     1      -3.780   0.604   0.735  1.00  0.00     0.073 A 
HETATM   19  C18 UNL     1      -4.160  -0.605   0.170  1.00  0.00     0.073 A 
HETATM   20  C16 UNL     1      -3.383  -1.325  -0.717  1.00  0.00     0.073 A 
HETATM   21  C15 UNL     1      -2.153  -0.743  -1.017  1.00  0.00     0.066 A 
BRANCH  18  22
HETATM   22  O1  UNL     1      -4.644   1.240   1.617  1.00  0.00    -0.356 OA
HETATM   23  C1  UNL     1      -4.224   2.464   2.176  1.00  0.00     0.210 C 
ENDBRANCH  18  22
BRANCH  20  24
HETATM   24  O3  UNL     1      -3.859  -2.525  -1.225  1.00  0.00    -0.356 OA
HETATM   25  C17 UNL     1      -5.136  -2.998  -0.832  1.00  0.00     0.210 C 
ENDBRANCH  20  24
ENDBRANCH  14  16
ENDBRANCH   1  14
TORSDOF 4
