REMARK  8 active torsions:
REMARK  status: ('A' for Active; 'I' for Inactive)
REMARK    1  A    between atoms: C3_3  and  C4_4 
REMARK    2  A    between atoms: C4_4  and  N1_5 
REMARK    3  A    between atoms: C4_4  and  O3_21 
REMARK    4  A    between atoms: N1_5  and  C5_6 
REMARK    5  A    between atoms: C5_6  and  C6_7 
REMARK    6  A    between atoms: C8_9  and  O1_10 
REMARK    7  A    between atoms: O3_21  and  C16_22 
REMARK    8  A    between atoms: C16_22  and  O4_23 
ROOT
HETATM    1  C6  UNL     1       0.971  -0.455   0.480  1.00  0.00     0.008 A 
HETATM    2  C7  UNL     1       1.994  -1.316   0.787  1.00  0.00     0.048 A 
HETATM    3  C8  UNL     1       3.277  -1.064   0.404  1.00  0.00     0.078 A 
HETATM    4  C10 UNL     1       3.493   0.071  -0.298  1.00  0.00     0.026 A 
HETATM    5  C11 UNL     1       2.623   1.100  -0.757  1.00  0.00     0.318 A 
HETATM    6  C12 UNL     1       1.548   0.521  -0.204  1.00  0.00     0.186 A 
HETATM    7  N2  UNL     1       1.288   1.908  -0.363  1.00  0.00     0.074 N 
HETATM    8  N3  UNL     1       1.299   3.265  -0.797  1.00  0.00    -0.078 NA
HETATM    9  C13 UNL     1       2.230   3.973  -0.204  1.00  0.00     0.111 C 
HETATM   10  C14 UNL     1       3.104   3.122   0.307  1.00  0.00     0.009 C 
HETATM   11  C15 UNL     1       4.152   2.393  -0.272  1.00  0.00     0.033 C 
HETATM   12  O2  UNL     1       4.054   1.128  -0.996  1.00  0.00     0.000 OA
HETATM   13  H15 UNL     1       0.574   2.192   0.341  1.00  0.00     0.319 HD
ENDROOT
BRANCH   1  14
HETATM   14  C5  UNL     1      -0.440  -0.262   0.677  1.00  0.00     0.314 C 
BRANCH  14  15
HETATM   15  N1  UNL     1      -1.238  -0.522  -0.493  1.00  0.00     0.120 N 
HETATM   16  H7  UNL     1      -0.972   0.244  -1.187  1.00  0.00     0.320 HD
BRANCH  15  17
HETATM   17  C4  UNL     1      -2.652  -0.305  -0.264  1.00  0.00     0.382 C 
BRANCH  17  18
HETATM   18  C3  UNL     1      -2.911   1.106   0.148  1.00  0.00     0.032 C 
HETATM   19  C2  UNL     1      -3.318   2.091  -0.629  1.00  0.00    -0.031 C 
HETATM   20  C1  UNL     1      -3.554   1.820  -2.056  1.00  0.00     0.036 C 
ENDBRANCH  17  18
BRANCH  17  21
HETATM   21  O3  UNL     1      -3.225  -1.177   0.634  1.00  0.00    -0.330 OA
BRANCH  21  22
HETATM   22  C16 UNL     1      -4.224  -1.872  -0.082  1.00  0.00     0.340 C 
BRANCH  22  23
HETATM   23  O4  UNL     1      -4.884  -2.785   0.700  1.00  0.00    -0.372 OA
HETATM   24  C17 UNL     1      -3.973  -3.717   1.190  1.00  0.00     0.204 C 
ENDBRANCH  22  23
ENDBRANCH  21  22
ENDBRANCH  17  21
ENDBRANCH  15  17
ENDBRANCH  14  15
ENDBRANCH   1  14
BRANCH   3  25
HETATM   25  O1  UNL     1       4.564  -1.521   0.434  1.00  0.00    -0.355 OA
HETATM   26  C9  UNL     1       5.094  -2.654   0.999  1.00  0.00     0.210 C 
ENDBRANCH   3  25
TORSDOF 8
