REMARK  6 active torsions:
REMARK  status: ('A' for Active; 'I' for Inactive)
REMARK    1  A    between atoms: C2_2  and  O1_3 
REMARK    2  A    between atoms: C3_4  and  C4_5 
REMARK    3  A    between atoms: C3_4  and  C15_20 
REMARK    4  A    between atoms: C8_11  and  N3_12 
REMARK    5  A    between atoms: N3_12  and  C9_13 
REMARK    6  A    between atoms: C15_20  and  O3_21 
ROOT
HETATM    1  C4  UNL     1       2.428  -0.873   0.755  1.00  0.00     0.016 C 
HETATM    2  C5  UNL     1       1.337  -0.470   0.128  1.00  0.00    -0.052 C 
HETATM    3  C6  UNL     1       1.447   0.070  -1.249  1.00  0.00     0.184 C 
HETATM    4  N1  UNL     1       1.058   1.468  -1.224  1.00  0.00    -0.279 NA
HETATM    5  C7  UNL     1      -0.125   1.882  -0.915  1.00  0.00     0.229 C 
HETATM    6  N2  UNL     1      -1.213   1.005  -0.555  1.00  0.00    -0.229 NA
HETATM    7  C8  UNL     1      -1.061  -0.033   0.225  1.00  0.00     0.109 C 
HETATM    8  C14 UNL     1       0.101  -0.626   0.936  1.00  0.00     0.114 C 
ENDROOT
BRANCH   1   9
HETATM    9  C3  UNL     1       3.811  -0.882   0.308  1.00  0.00    -0.006 C 
HETATM   10  C2  UNL     1       4.532   0.169  -0.024  1.00  0.00     0.047 C 
HETATM   11  C1  UNL     1       4.120   1.592  -0.023  1.00  0.00     0.076 C 
BRANCH  10  12
HETATM   12  O1  UNL     1       5.836   0.047  -0.437  1.00  0.00    -0.365 OA
HETATM   13  H4  UNL     1       5.982  -0.119  -1.434  1.00  0.00     0.217 HD
ENDBRANCH  10  12
BRANCH   9  14
HETATM   14  C15 UNL     1       4.453  -2.222   0.222  1.00  0.00     0.205 C 
BRANCH  14  15
HETATM   15  O3  UNL     1       5.768  -2.109  -0.217  1.00  0.00    -0.396 OA
HETATM   16  H21 UNL     1       6.286  -2.907   0.122  1.00  0.00     0.209 HD
ENDBRANCH  14  15
ENDBRANCH   9  14
ENDBRANCH   1   9
BRANCH   7  17
HETATM   17  N3  UNL     1      -2.301  -0.742   0.428  1.00  0.00    -0.346 N 
HETATM   18  H9  UNL     1      -2.270  -1.786   0.572  1.00  0.00     0.167 HD
BRANCH  17  19
HETATM   19  C9  UNL     1      -3.548  -0.023   0.430  1.00  0.00     0.030 C 
HETATM   20  C10 UNL     1      -4.050   0.226  -0.782  1.00  0.00     0.003 C 
HETATM   21  C11 UNL     1      -5.350   0.975  -0.782  1.00  0.00     0.055 C 
HETATM   22  C12 UNL     1      -6.226   0.347   0.251  1.00  0.00     0.172 C 
HETATM   23  O2  UNL     1      -5.630   0.030   1.442  1.00  0.00    -0.385 OA
HETATM   24  C13 UNL     1      -4.339   0.472   1.607  1.00  0.00     0.224 C 
ENDBRANCH  17  19
ENDBRANCH   7  17
TORSDOF 6
