REMARK  5 active torsions:
REMARK  status: ('A' for Active; 'I' for Inactive)
REMARK    1  A    between atoms: O1_2  and  C2_3 
REMARK    2  A    between atoms: C4_5  and  N1_6 
REMARK    3  A    between atoms: N1_6  and  C5_7 
REMARK    4  A    between atoms: C9_13  and  O2_14 
REMARK    5  A    between atoms: C11_16  and  O3_17 
ROOT
HETATM    1  C5  UNL     1      -0.142  -1.310  -0.377  1.00  0.00     0.142 A 
HETATM    2  N2  UNL     1       0.286  -2.546  -0.757  1.00  0.00    -0.224 NA
HETATM    3  C6  UNL     1      -0.653  -3.492  -1.009  1.00  0.00     0.236 A 
HETATM    4  N3  UNL     1      -1.958  -3.260  -0.896  1.00  0.00    -0.241 NA
HETATM    5  C7  UNL     1      -2.422  -2.038  -0.517  1.00  0.00     0.075 A 
HETATM    6  C8  UNL     1      -3.785  -1.778  -0.380  1.00  0.00     0.072 A 
HETATM    7  C9  UNL     1      -4.182  -0.518   0.025  1.00  0.00     0.103 A 
HETATM    8  C11 UNL     1      -3.227   0.476   0.293  1.00  0.00     0.102 A 
HETATM    9  C13 UNL     1      -1.908   0.137   0.133  1.00  0.00     0.057 A 
HETATM   10  C14 UNL     1      -1.474  -1.101  -0.270  1.00  0.00     0.042 A 
ENDROOT
BRANCH   1  11
HETATM   11  N1  UNL     1       0.894  -0.429  -0.178  1.00  0.00    -0.340 N 
HETATM   12  H5  UNL     1       0.851  -0.480   0.883  1.00  0.00     0.167 HD
BRANCH  11  13
HETATM   13  C4  UNL     1       1.944   0.464   0.017  1.00  0.00     0.032 C 
HETATM   14  C3  UNL     1       3.267  -0.222   0.096  1.00  0.00     0.065 C 
HETATM   15  C2  UNL     1       4.531   0.202   0.039  1.00  0.00     0.070 C 
HETATM   16  C18 UNL     1       4.823   1.632  -0.129  1.00  0.00     0.033 C 
HETATM   17  C17 UNL     1       4.068   2.739  -0.024  1.00  0.00    -0.020 C 
HETATM   18  C16 UNL     1       2.640   2.943   0.302  1.00  0.00     0.056 C 
HETATM   19  C15 UNL     1       1.793   1.765   0.113  1.00  0.00     0.006 C 
BRANCH  15  20
HETATM   20  O1  UNL     1       5.716  -0.455   0.108  1.00  0.00    -0.356 OA
HETATM   21  C1  UNL     1       5.831  -1.834   0.084  1.00  0.00     0.210 C 
ENDBRANCH  15  20
ENDBRANCH  11  13
ENDBRANCH   1  11
BRANCH   8  22
HETATM   22  O3  UNL     1      -3.797   1.675   0.686  1.00  0.00    -0.353 OA
HETATM   23  C12 UNL     1      -2.956   2.786   1.014  1.00  0.00     0.210 C 
ENDBRANCH   8  22
BRANCH   7  24
HETATM   24  O2  UNL     1      -5.530  -0.231   0.169  1.00  0.00    -0.353 OA
HETATM   25  C10 UNL     1      -6.583  -1.118  -0.062  1.00  0.00     0.210 C 
ENDBRANCH   7  24
TORSDOF 5
