REMARK  4 active torsions:
REMARK  status: ('A' for Active; 'I' for Inactive)
REMARK    1  A    between atoms: O1_2  and  C2_3 
REMARK    2  A    between atoms: C4_5  and  O2_6 
REMARK    3  A    between atoms: C12_16  and  O3_17 
REMARK    4  A    between atoms: C12_16  and  O4_19 
ROOT
HETATM    1  C2  UNL     1      -3.724  -0.854  -0.682  1.00  0.00     0.071 A 
HETATM    2  C3  UNL     1      -4.299   0.377  -0.900  1.00  0.00     0.073 A 
HETATM    3  C4  UNL     1      -3.457   1.458  -0.843  1.00  0.00     0.071 A 
HETATM    4  C6  UNL     1      -2.124   1.305  -0.583  1.00  0.00     0.050 A 
HETATM    5  C7  UNL     1      -1.606   0.051  -0.373  1.00  0.00    -0.002 A 
HETATM    6  C8  UNL     1      -0.197  -0.083  -0.101  1.00  0.00     0.068 C 
HETATM    7  N1  UNL     1       0.858   0.623   0.029  1.00  0.00    -0.241 NA
HETATM    8  C9  UNL     1       0.775   2.030  -0.114  1.00  0.00     0.233 C 
HETATM    9  N2  UNL     1       1.903   2.209  -0.757  1.00  0.00    -0.254 NA
HETATM   10  C10 UNL     1       2.704   1.071  -1.044  1.00  0.00     0.119 C 
HETATM   11  C11 UNL     1       3.230  -0.077  -0.737  1.00  0.00     0.064 C 
HETATM   12  C12 UNL     1       3.025  -0.778   0.568  1.00  0.00     0.204 C 
HETATM   13  C15 UNL     1       1.789  -1.573   0.411  1.00  0.00     0.048 C 
HETATM   14  C16 UNL     1       0.531  -1.313   0.151  1.00  0.00     0.034 C 
HETATM   15  C17 UNL     1      -2.387  -1.054  -0.417  1.00  0.00     0.050 A 
ENDROOT
BRANCH   3  16
HETATM   16  O2  UNL     1      -4.050   2.713  -1.067  1.00  0.00    -0.356 OA
HETATM   17  C5  UNL     1      -3.270   3.899  -1.030  1.00  0.00     0.210 C 
ENDBRANCH   3  16
BRANCH   1  18
HETATM   18  O1  UNL     1      -4.602  -1.947  -0.745  1.00  0.00    -0.356 OA
HETATM   19  C1  UNL     1      -4.180  -3.273  -0.546  1.00  0.00     0.210 C 
ENDBRANCH   1  18
BRANCH  12  20
HETATM   20  O3  UNL     1       2.871   0.101   1.635  1.00  0.00    -0.353 OA
HETATM   21  C13 UNL     1       3.918   0.967   1.814  1.00  0.00     0.206 C 
ENDBRANCH  12  20
BRANCH  12  22
HETATM   22  O4  UNL     1       4.149  -1.573   0.729  1.00  0.00    -0.353 OA
HETATM   23  C14 UNL     1       4.152  -2.358   1.861  1.00  0.00     0.206 C 
ENDBRANCH  12  22
TORSDOF 4
