REMARK  6 active torsions:
REMARK  status: ('A' for Active; 'I' for Inactive)
REMARK    1  A    between atoms: O1_2  and  C2_3 
REMARK    2  A    between atoms: C4_5  and  N1_6 
REMARK    3  A    between atoms: N1_6  and  C5_7 
REMARK    4  A    between atoms: C15_20  and  O3_21 
REMARK    5  A    between atoms: O3_21  and  C16_22 
REMARK    6  A    between atoms: C16_22  and  O4_23 
ROOT
HETATM    1  N1  UNL     1      -0.013  -0.216   1.047  1.00  0.00    -0.382 N 
HETATM    2  H5  UNL     1      -0.141  -0.452   2.035  1.00  0.00     0.160 HD
ENDROOT
BRANCH   1   3
HETATM    3  C4  UNL     1       1.294  -0.096   0.507  1.00  0.00     0.036 A 
HETATM    4  C3  UNL     1       1.591   0.199  -0.805  1.00  0.00     0.087 A 
HETATM    5  C2  UNL     1       2.878   0.312  -1.286  1.00  0.00     0.168 A 
HETATM    6  N4  UNL     1       3.913   0.121  -0.420  1.00  0.00    -0.200 NA
HETATM    7  C15 UNL     1       3.688  -0.171   0.877  1.00  0.00     0.171 A 
HETATM    8  C14 UNL     1       2.388  -0.275   1.324  1.00  0.00     0.087 A 
BRANCH   5   9
HETATM    9  O1  UNL     1       3.076   0.613  -2.626  1.00  0.00    -0.339 OA
HETATM   10  C1  UNL     1       4.386   0.733  -3.139  1.00  0.00     0.211 C 
ENDBRANCH   5   9
BRANCH   7  11
HETATM   11  O3  UNL     1       4.714  -0.372   1.790  1.00  0.00    -0.309 OA
BRANCH  11  12
HETATM   12  C16 UNL     1       6.075  -0.280   1.400  1.00  0.00     0.343 C 
BRANCH  12  13
HETATM   13  O4  UNL     1       6.880  -0.525   2.503  1.00  0.00    -0.377 OA
HETATM   14  H20 UNL     1       7.700   0.051   2.391  1.00  0.00     0.212 HD
ENDBRANCH  12  13
ENDBRANCH  11  12
ENDBRANCH   7  11
ENDBRANCH   1   3
BRANCH   1  15
HETATM   15  C5  UNL     1      -1.227  -0.016   0.243  1.00  0.00     0.119 C 
HETATM   16  C6  UNL     1      -1.299   1.364  -0.254  1.00  0.00     0.200 C 
HETATM   17  O2  UNL     1      -2.271   2.204   0.351  1.00  0.00    -0.360 OA
HETATM   18  C7  UNL     1      -3.641   2.126   0.123  1.00  0.00     0.141 C 
HETATM   19  C8  UNL     1      -4.275   0.936   0.136  1.00  0.00    -0.032 C 
HETATM   20  C9  UNL     1      -5.759   0.980  -0.126  1.00  0.00     0.050 C 
HETATM   21  C10 UNL     1      -3.720  -0.415   0.376  1.00  0.00    -0.022 A 
HETATM   22  C11 UNL     1      -4.618  -1.353   0.022  1.00  0.00     0.117 A 
HETATM   23  C13 UNL     1      -2.398  -0.628   0.915  1.00  0.00     0.087 A 
HETATM   24  N2  UNL     1      -4.263  -2.718   0.183  1.00  0.00    -0.289 N 
HETATM   25  N3  UNL     1      -2.997  -3.086   0.703  1.00  0.00    -0.191 NA
HETATM   26  H14 UNL     1      -4.848  -3.540  -0.045  1.00  0.00     0.188 HD
HETATM   27  C12 UNL     1      -2.183  -2.122   1.022  1.00  0.00     0.123 A 
ENDBRANCH   1  15
TORSDOF 6
