REMARK  4 active torsions:
REMARK  status: ('A' for Active; 'I' for Inactive)
REMARK    1  A    between atoms: O1_2  and  C2_3 
REMARK    2  A    between atoms: C5_6  and  C6_7 
REMARK    3  A    between atoms: C8_11  and  C9_12 
REMARK    4  A    between atoms: C14_18  and  O2_19 
ROOT
HETATM    1  C6  UNL     1       0.262  -0.994  -0.613  1.00  0.00     0.137 A 
HETATM    2  N1  UNL     1       0.954  -1.628  -1.498  1.00  0.00    -0.224 NA
HETATM    3  C7  UNL     1       2.296  -2.013  -1.136  1.00  0.00     0.232 A 
HETATM    4  N2  UNL     1       2.936  -1.820  -0.039  1.00  0.00    -0.253 NA
HETATM    5  C8  UNL     1       2.287  -1.123   1.042  1.00  0.00     0.232 A 
HETATM    6  N3  UNL     1       0.951  -0.766   0.619  1.00  0.00    -0.348 N 
HETATM    7  H15 UNL     1       0.496  -0.263   1.413  1.00  0.00     0.163 HD
ENDROOT
BRANCH   1   8
HETATM    8  C5  UNL     1      -1.105  -0.502  -0.734  1.00  0.00     0.012 A 
HETATM    9  C4  UNL     1      -1.519  -0.142  -2.006  1.00  0.00     0.018 A 
HETATM   10  C3  UNL     1      -2.813   0.325  -2.121  1.00  0.00     0.040 A 
HETATM   11  C2  UNL     1      -3.626   0.413  -0.994  1.00  0.00     0.101 A 
HETATM   12  C14 UNL     1      -3.196   0.049   0.265  1.00  0.00     0.102 A 
HETATM   13  C13 UNL     1      -1.891  -0.424   0.398  1.00  0.00     0.055 A 
BRANCH  11  14
HETATM   14  O1  UNL     1      -4.907   0.882  -1.150  1.00  0.00    -0.353 OA
HETATM   15  C1  UNL     1      -5.446   1.279  -2.388  1.00  0.00     0.210 C 
ENDBRANCH  11  14
BRANCH  12  16
HETATM   16  O2  UNL     1      -4.075   0.170   1.332  1.00  0.00    -0.353 OA
HETATM   17  C15 UNL     1      -3.613  -0.210   2.626  1.00  0.00     0.210 C 
ENDBRANCH  12  16
ENDBRANCH   1   8
BRANCH   5  18
HETATM   18  C9  UNL     1       3.014   0.115   1.429  1.00  0.00     0.023 C 
HETATM   19  C10 UNL     1       4.219   0.570   1.115  1.00  0.00    -0.088 C 
HETATM   20  C11 UNL     1       4.725   1.884   1.655  1.00  0.00     0.042 C 
HETATM   21  C12 UNL     1       5.085  -0.236   0.211  1.00  0.00     0.042 C 
ENDBRANCH   5  18
TORSDOF 4
