REMARK  8 active torsions:
REMARK  status: ('A' for Active; 'I' for Inactive)
REMARK    1  A    between atoms: C2_2  and  O1_3 
REMARK    2  A    between atoms: C2_2  and  C3_4 
REMARK    3  A    between atoms: C3_4  and  O2_19 
REMARK    4  A    between atoms: C4_5  and  C5_6 
REMARK    5  A    between atoms: C7_8  and  N1_9 
REMARK    6  A    between atoms: N1_9  and  C8_10 
REMARK    7  A    between atoms: C9_11  and  C10_12 
REMARK    8  A    between atoms: C11_13  and  C12_14 
ROOT
HETATM    1  C5  UNL     1      -1.923  -0.841   1.341  1.00  0.00     0.064 A 
HETATM    2  C6  UNL     1      -0.903  -0.520   0.482  1.00  0.00     0.082 A 
HETATM    3  C7  UNL     1       0.271  -1.227   0.309  1.00  0.00     0.130 A 
HETATM    4  N2  UNL     1       0.390  -2.346   1.090  1.00  0.00    -0.224 NA
HETATM    5  C13 UNL     1      -0.623  -2.669   1.950  1.00  0.00     0.235 A 
HETATM    6  N3  UNL     1      -1.761  -1.937   2.079  1.00  0.00    -0.242 NA
ENDROOT
BRANCH   1   7
HETATM    7  C4  UNL     1      -3.024   0.109   1.216  1.00  0.00     0.071 C 
HETATM    8  C3  UNL     1      -3.639   0.498   0.117  1.00  0.00     0.102 C 
BRANCH   8   9
HETATM    9  C2  UNL     1      -3.387   0.083  -1.248  1.00  0.00     0.089 C 
HETATM   10  C1  UNL     1      -4.118   0.607  -2.226  1.00  0.00     0.053 C 
BRANCH   9  11
HETATM   11  O1  UNL     1      -2.499  -0.808  -1.869  1.00  0.00    -0.359 OA
HETATM   12  H3  UNL     1      -2.522  -1.807  -1.660  1.00  0.00     0.217 HD
ENDBRANCH   9  11
ENDBRANCH   8   9
BRANCH   8  13
HETATM   13  O2  UNL     1      -4.653   1.425   0.324  1.00  0.00    -0.353 OA
HETATM   14  C14 UNL     1      -4.459   2.818   0.370  1.00  0.00     0.210 C 
ENDBRANCH   8  13
ENDBRANCH   1   7
BRANCH   3  15
HETATM   15  N1  UNL     1       1.307  -0.878  -0.598  1.00  0.00    -0.351 N 
HETATM   16  H6  UNL     1       1.198  -0.019  -1.175  1.00  0.00     0.166 HD
BRANCH  15  17
HETATM   17  C8  UNL     1       2.498  -1.616  -0.789  1.00  0.00     0.089 C 
HETATM   18  C9  UNL     1       3.754  -1.349  -0.500  1.00  0.00     0.017 C 
BRANCH  18  19
HETATM   19  C10 UNL     1       4.201  -0.124   0.137  1.00  0.00    -0.000 C 
HETATM   20  C11 UNL     1       5.479   0.113   0.416  1.00  0.00     0.004 C 
BRANCH  20  21
HETATM   21  C12 UNL     1       6.031   1.310   1.053  1.00  0.00     0.249 C 
HETATM   22  F1  UNL     1       6.943   1.902   0.170  1.00  0.00    -0.251 F 
ENDBRANCH  20  21
ENDBRANCH  18  19
ENDBRANCH  15  17
ENDBRANCH   3  15
TORSDOF 8
