REMARK  8 active torsions:
REMARK  status: ('A' for Active; 'I' for Inactive)
REMARK    1  A    between atoms: O1_2  and  C2_3 
REMARK    2  A    between atoms: N1_6  and  N2_7 
REMARK    3  A    between atoms: N2_7  and  C5_8 
REMARK    4  A    between atoms: C5_8  and  N3_9 
REMARK    5  A    between atoms: N3_9  and  C6_10 
REMARK    6  A    between atoms: C6_10  and  N4_11 
REMARK    7  A    between atoms: N4_11  and  C7_12 
REMARK    8  A    between atoms: C15_21  and  O2_22 
ROOT
HETATM    1  N2  UNL     1      -0.878  -2.470  -1.097  1.00  0.00    -0.085 NA
ENDROOT
BRANCH   1   2
HETATM    2  N1  UNL     1      -1.155  -1.349  -1.887  1.00  0.00    -0.145 NA
HETATM    3  C4  UNL     1      -2.031  -0.519  -1.422  1.00  0.00     0.064 A 
HETATM    4  C3  UNL     1      -2.761  -0.628  -0.161  1.00  0.00     0.069 A 
HETATM    5  C13 UNL     1      -2.231   0.630  -2.363  1.00  0.00     0.091 A 
HETATM    6  C2  UNL     1      -3.634   0.322   0.170  1.00  0.00     0.102 A 
HETATM    7  C15 UNL     1      -3.878   1.459  -0.690  1.00  0.00     0.095 A 
HETATM    8  C14 UNL     1      -3.232   1.582  -1.835  1.00  0.00     0.019 A 
BRANCH   6   9
HETATM    9  O1  UNL     1      -4.277   0.138   1.377  1.00  0.00    -0.353 OA
HETATM   10  C1  UNL     1      -4.505  -1.118   1.952  1.00  0.00     0.210 C 
ENDBRANCH   6   9
BRANCH   7  11
HETATM   11  O2  UNL     1      -4.811   2.364  -0.217  1.00  0.00    -0.358 OA
HETATM   12  H15 UNL     1      -5.358   2.970  -0.800  1.00  0.00     0.217 HD
ENDBRANCH   7  11
ENDBRANCH   1   2
BRANCH   1  13
HETATM   13  C5  UNL     1      -0.251  -2.308  -0.003  1.00  0.00     0.119 C 
BRANCH  13  14
HETATM   14  N3  UNL     1       0.362  -1.985   1.085  1.00  0.00    -0.209 NA
BRANCH  14  15
HETATM   15  C6  UNL     1       1.711  -1.530   0.959  1.00  0.00     0.282 C 
BRANCH  15  16
HETATM   16  N4  UNL     1       1.873  -0.170   0.558  1.00  0.00    -0.371 N 
HETATM   17  H7  UNL     1       1.136   0.538   0.344  1.00  0.00     0.161 HD
BRANCH  16  18
HETATM   18  C7  UNL     1       3.242   0.253   0.441  1.00  0.00     0.032 A 
HETATM   19  C8  UNL     1       4.280  -0.614   0.704  1.00  0.00     0.029 A 
HETATM   20  C9  UNL     1       5.619  -0.221   0.596  1.00  0.00     0.005 A 
HETATM   21  C10 UNL     1       5.923   1.069   0.217  1.00  0.00     0.042 A 
HETATM   22  C11 UNL     1       4.888   1.940  -0.048  1.00  0.00     0.118 A 
HETATM   23  F1  UNL     1       5.266   3.184  -0.414  1.00  0.00    -0.206 F 
HETATM   24  C12 UNL     1       3.574   1.537   0.063  1.00  0.00     0.071 A 
ENDBRANCH  16  18
ENDBRANCH  15  16
ENDBRANCH  14  15
ENDBRANCH  13  14
ENDBRANCH   1  13
TORSDOF 8
