REMARK  9 active torsions:
REMARK  status: ('A' for Active; 'I' for Inactive)
REMARK    1  A    between atoms: C4_5  and  C5_6 
REMARK    2  A    between atoms: C6_7  and  C7_8 
REMARK    3  A    between atoms: C7_8  and  N2_9 
REMARK    4  A    between atoms: C13_17  and  O1_18 
REMARK    5  A    between atoms: O1_18  and  C14_19 
REMARK    6  A    between atoms: C18_23  and  N5_24 
REMARK       I    between atoms: N5_24  and  C19_25 
REMARK    7  A    between atoms: C19_25  and  C20_27 
REMARK    8  A    between atoms: C20_27  and  C21_28 
REMARK    9  A    between atoms: C21_28  and  C22_29 
ROOT
HETATM    1  C1  UNL     1       0.987   0.749  -3.935  1.00  0.00     0.041 C 
HETATM    2  C2  UNL     1       0.717   1.458  -2.649  1.00  0.00     0.154 C 
HETATM    3  N1  UNL     1       1.910   1.679  -1.851  1.00  0.00    -0.380 N 
HETATM    4  C3  UNL     1       2.508   0.459  -1.451  1.00  0.00     0.025 C 
HETATM    5  C4  UNL     1       3.793   0.340  -1.093  1.00  0.00     0.026 C 
HETATM    6  C12 UNL     1       1.641  -0.741  -1.435  1.00  0.00     0.208 C 
HETATM    7  N4  UNL     1       0.225  -0.366  -1.339  1.00  0.00    -0.263 NA
HETATM    8  C13 UNL     1      -0.293   0.657  -1.884  1.00  0.00     0.164 C 
HETATM    9  H5  UNL     1       2.367   2.569  -1.545  1.00  0.00     0.160 HD
ENDROOT
BRANCH   8  10
HETATM   10  O1  UNL     1      -1.623   0.641  -1.556  1.00  0.00    -0.294 OA
BRANCH  10  11
HETATM   11  C14 UNL     1      -2.102   0.803  -0.265  1.00  0.00     0.079 A 
HETATM   12  C15 UNL     1      -1.381   1.004   0.892  1.00  0.00     0.037 A 
HETATM   13  C16 UNL     1      -2.000   1.149   2.113  1.00  0.00     0.005 A 
HETATM   14  C17 UNL     1      -3.373   1.091   2.175  1.00  0.00     0.029 A 
HETATM   15  C18 UNL     1      -4.176   0.891   1.057  1.00  0.00     0.037 A 
HETATM   16  C25 UNL     1      -3.485   0.759  -0.102  1.00  0.00     0.066 A 
BRANCH  15  17
HETATM   17  N5  UNL     1      -5.570   0.854   1.280  1.00  0.00    -0.327 N 
HETATM   18  C19 UNL     1      -6.605   0.656   0.366  1.00  0.00     0.222 C 
HETATM   19  O2  UNL     1      -6.312   0.479  -0.847  1.00  0.00    -0.273 OA
HETATM   20  H25 UNL     1      -5.941   0.991   2.256  1.00  0.00     0.169 HD
BRANCH  18  21
HETATM   21  C20 UNL     1      -8.058   0.643   0.763  1.00  0.00     0.103 C 
BRANCH  21  22
HETATM   22  C21 UNL     1      -8.941   0.236  -0.352  1.00  0.00     0.014 C 
BRANCH  22  23
HETATM   23  C22 UNL     1      -8.821  -1.145  -0.882  1.00  0.00    -0.014 A 
HETATM   24  C23 UNL     1      -9.077  -2.378  -0.129  1.00  0.00     0.005 A 
HETATM   25  C24 UNL     1      -7.679  -1.981  -0.332  1.00  0.00     0.005 A 
ENDBRANCH  22  23
ENDBRANCH  21  22
ENDBRANCH  18  21
ENDBRANCH  15  17
ENDBRANCH  10  11
ENDBRANCH   8  10
BRANCH   5  26
HETATM   26  C5  UNL     1       4.732   1.436  -1.067  1.00  0.00    -0.000 C 
HETATM   27  C6  UNL     1       6.012   1.301  -0.709  1.00  0.00     0.003 C 
BRANCH  27  28
HETATM   28  C7  UNL     1       6.740   0.087  -0.282  1.00  0.00     0.300 C 
BRANCH  28  29
HETATM   29  N2  UNL     1       7.281   0.228   1.058  1.00  0.00     0.095 N 
HETATM   30  C8  UNL     1       6.272   0.288   2.065  1.00  0.00     0.302 C 
HETATM   31  C9  UNL     1       6.161  -0.976   2.843  1.00  0.00     0.299 C 
HETATM   32  N3  UNL     1       6.313  -2.163   2.040  1.00  0.00     0.086 N 
HETATM   33  C10 UNL     1       7.576  -2.186   1.332  1.00  0.00     0.299 C 
HETATM   34  H15 UNL     1       5.488  -2.406   1.485  1.00  0.00     0.315 HD
HETATM   35  C11 UNL     1       8.239  -0.823   1.349  1.00  0.00     0.302 C 
ENDBRANCH  28  29
ENDBRANCH  27  28
ENDBRANCH   5  26
TORSDOF 9
