REMARK  2 active torsions:
REMARK  status: ('A' for Active; 'I' for Inactive)
REMARK    1  A    between atoms: C6_7  and  N2_8 
REMARK    2  A    between atoms: N2_8  and  C7_9 
ROOT
HETATM    1  C1  UNL     1       4.187  -1.095   0.018  1.00  0.00     0.046 C 
HETATM    2  C2  UNL     1       3.159  -0.060   0.356  1.00  0.00    -0.052 C 
HETATM    3  C3  UNL     1       1.985  -0.305  -0.229  1.00  0.00    -0.035 A 
HETATM    4  C4  UNL     1       1.949  -1.504  -1.057  1.00  0.00     0.086 A 
HETATM    5  C5  UNL     1       0.585  -1.638  -1.635  1.00  0.00     0.096 A 
HETATM    6  N1  UNL     1      -0.419  -0.835  -1.447  1.00  0.00    -0.246 NA
HETATM    7  C6  UNL     1      -0.343   0.317  -0.637  1.00  0.00     0.138 A 
HETATM    8  C13 UNL     1       0.827   0.572  -0.045  1.00  0.00     0.018 A 
HETATM    9  C14 UNL     1       0.675   1.799   0.739  1.00  0.00     0.040 C 
HETATM   10  C15 UNL     1       1.629   2.507   1.363  1.00  0.00     0.136 C 
HETATM   11  O1  UNL     1       2.972   2.159   1.356  1.00  0.00    -0.359 OA
HETATM   12  C16 UNL     1       3.682   0.984   1.251  1.00  0.00     0.209 C 
ENDROOT
BRANCH   7  13
HETATM   13  N2  UNL     1      -1.522   1.093  -0.531  1.00  0.00    -0.340 N 
HETATM   14  H7  UNL     1      -1.639   2.119  -0.697  1.00  0.00     0.167 HD
BRANCH  13  15
HETATM   15  C7  UNL     1      -2.764   0.463  -0.157  1.00  0.00     0.036 A 
HETATM   16  C8  UNL     1      -3.478   0.038  -1.260  1.00  0.00     0.029 A 
HETATM   17  C9  UNL     1      -4.715  -0.603  -1.128  1.00  0.00     0.005 A 
HETATM   18  C10 UNL     1      -5.185  -0.789   0.171  1.00  0.00     0.042 A 
HETATM   19  C11 UNL     1      -4.465  -0.362   1.265  1.00  0.00     0.118 A 
HETATM   20  F1  UNL     1      -4.902  -0.530   2.553  1.00  0.00    -0.206 F 
HETATM   21  C12 UNL     1      -3.249   0.268   1.125  1.00  0.00     0.071 A 
ENDBRANCH  13  15
ENDBRANCH   7  13
TORSDOF 2
