REMARK  5 active torsions:
REMARK  status: ('A' for Active; 'I' for Inactive)
REMARK    1  A    between atoms: O1_2  and  C2_3 
REMARK    2  A    between atoms: C7_11  and  O2_12 
REMARK    3  A    between atoms: O2_12  and  C8_13 
REMARK    4  A    between atoms: C8_13  and  N3_14 
REMARK    5  A    between atoms: N3_14  and  C9_15 
ROOT
HETATM    1  C2  UNL     1       0.071   0.521  -2.693  1.00  0.00     0.075 C 
HETATM    2  C3  UNL     1       0.042   0.895  -3.991  1.00  0.00     0.023 C 
HETATM    3  C4  UNL     1       0.824   2.067  -3.675  1.00  0.00    -0.029 C 
HETATM    4  B1  UNL     1       2.615   1.673  -3.307  1.00  0.00     0.426 B 
HETATM    5  N1  UNL     1       3.452   3.232  -2.912  1.00  0.00    -0.347 NA
HETATM    6  C5  UNL     1       3.332   3.489  -1.618  1.00  0.00     0.186 A 
HETATM    7  N2  UNL     1       2.609   2.277  -1.549  1.00  0.00    -0.304 NA
HETATM    8  C6  UNL     1       1.338   2.189  -1.434  1.00  0.00     0.103 C 
HETATM    9  C7  UNL     1       0.569   0.897  -1.359  1.00  0.00     0.198 C 
ENDROOT
BRANCH   9  10
HETATM   10  O2  UNL     1      -0.433   0.943  -0.405  1.00  0.00    -0.359 OA
BRANCH  10  11
HETATM   11  C8  UNL     1      -0.107  -0.055   0.531  1.00  0.00     0.291 C 
BRANCH  11  12
HETATM   12  N3  UNL     1      -1.085  -0.075   1.572  1.00  0.00    -0.369 N 
HETATM   13  H11 UNL     1      -1.905   0.578   1.607  1.00  0.00     0.161 HD
BRANCH  12  14
HETATM   14  C9  UNL     1      -0.916  -1.052   2.619  1.00  0.00     0.032 A 
HETATM   15  C10 UNL     1       0.168  -1.908   2.556  1.00  0.00     0.029 A 
HETATM   16  C11 UNL     1       0.456  -2.899   3.503  1.00  0.00     0.005 A 
HETATM   17  C12 UNL     1      -0.430  -2.990   4.551  1.00  0.00     0.042 A 
HETATM   18  C13 UNL     1      -1.514  -2.145   4.628  1.00  0.00     0.118 A 
HETATM   19  F1  UNL     1      -2.387  -2.251   5.686  1.00  0.00    -0.206 F 
HETATM   20  C14 UNL     1      -1.796  -1.165   3.689  1.00  0.00     0.071 A 
ENDBRANCH  12  14
ENDBRANCH  11  12
ENDBRANCH  10  11
ENDBRANCH   9  10
BRANCH   1  21
HETATM   21  O1  UNL     1      -0.639  -0.665  -2.599  1.00  0.00    -0.358 OA
HETATM   22  C1  UNL     1      -2.024  -0.764  -2.385  1.00  0.00     0.209 C 
ENDBRANCH   1  21
TORSDOF 5
