REMARK  4 active torsions:
REMARK  status: ('A' for Active; 'I' for Inactive)
REMARK    1  A    between atoms: C3_3  and  O1_4 
REMARK    2  A    between atoms: C7_8  and  N1_9 
REMARK    3  A    between atoms: N1_9  and  C8_10 
REMARK    4  A    between atoms: C8_10  and  C9_11 
ROOT
HETATM    1  C1  UNL     1      -5.112  -1.137   0.071  1.00  0.00     0.028 C 
HETATM    2  C2  UNL     1      -3.836  -0.791   0.097  1.00  0.00     0.018 A 
HETATM    3  C3  UNL     1      -3.258   0.545   0.135  1.00  0.00     0.081 A 
HETATM    4  C5  UNL     1      -1.935   0.483   0.153  1.00  0.00     0.055 A 
HETATM    5  C6  UNL     1      -1.546  -0.931   0.126  1.00  0.00     0.042 A 
HETATM    6  C7  UNL     1      -0.264  -1.474   0.132  1.00  0.00     0.137 A 
HETATM    7  N2  UNL     1      -0.179  -2.809   0.103  1.00  0.00    -0.224 NA
HETATM    8  C15 UNL     1      -1.287  -3.563   0.070  1.00  0.00     0.236 A 
HETATM    9  N3  UNL     1      -2.525  -3.014   0.065  1.00  0.00    -0.240 NA
HETATM   10  C16 UNL     1      -2.692  -1.684   0.093  1.00  0.00     0.084 A 
ENDROOT
BRANCH   6  11
HETATM   11  N1  UNL     1       0.907  -0.651   0.167  1.00  0.00    -0.370 N 
HETATM   12  H7  UNL     1       0.749   0.393   0.188  1.00  0.00     0.161 HD
BRANCH  11  13
HETATM   13  C8  UNL     1       2.227  -1.246   0.172  1.00  0.00     0.160 C 
BRANCH  13  14
HETATM   14  C9  UNL     1       3.213  -0.119   0.211  1.00  0.00    -0.041 A 
HETATM   15  C10 UNL     1       3.694   0.438  -0.954  1.00  0.00     0.009 A 
HETATM   16  C11 UNL     1       4.598   1.471  -1.054  1.00  0.00     0.001 A 
HETATM   17  C12 UNL     1       5.068   2.001   0.143  1.00  0.00     0.000 A 
HETATM   18  C13 UNL     1       4.613   1.473   1.355  1.00  0.00     0.001 A 
HETATM   19  C14 UNL     1       3.694   0.422   1.402  1.00  0.00     0.009 A 
ENDBRANCH  13  14
ENDBRANCH  11  13
ENDBRANCH   6  11
BRANCH   3  20
HETATM   20  O1  UNL     1      -4.048   1.710   0.151  1.00  0.00    -0.355 OA
HETATM   21  C4  UNL     1      -3.912   2.658  -0.890  1.00  0.00     0.210 C 
ENDBRANCH   3  20
TORSDOF 4
