REMARK  9 active torsions:
REMARK  status: ('A' for Active; 'I' for Inactive)
REMARK    1  A    between atoms: C6_8  and  O1_9 
REMARK    2  A    between atoms: O1_9  and  C7_10 
REMARK    3  A    between atoms: C7_10  and  C8_11 
REMARK    4  A    between atoms: C8_11  and  N3_12 
REMARK    5  A    between atoms: C9_13  and  C10_14 
REMARK    6  A    between atoms: C14_18  and  N4_19 
REMARK       I    between atoms: N4_19  and  C15_20 
REMARK    7  A    between atoms: C15_20  and  C16_22 
REMARK    8  A    between atoms: C16_22  and  C17_23 
REMARK    9  A    between atoms: C17_23  and  C18_24 
ROOT
HETATM    1  N3  UNL     1      -0.353  -1.460  -0.172  1.00  0.00    -0.299 NA
HETATM    2  C9  UNL     1       0.912  -1.576  -0.257  1.00  0.00     0.121 C 
ENDROOT
BRANCH   2   3
HETATM    3  C10 UNL     1       2.199  -2.152   0.054  1.00  0.00    -0.017 A 
HETATM    4  C11 UNL     1       2.260  -3.188   0.947  1.00  0.00     0.013 A 
HETATM    5  C12 UNL     1       3.509  -3.717   1.226  1.00  0.00     0.003 A 
HETATM    6  C13 UNL     1       4.595  -3.159   0.584  1.00  0.00     0.029 A 
HETATM    7  C14 UNL     1       4.492  -2.114  -0.311  1.00  0.00     0.035 A 
HETATM    8  C21 UNL     1       3.256  -1.568  -0.607  1.00  0.00     0.042 A 
BRANCH   7   9
HETATM    9  N4  UNL     1       5.666  -1.576  -0.948  1.00  0.00    -0.327 N 
HETATM   10  C15 UNL     1       6.170  -0.529  -0.128  1.00  0.00     0.222 C 
HETATM   11  O2  UNL     1       5.760  -0.065   0.967  1.00  0.00    -0.273 OA
HETATM   12  H19 UNL     1       6.180  -1.792  -1.831  1.00  0.00     0.169 HD
BRANCH  10  13
HETATM   13  C16 UNL     1       7.386   0.283  -0.448  1.00  0.00     0.103 C 
BRANCH  13  14
HETATM   14  C17 UNL     1       7.567   1.279   0.677  1.00  0.00     0.014 C 
BRANCH  14  15
HETATM   15  C18 UNL     1       8.774   2.170   0.474  1.00  0.00    -0.014 A 
HETATM   16  C19 UNL     1       8.823   3.027  -0.745  1.00  0.00     0.005 A 
HETATM   17  C20 UNL     1       9.766   1.874  -0.564  1.00  0.00     0.005 A 
ENDBRANCH  14  15
ENDBRANCH  13  14
ENDBRANCH  10  13
ENDBRANCH   7   9
ENDBRANCH   2   3
BRANCH   1  18
HETATM   18  C8  UNL     1      -1.231  -2.254   0.653  1.00  0.00     0.175 C 
BRANCH  18  19
HETATM   19  C7  UNL     1      -2.355  -1.302   1.089  1.00  0.00     0.199 C 
BRANCH  19  20
HETATM   20  O1  UNL     1      -2.967  -0.859  -0.110  1.00  0.00    -0.333 OA
BRANCH  20  21
HETATM   21  C6  UNL     1      -3.998   0.033  -0.190  1.00  0.00     0.159 A 
HETATM   22  N2  UNL     1      -3.799   0.988   0.620  1.00  0.00    -0.266 NA
HETATM   23  C5  UNL     1      -4.700   2.100   0.784  1.00  0.00     0.160 A 
HETATM   24  C4  UNL     1      -5.921   2.077  -0.070  1.00  0.00     0.038 A 
HETATM   25  C3  UNL     1      -7.199   2.123   0.736  1.00  0.00     0.041 C 
HETATM   26  C23 UNL     1      -6.009   0.894  -0.965  1.00  0.00    -0.042 A 
HETATM   27  C2  UNL     1      -8.100   0.987   0.409  1.00  0.00     0.273 C 
HETATM   28  N1  UNL     1      -8.431   0.912  -1.002  1.00  0.00     0.088 N 
HETATM   29  C1  UNL     1      -9.230  -0.267  -1.264  1.00  0.00     0.310 C 
HETATM   30  C24 UNL     1      -7.231   0.875  -1.820  1.00  0.00     0.306 C 
HETATM   31  C22 UNL     1      -5.148  -0.094  -1.070  1.00  0.00     0.062 A 
ENDBRANCH  20  21
ENDBRANCH  19  20
ENDBRANCH  18  19
ENDBRANCH   1  18
TORSDOF 9
