REMARK  5 active torsions:
REMARK  status: ('A' for Active; 'I' for Inactive)
REMARK    1  A    between atoms: O1_2  and  C2_3 
REMARK    2  A    between atoms: C6_9  and  N3_10 
REMARK    3  A    between atoms: N3_10  and  C7_11 
REMARK    4  A    between atoms: C7_11  and  C8_12 
REMARK    5  A    between atoms: C16_20  and  O2_21 
ROOT
HETATM    1  C2  UNL     1      -3.349   0.366  -0.200  1.00  0.00     0.102 C 
HETATM    2  C3  UNL     1      -2.841   1.148   0.816  1.00  0.00     0.059 C 
HETATM    3  C4  UNL     1      -1.580   1.120   1.371  1.00  0.00     0.121 C 
HETATM    4  N1  UNL     1      -0.441   1.650   0.970  1.00  0.00    -0.254 NA
HETATM    5  C5  UNL     1      -0.236   1.848  -0.349  1.00  0.00     0.234 C 
HETATM    6  N2  UNL     1      -0.614   0.769  -1.097  1.00  0.00    -0.225 NA
HETATM    7  C6  UNL     1       0.102  -0.375  -0.938  1.00  0.00     0.125 C 
HETATM    8  C14 UNL     1      -0.562  -1.503  -1.359  1.00  0.00     0.053 C 
HETATM    9  C15 UNL     1      -1.916  -1.693  -1.200  1.00  0.00     0.043 C 
HETATM   10  C16 UNL     1      -2.755  -0.824  -0.553  1.00  0.00     0.101 C 
ENDROOT
BRANCH   7  11
HETATM   11  N3  UNL     1       1.409  -0.359  -0.379  1.00  0.00    -0.371 N 
HETATM   12  H7  UNL     1       1.861  -0.117  -1.300  1.00  0.00     0.161 HD
BRANCH  11  13
HETATM   13  C7  UNL     1       2.134  -0.544   0.850  1.00  0.00     0.160 C 
BRANCH  13  14
HETATM   14  C8  UNL     1       3.569  -0.246   0.544  1.00  0.00    -0.041 A 
HETATM   15  C9  UNL     1       4.546  -1.116   0.092  1.00  0.00     0.009 A 
HETATM   16  C10 UNL     1       5.809  -0.631  -0.125  1.00  0.00     0.001 A 
HETATM   17  C11 UNL     1       6.162   0.681   0.083  1.00  0.00     0.000 A 
HETATM   18  C12 UNL     1       5.199   1.582   0.539  1.00  0.00     0.001 A 
HETATM   19  C13 UNL     1       3.944   1.086   0.751  1.00  0.00     0.009 A 
ENDBRANCH  13  14
ENDBRANCH  11  13
ENDBRANCH   7  11
BRANCH  10  20
HETATM   20  O2  UNL     1      -3.579  -1.440   0.361  1.00  0.00    -0.353 OA
HETATM   21  C17 UNL     1      -3.649  -2.784   0.690  1.00  0.00     0.210 C 
ENDBRANCH  10  20
BRANCH   1  22
HETATM   22  O1  UNL     1      -4.484   0.792  -0.878  1.00  0.00    -0.353 OA
HETATM   23  C1  UNL     1      -5.107   1.994  -0.547  1.00  0.00     0.210 C 
ENDBRANCH   1  22
TORSDOF 5
