REMARK  4 active torsions:
REMARK  status: ('A' for Active; 'I' for Inactive)
REMARK    1  A    between atoms: O1_2  and  C2_3 
REMARK    2  A    between atoms: C6_9  and  N2_10 
REMARK    3  A    between atoms: N2_10  and  C7_11 
REMARK    4  A    between atoms: C15_20  and  O2_21 
ROOT
HETATM    1  C2  UNL     1       3.384   0.200  -0.417  1.00  0.00     0.103 A 
HETATM    2  C3  UNL     1       2.730   0.960  -1.389  1.00  0.00     0.072 A 
HETATM    3  C4  UNL     1       1.334   1.071  -1.443  1.00  0.00     0.071 A 
HETATM    4  N1  UNL     1       0.989   1.848  -2.458  1.00  0.00    -0.259 NA
HETATM    5  C5  UNL     1      -0.242   2.195  -2.842  1.00  0.00     0.135 A 
HETATM    6  P1  UNL     1      -1.456   1.498  -1.829  1.00  0.00     0.017 P 
HETATM    7  C6  UNL     1      -0.820   0.514  -0.555  1.00  0.00     0.059 A 
HETATM    8  C13 UNL     1       0.552   0.417  -0.517  1.00  0.00     0.024 A 
HETATM    9  C14 UNL     1       1.241  -0.321   0.422  1.00  0.00     0.055 A 
HETATM   10  C15 UNL     1       2.605  -0.462   0.518  1.00  0.00     0.102 A 
ENDROOT
BRANCH   7  11
HETATM   11  N2  UNL     1      -1.595  -0.158   0.395  1.00  0.00    -0.354 N 
HETATM   12  H6  UNL     1      -1.176  -0.683   1.160  1.00  0.00     0.166 HD
BRANCH  11  13
HETATM   13  C7  UNL     1      -3.003  -0.259   0.501  1.00  0.00     0.035 A 
HETATM   14  C8  UNL     1      -3.884  -0.137  -0.542  1.00  0.00     0.029 A 
HETATM   15  C9  UNL     1      -5.248  -0.209  -0.450  1.00  0.00     0.005 A 
HETATM   16  C10 UNL     1      -5.824  -0.421   0.784  1.00  0.00     0.042 A 
HETATM   17  C11 UNL     1      -5.022  -0.556   1.889  1.00  0.00     0.118 A 
HETATM   18  F1  UNL     1      -5.569  -0.764   3.101  1.00  0.00    -0.206 F 
HETATM   19  C12 UNL     1      -3.662  -0.472   1.710  1.00  0.00     0.071 A 
ENDBRANCH  11  13
ENDBRANCH   7  11
BRANCH  10  20
HETATM   20  O2  UNL     1       3.240  -1.217   1.484  1.00  0.00    -0.353 OA
HETATM   21  C16 UNL     1       2.539  -1.934   2.487  1.00  0.00     0.210 C 
ENDBRANCH  10  20
BRANCH   1  22
HETATM   22  O1  UNL     1       4.765   0.081  -0.351  1.00  0.00    -0.353 OA
HETATM   23  C1  UNL     1       5.554   0.760  -1.311  1.00  0.00     0.210 C 
ENDBRANCH   1  22
TORSDOF 4
