REMARK  3 active torsions:
REMARK  status: ('A' for Active; 'I' for Inactive)
REMARK    1  A    between atoms: C3_3  and  O1_4 
REMARK    2  A    between atoms: C8_11  and  N3_12 
REMARK    3  A    between atoms: N3_12  and  C9_13 
ROOT
HETATM    1  C1  UNL     1       1.459  -0.148   1.488  1.00  0.00     0.027 C 
HETATM    2  C2  UNL     1       1.997  -0.409   0.313  1.00  0.00     0.004 A 
HETATM    3  C3  UNL     1       3.388  -0.301  -0.171  1.00  0.00     0.081 A 
HETATM    4  C5  UNL     1       3.396  -0.685  -1.441  1.00  0.00     0.070 A 
HETATM    5  C6  UNL     1       2.081  -1.069  -1.913  1.00  0.00     0.075 A 
HETATM    6  N1  UNL     1       1.606  -1.518  -3.096  1.00  0.00    -0.241 NA
HETATM    7  C7  UNL     1       0.277  -1.801  -3.217  1.00  0.00     0.236 A 
HETATM    8  N2  UNL     1      -0.544  -1.630  -2.157  1.00  0.00    -0.223 NA
HETATM    9  C8  UNL     1      -0.088  -1.183  -0.973  1.00  0.00     0.142 A 
HETATM   10  C14 UNL     1       1.247  -0.893  -0.831  1.00  0.00     0.051 A 
ENDROOT
BRANCH   9  11
HETATM   11  N3  UNL     1      -1.112  -1.093   0.001  1.00  0.00    -0.340 N 
HETATM   12  H8  UNL     1      -0.889  -1.923   0.587  1.00  0.00     0.167 HD
BRANCH  11  13
HETATM   13  C9  UNL     1      -2.207  -0.248   0.329  1.00  0.00     0.030 A 
HETATM   14  C10 UNL     1      -2.945   0.284  -0.638  1.00  0.00    -0.007 A 
HETATM   15  C11 UNL     1      -4.115   1.178  -0.519  1.00  0.00    -0.016 A 
HETATM   16  B1  UNL     1      -4.400   1.434   1.014  1.00  0.00     0.235 B 
HETATM   17  C12 UNL     1      -3.479   0.766   2.087  1.00  0.00     0.045 A 
HETATM   18  H12 UNL     1      -5.484   1.805   1.350  1.00  0.00    -0.018 HD
HETATM   19  F1  UNL     1      -3.741   1.002   3.412  1.00  0.00    -0.225 F 
HETATM   20  C13 UNL     1      -2.460  -0.016   1.753  1.00  0.00     0.053 A 
ENDBRANCH  11  13
ENDBRANCH   9  11
BRANCH   3  21
HETATM   21  O1  UNL     1       4.350   0.137   0.686  1.00  0.00    -0.355 OA
HETATM   22  C4  UNL     1       4.548   1.408   1.217  1.00  0.00     0.210 C 
ENDBRANCH   3  21
TORSDOF 3
