REMARK  0 active torsions:
REMARK  status: ('A' for Active; 'I' for Inactive)
ROOT
HETATM    1  C1  UNL     1       4.220  -1.286  -1.328  1.00  0.00     0.000 C 
HETATM    2  O1  UNL     1       3.694  -0.872  -0.092  1.00  0.00     0.000 OA
HETATM    3  C2  UNL     1       2.696   0.108   0.046  1.00  0.00    -0.025 A 
HETATM    4  C3  UNL     1       2.316  -0.917   0.763  1.00  0.00     0.145 A 
HETATM    5  N1  UNL     1       1.350  -1.493   1.622  1.00  0.00    -0.354 N 
HETATM    6  C4  UNL     1       0.077  -2.175   1.426  1.00  0.00     0.198 C 
HETATM    7 CL1  UNL     1       0.113  -3.905   1.698  1.00  0.00    -0.043 Cl
HETATM    8  N2  UNL     1      -0.623  -1.194   1.111  1.00  0.00    -0.220 NA
HETATM    9  C5  UNL     1      -1.977  -1.059   0.770  1.00  0.00     0.068 A 
HETATM   10  C6  UNL     1      -2.877  -2.097   0.891  1.00  0.00     0.032 A 
HETATM   11  C7  UNL     1      -4.194  -1.905   0.531  1.00  0.00     0.002 A 
HETATM   12  C8  UNL     1      -4.590  -0.679   0.057  1.00  0.00     0.001 A 
HETATM   13  C9  UNL     1      -3.724   0.381  -0.078  1.00  0.00     0.011 A 
HETATM   14  C10 UNL     1      -2.404   0.205   0.277  1.00  0.00    -0.010 A 
HETATM   15  C11 UNL     1      -1.270   1.186   0.237  1.00  0.00     0.187 C 
HETATM   16  N3  UNL     1      -1.402   2.280  -0.642  1.00  0.00    -0.298 N 
HETATM   17  O2  UNL     1      -0.267   2.963  -0.870  1.00  0.00    -0.281 OA
HETATM   18  C12 UNL     1       0.751   2.718  -0.006  1.00  0.00     0.228 C 
HETATM   19  C13 UNL     1       2.078   2.449  -0.690  1.00  0.00     0.002 C 
HETATM   20  C14 UNL     1       2.816   1.382  -0.632  1.00  0.00     0.008 C 
HETATM   21  H5  UNL     1       1.401  -1.539   2.690  1.00  0.00     0.162 HD
HETATM   22  H12 UNL     1      -2.008   2.147  -1.456  1.00  0.00     0.187 HD
ENDROOT
TORSDOF 0
