REMARK  7 active torsions:
REMARK  status: ('A' for Active; 'I' for Inactive)
REMARK    1  A    between atoms: C3_3  and  C4_4 
REMARK    2  A    between atoms: C4_4  and  N1_5 
REMARK    3  A    between atoms: N1_5  and  C5_6 
REMARK    4  A    between atoms: C5_6  and  C6_7 
REMARK    5  A    between atoms: C6_7  and  N2_8 
REMARK    6  A    between atoms: N2_8  and  C7_9 
REMARK    7  A    between atoms: C13_18  and  O2_19 
ROOT
HETATM    1  C7  UNL     1       0.302  -1.461  -0.838  1.00  0.00     0.137 A 
HETATM    2  N3  UNL     1       1.340  -2.392  -0.821  1.00  0.00    -0.224 NA
HETATM    3  C8  UNL     1       1.166  -3.342   0.155  1.00  0.00     0.235 A 
HETATM    4  N4  UNL     1       0.161  -3.409   0.999  1.00  0.00    -0.241 NA
HETATM    5  C9  UNL     1      -0.872  -2.495   0.995  1.00  0.00     0.075 A 
HETATM    6  C10 UNL     1      -1.798  -2.790   1.998  1.00  0.00     0.072 A 
HETATM    7  C11 UNL     1      -2.810  -1.787   1.945  1.00  0.00     0.103 A 
HETATM    8  O1  UNL     1      -3.826  -1.740   2.733  1.00  0.00    -0.353 OA
HETATM    9  C12 UNL     1      -4.834  -1.718   3.538  1.00  0.00     0.210 C 
HETATM   10  C13 UNL     1      -2.774  -0.812   1.058  1.00  0.00     0.102 A 
HETATM   11  C15 UNL     1      -1.794  -0.582   0.066  1.00  0.00     0.057 A 
HETATM   12  C16 UNL     1      -0.721  -1.548   0.043  1.00  0.00     0.041 A 
ENDROOT
BRANCH  10  13
HETATM   13  O2  UNL     1      -3.692   0.313   0.801  1.00  0.00    -0.353 OA
HETATM   14  C14 UNL     1      -3.623   1.136  -0.240  1.00  0.00     0.210 C 
ENDBRANCH  10  13
BRANCH   1  15
HETATM   15  N2  UNL     1       0.168  -0.323  -1.723  1.00  0.00    -0.372 N 
HETATM   16  H13 UNL     1       1.015  -0.545  -2.283  1.00  0.00     0.161 HD
BRANCH  15  17
HETATM   17  C6  UNL     1       0.045   0.760  -2.567  1.00  0.00     0.140 C 
BRANCH  17  18
HETATM   18  C5  UNL     1       0.850   1.962  -2.207  1.00  0.00     0.133 C 
BRANCH  18  19
HETATM   19  N1  UNL     1       2.233   1.947  -2.178  1.00  0.00    -0.417 N 
HETATM   20  H8  UNL     1       2.693   2.900  -2.248  1.00  0.00     0.153 HD
BRANCH  19  21
HETATM   21  C4  UNL     1       2.881   1.125  -1.250  1.00  0.00     0.141 C 
BRANCH  21  22
HETATM   22  C3  UNL     1       4.334   1.563  -1.078  1.00  0.00    -0.012 C 
HETATM   23  C2  UNL     1       4.820   1.869   0.094  1.00  0.00    -0.033 C 
HETATM   24  C1  UNL     1       4.258   1.906   1.460  1.00  0.00     0.036 C 
ENDBRANCH  21  22
ENDBRANCH  19  21
ENDBRANCH  18  19
ENDBRANCH  17  18
ENDBRANCH  15  17
ENDBRANCH   1  15
TORSDOF 7
