REMARK  3 active torsions:
REMARK  status: ('A' for Active; 'I' for Inactive)
REMARK    1  A    between atoms: O1_2  and  C2_3 
REMARK    2  A    between atoms: C3_4  and  C4_5 
REMARK    3  A    between atoms: C7_8  and  O2_9 
ROOT
HETATM    1  C4  UNL     1       0.758  -0.030   1.351  1.00  0.00     0.080 C 
HETATM    2  C5  UNL     1      -0.561   0.606   1.830  1.00  0.00    -0.030 C 
HETATM    3  C6  UNL     1      -0.921   1.771   1.196  1.00  0.00     0.019 C 
HETATM    4  C7  UNL     1      -1.270   1.142  -0.155  1.00  0.00     0.179 C 
HETATM    5  C9  UNL     1      -1.054  -0.359  -0.010  1.00  0.00    -0.002 C 
HETATM    6  C10 UNL     1      -1.786  -1.494   0.096  1.00  0.00     0.010 C 
HETATM    7  C11 UNL     1      -2.778  -1.587   1.236  1.00  0.00     0.195 C 
HETATM    8  N1  UNL     1      -2.258  -1.024   2.467  1.00  0.00    -0.296 NA
HETATM    9  C12 UNL     1      -1.488  -0.015   2.859  1.00  0.00     0.118 C 
HETATM   10  S1  UNL     1      -1.890  -3.050  -0.811  1.00  0.00    -0.105 SA
HETATM   11  C13 UNL     1      -0.204  -3.695  -1.057  1.00  0.00     0.253 C 
HETATM   12  O3  UNL     1       0.768  -2.691  -1.128  1.00  0.00    -0.352 OA
HETATM   13  C14 UNL     1       1.270  -1.729  -0.291  1.00  0.00     0.144 C 
HETATM   14  C15 UNL     1       0.344  -0.879   0.151  1.00  0.00    -0.014 C 
ENDROOT
BRANCH   1  15
HETATM   15  C3  UNL     1       1.782   0.906   0.958  1.00  0.00     0.011 C 
HETATM   16  C2  UNL     1       2.276   1.025  -0.224  1.00  0.00     0.131 C 
BRANCH  16  17
HETATM   17  O1  UNL     1       3.256   1.939  -0.548  1.00  0.00    -0.368 OA
HETATM   18  C1  UNL     1       4.497   1.631  -1.143  1.00  0.00     0.208 C 
ENDBRANCH  16  17
ENDBRANCH   1  15
BRANCH   4  19
HETATM   19  O2  UNL     1      -2.506   1.483  -0.590  1.00  0.00    -0.382 OA
HETATM   20  C8  UNL     1      -2.510   2.216  -1.776  1.00  0.00     0.202 C 
ENDBRANCH   4  19
TORSDOF 3
