REMARK  4 active torsions:
REMARK  status: ('A' for Active; 'I' for Inactive)
REMARK    1  A    between atoms: O1_2  and  C2_3 
REMARK    2  A    between atoms: C5_6  and  S1_7 
REMARK    3  A    between atoms: S1_7  and  C6_8 
REMARK    4  A    between atoms: C14_19  and  O3_20 
ROOT
HETATM    1  S1  UNL     1      -0.538   0.511   0.493  1.00  0.00    -0.070 SA
ENDROOT
BRANCH   1   2
HETATM    2  C5  UNL     1       1.202   0.342   0.205  1.00  0.00     0.009 A 
HETATM    3  C4  UNL     1       1.905  -0.540  -0.553  1.00  0.00     0.022 A 
HETATM    4  C3  UNL     1       3.279  -0.485  -0.631  1.00  0.00     0.041 A 
HETATM    5  C2  UNL     1       3.997   0.454   0.046  1.00  0.00     0.101 A 
HETATM    6  C14 UNL     1       3.318   1.360   0.821  1.00  0.00     0.100 A 
HETATM    7  C13 UNL     1       1.921   1.312   0.906  1.00  0.00     0.058 A 
BRANCH   5   8
HETATM    8  O1  UNL     1       5.379   0.507  -0.035  1.00  0.00    -0.353 OA
HETATM    9  C1  UNL     1       6.132  -0.401  -0.817  1.00  0.00     0.210 C 
ENDBRANCH   5   8
BRANCH   6  10
HETATM   10  O3  UNL     1       4.082   2.309   1.502  1.00  0.00    -0.358 OA
HETATM   11  H14 UNL     1       4.239   2.302   2.494  1.00  0.00     0.217 HD
ENDBRANCH   6  10
ENDBRANCH   1   2
BRANCH   1  12
HETATM   12  C6  UNL     1      -1.470  -0.717  -0.394  1.00  0.00     0.110 A 
HETATM   13  N1  UNL     1      -1.034  -1.648  -1.167  1.00  0.00    -0.234 NA
HETATM   14  C7  UNL     1      -1.972  -2.522  -1.773  1.00  0.00     0.228 A 
HETATM   15  N2  UNL     1      -3.248  -2.493  -1.637  1.00  0.00    -0.278 NA
HETATM   16  C8  UNL     1      -3.938  -1.528  -0.816  1.00  0.00     0.194 A 
HETATM   17  C9  UNL     1      -2.916  -0.642  -0.207  1.00  0.00     0.027 A 
HETATM   18  C10 UNL     1      -3.571   0.255   0.558  1.00  0.00     0.059 C 
HETATM   19  C11 UNL     1      -4.915   0.730   1.051  1.00  0.00     0.092 C 
HETATM   20  O2  UNL     1      -3.006   1.280   1.316  1.00  0.00    -0.354 OA
HETATM   21  C12 UNL     1      -4.168   2.036   1.102  1.00  0.00     0.181 C 
ENDBRANCH   1  12
TORSDOF 4
