REMARK  6 active torsions:
REMARK  status: ('A' for Active; 'I' for Inactive)
REMARK    1  A    between atoms: O1_2  and  C2_3 
REMARK    2  A    between atoms: C6_9  and  N3_10 
REMARK    3  A    between atoms: N3_10  and  C7_11 
REMARK    4  A    between atoms: C7_11  and  C8_12 
REMARK    5  A    between atoms: C8_12  and  C9_13 
REMARK    6  A    between atoms: C16_21  and  O2_22 
ROOT
HETATM    1  C2  UNL     1      -4.274   0.604  -0.172  1.00  0.00     0.103 A 
HETATM    2  C3  UNL     1      -3.500   1.739  -0.297  1.00  0.00     0.072 A 
HETATM    3  C4  UNL     1      -2.146   1.734  -0.081  1.00  0.00     0.075 A 
HETATM    4  N1  UNL     1      -1.370   2.832  -0.200  1.00  0.00    -0.241 NA
HETATM    5  C5  UNL     1      -0.029   2.734   0.032  1.00  0.00     0.235 A 
HETATM    6  N2  UNL     1       0.591   1.596   0.379  1.00  0.00    -0.224 NA
HETATM    7  C6  UNL     1      -0.143   0.482   0.508  1.00  0.00     0.137 A 
HETATM    8  C14 UNL     1      -1.498   0.572   0.275  1.00  0.00     0.041 A 
HETATM    9  C15 UNL     1      -2.278  -0.550   0.396  1.00  0.00     0.057 A 
HETATM   10  C16 UNL     1      -3.642  -0.570   0.184  1.00  0.00     0.102 A 
ENDROOT
BRANCH   7  11
HETATM   11  N3  UNL     1       0.516  -0.733   0.895  1.00  0.00    -0.374 N 
HETATM   12  H6  UNL     1       0.043  -1.648   1.042  1.00  0.00     0.161 HD
BRANCH  11  13
HETATM   13  C7  UNL     1       1.973  -0.760   1.117  1.00  0.00     0.122 C 
BRANCH  13  14
HETATM   14  C8  UNL     1       2.735  -0.502  -0.114  1.00  0.00     0.037 C 
BRANCH  14  15
HETATM   15  C9  UNL     1       4.268  -0.475  -0.073  1.00  0.00     0.001 A 
HETATM   16  C10 UNL     1       5.035  -0.776   1.676  1.00  0.00     0.054 A 
HETATM   17  C11 UNL     1       5.220  -0.622   0.853  1.00  0.00    -0.061 A 
HETATM   18  P1  UNL     1       5.399  -0.456  -0.045  1.00  0.00    -0.119 P 
HETATM   19  C12 UNL     1       5.791  -0.030  -2.350  1.00  0.00     0.031 A 
HETATM   20  H12 UNL     1       5.490  -0.379  -0.457  1.00  0.00     0.055 HD
HETATM   21  C13 UNL     1       4.228  -0.125  -1.991  1.00  0.00     0.022 A 
ENDBRANCH  14  15
ENDBRANCH  13  14
ENDBRANCH  11  13
ENDBRANCH   7  11
BRANCH  10  22
HETATM   22  O2  UNL     1      -4.415  -1.709   0.310  1.00  0.00    -0.353 OA
HETATM   23  C17 UNL     1      -3.789  -2.914   0.671  1.00  0.00     0.210 C 
ENDBRANCH  10  22
BRANCH   1  24
HETATM   24  O1  UNL     1      -5.640   0.602  -0.388  1.00  0.00    -0.353 OA
HETATM   25  C1  UNL     1      -6.372   1.738  -0.751  1.00  0.00     0.210 C 
ENDBRANCH   1  24
TORSDOF 6
