REMARK  6 active torsions:
REMARK  status: ('A' for Active; 'I' for Inactive)
REMARK    1  A    between atoms: O1_2  and  C2_3 
REMARK    2  A    between atoms: C5_6  and  S1_7 
REMARK    3  A    between atoms: S1_7  and  C6_8 
REMARK    4  A    between atoms: C10_14  and  O2_15 
REMARK    5  A    between atoms: C12_17  and  O3_18 
REMARK    6  A    between atoms: C16_22  and  O4_23 
ROOT
HETATM    1  C6  UNL     1       0.120  -1.752  -1.394  1.00  0.00     0.112 A 
HETATM    2  N1  UNL     1      -0.200  -3.061  -1.516  1.00  0.00    -0.234 NA
HETATM    3  C7  UNL     1       0.734  -4.010  -1.236  1.00  0.00     0.234 A 
HETATM    4  N2  UNL     1       1.974  -3.658  -0.838  1.00  0.00    -0.241 NA
HETATM    5  C8  UNL     1       2.325  -2.385  -0.706  1.00  0.00     0.074 A 
HETATM    6  C9  UNL     1       3.584  -1.996  -0.301  1.00  0.00     0.072 A 
HETATM    7  C10 UNL     1       3.913  -0.662  -0.175  1.00  0.00     0.103 A 
HETATM    8  C12 UNL     1       3.006   0.357  -0.445  1.00  0.00     0.102 A 
HETATM    9  C14 UNL     1       1.755  -0.063  -0.848  1.00  0.00     0.056 A 
HETATM   10  C15 UNL     1       1.399  -1.386  -0.983  1.00  0.00     0.031 A 
ENDROOT
BRANCH   1  11
HETATM   11  S1  UNL     1      -1.052  -0.453  -1.743  1.00  0.00    -0.071 SA
BRANCH  11  12
HETATM   12  C5  UNL     1      -1.951  -0.065  -0.248  1.00  0.00     0.020 A 
HETATM   13  C4  UNL     1      -1.793  -0.632   0.941  1.00  0.00     0.020 A 
HETATM   14  C3  UNL     1      -2.717  -0.034   1.899  1.00  0.00     0.036 A 
HETATM   15  C2  UNL     1      -3.418   0.888   1.263  1.00  0.00     0.079 A 
HETATM   16  C16 UNL     1      -3.009   0.971  -0.171  1.00  0.00     0.217 A 
BRANCH  15  17
HETATM   17  O1  UNL     1      -4.435   1.796   1.588  1.00  0.00    -0.357 OA
HETATM   18  C1  UNL     1      -4.901   1.871   2.930  1.00  0.00     0.209 C 
ENDBRANCH  15  17
BRANCH  16  19
HETATM   19  O4  UNL     1      -4.129   0.642  -0.924  1.00  0.00    -0.379 OA
HETATM   20  C17 UNL     1      -4.526   1.633  -1.792  1.00  0.00     0.202 C 
ENDBRANCH  16  19
ENDBRANCH  11  12
ENDBRANCH   1  11
BRANCH   8  21
HETATM   21  O3  UNL     1       3.397   1.674  -0.300  1.00  0.00    -0.353 OA
HETATM   22  C13 UNL     1       2.480   2.701  -0.573  1.00  0.00     0.210 C 
ENDBRANCH   8  21
BRANCH   7  23
HETATM   23  O2  UNL     1       5.180  -0.291   0.232  1.00  0.00    -0.353 OA
HETATM   24  C11 UNL     1       6.200  -1.215   0.540  1.00  0.00     0.210 C 
ENDBRANCH   7  23
TORSDOF 6
