REMARK  10 active torsions:
REMARK  status: ('A' for Active; 'I' for Inactive)
REMARK    1  A    between atoms: C2_2  and  O1_3 
REMARK    2  A    between atoms: O1_3  and  C3_4 
REMARK    3  A    between atoms: C5_6  and  O2_7 
REMARK    4  A    between atoms: C5_6  and  C7_9 
REMARK    5  A    between atoms: C10_14  and  C11_15 
REMARK    6  A    between atoms: C11_15  and  C12_16 
REMARK    7  A    between atoms: C12_16  and  C13_17 
REMARK    8  A    between atoms: C13_17  and  O3_18 
REMARK    9  A    between atoms: C14_19  and  C15_20 
REMARK   10  A    between atoms: C15_20  and  C16_21 
ROOT
HETATM    1  C7  UNL     1      -0.212  -1.402  -1.327  1.00  0.00     0.117 A 
HETATM    2  C8  UNL     1      -1.111  -2.377  -1.974  1.00  0.00     0.167 A 
HETATM    3  N1  UNL     1      -1.963  -1.848  -2.965  1.00  0.00    -0.282 NA
HETATM    4  C9  UNL     1      -2.190  -0.706  -3.403  1.00  0.00     0.226 A 
HETATM    5  N2  UNL     1      -1.369   0.220  -2.705  1.00  0.00    -0.246 NA
HETATM    6  C10 UNL     1      -0.504  -0.040  -1.791  1.00  0.00     0.054 A 
ENDROOT
BRANCH   6   7
HETATM    7  C11 UNL     1       0.029   1.286  -1.373  1.00  0.00    -0.030 C 
HETATM    8  C14 UNL     1       0.837   1.891  -0.512  1.00  0.00     0.014 C 
BRANCH   7   9
HETATM    9  C12 UNL     1      -0.558   2.430  -2.117  1.00  0.00     0.033 C 
BRANCH   9  10
HETATM   10  C13 UNL     1      -1.359   3.016  -3.075  1.00  0.00     0.132 C 
BRANCH  10  11
HETATM   11  O3  UNL     1      -2.087   3.734  -3.952  1.00  0.00    -0.373 OA
HETATM   12  H18 UNL     1      -2.347   4.690  -3.655  1.00  0.00     0.216 HD
ENDBRANCH  10  11
ENDBRANCH   9  10
ENDBRANCH   7   9
BRANCH   8  13
HETATM   13  C15 UNL     1       1.071   3.361  -0.484  1.00  0.00     0.066 C 
BRANCH  13  14
HETATM   14  C16 UNL     1       1.866   3.730   0.456  1.00  0.00     0.419 C 
HETATM   15  F1  UNL     1       2.617   4.510   1.266  1.00  0.00    -0.455 F 
ENDBRANCH  13  14
ENDBRANCH   8  13
ENDBRANCH   6   7
BRANCH   1  16
HETATM   16  C5  UNL     1       0.161  -1.698   0.042  1.00  0.00     0.086 C 
HETATM   17  C3  UNL     1       0.436  -1.418   1.327  1.00  0.00     0.072 C 
HETATM   18  C4  UNL     1       0.860  -2.360   2.400  1.00  0.00     0.079 C 
BRANCH  17  19
HETATM   19  O1  UNL     1       0.410  -0.209   2.004  1.00  0.00    -0.354 OA
BRANCH  19  20
HETATM   20  C2  UNL     1       0.374   0.110   3.323  1.00  0.00     0.171 C 
HETATM   21  C1  UNL     1       1.374   1.254   3.560  1.00  0.00     0.034 C 
ENDBRANCH  19  20
ENDBRANCH  17  19
BRANCH  16  22
HETATM   22  O2  UNL     1       0.369  -3.114  -0.033  1.00  0.00    -0.357 OA
HETATM   23  C6  UNL     1      -0.484  -4.069   0.550  1.00  0.00     0.209 C 
ENDBRANCH  16  22
ENDBRANCH   1  16
TORSDOF 10
