REMARK  2 active torsions:
REMARK  status: ('A' for Active; 'I' for Inactive)
REMARK    1  A    between atoms: O1_2  and  C2_3 
REMARK    2  A    between atoms: N3_11  and  C8_12 
ROOT
HETATM    1  C2  UNL     1       4.023   0.127   0.140  1.00  0.00     0.051 A 
HETATM    2  C3  UNL     1       3.145  -0.135  -0.838  1.00  0.00     0.035 A 
HETATM    3  C4  UNL     1       1.754  -0.196  -0.400  1.00  0.00     0.036 A 
HETATM    4  C5  UNL     1       1.437  -0.002   0.866  1.00  0.00     0.084 A 
HETATM    5  C6  UNL     1       2.412   0.285   1.906  1.00  0.00     0.070 A 
HETATM    6  N1  UNL     1       1.937   0.466   3.089  1.00  0.00    -0.242 NA
HETATM    7  C7  UNL     1       0.528   0.386   3.352  1.00  0.00     0.255 A 
HETATM    8  N2  UNL     1      -0.375   0.134   2.465  1.00  0.00    -0.160 NA
HETATM    9  N3  UNL     1       0.045  -0.082   1.127  1.00  0.00    -0.231 N 
HETATM   10  C17 UNL     1       3.846   0.365   1.593  1.00  0.00     0.126 A 
ENDROOT
BRANCH   9  11
HETATM   11  C8  UNL     1      -1.044  -0.343   0.267  1.00  0.00     0.059 A 
HETATM   12  C9  UNL     1      -1.227  -1.351  -0.654  1.00  0.00     0.032 A 
HETATM   13  C10 UNL     1      -2.353  -1.448  -1.441  1.00  0.00     0.010 A 
HETATM   14  C11 UNL     1      -3.367  -0.523  -1.339  1.00  0.00    -0.052 A 
HETATM   15  C12 UNL     1      -3.260   0.500  -0.452  1.00  0.00    -0.050 A 
HETATM   16  C16 UNL     1      -4.651  -0.441  -2.082  1.00  0.00     0.039 C 
HETATM   17  C13 UNL     1      -2.115   0.559   0.316  1.00  0.00     0.039 A 
HETATM   18  C14 UNL     1      -4.463   1.366  -0.514  1.00  0.00     0.039 C 
HETATM   19  C15 UNL     1      -5.069   0.995  -1.844  1.00  0.00     0.009 C 
ENDBRANCH   9  11
BRANCH   1  20
HETATM   20  O1  UNL     1       5.383   0.213  -0.144  1.00  0.00    -0.360 OA
HETATM   21  C1  UNL     1       6.039  -0.635  -1.058  1.00  0.00     0.209 C 
ENDBRANCH   1  20
TORSDOF 2
