REMARK  5 active torsions:
REMARK  status: ('A' for Active; 'I' for Inactive)
REMARK    1  A    between atoms: O1_2  and  C2_3 
REMARK    2  A    between atoms: C5_6  and  S1_7 
REMARK    3  A    between atoms: S1_7  and  C6_8 
REMARK    4  A    between atoms: C10_14  and  O2_15 
REMARK    5  A    between atoms: C12_17  and  O3_18 
ROOT
HETATM    1  C6  UNL     1       0.593  -0.395   0.398  1.00  0.00     0.112 A 
HETATM    2  N1  UNL     1       0.024  -0.984   1.464  1.00  0.00    -0.234 NA
HETATM    3  C7  UNL     1       0.716  -1.476   2.512  1.00  0.00     0.234 A 
HETATM    4  N2  UNL     1       2.068  -1.352   2.452  1.00  0.00    -0.241 NA
HETATM    5  C8  UNL     1       2.672  -0.777   1.417  1.00  0.00     0.074 A 
HETATM    6  C9  UNL     1       4.067  -0.669   1.396  1.00  0.00     0.072 A 
HETATM    7  C10 UNL     1       4.646  -0.068   0.308  1.00  0.00     0.103 A 
HETATM    8  C12 UNL     1       3.965   0.445  -0.779  1.00  0.00     0.102 A 
HETATM    9  C14 UNL     1       2.600   0.323  -0.725  1.00  0.00     0.056 A 
HETATM   10  C15 UNL     1       1.966  -0.272   0.344  1.00  0.00     0.031 A 
ENDROOT
BRANCH   1  11
HETATM   11  S1  UNL     1      -0.346   0.249  -0.975  1.00  0.00    -0.070 SA
BRANCH  11  12
HETATM   12  C5  UNL     1      -2.096  -0.001  -0.725  1.00  0.00     0.007 A 
HETATM   13  C4  UNL     1      -2.855  -1.094  -1.111  1.00  0.00     0.021 A 
HETATM   14  C3  UNL     1      -4.206  -1.112  -0.831  1.00  0.00     0.038 A 
HETATM   15  C2  UNL     1      -4.823  -0.052  -0.168  1.00  0.00     0.074 A 
HETATM   16  C17 UNL     1      -4.081   1.044   0.223  1.00  0.00    -0.027 A 
HETATM   17  C16 UNL     1      -2.720   1.049  -0.066  1.00  0.00     0.028 A 
HETATM   18  C18 UNL     1      -4.752   2.169   0.930  1.00  0.00     0.051 C 
BRANCH  15  19
HETATM   19  O1  UNL     1      -6.166  -0.090   0.100  1.00  0.00    -0.355 OA
HETATM   20  C1  UNL     1      -6.949  -1.203  -0.290  1.00  0.00     0.210 C 
ENDBRANCH  15  19
ENDBRANCH  11  12
ENDBRANCH   1  11
BRANCH   8  21
HETATM   21  O3  UNL     1       4.691   1.026  -1.807  1.00  0.00    -0.353 OA
HETATM   22  C13 UNL     1       3.968   1.544  -2.907  1.00  0.00     0.210 C 
ENDBRANCH   8  21
BRANCH   7  23
HETATM   23  O2  UNL     1       6.028   0.020   0.322  1.00  0.00    -0.353 OA
HETATM   24  C11 UNL     1       6.843  -0.454   1.349  1.00  0.00     0.210 C 
ENDBRANCH   7  23
TORSDOF 5
