REMARK  8 active torsions:
REMARK  status: ('A' for Active; 'I' for Inactive)
REMARK    1  A    between atoms: C2_2  and  C3_3 
REMARK    2  A    between atoms: C6_6  and  S1_7 
REMARK    3  A    between atoms: S1_7  and  C8_9 
REMARK    4  A    between atoms: S1_7  and  O2_14 
REMARK    5  A    between atoms: C8_9  and  C9_10 
REMARK    6  A    between atoms: C10_11  and  C11_12 
REMARK    7  A    between atoms: C11_12  and  O1_13 
REMARK    8  A    between atoms: C16_21  and  O3_22 
ROOT
HETATM    1  C3  UNL     1      -2.804  -1.094  -0.214  1.00  0.00    -0.024 A 
HETATM    2  C4  UNL     1      -1.653  -0.368   0.000  1.00  0.00     0.026 A 
HETATM    3  C5  UNL     1      -1.379   0.435   1.088  1.00  0.00     0.029 A 
HETATM    4  C6  UNL     1      -0.165   1.091   1.092  1.00  0.00     0.112 A 
HETATM    5  N1  UNL     1      -0.044   1.872   2.211  1.00  0.00    -0.234 NA
HETATM    6  C13 UNL     1      -0.995   1.957   3.152  1.00  0.00     0.234 A 
HETATM    7  N2  UNL     1      -2.178   1.279   3.093  1.00  0.00    -0.241 NA
HETATM    8  C14 UNL     1      -2.392   0.481   2.023  1.00  0.00     0.074 A 
HETATM    9  C15 UNL     1      -3.564  -0.213   1.880  1.00  0.00     0.069 A 
HETATM   10  C16 UNL     1      -3.793  -1.007   0.771  1.00  0.00     0.074 A 
ENDROOT
BRANCH   4  11
HETATM   11  S1  UNL     1       1.116   0.979  -0.003  1.00  0.00    -0.099 SA
HETATM   12  C7  UNL     1       0.931   1.746  -1.437  1.00  0.00     0.104 C 
BRANCH  11  13
HETATM   13  C8  UNL     1       1.715  -0.624  -0.215  1.00  0.00     0.113 C 
BRANCH  13  14
HETATM   14  C9  UNL     1       2.851  -0.505  -1.219  1.00  0.00    -0.018 C 
HETATM   15  C10 UNL     1       4.097  -0.828  -1.031  1.00  0.00    -0.004 C 
BRANCH  15  16
HETATM   16  C11 UNL     1       4.790  -1.386   0.151  1.00  0.00     0.191 C 
BRANCH  16  17
HETATM   17  O1  UNL     1       5.349  -2.625  -0.219  1.00  0.00    -0.397 OA
HETATM   18  H16 UNL     1       4.896  -3.341   0.276  1.00  0.00     0.209 HD
ENDBRANCH  16  17
ENDBRANCH  15  16
ENDBRANCH  13  14
ENDBRANCH  11  13
BRANCH  11  19
HETATM   19  O2  UNL     1       2.415   1.687   0.847  1.00  0.00    -0.341 OA
HETATM   20  C12 UNL     1       2.335   3.065   0.797  1.00  0.00     0.218 C 
ENDBRANCH  11  19
ENDBRANCH   4  11
BRANCH   1  21
HETATM   21  C2  UNL     1      -3.006  -1.935  -1.424  1.00  0.00     0.037 C 
HETATM   22  C1  UNL     1      -3.956  -1.236  -2.402  1.00  0.00     0.010 C 
ENDBRANCH   1  21
BRANCH  10  23
HETATM   23  O3  UNL     1      -4.971  -1.722   0.602  1.00  0.00    -0.360 OA
HETATM   24  H22 UNL     1      -5.264  -2.421   1.271  1.00  0.00     0.217 HD
ENDBRANCH  10  23
TORSDOF 8
