REMARK  2 active torsions:
REMARK  status: ('A' for Active; 'I' for Inactive)
REMARK    1  A    between atoms: O1_2  and  C2_3 
REMARK    2  A    between atoms: C16_19  and  O2_20 
ROOT
HETATM    1  C2  UNL     1       3.276   0.437   0.097  1.00  0.00     0.103 A 
HETATM    2  C3  UNL     1       2.657   1.669   0.089  1.00  0.00     0.072 A 
HETATM    3  C4  UNL     1       1.301   1.741   0.137  1.00  0.00     0.073 A 
HETATM    4  N1  UNL     1       0.743   2.948   0.119  1.00  0.00    -0.241 NA
HETATM    5  C5  UNL     1      -0.586   3.071   0.156  1.00  0.00     0.234 A 
HETATM    6  N2  UNL     1      -1.348   1.986   0.212  1.00  0.00    -0.241 NA
HETATM    7  C6  UNL     1      -0.930   0.721   0.237  1.00  0.00     0.077 A 
HETATM    8  C7  UNL     1      -1.835  -0.401   0.291  1.00  0.00    -0.020 C 
HETATM    9  C8  UNL     1      -1.976  -1.686   0.371  1.00  0.00     0.010 C 
HETATM   10  C9  UNL     1      -3.277  -2.258   0.365  1.00  0.00     0.004 C 
HETATM   11  C10 UNL     1      -4.107  -1.245   0.262  1.00  0.00    -0.071 C 
HETATM   12  C11 UNL     1      -5.183  -0.164   0.143  1.00  0.00     0.036 C 
HETATM   13  C12 UNL     1      -4.037   0.549  -0.672  1.00  0.00     0.018 C 
HETATM   14  C13 UNL     1      -3.231  -0.045   0.423  1.00  0.00     0.050 C 
HETATM   15  C14 UNL     1       0.440   0.669   0.195  1.00  0.00     0.025 A 
HETATM   16  C15 UNL     1       1.111  -0.529   0.200  1.00  0.00     0.055 A 
HETATM   17  C16 UNL     1       2.468  -0.685   0.154  1.00  0.00     0.102 A 
ENDROOT
BRANCH  17  18
HETATM   18  O2  UNL     1       3.113  -1.901   0.159  1.00  0.00    -0.353 OA
HETATM   19  C17 UNL     1       2.468  -3.139   0.213  1.00  0.00     0.210 C 
ENDBRANCH  17  18
BRANCH   1  20
HETATM   20  O1  UNL     1       4.657   0.319   0.049  1.00  0.00    -0.353 OA
HETATM   21  C1  UNL     1       5.487   1.456  -0.009  1.00  0.00     0.210 C 
ENDBRANCH   1  20
TORSDOF 2
