REMARK  4 active torsions:
REMARK  status: ('A' for Active; 'I' for Inactive)
REMARK    1  A    between atoms: O1_2  and  C2_3 
REMARK    2  A    between atoms: C6_9  and  N3_10 
REMARK    3  A    between atoms: N3_10  and  C7_11 
REMARK    4  A    between atoms: C18_22  and  O2_23 
ROOT
HETATM    1  C2  UNL     1       4.661   0.101   0.043  1.00  0.00     0.103 A 
HETATM    2  C3  UNL     1       4.286  -1.217   0.171  1.00  0.00     0.072 A 
HETATM    3  C4  UNL     1       2.951  -1.539   0.191  1.00  0.00     0.075 A 
HETATM    4  N1  UNL     1       2.626  -2.859   0.321  1.00  0.00    -0.241 NA
HETATM    5  C5  UNL     1       1.340  -3.249   0.349  1.00  0.00     0.236 A 
HETATM    6  N2  UNL     1       0.393  -2.337   0.250  1.00  0.00    -0.224 NA
HETATM    7  C6  UNL     1       0.600  -1.025   0.120  1.00  0.00     0.142 A 
HETATM    8  C16 UNL     1       1.919  -0.628   0.091  1.00  0.00     0.042 A 
HETATM    9  C17 UNL     1       2.355   0.661  -0.034  1.00  0.00     0.057 A 
HETATM   10  C18 UNL     1       3.671   1.054  -0.061  1.00  0.00     0.102 A 
ENDROOT
BRANCH   7  11
HETATM   11  N3  UNL     1      -0.404  -0.036   0.012  1.00  0.00    -0.340 N 
HETATM   12  H6  UNL     1      -0.180   0.959  -0.109  1.00  0.00     0.167 HD
BRANCH  11  13
HETATM   13  C7  UNL     1      -1.804  -0.213   0.049  1.00  0.00     0.034 A 
HETATM   14  C8  UNL     1      -2.398  -1.405   0.397  1.00  0.00     0.030 A 
HETATM   15  C9  UNL     1      -3.759  -1.624   0.437  1.00  0.00     0.010 A 
HETATM   16  C10 UNL     1      -4.626  -0.602   0.111  1.00  0.00    -0.052 A 
HETATM   17  C11 UNL     1      -4.088   0.616  -0.246  1.00  0.00    -0.050 A 
HETATM   18  C15 UNL     1      -6.112  -0.523   0.058  1.00  0.00     0.039 C 
HETATM   19  C12 UNL     1      -2.720   0.768  -0.265  1.00  0.00     0.037 A 
HETATM   20  C13 UNL     1      -5.168   1.612  -0.568  1.00  0.00     0.039 C 
HETATM   21  C14 UNL     1      -6.330   0.687  -0.841  1.00  0.00     0.009 C 
ENDBRANCH  11  13
ENDBRANCH   7  11
BRANCH  10  22
HETATM   22  O2  UNL     1       4.063   2.380  -0.191  1.00  0.00    -0.353 OA
HETATM   23  C19 UNL     1       3.062   3.378  -0.299  1.00  0.00     0.210 C 
ENDBRANCH  10  22
BRANCH   1  24
HETATM   24  O1  UNL     1       5.992   0.493   0.015  1.00  0.00    -0.353 OA
HETATM   25  C1  UNL     1       7.047  -0.454   0.119  1.00  0.00     0.210 C 
ENDBRANCH   1  24
TORSDOF 4
