REMARK  4 active torsions:
REMARK  status: ('A' for Active; 'I' for Inactive)
REMARK    1  A    between atoms: O1_2  and  C2_3 
REMARK    2  A    between atoms: C6_8  and  C7_9 
REMARK    3  A    between atoms: C13_15  and  N2_16 
REMARK    4  A    between atoms: C18_21  and  O2_22 
ROOT
HETATM    1  C2  UNL     1      -3.825   1.114  -0.832  1.00  0.00     0.103 C 
HETATM    2  C3  UNL     1      -3.741   1.718   0.371  1.00  0.00     0.067 C 
HETATM    3  C4  UNL     1      -2.466   1.373   0.967  1.00  0.00     0.049 A 
HETATM    4  N1  UNL     1      -2.147   1.430   2.232  1.00  0.00    -0.264 NA
HETATM    5  C5  UNL     1      -0.815   0.987   2.437  1.00  0.00     0.126 A 
HETATM    6  C6  UNL     1      -0.236   0.621   1.279  1.00  0.00    -0.017 A 
HETATM    7  C16 UNL     1      -1.256   0.926   0.325  1.00  0.00     0.098 A 
HETATM    8  C17 UNL     1      -1.476   0.216  -0.905  1.00  0.00     0.028 C 
HETATM    9  C18 UNL     1      -2.710   0.350  -1.437  1.00  0.00     0.098 C 
ENDROOT
BRANCH   6  10
HETATM   10  C7  UNL     1       1.126   0.134   1.313  1.00  0.00    -0.027 A 
HETATM   11  C8  UNL     1       1.825   0.017   2.496  1.00  0.00     0.012 A 
HETATM   12  C9  UNL     1       3.130  -0.441   2.555  1.00  0.00     0.008 A 
HETATM   13  C10 UNL     1       3.754  -0.794   1.377  1.00  0.00    -0.050 A 
HETATM   14  C11 UNL     1       3.112  -0.703   0.143  1.00  0.00    -0.018 A 
HETATM   15  C15 UNL     1       5.146  -1.310   1.193  1.00  0.00     0.041 C 
HETATM   16  C12 UNL     1       1.806  -0.235   0.174  1.00  0.00     0.022 A 
HETATM   17  C13 UNL     1       4.025  -1.149  -0.939  1.00  0.00     0.251 C 
HETATM   18  C14 UNL     1       5.382  -1.075  -0.282  1.00  0.00     0.045 C 
BRANCH  17  19
HETATM   19  N2  UNL     1       3.953  -0.255  -2.082  1.00  0.00     0.087 N 
HETATM   20  H10 UNL     1       3.782   0.703  -1.724  1.00  0.00     0.313 HD
HETATM   21  H11 UNL     1       4.846  -0.356  -2.615  1.00  0.00     0.313 HD
ENDBRANCH  17  19
ENDBRANCH   6  10
BRANCH   9  22
HETATM   22  O2  UNL     1      -3.020  -0.265  -2.666  1.00  0.00    -0.353 OA
HETATM   23  C19 UNL     1      -3.775  -1.461  -2.530  1.00  0.00     0.210 C 
ENDBRANCH   9  22
BRANCH   1  24
HETATM   24  O1  UNL     1      -5.012   1.272  -1.561  1.00  0.00    -0.353 OA
HETATM   25  C1  UNL     1      -6.281   1.254  -0.946  1.00  0.00     0.210 C 
ENDBRANCH   1  24
TORSDOF 4
