REMARK  2 active torsions:
REMARK  status: ('A' for Active; 'I' for Inactive)
REMARK    1  A    between atoms: O1_2  and  C2_3 
REMARK    2  A    between atoms: C13_16  and  C14_17 
ROOT
HETATM    1  C2  UNL     1       3.792   0.595   0.855  1.00  0.00     0.055 C 
HETATM    2  C3  UNL     1       2.710   1.465   0.909  1.00  0.00     0.016 C 
HETATM    3  C4  UNL     1       1.580   0.707   0.590  1.00  0.00     0.044 C 
HETATM    4  C5  UNL     1       1.558  -0.291   1.747  1.00  0.00    -0.020 C 
HETATM    5  C6  UNL     1       2.648  -0.812   2.306  1.00  0.00    -0.013 C 
HETATM    6  C7  UNL     1       3.725  -0.843   1.236  1.00  0.00     0.105 C 
HETATM    7  C8  UNL     1       3.103  -1.774   0.221  1.00  0.00     0.106 C 
HETATM    8  N1  UNL     1       2.353  -2.486  -0.490  1.00  0.00    -0.258 NA
HETATM    9  C9  UNL     1       1.007  -2.823  -0.594  1.00  0.00     0.226 C 
HETATM   10  N2  UNL     1      -0.298  -2.606  -0.634  1.00  0.00    -0.268 NA
HETATM   11  C10 UNL     1      -0.867  -1.329  -0.519  1.00  0.00     0.101 A 
HETATM   12  C11 UNL     1      -0.229  -0.342  -0.107  1.00  0.00     0.047 A 
HETATM   13  C12 UNL     1       0.225   0.976   0.294  1.00  0.00     0.001 A 
HETATM   14  C13 UNL     1      -0.771   0.170  -0.213  1.00  0.00     0.025 A 
ENDROOT
BRANCH  14  15
HETATM   15  C14 UNL     1      -2.005   0.939  -0.535  1.00  0.00    -0.010 C 
HETATM   16  C15 UNL     1      -3.190   0.626  -1.027  1.00  0.00    -0.083 C 
HETATM   17  C16 UNL     1      -4.446   1.414  -1.354  1.00  0.00     0.034 C 
HETATM   18  C19 UNL     1      -3.773  -0.695  -1.471  1.00  0.00     0.034 C 
HETATM   19  C17 UNL     1      -5.444   0.689  -0.435  1.00  0.00     0.005 C 
HETATM   20  C18 UNL     1      -4.982  -0.778  -0.525  1.00  0.00     0.005 C 
ENDBRANCH  14  15
BRANCH   1  21
HETATM   21  O1  UNL     1       5.032   1.043   0.426  1.00  0.00    -0.359 OA
HETATM   22  C1  UNL     1       5.220   2.421   0.096  1.00  0.00     0.209 C 
ENDBRANCH   1  21
TORSDOF 2
