REMARK  6 active torsions:
REMARK  status: ('A' for Active; 'I' for Inactive)
REMARK    1  A    between atoms: O1_2  and  C2_3 
REMARK    2  A    between atoms: C2_3  and  O2_4 
REMARK    3  A    between atoms: C2_3  and  C3_5 
REMARK    4  A    between atoms: C5_7  and  C6_8 
REMARK    5  A    between atoms: C9_13  and  N3_14 
REMARK    6  A    between atoms: N3_14  and  C10_15 
ROOT
HETATM    1  C6  UNL     1       1.373  -0.124  -1.926  1.00  0.00     0.028 A 
HETATM    2  C7  UNL     1       1.643  -0.054  -3.273  1.00  0.00     0.133 A 
HETATM    3  N1  UNL     1       0.629   0.048  -4.156  1.00  0.00    -0.253 NA
HETATM    4  C8  UNL     1      -0.644   0.082  -3.709  1.00  0.00     0.234 A 
HETATM    5  N2  UNL     1      -0.891   0.014  -2.395  1.00  0.00    -0.224 NA
HETATM    6  C9  UNL     1       0.068  -0.090  -1.463  1.00  0.00     0.141 A 
ENDROOT
BRANCH   6   7
HETATM    7  N3  UNL     1      -0.191  -0.160  -0.071  1.00  0.00    -0.340 N 
HETATM    8  H12 UNL     1       0.665  -0.245   0.559  1.00  0.00     0.167 HD
BRANCH   7   9
HETATM    9  C10 UNL     1      -1.417  -0.135   0.645  1.00  0.00     0.034 A 
HETATM   10  C11 UNL     1      -1.458  -0.275   2.016  1.00  0.00     0.030 A 
HETATM   11  C12 UNL     1      -2.628  -0.253   2.728  1.00  0.00     0.010 A 
HETATM   12  C13 UNL     1      -3.830  -0.084   2.083  1.00  0.00    -0.052 A 
HETATM   13  C14 UNL     1      -3.864   0.064   0.718  1.00  0.00    -0.050 A 
HETATM   14  C18 UNL     1      -5.216  -0.023   2.602  1.00  0.00     0.039 C 
HETATM   15  C15 UNL     1      -2.654   0.032   0.058  1.00  0.00     0.037 A 
HETATM   16  C16 UNL     1      -5.282   0.232   0.281  1.00  0.00     0.039 C 
HETATM   17  C17 UNL     1      -6.028  -0.466   1.401  1.00  0.00     0.009 C 
ENDBRANCH   7   9
ENDBRANCH   6   7
BRANCH   1  18
HETATM   18  C5  UNL     1       2.527  -0.226  -1.027  1.00  0.00     0.024 C 
HETATM   19  C3  UNL     1       3.689   0.375  -1.061  1.00  0.00    -0.029 C 
HETATM   20  C4  UNL     1       4.079   1.364  -2.107  1.00  0.00     0.048 C 
BRANCH  19  21
HETATM   21  C2  UNL     1       4.793   0.166  -0.052  1.00  0.00     0.286 C 
BRANCH  21  22
HETATM   22  O1  UNL     1       4.442  -0.785   0.877  1.00  0.00    -0.362 OA
HETATM   23  C1  UNL     1       4.384  -0.221   2.143  1.00  0.00     0.205 C 
ENDBRANCH  21  22
BRANCH  21  24
HETATM   24  O2  UNL     1       5.919  -0.203  -0.784  1.00  0.00    -0.367 OA
HETATM   25  H5  UNL     1       6.185  -1.128  -0.644  1.00  0.00     0.213 HD
ENDBRANCH  21  24
ENDBRANCH  19  21
ENDBRANCH   1  18
TORSDOF 6
