REMARK  6 active torsions:
REMARK  status: ('A' for Active; 'I' for Inactive)
REMARK    1  A    between atoms: O1_2  and  C2_3 
REMARK       I    between atoms: C2_3  and  N1_5 
REMARK    2  A    between atoms: N1_5  and  C3_6 
REMARK    3  A    between atoms: C7_10  and  O3_11 
REMARK    4  A    between atoms: O3_11  and  C8_12 
REMARK    5  A    between atoms: C13_19  and  N4_20 
REMARK    6  A    between atoms: C20_28  and  O4_29 
ROOT
HETATM    1  C8  UNL     1       0.913  -0.653   0.574  1.00  0.00     0.173 C 
HETATM    2  N2  UNL     1       1.142  -1.822   0.582  1.00  0.00    -0.248 NA
HETATM    3  C9  UNL     1       0.850  -3.155   0.559  1.00  0.00     0.272 C 
HETATM    4  N3  UNL     1      -0.495  -3.590   0.290  1.00  0.00    -0.381 N 
HETATM    5  C10 UNL     1      -1.869  -3.922   0.271  1.00  0.00     0.084 C 
HETATM    6  C11 UNL     1      -2.907  -3.110   0.276  1.00  0.00     0.019 C 
HETATM    7  C12 UNL     1      -3.249  -1.694   0.304  1.00  0.00     0.026 C 
HETATM    8  C13 UNL     1      -2.757  -0.446   0.351  1.00  0.00     0.015 C 
HETATM    9  C19 UNL     1      -1.269  -0.566   0.440  1.00  0.00     0.175 C 
HETATM   10  C20 UNL     1      -0.220   0.314   0.514  1.00  0.00     0.116 C 
HETATM   11  H10 UNL     1      -0.430  -3.946  -0.724  1.00  0.00     0.160 HD
ENDROOT
BRANCH   1  12
HETATM   12  O3  UNL     1       2.260  -0.500   0.653  1.00  0.00    -0.293 OA
BRANCH  12  13
HETATM   13  C7  UNL     1       3.264  -0.889  -0.213  1.00  0.00     0.079 A 
HETATM   14  C6  UNL     1       3.116  -1.548  -1.403  1.00  0.00     0.037 A 
HETATM   15  C5  UNL     1       4.224  -1.864  -2.151  1.00  0.00     0.005 A 
HETATM   16  C4  UNL     1       5.483  -1.520  -1.705  1.00  0.00     0.030 A 
HETATM   17  C3  UNL     1       5.656  -0.856  -0.508  1.00  0.00     0.039 A 
HETATM   18  C22 UNL     1       4.530  -0.551   0.220  1.00  0.00     0.066 A 
BRANCH  17  19
HETATM   19  N1  UNL     1       6.981  -0.508  -0.063  1.00  0.00    -0.303 N 
HETATM   20  C2  UNL     1       7.387   0.793  -0.532  1.00  0.00     0.364 C 
HETATM   21  O2  UNL     1       6.451   1.304  -1.230  1.00  0.00    -0.238 OA
HETATM   22  H4  UNL     1       7.644  -1.077   0.537  1.00  0.00     0.171 HD
BRANCH  20  23
HETATM   23  O1  UNL     1       8.621   1.331  -0.225  1.00  0.00    -0.309 OA
HETATM   24  C1  UNL     1       8.989   2.610  -0.700  1.00  0.00     0.215 C 
ENDBRANCH  20  23
ENDBRANCH  17  19
ENDBRANCH  12  13
ENDBRANCH   1  12
BRANCH  10  25
HETATM   25  O4  UNL     1       0.310   1.649   0.563  1.00  0.00    -0.381 OA
HETATM   26  C21 UNL     1       0.187   2.277   1.844  1.00  0.00     0.202 C 
ENDBRANCH  10  25
BRANCH   8  27
HETATM   27  N4  UNL     1      -3.798   0.581   0.341  1.00  0.00    -0.381 N 
HETATM   28  C14 UNL     1      -3.932   1.610   1.341  1.00  0.00     0.142 C 
HETATM   29  C15 UNL     1      -5.163   2.448   1.118  1.00  0.00     0.136 C 
HETATM   30  N5  UNL     1      -6.313   1.679   0.771  1.00  0.00    -0.414 N 
HETATM   31  C16 UNL     1      -7.500   2.443   0.573  1.00  0.00     0.143 C 
HETATM   32  C17 UNL     1      -6.116   0.628  -0.169  1.00  0.00     0.136 C 
HETATM   33  C18 UNL     1      -4.741   0.557  -0.741  1.00  0.00     0.142 C 
ENDBRANCH   8  27
TORSDOF 6
