REMARK  7 active torsions:
REMARK  status: ('A' for Active; 'I' for Inactive)
REMARK    1  A    between atoms: C2_2  and  C3_3 
REMARK    2  A    between atoms: C3_3  and  C4_4 
REMARK    3  A    between atoms: C3_3  and  C14_18 
REMARK    4  A    between atoms: C5_5  and  C6_6 
REMARK    5  A    between atoms: C6_6  and  N1_7 
REMARK    6  A    between atoms: N1_7  and  C7_8 
REMARK    7  A    between atoms: C14_18  and  C15_19 
ROOT
HETATM    1  N1  UNL     1       1.692  -0.151   0.754  1.00  0.00    -0.371 N 
HETATM    2  H7  UNL     1       0.966  -0.945   0.777  1.00  0.00     0.161 HD
ENDROOT
BRANCH   1   3
HETATM    3  C6  UNL     1       0.732   0.696   1.295  1.00  0.00     0.148 C 
BRANCH   3   4
HETATM    4  C5  UNL     1      -0.472   0.801   0.394  1.00  0.00    -0.006 C 
HETATM    5  C4  UNL     1      -1.635   0.421   0.882  1.00  0.00     0.013 C 
BRANCH   5   6
HETATM    6  C3  UNL     1      -3.030   0.258   0.644  1.00  0.00    -0.018 C 
BRANCH   6   7
HETATM    7  C2  UNL     1      -3.373  -0.858   0.013  1.00  0.00    -0.148 C 
HETATM    8  C1  UNL     1      -3.762  -2.080  -0.292  1.00  0.00     0.097 C 
ENDBRANCH   6   7
BRANCH   6   9
HETATM    9  C14 UNL     1      -4.108   1.164   1.012  1.00  0.00     0.046 C 
BRANCH   9  10
HETATM   10  C15 UNL     1      -5.460   0.705   0.615  1.00  0.00     0.001 C 
HETATM   11  C16 UNL     1      -5.678   0.501  -0.852  1.00  0.00     0.005 C 
ENDBRANCH   9  10
ENDBRANCH   6   9
ENDBRANCH   5   6
ENDBRANCH   3   4
ENDBRANCH   1   3
BRANCH   1  12
HETATM   12  C7  UNL     1       2.684  -1.026   0.196  1.00  0.00     0.135 A 
HETATM   13  N2  UNL     1       2.719  -2.309  -0.166  1.00  0.00    -0.224 NA
HETATM   14  C8  UNL     1       3.817  -2.857  -0.668  1.00  0.00     0.235 A 
HETATM   15  N3  UNL     1       4.883  -2.087  -0.799  1.00  0.00    -0.241 NA
HETATM   16  C9  UNL     1       4.991  -0.793  -0.479  1.00  0.00     0.072 A 
HETATM   17  C10 UNL     1       3.826  -0.227   0.049  1.00  0.00     0.040 A 
HETATM   18  C13 UNL     1       6.269  -0.151  -0.715  1.00  0.00     0.056 A 
HETATM   19  C11 UNL     1       3.975   1.217   0.400  1.00  0.00     0.219 A 
HETATM   20  O1  UNL     1       5.227   1.745   0.135  1.00  0.00    -0.358 OA
HETATM   21  C12 UNL     1       6.330   1.120  -0.389  1.00  0.00     0.137 A 
ENDBRANCH   1  12
TORSDOF 7
