REMARK  1 active torsions:
REMARK  status: ('A' for Active; 'I' for Inactive)
REMARK    1  A    between atoms: O1_2  and  C2_3 
ROOT
HETATM    1  C2  UNL     1       3.723  -0.142  -0.289  1.00  0.00     0.079 C 
HETATM    2  C3  UNL     1       4.058   1.168  -0.226  1.00  0.00     0.054 C 
HETATM    3  C4  UNL     1       3.586   2.547  -0.029  1.00  0.00     0.120 C 
HETATM    4  N1  UNL     1       2.436   2.906   0.194  1.00  0.00    -0.255 NA
HETATM    5  C5  UNL     1       1.715   4.053   0.413  1.00  0.00     0.227 C 
HETATM    6  N2  UNL     1       0.447   4.193   0.248  1.00  0.00    -0.258 NA
HETATM    7  C6  UNL     1      -0.309   3.037  -0.217  1.00  0.00     0.288 C 
HETATM    8  B1  UNL     1       0.542   1.582   0.554  1.00  0.00     0.239 B 
HETATM    9  C7  UNL     1       1.489   0.641  -0.408  1.00  0.00    -0.070 C 
HETATM   10  C8  UNL     1       2.294  -0.564  -0.103  1.00  0.00     0.192 C 
HETATM   11  O2  UNL     1       1.951  -1.581  -0.988  1.00  0.00    -0.349 OA
HETATM   12  C9  UNL     1       0.943  -2.514  -0.662  1.00  0.00     0.132 C 
HETATM   13  C10 UNL     1      -0.225  -3.061  -0.316  1.00  0.00     0.007 C 
HETATM   14  C11 UNL     1      -1.190  -1.927  -0.128  1.00  0.00     0.051 C 
HETATM   15  C12 UNL     1      -2.499  -1.934   0.230  1.00  0.00    -0.065 C 
HETATM   16  C13 UNL     1      -3.821  -2.585   0.636  1.00  0.00     0.036 C 
HETATM   17  C14 UNL     1      -4.841  -1.532   0.507  1.00  0.00     0.009 C 
HETATM   18  C15 UNL     1      -4.079  -0.230   0.649  1.00  0.00     0.039 C 
HETATM   19  C16 UNL     1      -2.723  -0.496   0.121  1.00  0.00    -0.057 C 
HETATM   20  C17 UNL     1      -2.127   0.621  -0.288  1.00  0.00     0.010 C 
HETATM   21  C18 UNL     1      -2.439   2.060  -0.361  1.00  0.00     0.299 C 
HETATM   22  N3  UNL     1      -1.608   2.957   0.339  1.00  0.00     0.101 NA
HETATM   23  H22 UNL     1      -2.100   3.824   0.563  1.00  0.00     0.317 HD
ENDROOT
BRANCH   1  24
HETATM   24  O1  UNL     1       4.506  -1.294  -0.511  1.00  0.00    -0.357 OA
HETATM   25  C1  UNL     1       4.703  -2.220   0.551  1.00  0.00     0.209 C 
ENDBRANCH   1  24
TORSDOF 1
