REMARK  7 active torsions:
REMARK  status: ('A' for Active; 'I' for Inactive)
REMARK    1  A    between atoms: O1_2  and  C2_3 
REMARK    2  A    between atoms: C6_7  and  O2_8 
REMARK    3  A    between atoms: C9_11  and  N1_12 
REMARK    4  A    between atoms: N1_12  and  C10_13 
REMARK    5  A    between atoms: C13_18  and  O3_19 
REMARK    6  A    between atoms: C15_21  and  O4_22 
REMARK    7  A    between atoms: C17_24  and  O5_25 
ROOT
HETATM    1  C10 UNL     1       0.597   0.487  -0.349  1.00  0.00     0.142 A 
HETATM    2  N2  UNL     1       0.271   1.678  -0.838  1.00  0.00    -0.224 NA
HETATM    3  C11 UNL     1       1.264   2.584  -1.082  1.00  0.00     0.236 A 
HETATM    4  N3  UNL     1       2.543   2.242  -0.817  1.00  0.00    -0.238 NA
HETATM    5  C12 UNL     1       2.861   1.017  -0.315  1.00  0.00     0.108 A 
HETATM    6  C13 UNL     1       4.205   0.724  -0.062  1.00  0.00     0.134 A 
HETATM    7  C15 UNL     1       4.539  -0.530   0.453  1.00  0.00     0.137 A 
HETATM    8  C17 UNL     1       3.520  -1.425   0.688  1.00  0.00     0.105 A 
HETATM    9  C19 UNL     1       2.191  -1.148   0.443  1.00  0.00     0.057 A 
HETATM   10  C20 UNL     1       1.881   0.080  -0.059  1.00  0.00     0.044 A 
ENDROOT
BRANCH   1  11
HETATM   11  N1  UNL     1      -0.491  -0.401  -0.122  1.00  0.00    -0.344 N 
HETATM   12  H13 UNL     1      -0.546  -1.375   0.246  1.00  0.00     0.167 HD
BRANCH  11  13
HETATM   13  C9  UNL     1      -1.827   0.022  -0.425  1.00  0.00     0.016 C 
HETATM   14  C8  UNL     1      -2.360   1.312   0.134  1.00  0.00     0.096 C 
HETATM   15  C6  UNL     1      -3.616   1.190   0.895  1.00  0.00     0.073 A 
HETATM   16  C4  UNL     1      -4.836   0.749   0.273  1.00  0.00     0.049 A 
HETATM   17  C5  UNL     1      -4.688   2.201   0.416  1.00  0.00     0.050 A 
HETATM   18  C3  UNL     1      -4.809   0.021  -0.988  1.00  0.00     0.018 C 
HETATM   19  C2  UNL     1      -3.917  -0.669  -1.720  1.00  0.00     0.066 C 
HETATM   20  C21 UNL     1      -2.529  -0.806  -1.222  1.00  0.00     0.061 C 
BRANCH  15  21
HETATM   21  O2  UNL     1      -3.457   1.208   2.281  1.00  0.00    -0.384 OA
HETATM   22  C7  UNL     1      -3.598  -0.034   2.856  1.00  0.00     0.202 C 
ENDBRANCH  15  21
BRANCH  19  23
HETATM   23  O1  UNL     1      -4.212  -1.274  -2.933  1.00  0.00    -0.356 OA
HETATM   24  C1  UNL     1      -5.540  -1.133  -3.397  1.00  0.00     0.210 C 
ENDBRANCH  19  23
ENDBRANCH  11  13
ENDBRANCH   1  11
BRANCH   6  25
HETATM   25  O3  UNL     1       5.223   1.637  -0.305  1.00  0.00    -0.351 OA
HETATM   26  C14 UNL     1       5.654   2.558   0.685  1.00  0.00     0.210 C 
ENDBRANCH   6  25
BRANCH   8  27
HETATM   27  O5  UNL     1       3.862  -2.672   1.201  1.00  0.00    -0.353 OA
HETATM   28  C18 UNL     1       2.852  -3.641   1.467  1.00  0.00     0.210 C 
ENDBRANCH   8  27
BRANCH   7  29
HETATM   29  O4  UNL     1       5.877  -0.793   0.693  1.00  0.00    -0.351 OA
HETATM   30  C16 UNL     1       6.678  -1.363  -0.324  1.00  0.00     0.210 C 
ENDBRANCH   7  29
TORSDOF 7
