REMARK  2 active torsions:
REMARK  status: ('A' for Active; 'I' for Inactive)
REMARK    1  A    between atoms: O1_2  and  C2_3 
REMARK    2  A    between atoms: C16_21  and  O2_22 
ROOT
HETATM    1  C2  UNL     1       2.135   0.859   0.521  1.00  0.00     0.105 C 
HETATM    2  C3  UNL     1       1.309   1.829   0.045  1.00  0.00     0.070 C 
HETATM    3  C4  UNL     1       0.309   1.607  -1.031  1.00  0.00     0.051 C 
HETATM    4  C5  UNL     1       0.564   0.790  -2.088  1.00  0.00     0.126 C 
HETATM    5  N1  UNL     1       0.468  -0.587  -1.649  1.00  0.00    -0.323 N 
HETATM    6  C6  UNL     1      -0.271  -1.843  -1.895  1.00  0.00     0.207 C 
HETATM    7  N2  UNL     1      -1.309  -2.099  -1.204  1.00  0.00    -0.278 NA
HETATM    8  C7  UNL     1      -1.794  -1.291  -0.251  1.00  0.00     0.126 C 
HETATM    9  C8  UNL     1      -2.239  -1.565   1.139  1.00  0.00     0.031 C 
HETATM   10  C9  UNL     1      -2.226  -0.123   1.772  1.00  0.00     0.040 C 
HETATM   11  C10 UNL     1      -2.498   0.861   0.600  1.00  0.00     0.083 A 
HETATM   12  C11 UNL     1      -1.749   1.381  -0.436  1.00  0.00     0.036 A 
HETATM   13  C12 UNL     1      -1.979   0.506  -1.676  1.00  0.00     0.017 A 
HETATM   14  C13 UNL     1      -2.735  -0.164  -0.804  1.00  0.00     0.048 A 
HETATM   15  C14 UNL     1      -4.181   0.264  -0.502  1.00  0.00     0.133 C 
HETATM   16  N3  UNL     1      -3.963   1.336   0.524  1.00  0.00    -0.405 N 
HETATM   17  N4  UNL     1      -0.797   2.413  -0.521  1.00  0.00    -0.356 N 
HETATM   18  C15 UNL     1       1.250  -1.233  -0.584  1.00  0.00     0.137 C 
HETATM   19  C16 UNL     1       2.089  -0.614   0.289  1.00  0.00     0.117 C 
HETATM   20  H15 UNL     1      -4.968   1.749   0.549  1.00  0.00     0.154 HD
HETATM   21  H16 UNL     1      -0.850   3.352  -0.263  1.00  0.00     0.166 HD
ENDROOT
BRANCH   1  22
HETATM   22  O1  UNL     1       3.155   1.328   1.335  1.00  0.00    -0.353 OA
HETATM   23  C1  UNL     1       4.345   1.789   0.750  1.00  0.00     0.210 C 
ENDBRANCH   1  22
BRANCH  19  24
HETATM   24  O2  UNL     1       2.943  -1.399   1.000  1.00  0.00    -0.352 OA
HETATM   25  C17 UNL     1       3.923  -2.187   0.347  1.00  0.00     0.210 C 
ENDBRANCH  19  24
TORSDOF 2
