REMARK  9 active torsions:
REMARK  status: ('A' for Active; 'I' for Inactive)
REMARK    1  A    between atoms: O1_2  and  C2_3 
REMARK    2  A    between atoms: C2_3  and  C3_4 
REMARK    3  A    between atoms: C4_5  and  N1_6 
REMARK    4  A    between atoms: N1_6  and  C5_7 
REMARK    5  A    between atoms: C8_12  and  O2_13 
REMARK    6  A    between atoms: C10_15  and  O3_16 
REMARK    7  A    between atoms: C12_18  and  O4_19 
REMARK    8  A    between atoms: C17_25  and  O6_26 
REMARK    9  A    between atoms: C19_28  and  O7_29 
ROOT
HETATM    1  C5  UNL     1      -0.315   0.689   1.286  1.00  0.00     0.142 A 
HETATM    2  N2  UNL     1      -0.168   1.888   1.873  1.00  0.00    -0.224 NA
HETATM    3  C6  UNL     1      -1.152   2.796   1.991  1.00  0.00     0.236 A 
HETATM    4  N3  UNL     1      -2.380   2.491   1.488  1.00  0.00    -0.238 NA
HETATM    5  C7  UNL     1      -2.550   1.317   0.906  1.00  0.00     0.108 A 
HETATM    6  C8  UNL     1      -3.795   0.980   0.388  1.00  0.00     0.134 A 
HETATM    7  C10 UNL     1      -3.960  -0.271  -0.223  1.00  0.00     0.137 A 
HETATM    8  C12 UNL     1      -2.903  -1.177  -0.319  1.00  0.00     0.105 A 
HETATM    9  C14 UNL     1      -1.650  -0.880   0.183  1.00  0.00     0.057 A 
HETATM   10  C15 UNL     1      -1.573   0.364   0.766  1.00  0.00     0.044 A 
ENDROOT
BRANCH   1  11
HETATM   11  N1  UNL     1       0.866  -0.086   1.297  1.00  0.00    -0.341 N 
HETATM   12  H6  UNL     1       0.788  -0.985   1.824  1.00  0.00     0.167 HD
BRANCH  11  13
HETATM   13  C4  UNL     1       2.035   0.368   0.627  1.00  0.00     0.046 A 
HETATM   14  C3  UNL     1       2.989  -0.439   0.264  1.00  0.00     0.028 A 
HETATM   15  C19 UNL     1       4.182   0.041  -0.407  1.00  0.00     0.134 A 
HETATM   16  C17 UNL     1       4.338   1.346  -0.674  1.00  0.00     0.215 A 
HETATM   17  O5  UNL     1       3.326   2.198  -0.287  1.00  0.00    -0.322 OA
HETATM   18  C16 UNL     1       2.146   1.823   0.347  1.00  0.00     0.235 A 
BRANCH  14  19
HETATM   19  C2  UNL     1       3.017  -1.900   0.474  1.00  0.00     0.210 C 
BRANCH  19  20
HETATM   20  O1  UNL     1       3.100  -2.595  -0.748  1.00  0.00    -0.391 OA
HETATM   21  C1  UNL     1       3.132  -3.986  -0.492  1.00  0.00     0.201 C 
ENDBRANCH  19  20
ENDBRANCH  14  19
BRANCH  15  22
HETATM   22  O7  UNL     1       5.258  -0.741  -0.836  1.00  0.00    -0.356 OA
HETATM   23  H23 UNL     1       6.122  -0.580  -0.334  1.00  0.00     0.218 HD
ENDBRANCH  15  22
BRANCH  16  24
HETATM   24  O6  UNL     1       5.404   1.975  -1.301  1.00  0.00    -0.333 OA
HETATM   25  C18 UNL     1       5.912   3.208  -0.850  1.00  0.00     0.212 C 
ENDBRANCH  16  24
ENDBRANCH  11  13
ENDBRANCH   1  11
BRANCH   6  26
HETATM   26  O2  UNL     1      -4.806   1.908   0.508  1.00  0.00    -0.351 OA
HETATM   27  C9  UNL     1      -5.146   2.919  -0.381  1.00  0.00     0.210 C 
ENDBRANCH   6  26
BRANCH   8  28
HETATM   28  O4  UNL     1      -3.138  -2.390  -0.934  1.00  0.00    -0.353 OA
HETATM   29  C13 UNL     1      -2.084  -3.320  -1.042  1.00  0.00     0.210 C 
ENDBRANCH   8  28
BRANCH   7  30
HETATM   30  O3  UNL     1      -5.243  -0.532  -0.717  1.00  0.00    -0.351 OA
HETATM   31  C11 UNL     1      -6.236  -1.154   0.101  1.00  0.00     0.210 C 
ENDBRANCH   7  30
TORSDOF 9
