REMARK  5 active torsions:
REMARK  status: ('A' for Active; 'I' for Inactive)
REMARK    1  A    between atoms: O1_2  and  C2_3 
REMARK    2  A    between atoms: C7_10  and  N3_11 
REMARK    3  A    between atoms: N3_11  and  B1_12 
REMARK    4  A    between atoms: B1_12  and  C8_13 
REMARK    5  A    between atoms: C18_24  and  O2_25 
ROOT
HETATM    1  C2  UNL     1      -5.270   0.226   0.646  1.00  0.00     0.103 A 
HETATM    2  C3  UNL     1      -5.270   1.479   0.250  1.00  0.00     0.072 A 
HETATM    3  C4  UNL     1      -4.169   2.251  -0.250  1.00  0.00     0.074 A 
HETATM    4  N1  UNL     1      -3.893   3.399  -0.677  1.00  0.00    -0.241 NA
HETATM    5  C5  UNL     1      -2.699   3.946  -1.127  1.00  0.00     0.234 A 
HETATM    6  N2  UNL     1      -1.564   3.387  -1.213  1.00  0.00    -0.239 NA
HETATM    7  C6  UNL     1      -1.266   2.058  -0.862  1.00  0.00     0.085 A 
HETATM    8  C7  UNL     1      -0.044   1.670  -1.023  1.00  0.00     0.100 C 
HETATM    9  P1  UNL     1      -2.693   1.279  -0.285  1.00  0.00     0.018 P 
HETATM   10  C17 UNL     1      -2.868  -0.354   0.272  1.00  0.00     0.058 A 
HETATM   11  C18 UNL     1      -4.108  -0.616   0.642  1.00  0.00     0.102 A 
ENDROOT
BRANCH   8  12
HETATM   12  N3  UNL     1       0.519   0.393  -0.749  1.00  0.00    -0.445 N 
HETATM   13  H7  UNL     1       0.418  -0.532  -1.221  1.00  0.00     0.137 HD
BRANCH  12  14
HETATM   14  B1  UNL     1       1.460   0.321   0.465  1.00  0.00     0.305 B 
HETATM   15  H8  UNL     1       1.045   0.056   1.538  1.00  0.00     0.005 HD
BRANCH  14  16
HETATM   16  C8  UNL     1       2.980   0.196   0.182  1.00  0.00    -0.076 A 
HETATM   17  C9  UNL     1       3.636   0.903  -0.793  1.00  0.00    -0.003 A 
HETATM   18  C10 UNL     1       4.984   0.805  -1.059  1.00  0.00     0.007 A 
HETATM   19  C11 UNL     1       5.760  -0.062  -0.304  1.00  0.00    -0.052 A 
HETATM   20  C12 UNL     1       5.120  -0.790   0.691  1.00  0.00    -0.052 A 
HETATM   21  C16 UNL     1       7.209  -0.431  -0.293  1.00  0.00     0.039 C 
HETATM   22  C13 UNL     1       3.758  -0.662   0.927  1.00  0.00     0.004 A 
HETATM   23  C14 UNL     1       6.109  -1.655   1.385  1.00  0.00     0.039 C 
HETATM   24  C15 UNL     1       7.173  -1.820   0.345  1.00  0.00     0.009 C 
ENDBRANCH  14  16
ENDBRANCH  12  14
ENDBRANCH   8  12
BRANCH  11  25
HETATM   25  O2  UNL     1      -4.437  -1.900   1.125  1.00  0.00    -0.353 OA
HETATM   26  C19 UNL     1      -4.538  -2.928   0.129  1.00  0.00     0.210 C 
ENDBRANCH  11  25
BRANCH   1  27
HETATM   27  O1  UNL     1      -6.553  -0.174   1.070  1.00  0.00    -0.353 OA
HETATM   28  C1  UNL     1      -7.610  -0.442   0.174  1.00  0.00     0.210 C 
ENDBRANCH   1  27
TORSDOF 5
