REMARK  5 active torsions:
REMARK  status: ('A' for Active; 'I' for Inactive)
REMARK    1  A    between atoms: O1_2  and  C2_3 
REMARK    2  A    between atoms: C2_3  and  O2_4 
REMARK    3  A    between atoms: O2_4  and  C3_5 
REMARK    4  A    between atoms: C4_6  and  O3_7 
REMARK    5  A    between atoms: C6_9  and  O4_10 
ROOT
HETATM    1  C3  UNL     1       0.270  -0.050  -0.491  1.00  0.00     0.117 A 
HETATM    2  C4  UNL     1       0.779   1.250  -0.437  1.00  0.00     0.136 A 
HETATM    3  C6  UNL     1       0.098   2.276   0.225  1.00  0.00     0.106 A 
HETATM    4  C8  UNL     1      -1.128   2.049   0.863  1.00  0.00     0.070 A 
HETATM    5  C9  UNL     1      -1.621   0.738   0.792  1.00  0.00     0.046 A 
HETATM    6  C10 UNL     1      -0.928  -0.257   0.140  1.00  0.00     0.018 A 
HETATM    7  C11 UNL     1      -1.705  -1.436   0.505  1.00  0.00     0.113 A 
HETATM    8  C12 UNL     1      -1.568  -2.695  -0.223  1.00  0.00     0.167 A 
HETATM    9  N1  UNL     1      -2.764  -3.434  -0.535  1.00  0.00    -0.282 NA
HETATM   10  C13 UNL     1      -3.913  -2.946  -0.271  1.00  0.00     0.228 A 
HETATM   11  N2  UNL     1      -4.132  -1.661   0.358  1.00  0.00    -0.228 NA
HETATM   12  C14 UNL     1      -3.072  -0.962   0.702  1.00  0.00     0.116 A 
HETATM   13  N3  UNL     1      -2.966   0.387   1.199  1.00  0.00    -0.343 N 
HETATM   14  H17 UNL     1      -3.672   0.949   1.710  1.00  0.00     0.167 HD
ENDROOT
BRANCH   1  15
HETATM   15  O2  UNL     1       0.891  -1.101  -1.126  1.00  0.00    -0.323 OA
BRANCH  15  16
HETATM   16  C2  UNL     1       1.824  -1.954  -0.446  1.00  0.00     0.344 C 
BRANCH  16  17
HETATM   17  O1  UNL     1       2.890  -1.219   0.020  1.00  0.00    -0.371 OA
HETATM   18  C1  UNL     1       3.853  -1.932   0.692  1.00  0.00     0.204 C 
ENDBRANCH  16  17
ENDBRANCH  15  16
ENDBRANCH   1  15
BRANCH   2  19
HETATM   19  O3  UNL     1       1.986   1.470  -1.071  1.00  0.00    -0.351 OA
HETATM   20  C5  UNL     1       2.133   1.857  -2.413  1.00  0.00     0.210 C 
ENDBRANCH   2  19
BRANCH   3  21
HETATM   21  O4  UNL     1       0.669   3.525   0.234  1.00  0.00    -0.353 OA
HETATM   22  C7  UNL     1       0.003   4.589   0.898  1.00  0.00     0.210 C 
ENDBRANCH   3  21
TORSDOF 5
