REMARK  6 active torsions:
REMARK  status: ('A' for Active; 'I' for Inactive)
REMARK    1  A    between atoms: C3_3  and  N1_4 
REMARK    2  A    between atoms: N1_4  and  C4_5 
REMARK    3  A    between atoms: C7_10  and  O1_11 
REMARK    4  A    between atoms: C9_13  and  C10_14 
REMARK    5  A    between atoms: C10_14  and  O2_15 
REMARK    6  A    between atoms: C12_17  and  O3_18 
ROOT
HETATM    1  C4  UNL     1       2.008   0.612   0.367  1.00  0.00     0.141 A 
HETATM    2  N2  UNL     1       2.494   1.834   0.590  1.00  0.00    -0.224 NA
HETATM    3  C5  UNL     1       1.626   2.878   0.718  1.00  0.00     0.236 A 
HETATM    4  N3  UNL     1       0.296   2.708   0.624  1.00  0.00    -0.238 NA
HETATM    5  C6  UNL     1      -0.200   1.459   0.396  1.00  0.00     0.106 A 
HETATM    6  C7  UNL     1      -1.577   1.222   0.289  1.00  0.00     0.109 A 
HETATM    7  C9  UNL     1      -2.095  -0.030   0.061  1.00  0.00     0.034 A 
HETATM    8  C12 UNL     1      -1.232  -1.124  -0.074  1.00  0.00     0.080 A 
HETATM    9  C14 UNL     1       0.116  -0.867   0.033  1.00  0.00     0.055 A 
HETATM   10  C15 UNL     1       0.657   0.372   0.261  1.00  0.00     0.044 A 
ENDROOT
BRANCH   1  11
HETATM   11  N1  UNL     1       2.916  -0.465   0.234  1.00  0.00    -0.350 N 
HETATM   12  H6  UNL     1       2.796  -1.481   0.064  1.00  0.00     0.166 HD
BRANCH  11  13
HETATM   13  C3  UNL     1       4.315  -0.545   0.284  1.00  0.00     0.085 C 
HETATM   14  C2  UNL     1       5.142  -0.472  -0.721  1.00  0.00    -0.014 C 
HETATM   15  C1  UNL     1       6.624  -0.553  -0.699  1.00  0.00     0.037 C 
ENDBRANCH  11  13
ENDBRANCH   1  11
BRANCH   6  16
HETATM   16  O1  UNL     1      -2.343   2.354   0.435  1.00  0.00    -0.353 OA
HETATM   17  C8  UNL     1      -2.624   3.118  -0.725  1.00  0.00     0.210 C 
ENDBRANCH   6  16
BRANCH   8  18
HETATM   18  O3  UNL     1      -1.805  -2.364  -0.304  1.00  0.00    -0.355 OA
HETATM   19  C13 UNL     1      -1.061  -3.538  -0.458  1.00  0.00     0.210 C 
ENDBRANCH   8  18
BRANCH   7  20
HETATM   20  C10 UNL     1      -3.558  -0.256  -0.034  1.00  0.00     0.211 C 
BRANCH  20  21
HETATM   21  O2  UNL     1      -4.113  -0.222   1.266  1.00  0.00    -0.391 OA
HETATM   22  C11 UNL     1      -5.478  -0.426   1.228  1.00  0.00     0.201 C 
ENDBRANCH  20  21
ENDBRANCH   7  20
TORSDOF 6
