REMARK  4 active torsions:
REMARK  status: ('A' for Active; 'I' for Inactive)
REMARK    1  A    between atoms: C2_2  and  C3_3 
REMARK    2  A    between atoms: C11_15  and  O2_16 
REMARK    3  A    between atoms: C13_18  and  O3_19 
REMARK    4  A    between atoms: C15_21  and  O4_22 
ROOT
HETATM    1  C3  UNL     1      -3.080  -0.604  -0.614  1.00  0.00    -0.051 C 
HETATM    2  C4  UNL     1      -3.581   0.483  -1.246  1.00  0.00     0.002 C 
HETATM    3  C5  UNL     1      -3.303   1.902  -1.066  1.00  0.00     0.178 C 
HETATM    4  N1  UNL     1      -2.559   2.607  -2.076  1.00  0.00    -0.279 NA
HETATM    5  C6  UNL     1      -1.599   3.454  -1.649  1.00  0.00     0.228 C 
HETATM    6  N2  UNL     1      -1.246   3.730  -0.339  1.00  0.00    -0.237 NA
HETATM    7  C7  UNL     1      -0.678   3.034   0.478  1.00  0.00     0.211 C 
HETATM    8  N3  UNL     1      -0.226   1.679   0.207  1.00  0.00    -0.337 N 
HETATM    9  C8  UNL     1      -0.973   0.492   0.218  1.00  0.00     0.152 A 
HETATM   10  C9  UNL     1      -1.791  -0.501   0.110  1.00  0.00    -0.018 A 
HETATM   11  O1  UNL     1      -0.737  -0.791   0.845  1.00  0.00     0.000 OA
HETATM   12  C10 UNL     1       0.164  -1.788   1.030  1.00  0.00     0.074 C 
HETATM   13  C11 UNL     1       1.584  -1.382   0.804  1.00  0.00     0.082 C 
HETATM   14  C13 UNL     1       2.261  -0.293   0.459  1.00  0.00     0.132 C 
HETATM   15  C15 UNL     1       2.133   1.127   0.097  1.00  0.00     0.119 C 
HETATM   16  C17 UNL     1       1.126   1.998  -0.029  1.00  0.00     0.132 C 
ENDROOT
BRANCH   1  17
HETATM   17  C2  UNL     1      -3.121  -2.077  -0.504  1.00  0.00     0.034 C 
HETATM   18  C1  UNL     1      -4.198  -2.562  -1.516  1.00  0.00     0.010 C 
ENDBRANCH   1  17
BRANCH  13  19
HETATM   19  O2  UNL     1       2.301  -2.569   1.054  1.00  0.00    -0.357 OA
HETATM   20  C12 UNL     1       2.353  -3.566   0.044  1.00  0.00     0.209 C 
ENDBRANCH  13  19
BRANCH  15  21
HETATM   21  O4  UNL     1       3.335   1.830  -0.211  1.00  0.00    -0.352 OA
HETATM   22  C16 UNL     1       3.667   2.880   0.669  1.00  0.00     0.210 C 
ENDBRANCH  15  21
BRANCH  14  23
HETATM   23  O3  UNL     1       3.658  -0.566   0.415  1.00  0.00    -0.351 OA
HETATM   24  C14 UNL     1       4.389  -1.022   1.517  1.00  0.00     0.210 C 
ENDBRANCH  14  23
TORSDOF 4
