REMARK  8 active torsions:
REMARK  status: ('A' for Active; 'I' for Inactive)
REMARK    1  A    between atoms: C3_3  and  C4_4 
REMARK    2  A    between atoms: C3_3  and  O4_21 
REMARK    3  A    between atoms: C5_5  and  N1_6 
REMARK    4  A    between atoms: N1_6  and  C6_7 
REMARK    5  A    between atoms: C7_8  and  O1_9 
REMARK    6  A    between atoms: C9_12  and  O2_13 
REMARK    7  A    between atoms: C12_16  and  C13_17 
REMARK    8  A    between atoms: C13_17  and  O3_18 
ROOT
HETATM    1  C6  UNL     1      -0.179  -0.714  -0.688  1.00  0.00     0.194 A 
HETATM    2  C7  UNL     1       0.130   0.655  -1.175  1.00  0.00     0.166 A 
HETATM    3  N2  UNL     1      -0.912   1.409  -1.079  1.00  0.00    -0.223 NA
HETATM    4  C8  UNL     1      -2.011   0.681  -0.538  1.00  0.00     0.101 A 
HETATM    5  C9  UNL     1      -3.331   0.992  -0.229  1.00  0.00     0.098 A 
HETATM    6  C11 UNL     1      -4.172   0.014   0.306  1.00  0.00     0.048 A 
HETATM    7  C12 UNL     1      -3.722  -1.270   0.540  1.00  0.00    -0.031 A 
HETATM    8  C14 UNL     1      -2.421  -1.598   0.243  1.00  0.00     0.021 A 
HETATM    9  C15 UNL     1      -1.604  -0.621  -0.285  1.00  0.00     0.005 A 
ENDROOT
BRANCH   1  10
HETATM   10  N1  UNL     1       0.679  -0.930   0.487  1.00  0.00    -0.383 N 
HETATM   11  H7  UNL     1       0.208  -1.128   1.403  1.00  0.00     0.160 HD
BRANCH  10  12
HETATM   12  C5  UNL     1       2.085  -0.853   0.286  1.00  0.00     0.086 C 
HETATM   13  C4  UNL     1       2.971   0.109   0.448  1.00  0.00     0.053 C 
BRANCH  13  14
HETATM   14  C3  UNL     1       4.399  -0.037   0.173  1.00  0.00     0.065 C 
HETATM   15  C2  UNL     1       5.137   1.022   0.390  1.00  0.00     0.006 C 
HETATM   16  C1  UNL     1       4.435   2.226   0.884  1.00  0.00     0.038 C 
BRANCH  14  17
HETATM   17  O4  UNL     1       4.807  -1.282  -0.286  1.00  0.00    -0.356 OA
HETATM   18  C16 UNL     1       5.442  -1.524  -1.506  1.00  0.00     0.210 C 
ENDBRANCH  14  17
ENDBRANCH  13  14
ENDBRANCH  10  12
ENDBRANCH   1  10
BRANCH   2  19
HETATM   19  O1  UNL     1       1.323   1.154  -1.679  1.00  0.00    -0.346 OA
HETATM   20  H9  UNL     1       1.280   1.874  -2.396  1.00  0.00     0.219 HD
ENDBRANCH   2  19
BRANCH   5  21
HETATM   21  O2  UNL     1      -3.760   2.289  -0.473  1.00  0.00    -0.354 OA
HETATM   22  C10 UNL     1      -5.105   2.633  -0.167  1.00  0.00     0.210 C 
ENDBRANCH   5  21
BRANCH   7  23
HETATM   23  C13 UNL     1      -4.604  -2.330   1.112  1.00  0.00     0.203 C 
BRANCH  23  24
HETATM   24  O3  UNL     1      -4.530  -2.330   2.494  1.00  0.00    -0.396 OA
HETATM   25  H16 UNL     1      -3.589  -2.052   2.715  1.00  0.00     0.209 HD
ENDBRANCH  23  24
ENDBRANCH   7  23
TORSDOF 8
