REMARK  7 active torsions:
REMARK  status: ('A' for Active; 'I' for Inactive)
REMARK    1  A    between atoms: C2_2  and  O1_3 
REMARK    2  A    between atoms: O1_3  and  C3_4 
REMARK    3  A    between atoms: C4_5  and  O2_6 
REMARK    4  A    between atoms: C7_10  and  N2_11 
REMARK    5  A    between atoms: C10_14  and  O3_15 
REMARK    6  A    between atoms: C12_17  and  O4_18 
REMARK    7  A    between atoms: C20_28  and  O5_29 
ROOT
HETATM    1  C3  UNL     1       3.867   0.174  -0.009  1.00  0.00     0.163 A 
HETATM    2  C4  UNL     1       2.770   0.978   0.230  1.00  0.00     0.202 A 
HETATM    3  N1  UNL     1       1.518   0.512   0.388  1.00  0.00    -0.216 NA
HETATM    4  C6  UNL     1       1.294  -0.833   0.312  1.00  0.00     0.137 A 
HETATM    5  C7  UNL     1       0.042  -1.448   0.458  1.00  0.00     0.160 A 
HETATM    6  N3  UNL     1      -0.103  -2.759   0.372  1.00  0.00    -0.222 NA
HETATM    7  C18 UNL     1       0.952  -3.521   0.144  1.00  0.00     0.236 A 
HETATM    8  N4  UNL     1       2.129  -2.932   0.008  1.00  0.00    -0.237 NA
HETATM    9  C19 UNL     1       2.351  -1.629   0.081  1.00  0.00     0.127 A 
HETATM   10  C20 UNL     1       3.649  -1.167  -0.085  1.00  0.00     0.138 A 
ENDROOT
BRANCH   5  11
HETATM   11  N2  UNL     1      -0.991  -0.397   0.756  1.00  0.00    -0.337 N 
HETATM   12  C8  UNL     1      -1.725   0.421   1.890  1.00  0.00     0.058 A 
HETATM   13  C9  UNL     1      -3.091   0.797   2.158  1.00  0.00     0.045 C 
HETATM   14  C17 UNL     1      -2.855  -0.218   1.411  1.00  0.00     0.083 A 
HETATM   15  C16 UNL     1      -2.102   0.973   0.684  1.00  0.00     0.062 A 
HETATM   16  C10 UNL     1      -4.028   1.034   0.995  1.00  0.00     0.122 C 
HETATM   17  C12 UNL     1      -4.054   1.022  -0.697  1.00  0.00     0.080 C 
HETATM   18  C14 UNL     1      -2.626   1.363  -1.102  1.00  0.00     0.043 C 
HETATM   19  C15 UNL     1      -1.649   0.370  -0.373  1.00  0.00     0.091 A 
BRANCH  16  20
HETATM   20  O3  UNL     1      -5.262   1.366   1.535  1.00  0.00    -0.377 OA
HETATM   21  C11 UNL     1      -6.328   0.472   1.577  1.00  0.00     0.203 C 
ENDBRANCH  16  20
BRANCH  17  22
HETATM   22  O4  UNL     1      -5.251   0.737  -1.309  1.00  0.00    -0.357 OA
HETATM   23  C13 UNL     1      -5.299  -0.432  -2.113  1.00  0.00     0.209 C 
ENDBRANCH  17  22
ENDBRANCH   5  11
BRANCH   2  24
HETATM   24  O2  UNL     1       2.989   2.347   0.308  1.00  0.00    -0.337 OA
HETATM   25  C5  UNL     1       1.935   3.246   0.547  1.00  0.00     0.212 C 
ENDBRANCH   2  24
BRANCH  10  26
HETATM   26  O5  UNL     1       4.740  -1.997  -0.325  1.00  0.00    -0.351 OA
HETATM   27  C21 UNL     1       5.429  -2.476   0.819  1.00  0.00     0.210 C 
ENDBRANCH  10  26
BRANCH   1  28
HETATM   28  O1  UNL     1       5.133   0.730  -0.162  1.00  0.00    -0.316 OA
BRANCH  28  29
HETATM   29  C2  UNL     1       5.656   1.131  -1.371  1.00  0.00     0.132 C 
HETATM   30  C1  UNL     1       6.437   0.535  -2.233  1.00  0.00     0.037 C 
ENDBRANCH  28  29
ENDBRANCH   1  28
TORSDOF 7
