REMARK  7 active torsions:
REMARK  status: ('A' for Active; 'I' for Inactive)
REMARK    1  A    between atoms: O1_2  and  C2_3 
REMARK    2  A    between atoms: C2_3  and  O2_4 
REMARK    3  A    between atoms: O2_4  and  C3_5 
REMARK    4  A    between atoms: C6_8  and  O3_9 
REMARK    5  A    between atoms: C8_11  and  O4_12 
REMARK    6  A    between atoms: N1_16  and  C12_17 
REMARK    7  A    between atoms: C15_22  and  O5_23 
ROOT
HETATM    1  C3  UNL     1      -0.397  -1.000  -0.899  1.00  0.00     0.230 C 
HETATM    2  C4  UNL     1      -0.324   0.479  -1.316  1.00  0.00     0.084 C 
HETATM    3  C5  UNL     1      -1.247   1.228  -0.428  1.00  0.00     0.017 C 
HETATM    4  C6  UNL     1      -1.909   1.122   0.717  1.00  0.00     0.097 C 
HETATM    5  C8  UNL     1      -1.981   0.021   1.704  1.00  0.00     0.099 C 
HETATM    6  C10 UNL     1      -1.244  -1.031   1.998  1.00  0.00     0.032 C 
HETATM    7  C11 UNL     1       0.003  -1.689   1.549  1.00  0.00     0.157 C 
HETATM    8  N1  UNL     1       0.435  -1.181   0.264  1.00  0.00    -0.338 N 
ENDROOT
BRANCH   8   9
HETATM    9  C12 UNL     1       1.699  -0.759  -0.158  1.00  0.00     0.117 C 
HETATM   10  N2  UNL     1       2.270  -1.512  -1.122  1.00  0.00    -0.228 NA
HETATM   11  C13 UNL     1       3.601  -1.172  -1.657  1.00  0.00     0.235 C 
HETATM   12  N3  UNL     1       4.523  -0.341  -1.299  1.00  0.00    -0.243 NA
HETATM   13  C14 UNL     1       4.672   0.603  -0.254  1.00  0.00     0.072 C 
HETATM   14  C15 UNL     1       4.877   1.507   0.737  1.00  0.00     0.083 C 
HETATM   15  C19 UNL     1       3.653   0.163   0.635  1.00  0.00     0.076 A 
HETATM   16  C17 UNL     1       3.354   1.524   0.817  1.00  0.00     0.053 A 
HETATM   17  C18 UNL     1       2.336   0.487   0.385  1.00  0.00     0.063 A 
BRANCH  14  18
HETATM   18  O5  UNL     1       5.301   2.365   1.640  1.00  0.00    -0.357 OA
HETATM   19  C16 UNL     1       6.098   3.521   1.365  1.00  0.00     0.209 C 
ENDBRANCH  14  18
ENDBRANCH   8   9
BRANCH   1  20
HETATM   20  O2  UNL     1      -1.724  -1.331  -0.733  1.00  0.00    -0.342 OA
BRANCH  20  21
HETATM   21  C2  UNL     1      -2.252  -2.116  -1.744  1.00  0.00     0.339 C 
BRANCH  21  22
HETATM   22  O1  UNL     1      -2.173  -1.442  -2.969  1.00  0.00    -0.372 OA
HETATM   23  C1  UNL     1      -2.683  -2.182  -4.006  1.00  0.00     0.204 C 
ENDBRANCH  21  22
ENDBRANCH  20  21
ENDBRANCH   1  20
BRANCH   5  24
HETATM   24  O4  UNL     1      -3.140   0.261   2.432  1.00  0.00    -0.353 OA
HETATM   25  C9  UNL     1      -3.781  -0.654   3.270  1.00  0.00     0.210 C 
ENDBRANCH   5  24
BRANCH   4  26
HETATM   26  O3  UNL     1      -2.632   2.277   0.957  1.00  0.00    -0.353 OA
HETATM   27  C7  UNL     1      -3.857   2.570   0.311  1.00  0.00     0.210 C 
ENDBRANCH   4  26
TORSDOF 7
