REMARK  6 active torsions:
REMARK  status: ('A' for Active; 'I' for Inactive)
REMARK    1  A    between atoms: C3_3  and  C4_4 
REMARK    2  A    between atoms: C4_4  and  C5_5 
REMARK    3  A    between atoms: C6_6  and  C7_7 
REMARK    4  A    between atoms: C7_7  and  C8_8 
REMARK    5  A    between atoms: N2_11  and  C10_12 
REMARK    6  A    between atoms: C10_12  and  C11_13 
ROOT
HETATM    1  C8  UNL     1      -0.074  -0.785   0.117  1.00  0.00    -0.030 A 
HETATM    2  C9  UNL     1      -1.122  -1.472   0.740  1.00  0.00     0.146 A 
HETATM    3  N1  UNL     1      -2.239  -0.779   1.034  1.00  0.00    -0.181 NA
HETATM    4  N2  UNL     1      -2.342   0.526   0.738  1.00  0.00    -0.231 N 
HETATM    5  C16 UNL     1      -1.353   1.215   0.138  1.00  0.00     0.264 A 
HETATM    6  O1  UNL     1      -1.526   2.438  -0.107  1.00  0.00    -0.267 OA
HETATM    7  C17 UNL     1      -0.185   0.557  -0.186  1.00  0.00     0.085 A 
ENDROOT
BRANCH   1   8
HETATM    8  C7  UNL     1       1.159  -1.592  -0.196  1.00  0.00     0.067 C 
BRANCH   8   9
HETATM    9  C6  UNL     1       2.043  -1.483   0.992  1.00  0.00    -0.026 C 
HETATM   10  C5  UNL     1       3.273  -1.006   1.121  1.00  0.00    -0.027 C 
BRANCH  10  11
HETATM   11  C4  UNL     1       4.063  -0.444   0.006  1.00  0.00     0.053 C 
BRANCH  11  12
HETATM   12  C3  UNL     1       5.329  -1.203  -0.206  1.00  0.00    -0.027 C 
HETATM   13  C2  UNL     1       6.514  -0.614  -0.104  1.00  0.00    -0.035 C 
HETATM   14  C1  UNL     1       6.588   0.829   0.227  1.00  0.00     0.036 C 
ENDBRANCH  11  12
ENDBRANCH  10  11
ENDBRANCH   8   9
ENDBRANCH   1   8
BRANCH   4  15
HETATM   15  C10 UNL     1      -3.605   1.096   1.125  1.00  0.00     0.193 C 
BRANCH  15  16
HETATM   16  C11 UNL     1      -4.646   1.015   0.067  1.00  0.00    -0.035 A 
HETATM   17  C12 UNL     1      -5.424  -0.148   0.108  1.00  0.00     0.028 A 
HETATM   18  C13 UNL     1      -6.433  -0.324  -0.844  1.00  0.00     0.116 A 
HETATM   19  N3  UNL     1      -6.669   0.597  -1.792  1.00  0.00    -0.273 NA
HETATM   20  C14 UNL     1      -5.911   1.714  -1.819  1.00  0.00     0.116 A 
HETATM   21  C15 UNL     1      -4.908   1.958  -0.925  1.00  0.00     0.028 A 
ENDBRANCH  15  16
ENDBRANCH   4  15
TORSDOF 6
