REMARK  7 active torsions:
REMARK  status: ('A' for Active; 'I' for Inactive)
REMARK    1  A    between atoms: N1_3  and  C3_4 
REMARK    2  A    between atoms: C4_5  and  N2_6 
REMARK    3  A    between atoms: C4_5  and  C7_9 
REMARK    4  A    between atoms: N2_6  and  C5_7 
REMARK    5  A    between atoms: C8_10  and  C9_11 
REMARK    6  A    between atoms: C15_18  and  O2_19 
REMARK    7  A    between atoms: N3_21  and  O3_22 
ROOT
HETATM    1  C7  UNL     1       0.117   1.072  -0.184  1.00  0.00     0.121 A 
HETATM    2  C8  UNL     1      -1.184   0.921   0.056  1.00  0.00     0.107 A 
HETATM    3  N3  UNL     1      -0.790   2.118  -0.597  1.00  0.00    -0.215 N 
ENDROOT
BRANCH   2   4
HETATM    4  C9  UNL     1      -2.342   0.197   0.564  1.00  0.00     0.029 C 
HETATM    5  C10 UNL     1      -3.509   0.822   0.402  1.00  0.00     0.018 C 
HETATM    6  C11 UNL     1      -4.917   0.594   0.696  1.00  0.00     0.025 C 
HETATM    7  C12 UNL     1      -5.477  -0.334   1.479  1.00  0.00     0.135 C 
HETATM    8  O1  UNL     1      -5.014  -1.379   2.275  1.00  0.00    -0.359 OA
HETATM    9  C13 UNL     1      -3.816  -1.621   2.995  1.00  0.00     0.204 C 
HETATM   10  C14 UNL     1      -2.633  -1.813   2.132  1.00  0.00     0.037 C 
HETATM   11  C15 UNL     1      -2.037  -1.097   1.162  1.00  0.00     0.079 C 
BRANCH  11  12
HETATM   12  O2  UNL     1      -0.906  -1.619   0.559  1.00  0.00    -0.355 OA
HETATM   13  C16 UNL     1      -0.655  -2.984   0.381  1.00  0.00     0.210 C 
ENDBRANCH  11  12
ENDBRANCH   2   4
BRANCH   1  14
HETATM   14  C4  UNL     1       1.534   0.773  -0.212  1.00  0.00     0.077 C 
HETATM   15  C3  UNL     1       2.008  -0.347   0.291  1.00  0.00     0.147 C 
BRANCH  15  16
HETATM   16  N1  UNL     1       3.300  -0.898   0.406  1.00  0.00    -0.275 NA
HETATM   17  C2  UNL     1       4.313  -0.253   0.841  1.00  0.00     0.085 C 
HETATM   18  C1  UNL     1       5.577  -1.024   0.880  1.00  0.00     0.057 C 
ENDBRANCH  15  16
BRANCH  14  19
HETATM   19  N2  UNL     1       2.532   1.614  -0.760  1.00  0.00    -0.387 N 
HETATM   20  H6  UNL     1       3.074   2.233  -0.107  1.00  0.00     0.159 HD
BRANCH  19  21
HETATM   21  C5  UNL     1       2.698   1.523  -2.210  1.00  0.00     0.115 C 
HETATM   22  C6  UNL     1       3.270   0.164  -2.562  1.00  0.00     0.026 C 
ENDBRANCH  19  21
ENDBRANCH  14  19
ENDBRANCH   1  14
BRANCH   3  23
HETATM   23  O3  UNL     1      -1.089   3.328  -1.168  1.00  0.00    -0.277 OA
HETATM   24  C17 UNL     1      -1.530   3.052  -2.459  1.00  0.00     0.238 C 
ENDBRANCH   3  23
TORSDOF 7
