REMARK  4 active torsions:
REMARK  status: ('A' for Active; 'I' for Inactive)
REMARK       I    between atoms: C1_2  and  N1_3 
REMARK    1  A    between atoms: C1_2  and  C8_11 
REMARK    2  A    between atoms: N1_3  and  C2_4 
REMARK    3  A    between atoms: C2_4  and  C3_5 
REMARK    4  A    between atoms: C10_15  and  C11_16 
ROOT
HETATM    1  C8  UNL     1      -0.526  -0.856  -1.678  1.00  0.00     0.160 A 
HETATM    2  N3  UNL     1      -0.360  -1.657  -2.774  1.00  0.00    -0.228 NA
HETATM    3  C9  UNL     1      -1.520  -2.301  -2.895  1.00  0.00     0.259 A 
HETATM    4  O2  UNL     1      -2.326  -1.934  -1.962  1.00  0.00    -0.301 OA
HETATM    5  C10 UNL     1      -1.768  -1.048  -1.182  1.00  0.00     0.121 A 
ENDROOT
BRANCH   1   6
HETATM    6  C1  UNL     1       0.432   0.086  -1.139  1.00  0.00     0.273 C 
HETATM    7  O1  UNL     1       0.719   0.986  -0.326  1.00  0.00    -0.266 OA
HETATM    8  N1  UNL     1       1.731   0.070  -1.773  1.00  0.00    -0.351 N 
HETATM    9  H1  UNL     1       1.956  -0.604  -2.591  1.00  0.00     0.163 HD
BRANCH   8  10
HETATM   10  C2  UNL     1       2.842   0.923  -1.395  1.00  0.00     0.161 C 
BRANCH  10  11
HETATM   11  C3  UNL     1       3.575   0.512  -0.203  1.00  0.00    -0.038 A 
HETATM   12  C4  UNL     1       3.475   0.868   1.121  1.00  0.00     0.028 A 
HETATM   13  C5  UNL     1       4.252   0.361   2.137  1.00  0.00     0.116 A 
HETATM   14  N2  UNL     1       5.201  -0.570   1.821  1.00  0.00    -0.273 NA
HETATM   15  C6  UNL     1       5.352  -0.966   0.523  1.00  0.00     0.116 A 
HETATM   16  C7  UNL     1       4.559  -0.444  -0.489  1.00  0.00     0.028 A 
ENDBRANCH  10  11
ENDBRANCH   8  10
ENDBRANCH   1   6
BRANCH   5  17
HETATM   17  C11 UNL     1      -2.513  -0.515  -0.057  1.00  0.00     0.000 C 
HETATM   18  C12 UNL     1      -3.832  -0.794  -0.009  1.00  0.00     0.014 C 
HETATM   19  C13 UNL     1      -4.888  -0.431   0.957  1.00  0.00    -0.003 C 
HETATM   20  C14 UNL     1      -4.765   0.720   1.643  1.00  0.00    -0.023 C 
HETATM   21  C15 UNL     1      -3.733   1.795   1.654  1.00  0.00     0.054 C 
HETATM   22  C16 UNL     1      -2.361   1.229   1.809  1.00  0.00    -0.022 C 
HETATM   23  C17 UNL     1      -1.909   0.237   1.037  1.00  0.00     0.010 C 
ENDBRANCH   5  17
TORSDOF 4
