REMARK  4 active torsions:
REMARK  status: ('A' for Active; 'I' for Inactive)
REMARK    1  A    between atoms: C2_2  and  C3_3 
REMARK    2  A    between atoms: C3_3  and  C4_4 
REMARK    3  A    between atoms: N2_14  and  C10_15 
REMARK    4  A    between atoms: C10_15  and  C11_16 
ROOT
HETATM    1  C4  UNL     1      -1.483   0.624  -0.100  1.00  0.00     0.038 C 
HETATM    2  C5  UNL     1      -2.215   0.301   0.982  1.00  0.00     0.170 C 
HETATM    3  O1  UNL     1      -2.307  -0.884   1.740  1.00  0.00    -0.296 OA
HETATM    4  C6  UNL     1      -2.231  -2.180   1.188  1.00  0.00     0.226 A 
HETATM    5  O2  UNL     1      -2.752  -3.261   1.698  1.00  0.00    -0.279 OA
HETATM    6  C7  UNL     1      -2.491  -4.284   0.929  1.00  0.00     0.262 A 
HETATM    7  N1  UNL     1      -1.762  -3.866  -0.146  1.00  0.00    -0.226 NA
HETATM    8  C8  UNL     1      -1.588  -2.550  -0.003  1.00  0.00     0.185 A 
HETATM    9  C9  UNL     1      -0.855  -1.660  -0.932  1.00  0.00     0.282 C 
HETATM   10  O3  UNL     1      -0.410  -2.231  -1.986  1.00  0.00    -0.265 OA
HETATM   11  N2  UNL     1      -0.593  -0.240  -0.778  1.00  0.00    -0.310 N 
ENDROOT
BRANCH  11  12
HETATM   12  C10 UNL     1       0.603   0.210  -1.373  1.00  0.00     0.171 C 
BRANCH  12  13
HETATM   13  C11 UNL     1       1.822   0.034  -0.501  1.00  0.00    -0.037 A 
HETATM   14  C12 UNL     1       2.382   0.883   0.423  1.00  0.00     0.028 A 
HETATM   15  C13 UNL     1       3.503   0.559   1.133  1.00  0.00     0.116 A 
HETATM   16  N3  UNL     1       4.140  -0.605   0.984  1.00  0.00    -0.273 NA
HETATM   17  C14 UNL     1       3.674  -1.505   0.105  1.00  0.00     0.116 A 
HETATM   18  C15 UNL     1       2.544  -1.166  -0.604  1.00  0.00     0.028 A 
ENDBRANCH  12  13
ENDBRANCH  11  12
BRANCH   1  19
HETATM   19  C3  UNL     1      -1.635   1.977  -0.648  1.00  0.00     0.064 C 
BRANCH  19  20
HETATM   20  C2  UNL     1      -0.462   2.858  -0.590  1.00  0.00    -0.004 C 
HETATM   21  C1  UNL     1      -0.440   4.040   0.063  1.00  0.00     0.006 C 
ENDBRANCH  19  20
ENDBRANCH   1  19
TORSDOF 4
