REMARK  5 active torsions:
REMARK  status: ('A' for Active; 'I' for Inactive)
REMARK    1  A    between atoms: C2_2  and  C3_3 
REMARK       I    between atoms: C3_3  and  N1_5 
REMARK    2  A    between atoms: N1_5  and  C4_6 
REMARK    3  A    between atoms: C8_10  and  O2_11 
REMARK    4  A    between atoms: O2_11  and  C9_12 
REMARK    5  A    between atoms: C10_14  and  C11_15 
ROOT
HETATM    1  C9  UNL     1       0.575   0.558  -0.937  1.00  0.00     0.195 A 
HETATM    2  N2  UNL     1      -0.650   0.050  -1.130  1.00  0.00    -0.203 NA
HETATM    3  C10 UNL     1      -1.787   0.538  -0.636  1.00  0.00     0.160 A 
HETATM    4  N5  UNL     1      -1.663   1.637   0.120  1.00  0.00    -0.239 NA
HETATM    5  C19 UNL     1      -0.471   2.211   0.364  1.00  0.00     0.147 A 
HETATM    6  C20 UNL     1       0.681   1.673  -0.168  1.00  0.00     0.104 A 
HETATM    7 CL1  UNL     1       2.275   2.340   0.088  1.00  0.00    -0.078 Cl
ENDROOT
BRANCH   1   8
HETATM    8  O2  UNL     1       1.597  -0.115  -1.546  1.00  0.00    -0.290 OA
BRANCH   8   9
HETATM    9  C8  UNL     1       2.932   0.181  -1.516  1.00  0.00     0.080 A 
HETATM   10  C7  UNL     1       3.428   1.018  -2.494  1.00  0.00     0.037 A 
HETATM   11  C6  UNL     1       4.774   1.311  -2.457  1.00  0.00     0.005 A 
HETATM   12  C5  UNL     1       5.596   0.791  -1.484  1.00  0.00     0.029 A 
HETATM   13  C4  UNL     1       5.136  -0.047  -0.494  1.00  0.00     0.037 A 
HETATM   14  C21 UNL     1       3.791  -0.305  -0.577  1.00  0.00     0.066 A 
BRANCH  13  15
HETATM   15  N1  UNL     1       6.040  -0.544   0.475  1.00  0.00    -0.324 N 
HETATM   16  C3  UNL     1       5.823  -1.403   1.572  1.00  0.00     0.241 C 
HETATM   17  O1  UNL     1       4.657  -1.824   1.767  1.00  0.00    -0.269 OA
HETATM   18  H4  UNL     1       7.044  -0.249   0.399  1.00  0.00     0.169 HD
BRANCH  16  19
HETATM   19  C2  UNL     1       6.887  -1.815   2.478  1.00  0.00     0.048 C 
HETATM   20  C1  UNL     1       8.107  -1.386   2.289  1.00  0.00     0.037 C 
ENDBRANCH  16  19
ENDBRANCH  13  15
ENDBRANCH   8   9
ENDBRANCH   1   8
BRANCH   3  21
HETATM   21  C11 UNL     1      -3.085  -0.114  -0.920  1.00  0.00     0.014 A 
HETATM   22  C12 UNL     1      -3.034  -1.193  -1.685  1.00  0.00     0.014 A 
HETATM   23  C13 UNL     1      -4.316  -1.831  -1.963  1.00  0.00     0.018 A 
HETATM   24  C14 UNL     1      -5.484  -1.406  -1.509  1.00  0.00     0.086 A 
HETATM   25  N3  UNL     1      -5.448  -0.240  -0.695  1.00  0.00    -0.378 N 
HETATM   26  C15 UNL     1      -6.747   0.233  -0.196  1.00  0.00     0.153 C 
HETATM   27  C18 UNL     1      -4.279   0.527  -0.310  1.00  0.00     0.148 A 
HETATM   28  C16 UNL     1      -6.594   0.391   1.302  1.00  0.00     0.289 C 
HETATM   29  N4  UNL     1      -5.361  -0.171   1.784  1.00  0.00     0.087 N 
HETATM   30  C17 UNL     1      -4.204   0.465   1.214  1.00  0.00     0.299 C 
HETATM   31  H15 UNL     1      -5.375  -1.201   1.735  1.00  0.00     0.316 HD
ENDBRANCH   3  21
TORSDOF 5
