REMARK  4 active torsions:
REMARK  status: ('A' for Active; 'I' for Inactive)
REMARK    1  A    between atoms: O1_2  and  C2_3 
REMARK    2  A    between atoms: C5_6  and  C6_7 
REMARK    3  A    between atoms: C8_11  and  C9_12 
REMARK    4  A    between atoms: C10_14  and  C11_15 
ROOT
HETATM    1  C6  UNL     1       0.917  -0.849  -1.645  1.00  0.00     0.118 A 
HETATM    2  O2  UNL     1       1.344  -1.421  -2.732  1.00  0.00    -0.301 OA
HETATM    3  C7  UNL     1       0.427  -1.673  -3.594  1.00  0.00     0.259 A 
HETATM    4  N1  UNL     1      -0.690  -1.239  -3.047  1.00  0.00    -0.231 NA
HETATM    5  C8  UNL     1      -0.432  -0.723  -1.842  1.00  0.00     0.125 A 
ENDROOT
BRANCH   5   6
HETATM    6  C9  UNL     1      -1.383  -0.156  -0.951  1.00  0.00     0.104 A 
HETATM    7  O3  UNL     1      -2.076   0.356  -0.087  1.00  0.00    -0.342 OA
HETATM    8  C10 UNL     1      -2.814  -0.129  -1.392  1.00  0.00     0.248 A 
BRANCH   8   9
HETATM    9  C11 UNL     1      -3.726   0.446  -0.408  1.00  0.00    -0.028 A 
HETATM   10  C12 UNL     1      -4.323  -0.388   0.537  1.00  0.00     0.029 A 
HETATM   11  C13 UNL     1      -5.202   0.070   1.508  1.00  0.00     0.117 A 
HETATM   12  N2  UNL     1      -5.502   1.380   1.551  1.00  0.00    -0.273 NA
HETATM   13  C14 UNL     1      -4.954   2.226   0.664  1.00  0.00     0.117 A 
HETATM   14  C15 UNL     1      -4.075   1.773  -0.308  1.00  0.00     0.029 A 
ENDBRANCH   8   9
ENDBRANCH   5   6
BRANCH   1  15
HETATM   15  C5  UNL     1       1.792  -0.485  -0.554  1.00  0.00     0.000 A 
HETATM   16  C4  UNL     1       1.432   0.118   0.622  1.00  0.00     0.017 A 
HETATM   17  C3  UNL     1       2.303   0.447   1.637  1.00  0.00     0.037 A 
HETATM   18  C2  UNL     1       3.648   0.173   1.514  1.00  0.00     0.068 A 
HETATM   19  C17 UNL     1       4.049  -0.426   0.359  1.00  0.00     0.037 A 
HETATM   20  C16 UNL     1       3.146  -0.740  -0.631  1.00  0.00     0.017 A 
BRANCH  18  21
HETATM   21  O1  UNL     1       4.519   0.496   2.513  1.00  0.00    -0.356 OA
HETATM   22  C1  UNL     1       5.896   0.290   2.549  1.00  0.00     0.210 C 
ENDBRANCH  18  21
ENDBRANCH   1  15
TORSDOF 4
