REMARK  5 active torsions:
REMARK  status: ('A' for Active; 'I' for Inactive)
REMARK    1  A    between atoms: C5_7  and  C6_8 
REMARK    2  A    between atoms: C6_8  and  N2_9 
REMARK       I    between atoms: N2_9  and  C7_10 
REMARK    3  A    between atoms: C7_10  and  C8_12 
REMARK    4  A    between atoms: C10_16  and  C11_17 
REMARK    5  A    between atoms: C14_20  and  O3_21 
ROOT
HETATM    1  C8  UNL     1       0.104   1.058  -0.868  1.00  0.00     0.160 A 
HETATM    2  N3  UNL     1      -0.626   1.938  -1.601  1.00  0.00    -0.228 NA
HETATM    3  C9  UNL     1       0.233   2.697  -2.266  1.00  0.00     0.259 A 
HETATM    4  O2  UNL     1       1.419   2.298  -1.952  1.00  0.00    -0.301 OA
HETATM    5  C10 UNL     1       1.427   1.306  -1.108  1.00  0.00     0.121 A 
ENDROOT
BRANCH   1   6
HETATM    6  C7  UNL     1      -0.358   0.020   0.029  1.00  0.00     0.273 C 
HETATM    7  N2  UNL     1      -1.805  -0.035   0.089  1.00  0.00    -0.352 N 
HETATM    8  H8  UNL     1      -2.465   0.623  -0.470  1.00  0.00     0.163 HD
HETATM    9  O1  UNL     1      -0.313  -0.925   0.839  1.00  0.00    -0.266 OA
BRANCH   7  10
HETATM   10  C6  UNL     1      -2.450  -1.020   0.940  1.00  0.00     0.146 C 
BRANCH  10  11
HETATM   11  C5  UNL     1      -3.904  -0.852   0.820  1.00  0.00    -0.086 A 
HETATM   12  C2  UNL     1      -4.581  -1.029  -0.443  1.00  0.00     0.026 A 
HETATM   13  C1  UNL     1      -3.976  -1.342  -1.557  1.00  0.00     0.064 C 
HETATM   14  N1  UNL     1      -5.963  -0.882  -0.604  1.00  0.00    -0.271 NA
HETATM   15  C3  UNL     1      -6.771  -0.573   0.356  1.00  0.00     0.080 A 
HETATM   16  C4  UNL     1      -6.622  -0.283   1.816  1.00  0.00    -0.006 A 
HETATM   17  B1  UNL     1      -4.877  -0.419   2.261  1.00  0.00     0.187 B 
ENDBRANCH  10  11
ENDBRANCH   7  10
ENDBRANCH   1   6
BRANCH   5  18
HETATM   18  C11 UNL     1       2.689   0.776  -0.685  1.00  0.00     0.001 A 
HETATM   19  C12 UNL     1       3.868   1.331  -1.166  1.00  0.00     0.017 A 
HETATM   20  C13 UNL     1       5.126   0.885  -0.818  1.00  0.00     0.037 A 
HETATM   21  C14 UNL     1       5.298  -0.165   0.052  1.00  0.00     0.068 A 
HETATM   22  C16 UNL     1       4.160  -0.750   0.557  1.00  0.00     0.037 A 
HETATM   23  C17 UNL     1       2.940  -0.256   0.168  1.00  0.00     0.017 A 
BRANCH  21  24
HETATM   24  O3  UNL     1       6.584  -0.570   0.366  1.00  0.00    -0.356 OA
HETATM   25  C15 UNL     1       6.747  -1.660   1.266  1.00  0.00     0.210 C 
ENDBRANCH  21  24
ENDBRANCH   5  18
TORSDOF 5
