REMARK  6 active torsions:
REMARK  status: ('A' for Active; 'I' for Inactive)
REMARK    1  A    between atoms: O1_2  and  C2_3 
REMARK    2  A    between atoms: C4_5  and  N1_6 
REMARK    3  A    between atoms: C12_15  and  N3_16 
REMARK    4  A    between atoms: N3_16  and  C13_17 
REMARK    5  A    between atoms: C16_22  and  O2_23 
REMARK    6  A    between atoms: O2_23  and  C17_24 
ROOT
HETATM    1  N3  UNL     1      -1.394   0.194  -0.413  1.00  0.00    -0.185 N 
HETATM    2  H18 UNL     1      -1.885  -0.317   0.357  1.00  0.00     0.184 HD
ENDROOT
BRANCH   1   3
HETATM    3  C12 UNL     1       0.016   0.025  -0.410  1.00  0.00     0.082 A 
HETATM    4  C2  UNL     1       0.640  -0.759   0.558  1.00  0.00     0.097 A 
HETATM    5  C3  UNL     1       1.999  -0.951   0.602  1.00  0.00     0.068 A 
HETATM    6  C4  UNL     1       2.833  -0.370  -0.325  1.00  0.00     0.033 A 
HETATM    7  C10 UNL     1       2.258   0.409  -1.294  1.00  0.00     0.032 A 
HETATM    8  C11 UNL     1       0.903   0.579  -1.308  1.00  0.00     0.035 A 
BRANCH   4   9
HETATM    9  O1  UNL     1      -0.147  -1.388   1.542  1.00  0.00    -0.354 OA
HETATM   10  C1  UNL     1       0.416  -2.194   2.551  1.00  0.00     0.210 C 
ENDBRANCH   4   9
BRANCH   6  11
HETATM   11  N1  UNL     1       4.237  -0.540  -0.318  1.00  0.00    -0.377 N 
HETATM   12  C5  UNL     1       5.074   0.107  -1.296  1.00  0.00     0.153 C 
HETATM   13  C6  UNL     1       6.544  -0.048  -0.982  1.00  0.00     0.291 C 
HETATM   14  N2  UNL     1       6.849   0.260   0.396  1.00  0.00     0.087 N 
HETATM   15  C7  UNL     1       8.200  -0.179   0.684  1.00  0.00     0.310 C 
HETATM   16  C8  UNL     1       5.962  -0.407   1.324  1.00  0.00     0.291 C 
HETATM   17  C9  UNL     1       5.004  -1.340   0.614  1.00  0.00     0.153 C 
ENDBRANCH   6  11
ENDBRANCH   1   3
BRANCH   1  18
HETATM   18  C13 UNL     1      -2.189   0.954  -1.313  1.00  0.00     0.729 A 
HETATM   19  N4  UNL     1      -1.720   1.659  -2.341  1.00  0.00    -0.073 NA
HETATM   20  C14 UNL     1      -2.435   2.385  -3.206  1.00  0.00     0.164 A 
HETATM   21  C15 UNL     1      -3.798   2.406  -3.017  1.00  0.00     0.105 A 
HETATM   22 CL1  UNL     1      -4.784   3.334  -4.112  1.00  0.00    -0.078 Cl
HETATM   23  C16 UNL     1      -4.276   1.680  -1.959  1.00  0.00     0.212 A 
HETATM   24  N5  UNL     1      -3.517   0.966  -1.117  1.00  0.00    -0.036 NA
BRANCH  23  25
HETATM   25  O2  UNL     1      -5.669   1.694  -1.757  1.00  0.00    -0.290 OA
BRANCH  25  26
HETATM   26  C17 UNL     1      -6.239   0.983  -0.706  1.00  0.00     0.074 A 
HETATM   27  C18 UNL     1      -6.468  -0.287  -0.397  1.00  0.00     0.018 A 
HETATM   28  C19 UNL     1      -7.136  -0.401   0.921  1.00  0.00     0.029 A 
HETATM   29  C20 UNL     1      -8.505  -1.028   0.816  1.00  0.00     0.018 C 
HETATM   30  C21 UNL     1      -7.265   1.024   1.343  1.00  0.00    -0.016 A 
HETATM   31  C22 UNL     1      -6.741   1.806   0.392  1.00  0.00     0.034 A 
ENDBRANCH  25  26
ENDBRANCH  23  25
ENDBRANCH   1  18
TORSDOF 6
