REMARK  1 active torsions:
REMARK  status: ('A' for Active; 'I' for Inactive)
REMARK    1  A    between atoms: O1_2  and  C2_3 
ROOT
HETATM    1  C2  UNL     1      -2.880  -0.141  -1.068  1.00  0.00     0.056 C 
HETATM    2  C3  UNL     1      -3.474  -1.275  -0.728  1.00  0.00     0.033 C 
HETATM    3  C4  UNL     1      -3.649  -2.567  -0.087  1.00  0.00    -0.001 C 
HETATM    4  C5  UNL     1      -2.657  -3.218   0.570  1.00  0.00    -0.021 C 
HETATM    5  C6  UNL     1      -1.246  -3.373   1.043  1.00  0.00     0.022 C 
HETATM    6  C7  UNL     1      -0.036  -2.793   0.894  1.00  0.00     0.015 C 
HETATM    7  C8  UNL     1       0.944  -1.820   0.362  1.00  0.00     0.123 C 
HETATM    8  N1  UNL     1       1.463  -0.821   1.198  1.00  0.00    -0.184 NA
HETATM    9  C9  UNL     1       2.649  -0.241   0.735  1.00  0.00     0.264 C 
HETATM   10  N2  UNL     1       3.863  -0.895   0.448  1.00  0.00    -0.284 NA
HETATM   11  C10 UNL     1       4.811   0.018   0.298  1.00  0.00     0.131 C 
HETATM   12  C11 UNL     1       4.205   1.361   0.494  1.00  0.00     0.302 C 
HETATM   13  N3  UNL     1       3.806   2.563   0.640  1.00  0.00    -0.394 NA
HETATM   14  C12 UNL     1       2.466   3.011   0.930  1.00  0.00     0.103 C 
HETATM   15  C13 UNL     1       1.262   2.668   1.382  1.00  0.00     0.185 C 
HETATM   16  O2  UNL     1       0.982   1.374   1.799  1.00  0.00    -0.231 OA
HETATM   17  N4  UNL     1       0.611   0.382   0.863  1.00  0.00    -0.190 N 
HETATM   18  C14 UNL     1      -0.415   0.773  -0.086  1.00  0.00     0.123 C 
HETATM   19  C15 UNL     1      -1.574   0.178  -0.437  1.00  0.00     0.100 C 
ENDROOT
BRANCH   1  20
HETATM   20  O1  UNL     1      -3.590   0.703  -1.979  1.00  0.00    -0.359 OA
HETATM   21  C1  UNL     1      -3.800   2.046  -1.595  1.00  0.00     0.209 C 
ENDBRANCH   1  20
TORSDOF 1
