REMARK  4 active torsions:
REMARK  status: ('A' for Active; 'I' for Inactive)
REMARK    1  A    between atoms: N1_2  and  C3_4 
REMARK    2  A    between atoms: C3_4  and  C4_5 
REMARK    3  A    between atoms: C5_6  and  C6_7 
REMARK       I    between atoms: C6_7  and  N2_9 
REMARK    4  A    between atoms: N2_9  and  C7_10 
ROOT
HETATM    1  C7  UNL     1      -0.077   0.010  -1.393  1.00  0.00     0.052 A 
HETATM    2  C8  UNL     1      -1.029  -0.860  -1.687  1.00  0.00     0.143 A 
HETATM    3  N3  UNL     1      -2.420  -0.515  -1.469  1.00  0.00    -0.267 N 
HETATM    4  N4  UNL     1      -3.353  -1.518  -1.690  1.00  0.00    -0.187 NA
HETATM    5  C9  UNL     1      -4.263  -1.947  -0.882  1.00  0.00     0.136 C 
HETATM    6  C10 UNL     1      -4.680  -1.599   0.507  1.00  0.00     0.168 C 
HETATM    7  C11 UNL     1      -3.645  -2.098   1.444  1.00  0.00     0.074 C 
HETATM    8  N5  UNL     1      -2.835  -2.486   2.185  1.00  0.00    -0.196 NA
HETATM    9  C12 UNL     1      -4.707  -0.143   0.646  1.00  0.00    -0.027 A 
HETATM   10  C13 UNL     1      -5.667   0.160   1.591  1.00  0.00     0.009 A 
HETATM   11  C14 UNL     1      -5.896   1.492   1.904  1.00  0.00     0.001 A 
HETATM   12  C15 UNL     1      -5.141   2.459   1.243  1.00  0.00     0.001 A 
HETATM   13  C16 UNL     1      -4.189   2.109   0.301  1.00  0.00     0.010 A 
HETATM   14  C17 UNL     1      -3.939   0.778  -0.031  1.00  0.00    -0.022 A 
HETATM   15  C18 UNL     1      -2.896   0.774  -1.043  1.00  0.00     0.166 A 
HETATM   16  C19 UNL     1      -1.719   1.627  -0.751  1.00  0.00     0.007 A 
HETATM   17  C20 UNL     1      -0.442   1.335  -0.891  1.00  0.00     0.029 A 
ENDROOT
BRANCH   1  18
HETATM   18  N2  UNL     1       1.249  -0.422  -1.636  1.00  0.00    -0.322 N 
HETATM   19  C6  UNL     1       2.282  -0.543  -0.667  1.00  0.00     0.245 C 
HETATM   20  O1  UNL     1       1.897  -0.217   0.486  1.00  0.00    -0.268 OA
HETATM   21  H11 UNL     1       1.485  -0.678  -2.641  1.00  0.00     0.169 HD
BRANCH  19  22
HETATM   22  C5  UNL     1       3.611  -1.001  -1.046  1.00  0.00     0.072 C 
HETATM   23  C4  UNL     1       4.591  -1.128  -0.192  1.00  0.00     0.008 C 
BRANCH  23  24
HETATM   24  C3  UNL     1       4.754  -0.910   1.248  1.00  0.00     0.299 C 
BRANCH  24  25
HETATM   25  N1  UNL     1       5.789   0.085   1.464  1.00  0.00     0.083 N 
HETATM   26  C1  UNL     1       7.063  -0.467   1.071  1.00  0.00     0.309 C 
HETATM   27  C2  UNL     1       5.523   1.245   0.640  1.00  0.00     0.309 C 
ENDBRANCH  24  25
ENDBRANCH  23  24
ENDBRANCH  19  22
ENDBRANCH   1  18
TORSDOF 4
