REMARK  4 active torsions:
REMARK  status: ('A' for Active; 'I' for Inactive)
REMARK    1  A    between atoms: C6_8  and  N3_9 
REMARK    2  A    between atoms: N3_9  and  C7_10 
REMARK    3  A    between atoms: C14_18  and  N4_19 
REMARK    4  A    between atoms: N4_19  and  C15_20 
ROOT
HETATM    1  N1  UNL     1      -1.833  -3.952   1.131  1.00  0.00    -0.191 NA
HETATM    2  C1  UNL     1      -0.905  -3.328   0.816  1.00  0.00     0.103 C 
HETATM    3  C2  UNL     1       0.264  -2.549   0.443  1.00  0.00     0.089 A 
HETATM    4  C3  UNL     1       1.439  -3.154   0.043  1.00  0.00     0.144 A 
HETATM    5  N2  UNL     1       2.490  -2.373  -0.292  1.00  0.00    -0.239 NA
HETATM    6  C4  UNL     1       2.359  -1.032  -0.225  1.00  0.00     0.159 A 
HETATM    7  C5  UNL     1       1.202  -0.374   0.170  1.00  0.00     0.040 A 
HETATM    8  C6  UNL     1       0.113  -1.175   0.517  1.00  0.00     0.069 A 
HETATM    9  C13 UNL     1       1.462   0.931   0.107  1.00  0.00     0.039 A 
HETATM   10  C14 UNL     1       2.855   1.155  -0.350  1.00  0.00     0.234 A 
HETATM   11  N5  UNL     1       3.316  -0.229  -0.528  1.00  0.00    -0.240 NA
ENDROOT
BRANCH   8  12
HETATM   12  N3  UNL     1      -1.048  -0.487   0.914  1.00  0.00    -0.354 N 
HETATM   13  H2  UNL     1      -0.933  -0.382   1.954  1.00  0.00     0.166 HD
BRANCH  12  14
HETATM   14  C7  UNL     1      -2.151  -0.011   0.188  1.00  0.00     0.033 A 
HETATM   15  C8  UNL     1      -3.159   0.643   0.887  1.00  0.00     0.029 A 
HETATM   16  C9  UNL     1      -4.224   1.092   0.119  1.00  0.00     0.004 A 
HETATM   17  C10 UNL     1      -4.261   0.895  -1.235  1.00  0.00     0.019 A 
HETATM   18  C11 UNL     1      -3.236   0.235  -1.913  1.00  0.00     0.013 A 
HETATM   19 BR1  UNL     1      -3.328  -0.018  -3.798  1.00  0.00    -0.051 Br
HETATM   20  C12 UNL     1      -2.151  -0.230  -1.176  1.00  0.00     0.048 A 
ENDBRANCH  12  14
ENDBRANCH   8  12
BRANCH  10  21
HETATM   21  N4  UNL     1       3.689   1.784   0.649  1.00  0.00    -0.342 N 
HETATM   22  H9  UNL     1       3.542   1.234   1.541  1.00  0.00     0.164 HD
BRANCH  21  23
HETATM   23  C15 UNL     1       4.527   2.917   0.440  1.00  0.00     0.350 C 
HETATM   24  O1  UNL     1       4.421   3.276  -0.756  1.00  0.00    -0.284 OA
ENDBRANCH  21  23
ENDBRANCH  10  21
TORSDOF 4
