REMARK  6 active torsions:
REMARK  status: ('A' for Active; 'I' for Inactive)
REMARK    1  A    between atoms: N1_2  and  C2_3 
REMARK    2  A    between atoms: C2_3  and  C3_4 
REMARK    3  A    between atoms: C4_5  and  C5_6 
REMARK       I    between atoms: C5_6  and  N2_8 
REMARK    4  A    between atoms: N2_8  and  C6_9 
REMARK    5  A    between atoms: C12_18  and  N6_19 
REMARK    6  A    between atoms: N6_19  and  C13_20 
ROOT
HETATM    1  C6  UNL     1       0.860   0.893   0.438  1.00  0.00     0.053 A 
HETATM    2  C7  UNL     1       1.242   1.879   1.334  1.00  0.00     0.148 A 
HETATM    3  N3  UNL     1       0.403   2.819   1.783  1.00  0.00    -0.238 NA
HETATM    4  C8  UNL     1      -0.883   2.888   1.403  1.00  0.00     0.161 A 
HETATM    5  N4  UNL     1      -1.684   3.855   1.886  1.00  0.00    -0.239 NA
HETATM    6  C9  UNL     1      -2.979   3.961   1.533  1.00  0.00     0.144 A 
HETATM    7  C10 UNL     1      -3.444   3.013   0.640  1.00  0.00     0.089 A 
HETATM    8  C11 UNL     1      -4.830   3.113   0.252  1.00  0.00     0.103 C 
HETATM    9  N5  UNL     1      -5.964   3.184  -0.049  1.00  0.00    -0.191 NA
HETATM   10  C12 UNL     1      -2.668   2.004   0.117  1.00  0.00     0.069 A 
HETATM   11  C19 UNL     1      -1.359   1.952   0.515  1.00  0.00     0.042 A 
HETATM   12  C20 UNL     1      -0.464   1.000   0.076  1.00  0.00     0.048 A 
ENDROOT
BRANCH  10  13
HETATM   13  N6  UNL     1      -3.167   1.053  -0.791  1.00  0.00    -0.354 N 
HETATM   14  H12 UNL     1      -3.040   1.396  -1.747  1.00  0.00     0.166 HD
BRANCH  13  15
HETATM   15  C13 UNL     1      -3.760  -0.197  -0.462  1.00  0.00     0.033 A 
HETATM   16  C14 UNL     1      -3.880  -0.561   0.860  1.00  0.00     0.029 A 
HETATM   17  C15 UNL     1      -4.449  -1.762   1.179  1.00  0.00     0.004 A 
HETATM   18  C16 UNL     1      -4.906  -2.616   0.168  1.00  0.00     0.019 A 
HETATM   19  C17 UNL     1      -4.756  -2.193  -1.136  1.00  0.00     0.013 A 
HETATM   20 BR1  UNL     1      -5.360  -3.312  -2.577  1.00  0.00    -0.051 Br
HETATM   21  C18 UNL     1      -4.185  -0.982  -1.506  1.00  0.00     0.048 A 
ENDBRANCH  13  15
ENDBRANCH  10  13
BRANCH   1  22
HETATM   22  N2  UNL     1       1.755  -0.080  -0.017  1.00  0.00    -0.322 N 
HETATM   23  C5  UNL     1       1.683  -1.183  -0.899  1.00  0.00     0.245 C 
HETATM   24  O1  UNL     1       0.507  -1.290  -1.378  1.00  0.00    -0.268 OA
HETATM   25  H9  UNL     1       2.733   0.017   0.388  1.00  0.00     0.169 HD
BRANCH  23  26
HETATM   26  C4  UNL     1       2.801  -2.056  -1.203  1.00  0.00     0.072 C 
HETATM   27  C3  UNL     1       4.097  -2.211  -0.888  1.00  0.00     0.008 C 
BRANCH  27  28
HETATM   28  C2  UNL     1       5.210  -1.689  -0.108  1.00  0.00     0.296 C 
BRANCH  28  29
HETATM   29  N1  UNL     1       6.355  -1.281  -0.915  1.00  0.00     0.082 N 
HETATM   30  C1  UNL     1       7.398  -0.775  -0.048  1.00  0.00     0.307 C 
HETATM   31  H4  UNL     1       6.061  -0.479  -1.521  1.00  0.00     0.315 HD
ENDBRANCH  28  29
ENDBRANCH  27  28
ENDBRANCH  23  26
ENDBRANCH   1  22
TORSDOF 6
