REMARK  6 active torsions:
REMARK  status: ('A' for Active; 'I' for Inactive)
REMARK    1  A    between atoms: C2_2  and  N1_3 
REMARK    2  A    between atoms: N1_3  and  C4_5 
REMARK    3  A    between atoms: C4_5  and  C5_6 
REMARK    4  A    between atoms: C5_6  and  C6_7 
REMARK       I    between atoms: C6_7  and  N2_9 
REMARK    5  A    between atoms: N2_9  and  C7_10 
REMARK    6  A    between atoms: C13_19  and  N6_20 
ROOT
HETATM    1  C7  UNL     1       1.181   1.341   0.505  1.00  0.00     0.053 A 
HETATM    2  C8  UNL     1       1.607   2.642   0.467  1.00  0.00     0.148 A 
HETATM    3  N3  UNL     1       2.901   2.958   0.214  1.00  0.00    -0.238 NA
HETATM    4  C9  UNL     1       3.794   1.979  -0.006  1.00  0.00     0.161 A 
HETATM    5  N4  UNL     1       5.070   2.331  -0.270  1.00  0.00    -0.239 NA
HETATM    6  C10 UNL     1       6.017   1.381  -0.514  1.00  0.00     0.144 A 
HETATM    7  C11 UNL     1       5.660   0.034  -0.489  1.00  0.00     0.090 A 
HETATM    8  C12 UNL     1       6.710  -0.881  -0.759  1.00  0.00     0.103 C 
HETATM    9  N5  UNL     1       7.563  -1.637  -0.963  1.00  0.00    -0.191 NA
HETATM   10  C13 UNL     1       4.356  -0.308  -0.220  1.00  0.00     0.078 A 
HETATM   11  C15 UNL     1       3.415   0.658   0.023  1.00  0.00     0.043 A 
HETATM   12  C16 UNL     1       2.106   0.333   0.280  1.00  0.00     0.048 A 
ENDROOT
BRANCH  10  13
HETATM   13  N6  UNL     1       4.075  -1.699  -0.226  1.00  0.00    -0.291 N 
HETATM   14  C14 UNL     1       4.462  -2.578   0.839  1.00  0.00     0.182 C 
HETATM   15  N7  UNL     1       4.756  -3.276   1.706  1.00  0.00    -0.172 NA
HETATM   16  H14 UNL     1       3.562  -2.206  -1.004  1.00  0.00     0.178 HD
ENDBRANCH  10  13
BRANCH   1  17
HETATM   17  N2  UNL     1      -0.122   0.834   0.772  1.00  0.00    -0.326 N 
HETATM   18  C6  UNL     1      -1.197   0.678  -0.149  1.00  0.00     0.223 C 
HETATM   19  O1  UNL     1      -0.906   1.062  -1.332  1.00  0.00    -0.273 OA
HETATM   20  H11 UNL     1      -0.154   0.590   1.789  1.00  0.00     0.169 HD
BRANCH  18  21
HETATM   21  C5  UNL     1      -2.452   0.095   0.451  1.00  0.00     0.123 C 
BRANCH  21  22
HETATM   22  C4  UNL     1      -3.548   0.119  -0.574  1.00  0.00     0.131 C 
BRANCH  22  23
HETATM   23  N1  UNL     1      -4.726  -0.497   0.023  1.00  0.00    -0.395 N 
HETATM   24  C3  UNL     1      -4.487  -1.924   0.217  1.00  0.00     0.148 C 
BRANCH  23  25
HETATM   25  C2  UNL     1      -6.014  -0.099   0.462  1.00  0.00     0.075 C 
HETATM   26  C1  UNL     1      -7.006   0.038  -0.384  1.00  0.00     0.029 C 
ENDBRANCH  23  25
ENDBRANCH  22  23
ENDBRANCH  21  22
ENDBRANCH  18  21
ENDBRANCH   1  17
TORSDOF 6
