REMARK  1 active torsions:
REMARK  status: ('A' for Active; 'I' for Inactive)
REMARK    1  A    between atoms: C7_9  and  N2_10 
ROOT
HETATM    1  C1  UNL     1      -7.188   1.324  -0.908  1.00  0.00     0.070 C 
HETATM    2  C2  UNL     1      -6.212   0.452  -0.914  1.00  0.00     0.092 A 
HETATM    3  N1  UNL     1      -5.902  -0.822  -1.450  1.00  0.00    -0.231 NA
HETATM    4  C3  UNL     1      -4.715  -1.129  -1.053  1.00  0.00     0.153 A 
HETATM    5  C4  UNL     1      -3.490  -1.965  -0.920  1.00  0.00     0.256 C 
HETATM    6  O1  UNL     1      -2.286  -1.320  -0.859  1.00  0.00    -0.341 OA
HETATM    7  C5  UNL     1      -1.715  -0.426  -0.035  1.00  0.00     0.107 A 
HETATM    8  C6  UNL     1      -0.337  -0.639  -0.187  1.00  0.00     0.069 A 
HETATM    9  C7  UNL     1       0.739   0.015   0.436  1.00  0.00     0.033 A 
HETATM   10  C13 UNL     1       0.336   1.013   1.325  1.00  0.00     0.032 A 
HETATM   11  C14 UNL     1      -1.033   1.259   1.506  1.00  0.00     0.045 A 
HETATM   12  C15 UNL     1      -2.054   0.586   0.869  1.00  0.00     0.140 A 
HETATM   13  O2  UNL     1      -3.201   1.204   1.394  1.00  0.00    -0.188 OA
HETATM   14  O3  UNL     1      -4.251   1.623   0.640  1.00  0.00    -0.169 OA
HETATM   15  C16 UNL     1      -5.044   0.833  -0.158  1.00  0.00     0.227 A 
HETATM   16  N4  UNL     1      -4.213  -0.104  -0.266  1.00  0.00    -0.203 NA
ENDROOT
BRANCH   9  17
HETATM   17  N2  UNL     1       2.108  -0.251   0.227  1.00  0.00    -0.377 N 
HETATM   18  C8  UNL     1       2.590  -1.143  -0.790  1.00  0.00     0.153 C 
HETATM   19  C9  UNL     1       3.948  -0.720  -1.318  1.00  0.00     0.291 C 
HETATM   20  N3  UNL     1       4.922  -0.519  -0.293  1.00  0.00     0.087 N 
HETATM   21  C10 UNL     1       5.669   0.692  -0.570  1.00  0.00     0.310 C 
HETATM   22  C11 UNL     1       4.351  -0.435   1.029  1.00  0.00     0.291 C 
HETATM   23  C12 UNL     1       3.076   0.394   1.078  1.00  0.00     0.153 C 
ENDBRANCH   9  17
TORSDOF 1
