REMARK  4 active torsions:
REMARK  status: ('A' for Active; 'I' for Inactive)
REMARK    1  A    between atoms: C2_2  and  C3_3 
REMARK    2  A    between atoms: C4_4  and  N1_5 
REMARK    3  A    between atoms: N1_5  and  C5_6 
REMARK    4  A    between atoms: C12_15  and  N4_16 
ROOT
HETATM    1  C5  UNL     1      -1.386   0.552  -1.905  1.00  0.00     0.072 A 
HETATM    2  C6  UNL     1      -2.220   0.279  -3.003  1.00  0.00     0.090 A 
HETATM    3  C7  UNL     1      -3.300   1.097  -3.421  1.00  0.00     0.103 C 
HETATM    4  N2  UNL     1      -4.182   1.757  -3.749  1.00  0.00    -0.191 NA
HETATM    5  C8  UNL     1      -1.832  -0.894  -3.601  1.00  0.00     0.144 A 
HETATM    6  N3  UNL     1      -0.797  -1.609  -3.139  1.00  0.00    -0.239 NA
HETATM    7  C9  UNL     1      -0.039  -1.314  -2.101  1.00  0.00     0.157 A 
HETATM    8  C10 UNL     1      -0.320  -0.151  -1.401  1.00  0.00     0.026 A 
HETATM    9  C11 UNL     1       0.019   0.646  -0.401  1.00  0.00     0.072 C 
HETATM   10  C12 UNL     1       0.657   1.249   0.744  1.00  0.00     0.267 C 
HETATM   11  C13 UNL     1       2.164   1.390   0.619  1.00  0.00     0.154 A 
HETATM   12  O1  UNL     1       2.444   0.179   0.507  1.00  0.00    -0.363 OA
HETATM   13  C14 UNL     1       3.594   1.168   0.475  1.00  0.00     0.169 A 
HETATM   14  C15 UNL     1       4.203   0.025   0.370  1.00  0.00     0.044 C 
HETATM   15  C16 UNL     1       4.488  -1.384   0.287  1.00  0.00     0.129 C 
HETATM   16  N5  UNL     1       3.366  -2.296   0.444  1.00  0.00    -0.392 N 
HETATM   17  C17 UNL     1       2.620  -2.655   1.666  1.00  0.00     0.148 C 
HETATM   18  C18 UNL     1       2.781  -2.979  -0.642  1.00  0.00     0.104 C 
HETATM   19  C19 UNL     1       1.781  -2.741  -1.452  1.00  0.00     0.136 C 
HETATM   20  N6  UNL     1       0.708  -2.325  -2.200  1.00  0.00    -0.240 NA
ENDROOT
BRANCH   1  21
HETATM   21  N1  UNL     1      -1.729   1.758  -1.209  1.00  0.00    -0.313 N 
HETATM   22  H6  UNL     1      -1.263   2.650  -1.349  1.00  0.00     0.176 HD
BRANCH  21  23
HETATM   23  C4  UNL     1      -2.813   1.516  -0.312  1.00  0.00     0.011 C 
HETATM   24  C3  UNL     1      -3.752   1.304   0.449  1.00  0.00    -0.084 C 
BRANCH  24  25
HETATM   25  C2  UNL     1      -4.871   1.074   1.342  1.00  0.00     0.091 C 
HETATM   26  C1  UNL     1      -4.892   2.071   2.491  1.00  0.00     0.018 C 
ENDBRANCH  24  25
ENDBRANCH  21  23
ENDBRANCH   1  21
BRANCH  10  27
HETATM   27  N4  UNL     1       0.130   2.599   1.014  1.00  0.00     0.086 N 
HETATM   28  H10 UNL     1      -0.826   2.615   1.362  1.00  0.00     0.313 HD
HETATM   29  H11 UNL     1       0.322   3.284   0.304  1.00  0.00     0.313 HD
ENDBRANCH  10  27
TORSDOF 4
