REMARK  5 active torsions:
REMARK  status: ('A' for Active; 'I' for Inactive)
REMARK    1  A    between atoms: C3_3  and  C4_4 
REMARK    2  A    between atoms: C4_4  and  N1_5 
REMARK    3  A    between atoms: N1_5  and  C5_6 
REMARK    4  A    between atoms: C11_15  and  N5_16 
REMARK    5  A    between atoms: C16_23  and  O1_24 
ROOT
HETATM    1  C1  UNL     1       6.173   1.829  -0.462  1.00  0.00     0.112 C 
HETATM    2  C2  UNL     1       5.211   1.153  -1.352  1.00  0.00    -0.109 C 
HETATM    3  C3  UNL     1       4.426   0.586  -2.071  1.00  0.00    -0.087 C 
ENDROOT
BRANCH   3   4
HETATM    4  C4  UNL     1       3.463  -0.118  -2.926  1.00  0.00     0.214 C 
BRANCH   4   5
HETATM    5  N1  UNL     1       2.104  -0.034  -2.431  1.00  0.00    -0.378 N 
HETATM    6  H6  UNL     1       1.346   0.404  -2.988  1.00  0.00     0.160 HD
BRANCH   5   7
HETATM    7  C5  UNL     1       1.775  -0.558  -1.152  1.00  0.00     0.047 A 
HETATM    8  C6  UNL     1       2.683  -1.167  -0.312  1.00  0.00     0.148 A 
HETATM    9  N2  UNL     1       2.378  -1.664   0.900  1.00  0.00    -0.238 NA
HETATM   10  C7  UNL     1       1.118  -1.599   1.394  1.00  0.00     0.161 A 
HETATM   11  N3  UNL     1       0.838  -2.103   2.609  1.00  0.00    -0.239 NA
HETATM   12  C17 UNL     1       0.164  -1.000   0.597  1.00  0.00     0.042 A 
HETATM   13  C8  UNL     1      -0.408  -2.050   3.122  1.00  0.00     0.144 A 
HETATM   14  C9  UNL     1      -1.406  -1.455   2.355  1.00  0.00     0.089 A 
HETATM   15  C10 UNL     1      -2.721  -1.415   2.932  1.00  0.00     0.103 C 
HETATM   16  C11 UNL     1      -1.109  -0.948   1.127  1.00  0.00     0.069 A 
HETATM   17  N4  UNL     1      -3.784  -1.391   3.385  1.00  0.00    -0.191 NA
HETATM   18  C18 UNL     1       0.492  -0.491  -0.651  1.00  0.00     0.048 A 
BRANCH  16  19
HETATM   19  N5  UNL     1      -2.128  -0.344   0.353  1.00  0.00    -0.346 N 
HETATM   20  C12 UNL     1      -2.851  -1.221  -0.528  1.00  0.00     0.154 C 
HETATM   21  C13 UNL     1      -4.287  -0.820  -0.679  1.00  0.00     0.015 C 
HETATM   22  C14 UNL     1      -4.798   0.309  -0.191  1.00  0.00     0.047 C 
HETATM   23 CL1  UNL     1      -6.515   0.647  -0.449  1.00  0.00    -0.086 Cl
HETATM   24  C15 UNL     1      -3.973   1.290   0.561  1.00  0.00     0.263 C 
HETATM   25  F1  UNL     1      -4.354   1.428   1.878  1.00  0.00    -0.239 F 
HETATM   26  C16 UNL     1      -2.505   1.062   0.369  1.00  0.00     0.260 C 
BRANCH  26  27
HETATM   27  O1  UNL     1      -1.805   1.790   1.307  1.00  0.00    -0.373 OA
HETATM   28  H14 UNL     1      -2.265   1.834   2.182  1.00  0.00     0.212 HD
ENDBRANCH  26  27
ENDBRANCH  16  19
ENDBRANCH   5   7
ENDBRANCH   4   5
ENDBRANCH   3   4
TORSDOF 5
