REMARK  5 active torsions:
REMARK  status: ('A' for Active; 'I' for Inactive)
REMARK       I    between atoms: C2_2  and  N1_4 
REMARK    1  A    between atoms: N1_4  and  C3_5 
REMARK    2  A    between atoms: C7_11  and  N4_12 
REMARK    3  A    between atoms: C8_13  and  N5_14 
REMARK    4  A    between atoms: C13_20  and  C14_21 
REMARK    5  A    between atoms: C14_21  and  N6_22 
ROOT
HETATM    1  C3  UNL     1       2.804   0.492   0.336  1.00  0.00     0.053 A 
HETATM    2  C4  UNL     1       3.450   0.044   1.460  1.00  0.00     0.148 A 
HETATM    3  N2  UNL     1       3.018  -0.922   2.287  1.00  0.00    -0.238 NA
HETATM    4  C5  UNL     1       1.840  -1.556   2.048  1.00  0.00     0.161 A 
HETATM    5  N3  UNL     1       1.344  -2.526   2.818  1.00  0.00    -0.238 NA
HETATM    6  C6  UNL     1       0.159  -3.128   2.528  1.00  0.00     0.150 A 
HETATM    7  C7  UNL     1      -0.544  -2.726   1.413  1.00  0.00     0.072 A 
HETATM    8  C8  UNL     1      -0.041  -1.724   0.608  1.00  0.00     0.081 A 
HETATM    9  C17 UNL     1       1.161  -1.134   0.928  1.00  0.00     0.043 A 
HETATM   10  C18 UNL     1       1.611  -0.142   0.084  1.00  0.00     0.049 A 
ENDROOT
BRANCH   8  11
HETATM   11  N5  UNL     1      -0.848  -1.372  -0.539  1.00  0.00    -0.321 N 
HETATM   12  C9  UNL     1      -0.398  -2.163  -1.662  1.00  0.00     0.094 A 
HETATM   13  C10 UNL     1      -0.961  -2.045  -2.848  1.00  0.00    -0.004 A 
HETATM   14  C11 UNL     1      -2.083  -1.095  -3.091  1.00  0.00     0.077 A 
HETATM   15  C12 UNL     1      -2.410  -0.385  -1.852  1.00  0.00     0.017 A 
HETATM   16 BR1  UNL     1      -3.919   0.761  -2.020  1.00  0.00    -0.053 Br
HETATM   17  C13 UNL     1      -1.936  -0.409  -0.638  1.00  0.00     0.058 A 
BRANCH  17  18
HETATM   18  C14 UNL     1      -2.044   0.218   0.661  1.00  0.00     0.329 C 
BRANCH  18  19
HETATM   19  N6  UNL     1      -2.925   1.349   0.666  1.00  0.00     0.085 N 
HETATM   20  C15 UNL     1      -2.336   2.500   0.021  1.00  0.00     0.309 C 
HETATM   21  C16 UNL     1      -3.465   1.652   1.971  1.00  0.00     0.309 C 
ENDBRANCH  18  19
ENDBRANCH  17  18
ENDBRANCH   8  11
BRANCH   7  22
HETATM   22  N4  UNL     1      -1.767  -3.435   1.223  1.00  0.00    -0.396 N 
HETATM   23  H7  UNL     1      -2.604  -3.001   1.701  1.00  0.00     0.156 HD
HETATM   24  H8  UNL     1      -1.404  -4.229   0.614  1.00  0.00     0.156 HD
ENDBRANCH   7  22
BRANCH   1  25
HETATM   25  N1  UNL     1       3.231   1.501  -0.556  1.00  0.00    -0.326 N 
HETATM   26  C2  UNL     1       4.404   2.296  -0.547  1.00  0.00     0.218 C 
HETATM   27  C1  UNL     1       4.744   3.322  -1.534  1.00  0.00     0.117 C 
HETATM   28  O1  UNL     1       5.232   2.115   0.381  1.00  0.00    -0.274 OA
HETATM   29  H4  UNL     1       2.631   1.749  -1.373  1.00  0.00     0.169 HD
ENDBRANCH   1  25
TORSDOF 5
