REMARK  7 active torsions:
REMARK  status: ('A' for Active; 'I' for Inactive)
REMARK    1  A    between atoms: C2_2  and  C3_3 
REMARK    2  A    between atoms: C2_2  and  N1_6 
REMARK    3  A    between atoms: C3_3  and  C4_4 
REMARK    4  A    between atoms: N1_6  and  C5_7 
REMARK    5  A    between atoms: C7_9  and  C8_10 
REMARK    6  A    between atoms: C8_10  and  C9_11 
REMARK    7  A    between atoms: C18_24  and  N4_25 
ROOT
HETATM    1  C5  UNL     1       1.192   0.937  -0.119  1.00  0.00     0.050 C 
HETATM    2  C6  UNL     1      -0.114   1.191  -0.438  1.00  0.00     0.002 C 
HETATM    3  C7  UNL     1      -1.482   0.576  -0.495  1.00  0.00    -0.021 C 
HETATM    4  C14 UNL     1      -2.041   1.135  -1.559  1.00  0.00     0.069 C 
HETATM    5  C15 UNL     1      -3.373   0.686  -1.850  1.00  0.00     0.101 C 
HETATM    6  N2  UNL     1      -4.450   0.343  -2.085  1.00  0.00    -0.191 NA
HETATM    7  C16 UNL     1      -1.546   2.316  -2.262  1.00  0.00     0.134 C 
HETATM    8  N3  UNL     1      -0.483   2.997  -1.896  1.00  0.00    -0.288 NA
HETATM    9  C17 UNL     1       0.221   2.596  -0.748  1.00  0.00     0.182 C 
HETATM   10  C18 UNL     1       1.631   2.270  -0.636  1.00  0.00     0.296 C 
ENDROOT
BRANCH   3  11
HETATM   11  C8  UNL     1      -1.870  -0.419   0.462  1.00  0.00     0.078 C 
BRANCH  11  12
HETATM   12  C9  UNL     1      -3.023  -1.264   0.253  1.00  0.00    -0.032 C 
HETATM   13  C10 UNL     1      -4.097  -1.065   1.032  1.00  0.00     0.120 C 
HETATM   14  F1  UNL     1      -4.156  -0.104   2.015  1.00  0.00    -0.206 F 
HETATM   15  C11 UNL     1      -5.271  -1.894   0.877  1.00  0.00     0.056 C 
HETATM   16  C12 UNL     1      -5.307  -3.194   0.793  1.00  0.00    -0.012 C 
HETATM   17  P1  UNL     1      -3.986  -3.797   0.028  1.00  0.00    -0.044 P 
HETATM   18  C13 UNL     1      -3.023  -2.365  -0.746  1.00  0.00     0.082 C 
ENDBRANCH  11  12
ENDBRANCH   3  11
BRANCH   1  19
HETATM   19  N1  UNL     1       2.017  -0.121   0.375  1.00  0.00    -0.386 N 
HETATM   20  H8  UNL     1       1.410  -0.919   0.740  1.00  0.00     0.159 HD
BRANCH  19  21
HETATM   21  C2  UNL     1       3.435  -0.190   0.414  1.00  0.00     0.080 C 
HETATM   22  C1  UNL     1       4.115   0.846   1.229  1.00  0.00     0.032 C 
BRANCH  21  23
HETATM   23  C3  UNL     1       3.798  -1.566   0.995  1.00  0.00     0.061 C 
BRANCH  23  24
HETATM   24  C4  UNL     1       3.145  -2.667   0.202  1.00  0.00     0.392 C 
HETATM   25  O1  UNL     1       3.779  -3.301  -0.621  1.00  0.00    -0.430 OA
ENDBRANCH  23  24
ENDBRANCH  21  23
ENDBRANCH  19  21
ENDBRANCH   1  19
BRANCH  10  26
HETATM   26  N4  UNL     1       2.270   3.106   0.390  1.00  0.00     0.091 N 
HETATM   27  H17 UNL     1       1.949   4.096   0.265  1.00  0.00     0.313 HD
HETATM   28  H18 UNL     1       1.847   2.786   1.306  1.00  0.00     0.313 HD
ENDBRANCH  10  26
TORSDOF 7
