REMARK  4 active torsions:
REMARK  status: ('A' for Active; 'I' for Inactive)
REMARK    1  A    between atoms: C3_3  and  C4_4 
REMARK       I    between atoms: C4_4  and  N1_6 
REMARK    2  A    between atoms: N1_6  and  P1_7 
REMARK    3  A    between atoms: C10_16  and  N5_17 
REMARK    4  A    between atoms: N5_17  and  C11_18 
ROOT
HETATM    1  C1  UNL     1       6.654   2.719  -2.080  1.00  0.00     0.112 C 
HETATM    2  C2  UNL     1       5.595   2.099  -1.257  1.00  0.00    -0.101 C 
HETATM    3  C3  UNL     1       4.718   1.601  -0.595  1.00  0.00    -0.006 C 
ENDROOT
BRANCH   3   4
HETATM    4  C4  UNL     1       3.670   1.028   0.205  1.00  0.00     0.299 C 
HETATM    5  O1  UNL     1       3.096   1.805   1.016  1.00  0.00    -0.258 OA
HETATM    6  N1  UNL     1       3.295  -0.339   0.094  1.00  0.00    -0.325 N 
HETATM    7  H4  UNL     1       3.794  -0.942  -0.587  1.00  0.00     0.168 HD
BRANCH   6   8
HETATM    8  P1  UNL     1       2.000  -0.839   1.154  1.00  0.00    -0.004 P 
HETATM    9  C5  UNL     1       2.087  -2.399   1.567  1.00  0.00     0.142 A 
HETATM   10  N2  UNL     1       1.013  -3.281   1.302  1.00  0.00    -0.239 NA
HETATM   11  C6  UNL     1      -0.097  -2.981   0.737  1.00  0.00     0.161 A 
HETATM   12  N3  UNL     1      -0.969  -3.992   0.592  1.00  0.00    -0.239 NA
HETATM   13  C17 UNL     1      -0.364  -1.703   0.312  1.00  0.00     0.042 A 
HETATM   14  C7  UNL     1      -2.176  -3.839   0.020  1.00  0.00     0.144 A 
HETATM   15  C8  UNL     1      -2.532  -2.587  -0.438  1.00  0.00     0.089 A 
HETATM   16  C9  UNL     1      -3.805  -2.392  -1.050  1.00  0.00     0.103 C 
HETATM   17  C10 UNL     1      -1.608  -1.579  -0.269  1.00  0.00     0.069 A 
HETATM   18  N4  UNL     1      -4.841  -2.218  -1.546  1.00  0.00    -0.191 NA
HETATM   19  C18 UNL     1       0.401  -0.632   0.395  1.00  0.00     0.042 A 
HETATM   20  H5  UNL     1       2.056  -0.107   2.375  1.00  0.00     0.084 HD
BRANCH  17  21
HETATM   21  N5  UNL     1      -2.046  -0.301  -0.770  1.00  0.00    -0.354 N 
HETATM   22  H8  UNL     1      -1.776  -0.175  -1.767  1.00  0.00     0.166 HD
BRANCH  21  23
HETATM   23  C11 UNL     1      -2.744   0.636   0.003  1.00  0.00     0.034 A 
HETATM   24  C12 UNL     1      -3.032   0.327   1.316  1.00  0.00     0.032 A 
HETATM   25  C13 UNL     1      -3.727   1.297   2.033  1.00  0.00     0.046 A 
HETATM   26  C14 UNL     1      -4.092   2.491   1.431  1.00  0.00     0.138 A 
HETATM   27  F1  UNL     1      -4.765   3.456   2.089  1.00  0.00    -0.204 F 
HETATM   28  C15 UNL     1      -3.784   2.768   0.102  1.00  0.00     0.074 A 
HETATM   29 CL1  UNL     1      -4.237   4.266  -0.666  1.00  0.00    -0.081 Cl
HETATM   30  C16 UNL     1      -3.095   1.816  -0.620  1.00  0.00     0.056 A 
ENDBRANCH  21  23
ENDBRANCH  17  21
ENDBRANCH   6   8
ENDBRANCH   3   4
TORSDOF 4
