REMARK  7 active torsions:
REMARK  status: ('A' for Active; 'I' for Inactive)
REMARK    1  A    between atoms: N1_2  and  C3_4 
REMARK    2  A    between atoms: C3_4  and  C4_5 
REMARK    3  A    between atoms: C5_6  and  C6_7 
REMARK       I    between atoms: C6_7  and  N2_9 
REMARK    4  A    between atoms: N2_9  and  C7_10 
REMARK    5  A    between atoms: C11_16  and  N5_17 
REMARK    6  A    between atoms: N5_17  and  C12_18 
REMARK    7  A    between atoms: C13_19  and  C14_20 
ROOT
HETATM    1  C7  UNL     1      -0.442  -0.971  -0.658  1.00  0.00     0.057 C 
HETATM    2  C8  UNL     1       0.058  -1.183  -1.916  1.00  0.00     0.191 C 
HETATM    3  N3  UNL     1      -0.087  -1.402  -3.286  1.00  0.00    -0.413 NA
HETATM    4  C9  UNL     1      -1.182  -1.605  -3.913  1.00  0.00     0.435 C 
HETATM    5  N4  UNL     1      -2.104  -1.537  -2.843  1.00  0.00    -0.272 NA
HETATM    6  C10 UNL     1      -3.003  -0.631  -2.704  1.00  0.00     0.115 C 
HETATM    7  C11 UNL     1      -3.660  -1.044  -1.432  1.00  0.00     0.144 C 
HETATM    8  C15 UNL     1      -2.840  -0.864  -0.237  1.00  0.00     0.001 C 
HETATM    9  C16 UNL     1      -1.613  -0.805   0.248  1.00  0.00    -0.001 C 
ENDROOT
BRANCH   1  10
HETATM   10  N2  UNL     1       0.896  -0.903  -0.086  1.00  0.00    -0.347 N 
HETATM   11  C6  UNL     1       1.089   0.371   0.513  1.00  0.00     0.241 C 
HETATM   12  O1  UNL     1       0.133   1.208   0.466  1.00  0.00    -0.269 OA
HETATM   13  H11 UNL     1       1.752  -1.530   0.008  1.00  0.00     0.163 HD
BRANCH  11  14
HETATM   14  C5  UNL     1       2.351   0.743   1.180  1.00  0.00     0.072 C 
HETATM   15  C4  UNL     1       3.413  -0.064   1.285  1.00  0.00     0.008 C 
BRANCH  15  16
HETATM   16  C3  UNL     1       4.681   0.316   1.958  1.00  0.00     0.299 C 
BRANCH  16  17
HETATM   17  N1  UNL     1       5.833   0.278   1.112  1.00  0.00     0.083 N 
HETATM   18  C1  UNL     1       7.055   0.653   1.794  1.00  0.00     0.309 C 
HETATM   19  C2  UNL     1       5.649   0.922  -0.156  1.00  0.00     0.309 C 
ENDBRANCH  16  17
ENDBRANCH  15  16
ENDBRANCH  11  14
ENDBRANCH   1  10
BRANCH   7  20
HETATM   20  N5  UNL     1      -4.810  -0.125  -1.315  1.00  0.00    -0.387 N 
HETATM   21  H16 UNL     1      -5.065   0.627  -2.003  1.00  0.00     0.160 HD
BRANCH  20  22
HETATM   22  C12 UNL     1      -5.776  -0.069  -0.284  1.00  0.00     0.080 C 
HETATM   23  C13 UNL     1      -5.725   1.022   0.495  1.00  0.00     0.001 C 
BRANCH  23  24
HETATM   24  C14 UNL     1      -6.518   1.495   1.667  1.00  0.00     0.113 C 
HETATM   25 BR1  UNL     1      -5.319   1.700   3.178  1.00  0.00    -0.092 Br
ENDBRANCH  23  24
ENDBRANCH  20  22
ENDBRANCH   7  20
TORSDOF 7
