REMARK  5 active torsions:
REMARK  status: ('A' for Active; 'I' for Inactive)
REMARK    1  A    between atoms: O1_2  and  C1_3 
REMARK    2  A    between atoms: C8_14  and  O2_15 
REMARK    3  A    between atoms: O2_15  and  C9_16 
REMARK    4  A    between atoms: C9_16  and  N5_17 
REMARK    5  A    between atoms: N5_17  and  C10_18 
ROOT
HETATM    1  C1  UNL     1      -2.801   1.916  -1.395  1.00  0.00     0.023 A 
HETATM    2  C2  UNL     1      -1.781   1.536  -0.646  1.00  0.00     0.010 A 
HETATM    3  C3  UNL     1      -2.060   0.080  -0.531  1.00  0.00     0.026 A 
HETATM    4  C4  UNL     1      -3.167   0.274  -1.299  1.00  0.00     0.160 A 
HETATM    5  N1  UNL     1      -4.121  -0.722  -1.722  1.00  0.00    -0.314 N 
HETATM    6  N2  UNL     1      -4.870  -1.909  -1.508  1.00  0.00    -0.223 N 
HETATM    7  N3  UNL     1      -4.687  -3.264  -1.410  1.00  0.00    -0.153 NA
HETATM    8  C5  UNL     1      -3.777  -3.922  -0.787  1.00  0.00     0.251 C 
HETATM    9  N4  UNL     1      -2.630  -4.165   0.010  1.00  0.00    -0.270 NA
HETATM   10  C6  UNL     1      -1.810  -3.258   0.351  1.00  0.00     0.163 C 
HETATM   11  C7  UNL     1      -1.123  -1.944   0.519  1.00  0.00     0.035 C 
HETATM   12  C8  UNL     1      -1.020  -0.607   0.299  1.00  0.00     0.054 C 
HETATM   13  H4  UNL     1      -4.480  -0.479  -2.703  1.00  0.00     0.182 HD
HETATM   14  H5  UNL     1      -5.901  -1.781  -1.368  1.00  0.00     0.210 HD
ENDROOT
BRANCH  12  15
HETATM   15  O2  UNL     1       0.023   0.040   0.844  1.00  0.00    -0.336 OA
BRANCH  15  16
HETATM   16  C9  UNL     1       1.389  -0.094   0.611  1.00  0.00     0.297 C 
BRANCH  16  17
HETATM   17  N5  UNL     1       2.039   0.973   1.387  1.00  0.00    -0.368 N 
HETATM   18  H11 UNL     1       1.498   1.659   1.978  1.00  0.00     0.161 HD
BRANCH  17  19
HETATM   19  C10 UNL     1       3.462   1.190   1.421  1.00  0.00     0.029 A 
HETATM   20  C11 UNL     1       4.080   2.169   2.129  1.00  0.00     0.029 A 
HETATM   21  C12 UNL     1       5.451   2.328   2.123  1.00  0.00     0.002 A 
HETATM   22  C13 UNL     1       6.249   1.481   1.385  1.00  0.00     0.000 A 
HETATM   23  C14 UNL     1       5.651   0.477   0.656  1.00  0.00     0.002 A 
HETATM   24  C15 UNL     1       4.281   0.337   0.677  1.00  0.00     0.029 A 
ENDBRANCH  17  19
ENDBRANCH  16  17
ENDBRANCH  15  16
ENDBRANCH  12  15
BRANCH   1  25
HETATM   25  O1  UNL     1      -3.189   3.169  -1.907  1.00  0.00     0.000 OA
HETATM   26 BR1  UNL     1      -2.400   4.667  -1.066  1.00  0.00     0.000 Br
ENDBRANCH   1  25
TORSDOF 5
