REMARK  5 active torsions:
REMARK  status: ('A' for Active; 'I' for Inactive)
REMARK    1  A    between atoms: N1_5  and  C5_6 
REMARK    2  A    between atoms: C6_7  and  N2_8 
REMARK    3  A    between atoms: N2_8  and  C7_9 
REMARK    4  A    between atoms: C13_17  and  N5_18 
REMARK    5  A    between atoms: N5_18  and  C14_19 
ROOT
HETATM    1  C1  UNL     1       1.016   1.648   1.836  1.00  0.00     0.037 C 
HETATM    2  C2  UNL     1       1.466   0.753   0.750  1.00  0.00    -0.013 C 
HETATM    3  C3  UNL     1       0.948   0.064  -0.248  1.00  0.00     0.036 A 
HETATM    4  C4  UNL     1      -0.483   0.069  -0.509  1.00  0.00     0.161 A 
HETATM    5  N1  UNL     1      -1.330   0.713   0.176  1.00  0.00    -0.239 NA
HETATM    6  N3  UNL     1      -0.940  -0.700  -1.606  1.00  0.00    -0.239 NA
HETATM    7  C10 UNL     1      -0.112  -1.371  -2.331  1.00  0.00     0.144 A 
HETATM    8  C11 UNL     1       1.315  -1.380  -2.076  1.00  0.00     0.089 A 
HETATM    9  C12 UNL     1       2.112  -2.174  -2.965  1.00  0.00     0.103 C 
HETATM   10  N4  UNL     1       2.771  -2.807  -3.673  1.00  0.00    -0.191 NA
HETATM   11  C13 UNL     1       1.854  -0.701  -1.082  1.00  0.00     0.069 A 
ENDROOT
BRANCH  11  12
HETATM   12  N5  UNL     1       3.242  -0.805  -0.963  1.00  0.00    -0.354 N 
HETATM   13  H16 UNL     1       3.791  -1.540  -1.468  1.00  0.00     0.166 HD
BRANCH  12  14
HETATM   14  C14 UNL     1       4.382  -0.271  -0.365  1.00  0.00     0.034 A 
HETATM   15  C15 UNL     1       4.994  -0.702   0.819  1.00  0.00     0.032 A 
HETATM   16  C16 UNL     1       6.120  -0.125   1.362  1.00  0.00     0.046 A 
HETATM   17  C17 UNL     1       6.628   0.940   0.648  1.00  0.00     0.138 A 
HETATM   18  F1  UNL     1       7.746   1.577   1.109  1.00  0.00    -0.204 F 
HETATM   19  C18 UNL     1       6.122   1.458  -0.523  1.00  0.00     0.074 A 
HETATM   20 CL1  UNL     1       6.845   2.817  -1.354  1.00  0.00    -0.081 Cl
HETATM   21  C19 UNL     1       4.980   0.817  -1.008  1.00  0.00     0.056 A 
ENDBRANCH  12  14
ENDBRANCH  11  12
BRANCH   5  22
HETATM   22  C5  UNL     1      -2.729   0.743  -0.046  1.00  0.00     0.135 C 
HETATM   23  C6  UNL     1      -3.482  -0.299  -0.367  1.00  0.00     0.102 C 
BRANCH  23  24
HETATM   24  N2  UNL     1      -4.806   0.151  -0.497  1.00  0.00    -0.394 N 
HETATM   25  H7  UNL     1      -5.130   0.692  -1.336  1.00  0.00     0.159 HD
BRANCH  24  26
HETATM   26  C7  UNL     1      -5.765  -0.121   0.525  1.00  0.00     0.072 C 
HETATM   27  C8  UNL     1      -5.342   0.477   1.854  1.00  0.00     0.031 C 
HETATM   28  C9  UNL     1      -7.136   0.411   0.213  1.00  0.00     0.031 C 
ENDBRANCH  24  26
ENDBRANCH  23  24
ENDBRANCH   5  22
TORSDOF 5
