REMARK  6 active torsions:
REMARK  status: ('A' for Active; 'I' for Inactive)
REMARK    1  A    between atoms: C3_3  and  N1_4 
REMARK    2  A    between atoms: C10_12  and  N2_13 
REMARK    3  A    between atoms: C12_16  and  C13_17 
REMARK    4  A    between atoms: C13_17  and  C14_18 
REMARK    5  A    between atoms: C14_18  and  N4_19 
REMARK       I    between atoms: N4_19  and  C15_20 
REMARK    6  A    between atoms: C15_20  and  C16_22 
ROOT
HETATM    1  C16 UNL     1       5.642   0.139   0.183  1.00  0.00    -0.004 C 
HETATM    2  C17 UNL     1       6.440   0.605  -0.613  1.00  0.00    -0.101 C 
HETATM    3  C18 UNL     1       7.418   1.157  -1.556  1.00  0.00     0.112 C 
ENDROOT
BRANCH   1   4
HETATM    4  C15 UNL     1       4.711  -0.415   1.136  1.00  0.00     0.321 C 
HETATM    5  N4  UNL     1       4.313  -1.783   0.911  1.00  0.00    -0.215 NA
HETATM    6  O1  UNL     1       4.364   0.382   2.051  1.00  0.00    -0.256 OA
BRANCH   5   7
HETATM    7  C14 UNL     1       3.119  -2.130   0.690  1.00  0.00     0.123 C 
BRANCH   7   8
HETATM    8  C13 UNL     1       1.692  -2.241   0.462  1.00  0.00     0.051 C 
BRANCH   8   9
HETATM    9  C12 UNL     1       0.943  -1.153   0.479  1.00  0.00     0.066 A 
HETATM   10  C2  UNL     1      -0.401  -1.182   0.274  1.00  0.00    -0.000 A 
HETATM   11  C1  UNL     1      -0.815  -2.389   0.059  1.00  0.00     0.048 C 
HETATM   12  C3  UNL     1      -1.290  -0.140   0.265  1.00  0.00     0.066 A 
HETATM   13  C10 UNL     1      -0.612   1.031   0.508  1.00  0.00     0.051 A 
HETATM   14  C11 UNL     1       0.750   1.153   0.727  1.00  0.00     0.142 A 
HETATM   15  N3  UNL     1       1.512   0.042   0.708  1.00  0.00    -0.259 NA
BRANCH  12  16
HETATM   16  N1  UNL     1      -2.666  -0.131   0.093  1.00  0.00    -0.346 N 
HETATM   17  C4  UNL     1      -3.400  -1.337   0.007  1.00  0.00     0.092 C 
HETATM   18  C5  UNL     1      -4.706  -1.527  -0.037  1.00  0.00     0.018 C 
HETATM   19  C6  UNL     1      -5.582  -0.364  -0.002  1.00  0.00     0.018 C 
HETATM   20  C7  UNL     1      -4.941   0.776   0.062  1.00  0.00     0.011 C 
HETATM   21 BR1  UNL     1      -5.912   2.442   0.125  1.00  0.00    -0.053 Br
HETATM   22  C8  UNL     1      -3.477   1.046   0.034  1.00  0.00     0.125 C 
HETATM   23  C9  UNL     1      -3.220   1.859  -1.222  1.00  0.00     0.038 C 
ENDBRANCH  12  16
BRANCH  13  24
HETATM   24  N2  UNL     1      -1.154   2.328   0.601  1.00  0.00    -0.300 NA
HETATM   25  H10 UNL     1      -1.365   3.024   1.361  1.00  0.00     0.124 HD
HETATM   26  H11 UNL     1      -1.371   3.038   1.360  1.00  0.00     0.124 HD
ENDBRANCH  13  24
ENDBRANCH   8   9
ENDBRANCH   7   8
ENDBRANCH   5   7
ENDBRANCH   1   4
TORSDOF 6
