REMARK  4 active torsions:
REMARK  status: ('A' for Active; 'I' for Inactive)
REMARK    1  A    between atoms: C3_3  and  C4_4 
REMARK    2  A    between atoms: C4_4  and  S1_6 
REMARK    3  A    between atoms: S1_6  and  C5_7 
REMARK    4  A    between atoms: C5_7  and  C6_8 
ROOT
HETATM    1  C1  UNL     1       6.544  -0.357  -1.514  1.00  0.00     0.112 C 
HETATM    2  C2  UNL     1       5.717  -0.762  -0.374  1.00  0.00    -0.102 C 
HETATM    3  C3  UNL     1       5.049  -1.086   0.578  1.00  0.00    -0.018 C 
ENDROOT
BRANCH   3   4
HETATM    4  C4  UNL     1       4.254  -1.449   1.717  1.00  0.00     0.263 C 
HETATM    5  O1  UNL     1       4.789  -2.213   2.591  1.00  0.00    -0.271 OA
BRANCH   4   6
HETATM    6  S1  UNL     1       2.576  -0.888   1.961  1.00  0.00    -0.073 SA
BRANCH   6   7
HETATM    7  C5  UNL     1       2.126   0.158   0.568  1.00  0.00     0.142 C 
BRANCH   7   8
HETATM    8  C6  UNL     1       0.750   0.690   0.651  1.00  0.00     0.044 A 
HETATM    9  C7  UNL     1      -0.378   0.078   0.144  1.00  0.00     0.041 A 
HETATM   10  C8  UNL     1      -1.639   0.669   0.278  1.00  0.00    -0.002 A 
HETATM   11  C9  UNL     1      -2.822   0.038  -0.249  1.00  0.00    -0.023 A 
HETATM   12  C15 UNL     1      -1.708   1.880   0.933  1.00  0.00     0.073 A 
HETATM   13  C10 UNL     1      -3.803   0.694  -0.964  1.00  0.00     0.012 A 
HETATM   14  C14 UNL     1      -3.015  -1.312  -0.041  1.00  0.00     0.031 A 
HETATM   15  C11 UNL     1      -4.922   0.012  -1.442  1.00  0.00     0.002 A 
HETATM   16  C12 UNL     1      -5.101  -1.330  -1.228  1.00  0.00     0.019 A 
HETATM   17  C13 UNL     1      -4.131  -1.990  -0.519  1.00  0.00     0.011 A 
HETATM   18 BR1  UNL     1      -4.390  -3.866  -0.224  1.00  0.00    -0.051 Br
HETATM   19  C16 UNL     1      -2.940   2.572   1.127  1.00  0.00     0.102 C 
HETATM   20  C17 UNL     1      -0.563   2.477   1.435  1.00  0.00     0.140 A 
HETATM   21  N1  UNL     1      -3.929   3.133   1.270  1.00  0.00    -0.191 NA
HETATM   22  N2  UNL     1       0.632   1.875   1.285  1.00  0.00    -0.263 NA
ENDBRANCH   7   8
ENDBRANCH   6   7
ENDBRANCH   4   6
ENDBRANCH   3   4
TORSDOF 4
