REMARK  3 active torsions:
REMARK  status: ('A' for Active; 'I' for Inactive)
REMARK    1  A    between atoms: C3_3  and  C4_4 
REMARK    2  A    between atoms: C12_14  and  N3_15 
REMARK    3  A    between atoms: N3_15  and  C13_16 
ROOT
HETATM    1  C1  UNL     1       4.967   3.889   0.457  1.00  0.00     0.112 C 
HETATM    2  C2  UNL     1       4.245   2.606   0.574  1.00  0.00    -0.109 C 
HETATM    3  C3  UNL     1       3.662   1.553   0.652  1.00  0.00    -0.077 C 
ENDROOT
BRANCH   3   4
HETATM    4  C4  UNL     1       2.969   0.254   0.754  1.00  0.00     0.184 C 
HETATM    5  C5  UNL     1       3.548  -0.655  -0.229  1.00  0.00     0.011 C 
HETATM    6  C6  UNL     1       3.272  -1.726  -0.955  1.00  0.00     0.001 C 
HETATM    7  C7  UNL     1       2.097  -2.568  -1.095  1.00  0.00     0.032 C 
HETATM    8  C8  UNL     1       0.851  -2.440  -0.709  1.00  0.00     0.070 A 
HETATM    9  N1  UNL     1       0.254  -3.565  -1.144  1.00  0.00    -0.259 NA
HETATM   10  C19 UNL     1       0.141  -1.492  -0.031  1.00  0.00     0.036 A 
HETATM   11  C9  UNL     1      -1.052  -3.784  -0.924  1.00  0.00     0.142 A 
HETATM   12  C10 UNL     1      -1.794  -2.830  -0.236  1.00  0.00     0.089 A 
HETATM   13  C11 UNL     1      -3.200  -3.112  -0.023  1.00  0.00     0.103 C 
HETATM   14  C12 UNL     1      -1.200  -1.652   0.228  1.00  0.00     0.069 A 
HETATM   15  N2  UNL     1      -4.333  -3.324   0.136  1.00  0.00    -0.191 NA
HETATM   16  C20 UNL     1       0.379  -0.333   0.514  1.00  0.00     0.100 C 
HETATM   17  N4  UNL     1       1.557   0.490   0.642  1.00  0.00    -0.380 N 
HETATM   18  H15 UNL     1       1.288   1.519   0.656  1.00  0.00     0.160 HD
BRANCH  14  19
HETATM   19  N3  UNL     1      -2.047  -0.748   0.918  1.00  0.00    -0.354 N 
HETATM   20  H9  UNL     1      -1.966  -1.051   1.913  1.00  0.00     0.166 HD
BRANCH  19  21
HETATM   21  C13 UNL     1      -2.874   0.357   0.497  1.00  0.00     0.033 A 
HETATM   22  C14 UNL     1      -3.571   1.014   1.489  1.00  0.00     0.029 A 
HETATM   23  C15 UNL     1      -4.346   2.061   1.034  1.00  0.00     0.004 A 
HETATM   24  C16 UNL     1      -4.399   2.403  -0.314  1.00  0.00     0.019 A 
HETATM   25  C17 UNL     1      -3.672   1.697  -1.247  1.00  0.00     0.013 A 
HETATM   26 BR1  UNL     1      -3.759   2.179  -3.086  1.00  0.00    -0.051 Br
HETATM   27  C18 UNL     1      -2.878   0.638  -0.854  1.00  0.00     0.048 A 
ENDBRANCH  19  21
ENDBRANCH  14  19
ENDBRANCH   3   4
TORSDOF 3
