REMARK  2 active torsions:
REMARK  status: ('A' for Active; 'I' for Inactive)
REMARK    1  A    between atoms: C3_3  and  N1_4 
REMARK    2  A    between atoms: C6_7  and  N2_8 
ROOT
HETATM    1  C1  UNL     1      -4.232   0.358   1.896  1.00  0.00     0.014 C 
HETATM    2  C2  UNL     1      -3.734   0.276   0.801  1.00  0.00    -0.098 C 
HETATM    3  C3  UNL     1      -3.122   0.197  -0.502  1.00  0.00     0.217 C 
ENDROOT
BRANCH   3   4
HETATM    4  N1  UNL     1      -1.823  -0.458  -0.516  1.00  0.00    -0.355 N 
HETATM    5  C4  UNL     1      -1.666  -1.888  -0.263  1.00  0.00     0.128 C 
HETATM    6  C5  UNL     1      -0.412  -2.174   0.478  1.00  0.00     0.067 C 
HETATM    7  C6  UNL     1       0.851  -2.223  -0.287  1.00  0.00     0.191 C 
HETATM    8  C7  UNL     1       0.938  -1.215  -1.406  1.00  0.00     0.133 C 
HETATM    9  C15 UNL     1       2.011  -1.895   0.666  1.00  0.00     0.067 C 
HETATM   10  N3  UNL     1       0.465   0.010  -1.490  1.00  0.00    -0.245 NA
HETATM   11  C8  UNL     1      -0.732   0.456  -0.806  1.00  0.00     0.123 C 
HETATM   12  C9  UNL     1      -0.939   1.718  -0.382  1.00  0.00     0.045 C 
HETATM   13  C10 UNL     1      -0.454   3.104  -0.258  1.00  0.00     0.180 C 
HETATM   14  N4  UNL     1       0.847   3.337  -0.813  1.00  0.00    -0.288 N 
HETATM   15  C11 UNL     1       1.970   2.974  -0.295  1.00  0.00     0.058 A 
HETATM   16  O1  UNL     1       2.145   3.635  -1.481  1.00  0.00     0.000 OA
HETATM   17  C12 UNL     1       2.039   2.227   1.015  1.00  0.00     0.103 C 
HETATM   18  C13 UNL     1       2.565   0.844   0.694  1.00  0.00    -0.023 A 
HETATM   19 BR1  UNL     1       4.160   0.081   0.018  1.00  0.00    -0.126 Br
HETATM   20  C14 UNL     1       2.210  -0.424   0.718  1.00  0.00     0.090 A 
HETATM   21  H14 UNL     1       3.029   3.544  -1.996  1.00  0.00     0.000 HD
BRANCH   7  22
HETATM   22  N2  UNL     1       1.118  -3.554  -0.777  1.00  0.00     0.093 N 
HETATM   23  H8  UNL     1       0.270  -4.065  -1.103  1.00  0.00     0.314 HD
HETATM   24  H9  UNL     1       1.651  -4.130  -0.070  1.00  0.00     0.314 HD
ENDBRANCH   7  22
ENDBRANCH   3   4
TORSDOF 2
