REMARK  5 active torsions:
REMARK  status: ('A' for Active; 'I' for Inactive)
REMARK    1  A    between atoms: C3_3  and  C4_4 
REMARK       I    between atoms: C4_4  and  N1_6 
REMARK    2  A    between atoms: N1_6  and  C5_7 
REMARK    3  A    between atoms: C9_12  and  C10_13 
REMARK    4  A    between atoms: C12_16  and  N4_17 
REMARK    5  A    between atoms: N4_17  and  C13_18 
ROOT
HETATM    1  C1  UNL     1       8.318  -1.780   0.304  1.00  0.00     0.112 C 
HETATM    2  C2  UNL     1       6.927  -1.319   0.243  1.00  0.00    -0.101 C 
HETATM    3  C3  UNL     1       5.782  -0.942   0.214  1.00  0.00    -0.006 C 
ENDROOT
BRANCH   3   4
HETATM    4  C4  UNL     1       4.400  -0.506   0.196  1.00  0.00     0.300 C 
HETATM    5  O1  UNL     1       3.815  -0.213   1.275  1.00  0.00    -0.258 OA
HETATM    6  N1  UNL     1       3.639  -0.383  -0.979  1.00  0.00    -0.316 N 
HETATM    7  H4  UNL     1       4.079  -0.613  -1.883  1.00  0.00     0.170 HD
BRANCH   6   8
HETATM    8  C5  UNL     1       2.323   0.063  -0.695  1.00  0.00     0.039 A 
HETATM    9  C6  UNL     1       1.848   1.191  -1.198  1.00  0.00     0.060 A 
HETATM   10  C7  UNL     1       0.491   1.612  -0.880  1.00  0.00     0.056 A 
HETATM   11  C8  UNL     1       0.176   2.757  -1.454  1.00  0.00     0.146 A 
HETATM   12  N5  UNL     1      -0.408   0.866  -0.030  1.00  0.00    -0.328 N 
HETATM   13  N2  UNL     1      -1.118   3.300  -1.238  1.00  0.00    -0.263 NA
HETATM   14  C9  UNL     1      -1.942   2.639  -0.477  1.00  0.00     0.067 A 
HETATM   15  C12 UNL     1      -1.754   1.324   0.249  1.00  0.00     0.239 A 
HETATM   16  C19 UNL     1       0.222  -0.302   0.432  1.00  0.00     0.096 A 
HETATM   17  C20 UNL     1       1.447  -0.712   0.165  1.00  0.00     0.047 A 
BRANCH  14  18
HETATM   18  C10 UNL     1      -3.324   3.137  -0.195  1.00  0.00     0.182 C 
HETATM   19  C11 UNL     1      -3.524   4.418  -0.896  1.00  0.00     0.065 C 
HETATM   20  N3  UNL     1      -3.687   5.419  -1.460  1.00  0.00    -0.197 NA
ENDBRANCH  14  18
BRANCH  15  21
HETATM   21  N4  UNL     1      -2.693   0.352  -0.227  1.00  0.00    -0.363 N 
HETATM   22  H10 UNL     1      -3.048   0.622  -1.194  1.00  0.00     0.162 HD
BRANCH  21  23
HETATM   23  C13 UNL     1      -3.295  -0.872   0.196  1.00  0.00     0.031 A 
HETATM   24  C14 UNL     1      -4.169  -1.611  -0.611  1.00  0.00     0.029 A 
HETATM   25  C15 UNL     1      -4.719  -2.757  -0.093  1.00  0.00     0.004 A 
HETATM   26  C16 UNL     1      -4.455  -3.215   1.178  1.00  0.00     0.019 A 
HETATM   27  C17 UNL     1      -3.602  -2.522   2.010  1.00  0.00     0.013 A 
HETATM   28 BR1  UNL     1      -3.200  -3.108   3.777  1.00  0.00    -0.051 Br
HETATM   29  C18 UNL     1      -3.064  -1.380   1.471  1.00  0.00     0.048 A 
ENDBRANCH  21  23
ENDBRANCH  15  21
ENDBRANCH   6   8
ENDBRANCH   3   4
TORSDOF 5
