REMARK  6 active torsions:
REMARK  status: ('A' for Active; 'I' for Inactive)
REMARK    1  A    between atoms: N1_2  and  C2_3 
REMARK    2  A    between atoms: C2_3  and  C3_4 
REMARK    3  A    between atoms: C3_4  and  O1_5 
REMARK    4  A    between atoms: O1_5  and  C4_6 
REMARK    5  A    between atoms: C7_9  and  N2_10 
REMARK    6  A    between atoms: N2_10  and  C8_11 
ROOT
HETATM    1  C4  UNL     1       1.178  -1.638  -0.166  1.00  0.00     0.164 A 
HETATM    2  C5  UNL     1       0.381  -0.672  -0.593  1.00  0.00     0.068 A 
HETATM    3  C6  UNL     1      -0.509  -1.028  -1.701  1.00  0.00    -0.011 A 
HETATM    4  C7  UNL     1      -1.257   0.055  -1.965  1.00  0.00     0.062 C 
HETATM    5  C13 UNL     1      -2.310   0.163  -3.001  1.00  0.00     0.089 C 
HETATM    6  C14 UNL     1      -2.593   1.468  -3.547  1.00  0.00     0.103 C 
HETATM    7  N4  UNL     1      -2.805   2.508  -3.966  1.00  0.00    -0.191 NA
HETATM    8  C15 UNL     1      -3.013  -0.896  -3.448  1.00  0.00     0.140 C 
HETATM    9  N5  UNL     1      -2.935  -2.277  -3.075  1.00  0.00    -0.275 NA
HETATM   10  C16 UNL     1      -1.897  -2.873  -2.630  1.00  0.00     0.104 C 
HETATM   11  C17 UNL     1      -0.578  -2.329  -2.396  1.00  0.00     0.102 A 
HETATM   12  C18 UNL     1       0.393  -3.237  -1.742  1.00  0.00     0.107 A 
HETATM   13  N6  UNL     1       1.188  -2.942  -0.742  1.00  0.00    -0.240 NA
ENDROOT
BRANCH   4  14
HETATM   14  N2  UNL     1      -1.107   1.275  -1.222  1.00  0.00    -0.353 N 
HETATM   15  H10 UNL     1      -0.488   2.082  -1.458  1.00  0.00     0.166 HD
BRANCH  14  16
HETATM   16  C8  UNL     1      -1.902   1.358  -0.044  1.00  0.00     0.051 A 
HETATM   17  C9  UNL     1      -2.740   0.324   0.321  1.00  0.00     0.145 A 
HETATM   18  N3  UNL     1      -3.532   0.318   1.425  1.00  0.00    -0.269 NA
HETATM   19  C10 UNL     1      -3.505   1.405   2.237  1.00  0.00     0.135 A 
HETATM   20  C11 UNL     1      -2.683   2.441   1.895  1.00  0.00     0.030 A 
HETATM   21 BR1  UNL     1      -2.601   4.011   3.007  1.00  0.00    -0.050 Br
HETATM   22  C12 UNL     1      -1.863   2.483   0.780  1.00  0.00     0.051 A 
ENDBRANCH  14  16
ENDBRANCH   4  14
BRANCH   1  23
HETATM   23  O1  UNL     1       2.059  -1.413   0.882  1.00  0.00    -0.333 OA
BRANCH  23  24
HETATM   24  C3  UNL     1       2.494  -0.102   1.136  1.00  0.00     0.207 C 
BRANCH  24  25
HETATM   25  C2  UNL     1       3.436  -0.157   2.315  1.00  0.00     0.295 C 
BRANCH  25  26
HETATM   26  N1  UNL     1       3.954   1.128   2.679  1.00  0.00     0.081 N 
HETATM   27  C1  UNL     1       4.840   0.944   3.816  1.00  0.00     0.306 C 
HETATM   28  H4  UNL     1       4.520   1.581   1.927  1.00  0.00     0.315 HD
ENDBRANCH  25  26
ENDBRANCH  24  25
ENDBRANCH  23  24
ENDBRANCH   1  23
TORSDOF 6
