REMARK  3 active torsions:
REMARK  status: ('A' for Active; 'I' for Inactive)
REMARK       I    between atoms: C3_3  and  N1_5 
REMARK    1  A    between atoms: N1_5  and  C4_6 
REMARK    2  A    between atoms: C11_15  and  N4_16 
REMARK    3  A    between atoms: N4_16  and  C12_17 
ROOT
HETATM    1  C1  UNL     1      -5.059   1.529  -3.903  1.00  0.00     0.022 C 
HETATM    2  C2  UNL     1      -4.444   1.129  -2.946  1.00  0.00    -0.016 C 
HETATM    3  C3  UNL     1      -3.690   0.665  -1.794  1.00  0.00     0.300 C 
HETATM    4  O1  UNL     1      -3.775   1.234  -0.663  1.00  0.00    -0.258 OA
HETATM    5  N1  UNL     1      -2.802  -0.470  -1.879  1.00  0.00    -0.316 N 
HETATM    6  H2  UNL     1      -2.734  -0.936  -2.809  1.00  0.00     0.170 HD
ENDROOT
BRANCH   5   7
HETATM    7  C4  UNL     1      -2.217  -0.660  -0.572  1.00  0.00     0.036 A 
HETATM    8  C5  UNL     1      -2.961  -1.505   0.229  1.00  0.00     0.032 A 
HETATM    9  C6  UNL     1      -2.561  -1.808   1.514  1.00  0.00     0.035 A 
HETATM   10  C7  UNL     1      -1.389  -1.232   1.962  1.00  0.00     0.069 A 
HETATM   11  N2  UNL     1      -0.966  -1.509   3.223  1.00  0.00    -0.259 NA
HETATM   12  C18 UNL     1      -0.633  -0.382   1.168  1.00  0.00     0.023 A 
HETATM   13  C8  UNL     1       0.169  -0.977   3.717  1.00  0.00     0.142 A 
HETATM   14  C9  UNL     1       0.918  -0.127   2.911  1.00  0.00     0.089 A 
HETATM   15  C10 UNL     1       2.139   0.461   3.407  1.00  0.00     0.103 C 
HETATM   16  C11 UNL     1       0.538   0.197   1.610  1.00  0.00     0.067 A 
HETATM   17  N3  UNL     1       3.122   0.945   3.803  1.00  0.00    -0.191 NA
HETATM   18  C19 UNL     1      -1.045  -0.087  -0.117  1.00  0.00     0.045 A 
BRANCH  16  19
HETATM   19  N4  UNL     1       1.264   1.048   0.767  1.00  0.00    -0.354 N 
HETATM   20  H6  UNL     1       0.895   2.004   0.940  1.00  0.00     0.166 HD
BRANCH  19  21
HETATM   21  C12 UNL     1       2.300   0.678  -0.145  1.00  0.00     0.033 A 
HETATM   22  C13 UNL     1       2.617  -0.651  -0.201  1.00  0.00     0.029 A 
HETATM   23  C14 UNL     1       3.633  -1.005  -1.096  1.00  0.00     0.004 A 
HETATM   24  C15 UNL     1       4.246  -0.023  -1.856  1.00  0.00     0.019 A 
HETATM   25  C16 UNL     1       3.876   1.304  -1.750  1.00  0.00     0.013 A 
HETATM   26 BR1  UNL     1       4.711   2.665  -2.790  1.00  0.00    -0.051 Br
HETATM   27  C17 UNL     1       2.867   1.708  -0.870  1.00  0.00     0.048 A 
ENDBRANCH  19  21
ENDBRANCH  16  19
ENDBRANCH   5   7
TORSDOF 3
