REMARK  8 active torsions:
REMARK  status: ('A' for Active; 'I' for Inactive)
REMARK    1  A    between atoms: C3_3  and  C4_4 
REMARK    2  A    between atoms: C3_3  and  N1_7 
REMARK    3  A    between atoms: C4_4  and  C5_5 
REMARK    4  A    between atoms: N1_7  and  C6_8 
REMARK    5  A    between atoms: C6_8  and  C7_9 
REMARK    6  A    between atoms: C7_9  and  C8_10 
REMARK    7  A    between atoms: C13_17  and  N4_18 
REMARK    8  A    between atoms: N4_18  and  C14_19 
ROOT
HETATM    1  C1  UNL     1       3.839  -1.239   0.179  1.00  0.00     0.038 C 
HETATM    2  C2  UNL     1       3.387   0.204  -0.042  1.00  0.00    -0.006 C 
HETATM    3  C3  UNL     1       3.146   1.401  -0.245  1.00  0.00     0.007 C 
ENDROOT
BRANCH   3   4
HETATM    4  C4  UNL     1       4.118   2.418  -0.586  1.00  0.00     0.125 C 
BRANCH   4   5
HETATM    5  C5  UNL     1       5.506   1.901  -0.550  1.00  0.00     0.237 C 
HETATM    6  O1  UNL     1       6.355   1.548  -1.380  1.00  0.00    -0.306 OA
ENDBRANCH   4   5
ENDBRANCH   3   4
BRANCH   3   7
HETATM    7  N1  UNL     1       1.804   1.139  -0.174  1.00  0.00    -0.390 N 
HETATM    8  H8  UNL     1       1.792   1.454  -1.219  1.00  0.00     0.159 HD
BRANCH   7   9
HETATM    9  C6  UNL     1       0.333   0.846  -0.076  1.00  0.00     0.147 C 
BRANCH   9  10
HETATM   10  C7  UNL     1       0.305  -0.645   0.006  1.00  0.00     0.004 C 
BRANCH  10  11
HETATM   11  C8  UNL     1       0.182  -1.955   0.175  1.00  0.00    -0.012 C 
HETATM   12  C9  UNL     1       0.280  -3.414   0.131  1.00  0.00     0.189 C 
HETATM   13  N2  UNL     1      -0.768  -4.196   0.021  1.00  0.00    -0.295 NA
HETATM   14  C10 UNL     1      -1.970  -4.158   0.008  1.00  0.00     0.134 C 
HETATM   15  C11 UNL     1      -2.293  -2.782   0.162  1.00  0.00     0.075 C 
HETATM   16  C12 UNL     1      -3.785  -2.507   0.032  1.00  0.00     0.023 C 
HETATM   17  C13 UNL     1      -1.379  -1.672   0.285  1.00  0.00     0.061 C 
HETATM   18  N3  UNL     1      -4.985  -2.270  -0.088  1.00  0.00    -0.096 N 
BRANCH  17  19
HETATM   19  N4  UNL     1      -2.207  -0.543   0.504  1.00  0.00    -0.354 N 
HETATM   20  H15 UNL     1      -1.983  -0.536   1.522  1.00  0.00     0.166 HD
BRANCH  19  21
HETATM   21  C14 UNL     1      -3.071   0.318  -0.093  1.00  0.00     0.033 A 
HETATM   22  C15 UNL     1      -3.903   0.954  -0.837  1.00  0.00     0.029 A 
HETATM   23  C16 UNL     1      -4.652   1.901  -1.345  1.00  0.00     0.004 A 
HETATM   24  C17 UNL     1      -4.252   2.773  -0.471  1.00  0.00     0.019 A 
HETATM   25  C18 UNL     1      -3.407   3.016   0.664  1.00  0.00     0.013 A 
HETATM   26 BR1  UNL     1      -3.058   4.492   1.781  1.00  0.00    -0.051 Br
HETATM   27  C19 UNL     1      -2.849   1.656   0.757  1.00  0.00     0.048 A 
ENDBRANCH  19  21
ENDBRANCH  17  19
ENDBRANCH  10  11
ENDBRANCH   9  10
ENDBRANCH   7   9
ENDBRANCH   3   7
TORSDOF 8
