REMARK  6 active torsions:
REMARK  status: ('A' for Active; 'I' for Inactive)
REMARK    1  A    between atoms: C4_5  and  N1_6 
REMARK    2  A    between atoms: N1_6  and  C5_7 
REMARK    3  A    between atoms: C11_16  and  O1_17 
REMARK    4  A    between atoms: O1_17  and  C12_18 
REMARK    5  A    between atoms: C12_18  and  C13_19 
REMARK    6  A    between atoms: C13_19  and  N5_20 
ROOT
HETATM    1  C5  UNL     1       1.806  -0.087  -0.867  1.00  0.00     0.068 A 
HETATM    2  C6  UNL     1       2.400  -0.244  -2.094  1.00  0.00     0.089 A 
HETATM    3  C7  UNL     1       3.793  -0.504  -2.226  1.00  0.00     0.103 C 
HETATM    4  N2  UNL     1       4.927  -0.698  -2.331  1.00  0.00    -0.191 NA
HETATM    5  C8  UNL     1       1.681  -0.160  -3.290  1.00  0.00     0.142 A 
HETATM    6  N3  UNL     1       0.353   0.085  -3.227  1.00  0.00    -0.257 NA
HETATM    7  C9  UNL     1      -0.231   0.239  -2.011  1.00  0.00     0.086 A 
HETATM    8  C10 UNL     1      -1.587   0.485  -2.008  1.00  0.00     0.152 A 
HETATM    9  N4  UNL     1      -2.278   0.656  -0.847  1.00  0.00    -0.235 NA
HETATM   10  C11 UNL     1      -1.635   0.585   0.326  1.00  0.00     0.165 A 
HETATM   11  C16 UNL     1      -0.279   0.339   0.325  1.00  0.00     0.074 A 
HETATM   12  C17 UNL     1       0.457   0.161  -0.825  1.00  0.00     0.026 A 
ENDROOT
BRANCH   1  13
HETATM   13  N1  UNL     1       2.528  -0.173   0.349  1.00  0.00    -0.354 N 
HETATM   14  H6  UNL     1       2.162  -0.067   1.295  1.00  0.00     0.166 HD
BRANCH  13  15
HETATM   15  C4  UNL     1       3.906  -0.420   0.602  1.00  0.00     0.034 A 
HETATM   16  C3  UNL     1       4.412  -1.774   0.738  1.00  0.00     0.014 A 
HETATM   17  C2  UNL     1       5.710  -1.874   0.972  1.00  0.00    -0.069 A 
HETATM   18  B1  UNL     1       6.229  -0.392   1.013  1.00  0.00     0.246 B 
HETATM   19  C1  UNL     1       7.717   0.129   1.030  1.00  0.00    -0.043 C 
HETATM   20  C18 UNL     1       4.909   0.436   0.751  1.00  0.00    -0.021 A 
HETATM   21 BR1  UNL     1       4.775   2.317   0.663  1.00  0.00    -0.066 Br
ENDBRANCH  13  15
ENDBRANCH   1  13
BRANCH  10  22
HETATM   22  O1  UNL     1      -2.309   0.753   1.505  1.00  0.00    -0.333 OA
BRANCH  22  23
HETATM   23  C12 UNL     1      -3.696   1.007   1.596  1.00  0.00     0.207 C 
BRANCH  23  24
HETATM   24  C13 UNL     1      -4.536  -0.085   0.993  1.00  0.00     0.298 C 
BRANCH  24  25
HETATM   25  N5  UNL     1      -5.973   0.208   1.104  1.00  0.00     0.082 N 
HETATM   26  C14 UNL     1      -6.325   1.334   0.260  1.00  0.00     0.309 C 
HETATM   27  C15 UNL     1      -6.735  -0.934   0.636  1.00  0.00     0.309 C 
ENDBRANCH  24  25
ENDBRANCH  23  24
ENDBRANCH  22  23
ENDBRANCH  10  22
TORSDOF 6
