REMARK  2 active torsions:
REMARK  status: ('A' for Active; 'I' for Inactive)
REMARK    1  A    between atoms: C3_3  and  C4_4 
REMARK       I    between atoms: C4_4  and  N1_6 
REMARK    2  A    between atoms: N1_6  and  C5_7 
ROOT
HETATM    1  C1  UNL     1       7.911   0.214  -0.849  1.00  0.00     0.112 C 
HETATM    2  C2  UNL     1       6.496   0.176  -0.460  1.00  0.00    -0.101 C 
HETATM    3  C3  UNL     1       5.319   0.126  -0.146  1.00  0.00    -0.006 C 
ENDROOT
BRANCH   3   4
HETATM    4  C4  UNL     1       3.935   0.090   0.233  1.00  0.00     0.300 C 
HETATM    5  O1  UNL     1       3.139  -0.542  -0.541  1.00  0.00    -0.258 OA
HETATM    6  N1  UNL     1       3.441   0.722   1.418  1.00  0.00    -0.316 N 
HETATM    7  H4  UNL     1       4.121   1.241   2.047  1.00  0.00     0.170 HD
BRANCH   6   8
HETATM    8  C5  UNL     1       2.016   0.570   1.622  1.00  0.00     0.035 C 
HETATM    9  C6  UNL     1       1.601  -0.045   2.747  1.00  0.00     0.024 C 
HETATM   10  C7  UNL     1       0.170  -0.314   3.170  1.00  0.00     0.180 C 
HETATM   11  N2  UNL     1      -0.553  -0.918   2.111  1.00  0.00    -0.266 NA
HETATM   12  C8  UNL     1      -0.726  -0.594   0.873  1.00  0.00     0.171 C 
HETATM   13  N3  UNL     1      -1.516  -1.739   0.725  1.00  0.00    -0.243 NA
HETATM   14  C18 UNL     1      -0.106   0.615   0.272  1.00  0.00     0.082 C 
HETATM   15  C9  UNL     1      -2.410  -1.934  -0.153  1.00  0.00     0.101 C 
HETATM   16  C10 UNL     1      -3.390  -1.785  -1.349  1.00  0.00     0.055 C 
HETATM   17  C11 UNL     1      -4.638  -2.471  -0.940  1.00  0.00     0.020 C 
HETATM   18  C12 UNL     1      -3.519  -0.285  -1.428  1.00  0.00    -0.046 A 
HETATM   19  C13 UNL     1      -4.487   0.681  -1.543  1.00  0.00     0.027 A 
HETATM   20  C17 UNL     1      -2.237   0.171  -1.214  1.00  0.00     0.037 A 
HETATM   21  C14 UNL     1      -4.094   1.990  -1.430  1.00  0.00     0.013 A 
HETATM   22 BR1  UNL     1      -5.496   3.263  -1.603  1.00  0.00    -0.051 Br
HETATM   23  C15 UNL     1      -2.815   2.428  -1.209  1.00  0.00     0.048 A 
HETATM   24  C16 UNL     1      -1.854   1.458  -1.096  1.00  0.00     0.034 A 
HETATM   25  N4  UNL     1      -0.483   1.567  -0.751  1.00  0.00    -0.353 N 
HETATM   26  H16 UNL     1      -0.081   2.303  -1.303  1.00  0.00     0.166 HD
HETATM   27  C19 UNL     1       1.077   1.092   0.603  1.00  0.00     0.062 C 
ENDBRANCH   6   8
ENDBRANCH   3   4
TORSDOF 2
