REMARK  4 active torsions:
REMARK  status: ('A' for Active; 'I' for Inactive)
REMARK    1  A    between atoms: O1_2  and  C2_3 
REMARK    2  A    between atoms: N3_14  and  C11_15 
REMARK    3  A    between atoms: C14_19  and  O2_20 
REMARK    4  A    between atoms: O2_20  and  C15_21 
ROOT
HETATM    1  C11 UNL     1       0.473  -1.123  -0.672  1.00  0.00     0.727 A 
HETATM    2  N4  UNL     1       0.021  -2.044  -1.509  1.00  0.00    -0.075 NA
HETATM    3  C12 UNL     1       0.791  -2.871  -2.253  1.00  0.00     0.141 A 
HETATM    4  C13 UNL     1       2.168  -2.691  -2.082  1.00  0.00     0.079 A 
HETATM    5  C14 UNL     1       2.675  -1.732  -1.211  1.00  0.00     0.189 A 
HETATM    6  N6  UNL     1       1.800  -0.956  -0.514  1.00  0.00    -0.038 NA
ENDROOT
BRANCH   1   7
HETATM    7  N3  UNL     1      -0.626  -0.463  -0.072  1.00  0.00    -0.208 N 
HETATM    8  C10 UNL     1      -1.525   0.529  -0.357  1.00  0.00     0.143 C 
HETATM    9  C9  UNL     1      -1.694   1.870   0.207  1.00  0.00     0.050 C 
HETATM   10  C8  UNL     1      -3.155   2.312  -0.242  1.00  0.00     0.273 C 
HETATM   11  N2  UNL     1      -4.052   1.536   0.620  1.00  0.00     0.086 N 
HETATM   12  C6  UNL     1      -5.209   1.117  -0.108  1.00  0.00     0.301 C 
HETATM   13  C7  UNL     1      -4.451   2.549   1.624  1.00  0.00     0.309 C 
HETATM   14  C5  UNL     1      -6.204   0.361   0.681  1.00  0.00     0.300 C 
HETATM   15  N1  UNL     1      -5.910  -0.869   1.332  1.00  0.00     0.088 N 
HETATM   16  C4  UNL     1      -4.915  -0.691   2.401  1.00  0.00     0.299 C 
HETATM   17  H7  UNL     1      -5.647  -1.638   0.710  1.00  0.00     0.316 HD
HETATM   18  C3  UNL     1      -3.584  -0.903   1.825  1.00  0.00     0.036 C 
HETATM   19  C2  UNL     1      -2.545  -1.247   1.100  1.00  0.00     0.062 C 
HETATM   20  C24 UNL     1      -1.065  -0.896   1.259  1.00  0.00     0.205 C 
BRANCH  19  21
HETATM   21  O1  UNL     1      -3.402  -1.920   0.302  1.00  0.00    -0.359 OA
HETATM   22  C1  UNL     1      -3.170  -2.793  -0.745  1.00  0.00     0.209 C 
ENDBRANCH  19  21
ENDBRANCH   1   7
BRANCH   5  23
HETATM   23  O2  UNL     1       4.015  -1.754  -1.216  1.00  0.00    -0.294 OA
BRANCH  23  24
HETATM   24  C15 UNL     1       4.863  -0.976  -0.534  1.00  0.00     0.072 C 
HETATM   25  C16 UNL     1       5.413  -0.587   0.685  1.00  0.00     0.024 C 
HETATM   26  C17 UNL     1       6.649  -1.177   0.542  1.00  0.00     0.106 C 
HETATM   27  N5  UNL     1       7.499  -0.150   0.162  1.00  0.00    -0.333 N 
HETATM   28  C18 UNL     1       7.624   1.242  -0.081  1.00  0.00     0.245 C 
HETATM   29  H24 UNL     1       8.501  -0.083  -0.103  1.00  0.00     0.168 HD
HETATM   30  O3  UNL     1       6.734   2.115   0.139  1.00  0.00    -0.268 OA
HETATM   31  C19 UNL     1       8.484   2.296  -0.580  1.00  0.00     0.086 C 
HETATM   32  C20 UNL     1       8.460   2.035  -1.884  1.00  0.00    -0.021 C 
HETATM   33  C21 UNL     1       7.297   1.972  -2.455  1.00  0.00     0.009 C 
HETATM   34  C22 UNL     1       6.394   0.889  -2.121  1.00  0.00     0.017 C 
HETATM   35  C23 UNL     1       5.543  -0.134  -1.639  1.00  0.00     0.056 C 
ENDBRANCH  23  24
ENDBRANCH   5  23
TORSDOF 4
