REMARK  3 active torsions:
REMARK  status: ('A' for Active; 'I' for Inactive)
REMARK    1  A    between atoms: C2_2  and  N1_3 
REMARK    2  A    between atoms: C9_12  and  N4_13 
REMARK    3  A    between atoms: N4_13  and  C10_14 
ROOT
HETATM    1  N1  UNL     1      -2.794   0.709   0.503  1.00  0.00    -0.366 N 
HETATM    2  C3  UNL     1      -3.706  -0.321   0.147  1.00  0.00     0.091 A 
HETATM    3  C4  UNL     1      -3.248  -1.547  -0.038  1.00  0.00     0.030 A 
HETATM    4  C5  UNL     1      -1.852  -1.852   0.114  1.00  0.00    -0.006 A 
HETATM    5  C6  UNL     1      -1.602  -3.150  -0.111  1.00  0.00     0.129 C 
HETATM    6  N2  UNL     1      -0.404  -3.954  -0.092  1.00  0.00    -0.255 NA
HETATM    7  C7  UNL     1       0.776  -3.612  -0.383  1.00  0.00     0.118 C 
HETATM    8  C8  UNL     1       1.521  -2.853   0.329  1.00  0.00     0.116 C 
HETATM    9  N3  UNL     1       1.111  -1.896   1.049  1.00  0.00    -0.254 NA
HETATM   10  C9  UNL     1       0.513  -0.620   0.737  1.00  0.00     0.243 C 
HETATM   11  C16 UNL     1      -0.928  -0.768   0.483  1.00  0.00     0.013 A 
HETATM   12  C17 UNL     1      -1.407   0.442   0.662  1.00  0.00     0.102 A 
ENDROOT
BRANCH  10  13
HETATM   13  N4  UNL     1       1.215  -0.065  -0.395  1.00  0.00    -0.363 N 
HETATM   14  H10 UNL     1       0.670   0.126  -1.270  1.00  0.00     0.162 HD
BRANCH  13  15
HETATM   15  C10 UNL     1       2.601   0.232  -0.376  1.00  0.00     0.031 A 
HETATM   16  C11 UNL     1       3.220   0.769  -1.509  1.00  0.00     0.029 A 
HETATM   17  C12 UNL     1       4.584   1.060  -1.488  1.00  0.00     0.004 A 
HETATM   18  C13 UNL     1       5.326   0.819  -0.352  1.00  0.00     0.019 A 
HETATM   19  C14 UNL     1       4.689   0.285   0.758  1.00  0.00     0.013 A 
HETATM   20 BR1  UNL     1       5.811  -0.003   2.256  1.00  0.00    -0.051 Br
HETATM   21  C15 UNL     1       3.347  -0.014   0.771  1.00  0.00     0.048 A 
ENDBRANCH  13  15
ENDBRANCH  10  13
BRANCH   1  22
HETATM   22  C2  UNL     1      -3.253   2.073   0.716  1.00  0.00     0.123 C 
HETATM   23  C1  UNL     1      -3.708   2.682  -0.603  1.00  0.00     0.027 C 
ENDBRANCH   1  22
TORSDOF 3
