REMARK  2 active torsions:
REMARK  status: ('A' for Active; 'I' for Inactive)
REMARK    1  A    between atoms: C8_13  and  N4_14 
REMARK    2  A    between atoms: N4_14  and  C9_15 
ROOT
HETATM    1  F1  UNL     1       0.274  -2.636   0.006  1.00  0.00    -0.182 F 
HETATM    2  C1  UNL     1      -0.752  -1.737   0.109  1.00  0.00     0.234 A 
HETATM    3  N1  UNL     1      -1.661  -2.305   0.816  1.00  0.00    -0.239 NA
HETATM    4  C2  UNL     1      -2.935  -1.828   1.232  1.00  0.00     0.301 A 
HETATM    5  N2  UNL     1      -3.318  -0.527   0.836  1.00  0.00    -0.266 NA
HETATM    6  C3  UNL     1      -2.868   0.467   0.165  1.00  0.00     0.083 A 
HETATM    7  C4  UNL     1      -3.677   1.587   0.061  1.00  0.00     0.150 A 
HETATM    8  N3  UNL     1      -3.253   2.669  -0.636  1.00  0.00    -0.251 NA
HETATM    9  C5  UNL     1      -2.049   2.678  -1.238  1.00  0.00     0.103 A 
HETATM   10 BR1  UNL     1      -1.541   4.256  -2.201  1.00  0.00    -0.029 Br
HETATM   11  C6  UNL     1      -1.201   1.576  -1.162  1.00  0.00     0.055 A 
HETATM   12  C7  UNL     1      -1.637   0.480  -0.451  1.00  0.00     0.028 A 
HETATM   13  C8  UNL     1      -0.677  -0.425  -0.520  1.00  0.00     0.103 A 
ENDROOT
BRANCH  13  14
HETATM   14  N4  UNL     1       0.531  -0.237  -1.204  1.00  0.00    -0.355 N 
HETATM   15  H5  UNL     1       0.768  -0.067  -2.206  1.00  0.00     0.166 HD
BRANCH  14  16
HETATM   16  C9  UNL     1       1.782  -0.259  -0.507  1.00  0.00     0.014 A 
HETATM   17  C10 UNL     1       2.684  -1.178  -0.813  1.00  0.00     0.025 A 
HETATM   18  C11 UNL     1       3.986  -1.296  -0.172  1.00  0.00     0.002 A 
HETATM   19  C12 UNL     1       4.332  -0.461   0.776  1.00  0.00     0.004 A 
HETATM   20  P1  UNL     1       3.303   0.911   1.415  1.00  0.00    -0.100 P 
HETATM   21  C13 UNL     1       1.698   0.871   0.455  1.00  0.00     0.092 A 
HETATM   22  H9  UNL     1       3.068   0.738   2.840  1.00  0.00     0.062 HD
ENDBRANCH  14  16
ENDBRANCH  13  14
TORSDOF 2
