REMARK  9 active torsions:
REMARK  status: ('A' for Active; 'I' for Inactive)
REMARK    1  A    between atoms: N1_1  and  C1_2 
REMARK    2  A    between atoms: C1_2  and  C2_3 
REMARK    3  A    between atoms: C2_3  and  C3_4 
REMARK    4  A    between atoms: C3_4  and  C4_5 
REMARK    5  A    between atoms: C4_5  and  O1_6 
REMARK    6  A    between atoms: O1_6  and  C5_7 
REMARK    7  A    between atoms: C8_10  and  C9_11 
REMARK    8  A    between atoms: C9_11  and  N2_12 
REMARK    9  A    between atoms: N2_12  and  C10_13 
ROOT
HETATM    1  C5  UNL     1       1.082   0.079   0.058  1.00  0.00     0.164 A 
HETATM    2  C6  UNL     1      -0.095  -0.425  -0.480  1.00  0.00     0.072 A 
HETATM    3  C7  UNL     1      -0.719  -1.539   0.037  1.00  0.00     0.007 A 
HETATM    4  C8  UNL     1      -1.884  -2.011  -0.522  1.00  0.00    -0.009 A 
HETATM    5  C16 UNL     1      -2.428  -3.149   0.083  1.00  0.00     0.037 A 
HETATM    6 BR1  UNL     1      -4.031  -3.965  -0.609  1.00  0.00    -0.049 Br
HETATM    7  C17 UNL     1      -1.871  -3.785   1.167  1.00  0.00     0.137 A 
HETATM    8  N3  UNL     1      -0.732  -3.266   1.660  1.00  0.00    -0.257 NA
HETATM    9  C18 UNL     1      -0.145  -2.178   1.137  1.00  0.00     0.085 A 
HETATM   10  C19 UNL     1       1.023  -1.629   1.625  1.00  0.00     0.151 A 
HETATM   11  N4  UNL     1       1.627  -0.541   1.115  1.00  0.00    -0.235 NA
ENDROOT
BRANCH   4  12
HETATM   12  C9  UNL     1      -2.521  -1.375  -1.716  1.00  0.00     0.160 C 
BRANCH  12  13
HETATM   13  N2  UNL     1      -3.103  -0.098  -1.480  1.00  0.00    -0.386 N 
HETATM   14  H14 UNL     1      -2.706   0.633  -2.157  1.00  0.00     0.160 HD
BRANCH  13  15
HETATM   15  C10 UNL     1      -4.041   0.571  -0.658  1.00  0.00     0.028 A 
HETATM   16  C11 UNL     1      -4.389   1.926  -0.740  1.00  0.00     0.029 A 
HETATM   17  C12 UNL     1      -5.312   2.430   0.138  1.00  0.00     0.002 A 
HETATM   18  C13 UNL     1      -5.917   1.660   1.103  1.00  0.00     0.000 A 
HETATM   19  C14 UNL     1      -5.589   0.327   1.199  1.00  0.00     0.002 A 
HETATM   20  C15 UNL     1      -4.660  -0.181   0.317  1.00  0.00     0.029 A 
ENDBRANCH  13  15
ENDBRANCH  12  13
ENDBRANCH   4  12
BRANCH   1  21
HETATM   21  O1  UNL     1       1.594   1.191  -0.555  1.00  0.00    -0.334 OA
BRANCH  21  22
HETATM   22  C4  UNL     1       2.778   1.862  -0.171  1.00  0.00     0.177 C 
BRANCH  22  23
HETATM   23  C3  UNL     1       3.936   0.913  -0.270  1.00  0.00     0.028 C 
BRANCH  23  24
HETATM   24  C2  UNL     1       5.258   1.578   0.133  1.00  0.00     0.032 C 
BRANCH  24  25
HETATM   25  C1  UNL     1       6.320   0.511  -0.016  1.00  0.00     0.267 C 
BRANCH  25  26
HETATM   26  N1  UNL     1       7.639   1.000   0.334  1.00  0.00     0.078 N 
HETATM   27  H1  UNL     1       7.947   1.615  -0.451  1.00  0.00     0.312 HD
HETATM   28  H2  UNL     1       7.668   1.449   1.255  1.00  0.00     0.312 HD
ENDBRANCH  25  26
ENDBRANCH  24  25
ENDBRANCH  23  24
ENDBRANCH  22  23
ENDBRANCH  21  22
ENDBRANCH   1  21
TORSDOF 9
