REMARK  2 active torsions:
REMARK  status: ('A' for Active; 'I' for Inactive)
REMARK    1  A    between atoms: C9_12  and  N4_13 
REMARK    2  A    between atoms: N4_13  and  C10_14 
ROOT
HETATM    1  C1  UNL     1      -1.041   1.831   1.815  1.00  0.00     0.148 C 
HETATM    2  N1  UNL     1      -2.079   1.753   0.859  1.00  0.00    -0.392 N 
HETATM    3  C2  UNL     1      -1.340   0.888   0.014  1.00  0.00     0.086 C 
HETATM    4  C3  UNL     1      -0.459  -0.079  -0.133  1.00  0.00     0.033 C 
HETATM    5  C4  UNL     1       0.167  -0.860  -1.195  1.00  0.00     0.024 A 
HETATM    6  C5  UNL     1      -0.753  -1.913  -1.499  1.00  0.00     0.086 A 
HETATM    7  N2  UNL     1      -0.483  -2.758  -2.493  1.00  0.00    -0.257 NA
HETATM    8  C6  UNL     1       0.667  -2.632  -3.225  1.00  0.00     0.142 A 
HETATM    9  C7  UNL     1       1.514  -1.609  -2.888  1.00  0.00     0.089 A 
HETATM   10  C8  UNL     1       2.765  -1.337  -3.543  1.00  0.00     0.103 C 
HETATM   11  N3  UNL     1       3.794  -1.134  -4.083  1.00  0.00    -0.191 NA
HETATM   12  C9  UNL     1       1.300  -0.706  -1.883  1.00  0.00     0.067 A 
HETATM   13  C16 UNL     1      -1.925  -2.089  -0.656  1.00  0.00     0.145 C 
HETATM   14  N5  UNL     1      -2.778  -2.603   0.118  1.00  0.00    -0.274 NA
HETATM   15  C17 UNL     1      -3.934  -1.740   0.531  1.00  0.00     0.316 C 
HETATM   16  O1  UNL     1      -3.471  -0.475   0.348  1.00  0.00    -0.369 OA
HETATM   17  C18 UNL     1      -4.188   0.627   0.708  1.00  0.00     0.189 C 
HETATM   18  C19 UNL     1      -3.346   1.841   0.211  1.00  0.00     0.148 C 
ENDROOT
BRANCH  12  19
HETATM   19  N4  UNL     1       1.948   0.391  -1.299  1.00  0.00    -0.354 N 
HETATM   20  H7  UNL     1       1.614   1.222  -1.875  1.00  0.00     0.166 HD
BRANCH  19  21
HETATM   21  C10 UNL     1       2.856   0.576  -0.218  1.00  0.00     0.033 A 
HETATM   22  C11 UNL     1       3.318   1.849   0.037  1.00  0.00     0.029 A 
HETATM   23  C12 UNL     1       4.189   1.956   1.096  1.00  0.00     0.004 A 
HETATM   24  C13 UNL     1       4.576   0.868   1.854  1.00  0.00     0.019 A 
HETATM   25  C14 UNL     1       4.073  -0.380   1.542  1.00  0.00     0.013 A 
HETATM   26 BR1  UNL     1       4.644  -1.866   2.629  1.00  0.00    -0.051 Br
HETATM   27  C15 UNL     1       3.182  -0.570   0.478  1.00  0.00     0.048 A 
ENDBRANCH  19  21
ENDBRANCH  12  19
TORSDOF 2
