REMARK  7 active torsions:
REMARK  status: ('A' for Active; 'I' for Inactive)
REMARK    1  A    between atoms: C2_2  and  C3_3 
REMARK    2  A    between atoms: C4_5  and  C5_6 
REMARK    3  A    between atoms: C5_6  and  C6_7 
REMARK    4  A    between atoms: C12_16  and  O1_17 
REMARK    5  A    between atoms: O1_17  and  C13_18 
REMARK    6  A    between atoms: C13_18  and  C14_19 
REMARK    7  A    between atoms: C14_19  and  N4_20 
ROOT
HETATM    1  C6  UNL     1       2.022   1.120   0.438  1.00  0.00    -0.020 A 
HETATM    2  C7  UNL     1       2.583   2.375   0.539  1.00  0.00     0.069 A 
HETATM    3  C8  UNL     1       3.966   2.462   0.805  1.00  0.00     0.101 C 
HETATM    4  N1  UNL     1       5.078   2.550   1.015  1.00  0.00    -0.191 NA
HETATM    5  C9  UNL     1       1.862   3.553   0.384  1.00  0.00     0.140 A 
HETATM    6  N2  UNL     1       0.543   3.517   0.118  1.00  0.00    -0.257 NA
HETATM    7  C10 UNL     1      -0.024   2.292   0.014  1.00  0.00     0.085 A 
HETATM    8  C11 UNL     1      -1.372   2.314  -0.262  1.00  0.00     0.151 A 
HETATM    9  N3  UNL     1      -2.042   1.156  -0.391  1.00  0.00    -0.235 NA
HETATM   10  C12 UNL     1      -1.452  -0.044  -0.261  1.00  0.00     0.164 A 
HETATM   11  C17 UNL     1      -0.100  -0.043   0.015  1.00  0.00     0.072 A 
HETATM   12  C18 UNL     1       0.659   1.088   0.163  1.00  0.00     0.006 A 
ENDROOT
BRANCH   1  13
HETATM   13  C5  UNL     1       2.647  -0.180   0.586  1.00  0.00     0.069 C 
BRANCH  13  14
HETATM   14  C4  UNL     1       4.034  -0.245   1.021  1.00  0.00    -0.007 C 
HETATM   15  C3  UNL     1       5.190  -0.691   0.548  1.00  0.00    -0.015 C 
HETATM   16 BR1  UNL     1       6.793  -0.540   1.523  1.00  0.00    -0.056 Br
BRANCH  15  17
HETATM   17  C2  UNL     1       5.326  -1.342  -0.787  1.00  0.00     0.041 C 
HETATM   18  C1  UNL     1       6.301  -0.521  -1.598  1.00  0.00     0.010 C 
ENDBRANCH  15  17
ENDBRANCH  13  14
ENDBRANCH   1  13
BRANCH  10  19
HETATM   19  O1  UNL     1      -2.075  -1.273  -0.381  1.00  0.00    -0.333 OA
BRANCH  19  20
HETATM   20  C13 UNL     1      -3.440  -1.451  -0.659  1.00  0.00     0.207 C 
BRANCH  20  21
HETATM   21  C14 UNL     1      -4.270  -0.825   0.410  1.00  0.00     0.298 C 
BRANCH  21  22
HETATM   22  N4  UNL     1      -5.693  -0.970   0.187  1.00  0.00     0.082 N 
HETATM   23  C15 UNL     1      -6.175  -0.223  -0.931  1.00  0.00     0.309 C 
HETATM   24  C16 UNL     1      -6.161  -2.323   0.230  1.00  0.00     0.309 C 
ENDBRANCH  21  22
ENDBRANCH  20  21
ENDBRANCH  19  20
ENDBRANCH  10  19
TORSDOF 7
