REMARK  8 active torsions:
REMARK  status: ('A' for Active; 'I' for Inactive)
REMARK    1  A    between atoms: C2_2  and  C3_3 
REMARK    2  A    between atoms: C3_3  and  N1_4 
REMARK    3  A    between atoms: N1_4  and  C4_5 
REMARK    4  A    between atoms: C4_5  and  C5_6 
REMARK    5  A    between atoms: C5_6  and  O1_7 
REMARK    6  A    between atoms: O1_7  and  C6_8 
REMARK    7  A    between atoms: C9_11  and  N2_12 
REMARK    8  A    between atoms: N2_12  and  C10_13 
ROOT
HETATM    1  C6  UNL     1      -0.633  -0.619   0.619  1.00  0.00     0.165 A 
HETATM    2  C7  UNL     1       0.595  -0.391  -0.030  1.00  0.00     0.074 A 
HETATM    3  C8  UNL     1       0.936   0.918  -0.343  1.00  0.00     0.026 A 
HETATM    4  C9  UNL     1       2.126   1.210  -0.995  1.00  0.00     0.068 A 
HETATM    5  C16 UNL     1       2.415   2.536  -1.303  1.00  0.00     0.089 A 
HETATM    6  C17 UNL     1       3.640   2.846  -1.986  1.00  0.00     0.103 C 
HETATM    7  N3  UNL     1       4.611   3.085  -2.547  1.00  0.00    -0.191 NA
HETATM    8  C18 UNL     1       1.569   3.595  -0.988  1.00  0.00     0.142 A 
HETATM    9  N4  UNL     1       0.406   3.281  -0.346  1.00  0.00    -0.257 NA
HETATM   10  C19 UNL     1       0.137   1.988  -0.054  1.00  0.00     0.086 A 
HETATM   11  C20 UNL     1      -1.053   1.728   0.579  1.00  0.00     0.152 A 
HETATM   12  N5  UNL     1      -1.376   0.480   0.880  1.00  0.00    -0.235 NA
ENDROOT
BRANCH   4  13
HETATM   13  N2  UNL     1       3.070   0.204  -1.339  1.00  0.00    -0.354 N 
HETATM   14  H14 UNL     1       3.109  -0.374  -2.220  1.00  0.00     0.166 HD
BRANCH  13  15
HETATM   15  C10 UNL     1       4.106  -0.093  -0.421  1.00  0.00     0.033 A 
HETATM   16  C11 UNL     1       4.160   0.536   0.835  1.00  0.00     0.029 A 
HETATM   17  C12 UNL     1       5.170   0.239   1.727  1.00  0.00     0.004 A 
HETATM   18  C13 UNL     1       6.160  -0.674   1.440  1.00  0.00     0.019 A 
HETATM   19  C14 UNL     1       6.148  -1.325   0.201  1.00  0.00     0.013 A 
HETATM   20 BR1  UNL     1       7.506  -2.577  -0.193  1.00  0.00    -0.051 Br
HETATM   21  C15 UNL     1       5.125  -0.997  -0.652  1.00  0.00     0.048 A 
ENDBRANCH  13  15
ENDBRANCH   4  13
BRANCH   1  22
HETATM   22  O1  UNL     1      -0.795  -1.951   0.846  1.00  0.00    -0.333 OA
BRANCH  22  23
HETATM   23  C5  UNL     1      -1.866  -2.556   1.450  1.00  0.00     0.207 C 
BRANCH  23  24
HETATM   24  C4  UNL     1      -3.161  -2.404   0.768  1.00  0.00     0.296 C 
BRANCH  24  25
HETATM   25  N1  UNL     1      -3.691  -1.084   0.572  1.00  0.00     0.085 N 
HETATM   26  H8  UNL     1      -3.360  -0.701  -0.392  1.00  0.00     0.315 HD
BRANCH  25  27
HETATM   27  C3  UNL     1      -5.130  -1.318   0.253  1.00  0.00     0.269 C 
BRANCH  27  28
HETATM   28  C2  UNL     1      -5.905  -0.066   0.098  1.00  0.00     0.025 C 
HETATM   29  C1  UNL     1      -5.501   0.858  -0.994  1.00  0.00     0.007 C 
ENDBRANCH  27  28
ENDBRANCH  25  27
ENDBRANCH  24  25
ENDBRANCH  23  24
ENDBRANCH  22  23
ENDBRANCH   1  22
TORSDOF 8
