REMARK  6 active torsions:
REMARK  status: ('A' for Active; 'I' for Inactive)
REMARK    1  A    between atoms: N1_2  and  C3_4 
REMARK    2  A    between atoms: C3_4  and  C4_5 
REMARK    3  A    between atoms: C4_5  and  O1_6 
REMARK    4  A    between atoms: O1_6  and  C5_7 
REMARK    5  A    between atoms: C11_13  and  N2_14 
REMARK    6  A    between atoms: N2_14  and  C12_15 
ROOT
HETATM    1  C5  UNL     1       1.401   0.869  -0.933  1.00  0.00     0.069 A 
HETATM    2  C6  UNL     1       1.516   2.222  -0.852  1.00  0.00     0.039 A 
HETATM    3  C7  UNL     1       0.607   3.074  -0.275  1.00  0.00     0.035 A 
HETATM    4  C8  UNL     1      -0.537   2.555   0.283  1.00  0.00     0.063 A 
HETATM    5  C9  UNL     1      -0.755   1.189   0.256  1.00  0.00     0.017 A 
HETATM    6  C10 UNL     1       0.221   0.386  -0.352  1.00  0.00     0.052 A 
HETATM    7  C11 UNL     1      -1.782   0.528   0.744  1.00  0.00     0.022 C 
HETATM    8  C18 UNL     1      -2.961   1.086   1.450  1.00  0.00     0.059 C 
HETATM    9  C19 UNL     1      -2.608   2.271   2.333  1.00  0.00     0.028 C 
HETATM   10  C20 UNL     1      -2.524   3.478   1.442  1.00  0.00     0.150 C 
HETATM   11  N3  UNL     1      -1.248   3.512   0.764  1.00  0.00    -0.289 NA
ENDROOT
BRANCH   7  12
HETATM   12  N2  UNL     1      -1.782  -0.865   0.597  1.00  0.00    -0.359 N 
HETATM   13  H14 UNL     1      -1.195  -1.666   0.987  1.00  0.00     0.166 HD
BRANCH  12  14
HETATM   14  C12 UNL     1      -2.611  -1.768  -0.155  1.00  0.00     0.033 A 
HETATM   15  C13 UNL     1      -2.422  -2.221  -1.451  1.00  0.00     0.029 A 
HETATM   16  C14 UNL     1      -3.323  -3.084  -2.015  1.00  0.00     0.004 A 
HETATM   17  C15 UNL     1      -4.441  -3.548  -1.359  1.00  0.00     0.019 A 
HETATM   18  C16 UNL     1      -4.687  -3.135  -0.067  1.00  0.00     0.013 A 
HETATM   19 BR1  UNL     1      -6.189  -3.688   0.972  1.00  0.00    -0.051 Br
HETATM   20  C17 UNL     1      -3.750  -2.252   0.486  1.00  0.00     0.048 A 
ENDBRANCH  12  14
ENDBRANCH   7  12
BRANCH   1  21
HETATM   21  O1  UNL     1       2.137  -0.148  -1.428  1.00  0.00    -0.350 OA
BRANCH  21  22
HETATM   22  C4  UNL     1       3.371  -0.047  -2.027  1.00  0.00     0.195 C 
BRANCH  22  23
HETATM   23  C3  UNL     1       4.421   0.424  -1.049  1.00  0.00     0.142 C 
BRANCH  23  24
HETATM   24  N1  UNL     1       4.526  -0.506   0.014  1.00  0.00    -0.419 N 
HETATM   25  C1  UNL     1       3.487  -0.659   0.936  1.00  0.00     0.142 C 
HETATM   26  C2  UNL     1       5.664  -1.332   0.084  1.00  0.00     0.142 C 
ENDBRANCH  23  24
ENDBRANCH  22  23
ENDBRANCH  21  22
ENDBRANCH   1  21
TORSDOF 6
