REMARK  8 active torsions:
REMARK  status: ('A' for Active; 'I' for Inactive)
REMARK    1  A    between atoms: N1_2  and  C2_3 
REMARK    2  A    between atoms: C2_3  and  C3_4 
REMARK    3  A    between atoms: C3_4  and  C4_5 
REMARK    4  A    between atoms: C4_5  and  C5_6 
REMARK    5  A    between atoms: C5_6  and  O1_7 
REMARK    6  A    between atoms: O1_7  and  C6_8 
REMARK    7  A    between atoms: C9_11  and  N2_12 
REMARK    8  A    between atoms: N2_12  and  C10_13 
ROOT
HETATM    1  C6  UNL     1       0.829  -0.081   0.191  1.00  0.00     0.164 A 
HETATM    2  C7  UNL     1      -0.476   0.368   0.429  1.00  0.00     0.074 A 
HETATM    3  C8  UNL     1      -0.979   1.535  -0.157  1.00  0.00     0.026 A 
HETATM    4  C9  UNL     1      -2.254   2.015   0.047  1.00  0.00     0.068 A 
HETATM    5  C16 UNL     1      -2.698   3.172  -0.556  1.00  0.00     0.089 A 
HETATM    6  C17 UNL     1      -4.050   3.642  -0.313  1.00  0.00     0.103 C 
HETATM    7  N3  UNL     1      -5.113   3.993  -0.114  1.00  0.00    -0.191 NA
HETATM    8  C18 UNL     1      -1.846   3.885  -1.397  1.00  0.00     0.142 A 
HETATM    9  N4  UNL     1      -0.601   3.397  -1.584  1.00  0.00    -0.257 NA
HETATM   10  C19 UNL     1      -0.175   2.278  -0.998  1.00  0.00     0.086 A 
HETATM   11  C20 UNL     1       1.095   1.802  -1.203  1.00  0.00     0.152 A 
HETATM   12  N5  UNL     1       1.563   0.681  -0.634  1.00  0.00    -0.235 NA
ENDROOT
BRANCH   4  13
HETATM   13  N2  UNL     1      -3.114   1.290   0.899  1.00  0.00    -0.354 N 
HETATM   14  H14 UNL     1      -2.937   1.689   1.836  1.00  0.00     0.166 HD
BRANCH  13  15
HETATM   15  C10 UNL     1      -4.035   0.247   0.624  1.00  0.00     0.033 A 
HETATM   16  C11 UNL     1      -4.729  -0.256   1.704  1.00  0.00     0.029 A 
HETATM   17  C12 UNL     1      -5.640  -1.272   1.501  1.00  0.00     0.004 A 
HETATM   18  C13 UNL     1      -5.827  -1.754   0.200  1.00  0.00     0.019 A 
HETATM   19  C14 UNL     1      -5.099  -1.204  -0.835  1.00  0.00     0.013 A 
HETATM   20 BR1  UNL     1      -5.414  -1.919  -2.573  1.00  0.00    -0.051 Br
HETATM   21  C15 UNL     1      -4.180  -0.190  -0.673  1.00  0.00     0.048 A 
ENDBRANCH  13  15
ENDBRANCH   4  13
BRANCH   1  22
HETATM   22  O1  UNL     1       1.040  -1.233   0.889  1.00  0.00    -0.334 OA
BRANCH  22  23
HETATM   23  C5  UNL     1       2.247  -1.962   0.883  1.00  0.00     0.177 C 
BRANCH  23  24
HETATM   24  C4  UNL     1       3.348  -1.042   1.402  1.00  0.00     0.028 C 
BRANCH  24  25
HETATM   25  C3  UNL     1       4.683  -1.687   1.457  1.00  0.00     0.032 C 
BRANCH  25  26
HETATM   26  C2  UNL     1       5.299  -2.136   0.179  1.00  0.00     0.269 C 
BRANCH  26  27
HETATM   27  N1  UNL     1       5.651  -1.187  -0.787  1.00  0.00     0.079 N 
HETATM   28  C1  UNL     1       4.622  -0.496  -1.469  1.00  0.00     0.306 C 
HETATM   29  H4  UNL     1       6.378  -0.537  -0.453  1.00  0.00     0.315 HD
ENDBRANCH  26  27
ENDBRANCH  25  26
ENDBRANCH  24  25
ENDBRANCH  23  24
ENDBRANCH  22  23
ENDBRANCH   1  22
TORSDOF 8
