REMARK  7 active torsions:
REMARK  status: ('A' for Active; 'I' for Inactive)
REMARK    1  A    between atoms: O1_2  and  C2_3 
REMARK    2  A    between atoms: C2_3  and  C3_4 
REMARK    3  A    between atoms: C3_4  and  C4_5 
REMARK    4  A    between atoms: C5_6  and  O2_7 
REMARK    5  A    between atoms: O2_7  and  C6_8 
REMARK    6  A    between atoms: C6_8  and  C7_9 
REMARK    7  A    between atoms: C7_9  and  O3_10 
ROOT
HETATM    1  C4  UNL     1       1.443   0.222  -0.477  1.00  0.00    -0.022 C 
HETATM    2  C5  UNL     1       1.396  -1.134  -0.479  1.00  0.00     0.077 C 
HETATM    3  C8  UNL     1       0.283  -2.052  -0.131  1.00  0.00     0.063 C 
HETATM    4  C9  UNL     1      -0.863  -1.632   0.379  1.00  0.00     0.024 C 
HETATM    5  C10 UNL     1      -1.202  -0.367   1.109  1.00  0.00     0.093 C 
HETATM    6  C11 UNL     1      -0.948   0.829   0.231  1.00  0.00    -0.054 C 
HETATM    7  C12 UNL     1       0.227   1.013  -0.399  1.00  0.00     0.015 C 
HETATM    8  C13 UNL     1      -1.879   1.939  -0.078  1.00  0.00     0.184 C 
HETATM    9  N1  UNL     1      -2.622   2.443   1.020  1.00  0.00    -0.280 NA
HETATM   10  C14 UNL     1      -3.851   2.815   1.035  1.00  0.00     0.209 C 
HETATM   11  N2  UNL     1      -4.886   2.876   0.063  1.00  0.00    -0.310 N 
HETATM   12  C15 UNL     1      -5.022   1.553  -0.220  1.00  0.00     0.012 C 
HETATM   13  C16 UNL     1      -5.116   0.443  -0.456  1.00  0.00    -0.071 C 
HETATM   14  C17 UNL     1      -5.209  -0.947  -0.749  1.00  0.00     0.191 C 
HETATM   15  C18 UNL     1      -3.969  -1.608  -0.453  1.00  0.00    -0.071 C 
HETATM   16  C19 UNL     1      -2.976  -2.116  -0.213  1.00  0.00     0.011 C 
HETATM   17  N3  UNL     1      -1.791  -2.696   0.079  1.00  0.00    -0.319 N 
HETATM   18  H20 UNL     1      -5.451   3.612  -0.388  1.00  0.00     0.177 HD
HETATM   19  H23 UNL     1      -1.613  -3.709   0.078  1.00  0.00     0.176 HD
ENDROOT
BRANCH   2  20
HETATM   20  O2  UNL     1       2.560  -1.803  -0.863  1.00  0.00    -0.348 OA
BRANCH  20  21
HETATM   21  C6  UNL     1       3.068  -2.779  -0.002  1.00  0.00     0.201 C 
BRANCH  21  22
HETATM   22  C7  UNL     1       4.328  -3.442  -0.519  1.00  0.00     0.190 C 
BRANCH  22  23
HETATM   23  O3  UNL     1       4.718  -4.393   0.447  1.00  0.00    -0.399 OA
HETATM   24  H12 UNL     1       4.241  -4.247   1.295  1.00  0.00     0.209 HD
ENDBRANCH  22  23
ENDBRANCH  21  22
ENDBRANCH  20  21
ENDBRANCH   2  20
BRANCH   1  25
HETATM   25  C3  UNL     1       2.815   0.780  -0.565  1.00  0.00     0.067 C 
BRANCH  25  26
HETATM   26  C2  UNL     1       3.101   1.568   0.679  1.00  0.00     0.171 C 
BRANCH  26  27
HETATM   27  O1  UNL     1       2.274   2.664   0.837  1.00  0.00    -0.396 OA
HETATM   28  C1  UNL     1       2.447   3.635  -0.140  1.00  0.00     0.201 C 
ENDBRANCH  26  27
ENDBRANCH  25  26
ENDBRANCH   1  25
TORSDOF 7
