REMARK  3 active torsions:
REMARK  status: ('A' for Active; 'I' for Inactive)
REMARK    1  A    between atoms: N1_2  and  C3_4 
REMARK    2  A    between atoms: C11_14  and  N3_15 
REMARK    3  A    between atoms: N3_15  and  C12_16 
ROOT
HETATM    1  C3  UNL     1      -2.802   0.521   0.144  1.00  0.00     0.146 A 
HETATM    2  C4  UNL     1      -1.563  -0.092   0.059  1.00  0.00     0.072 A 
HETATM    3  C5  UNL     1      -0.723   0.654  -0.782  1.00  0.00     0.027 A 
HETATM    4  C6  UNL     1      -1.535   1.700  -1.164  1.00  0.00     0.101 A 
HETATM    5  O1  UNL     1      -2.714   1.579  -0.606  1.00  0.00    -0.292 OA
HETATM    6  C7  UNL     1      -1.013   2.581  -1.972  1.00  0.00     0.009 C 
HETATM    7  C8  UNL     1      -0.185   2.082  -2.878  1.00  0.00     0.013 C 
HETATM    8  C9  UNL     1       0.982   1.560  -2.081  1.00  0.00     0.167 C 
HETATM    9  C10 UNL     1       1.483   2.731  -1.353  1.00  0.00     0.074 C 
HETATM   10  N2  UNL     1       1.864   3.674  -0.766  1.00  0.00    -0.196 NA
HETATM   11  C11 UNL     1       0.559   0.456  -1.167  1.00  0.00     0.044 C 
ENDROOT
BRANCH  11  12
HETATM   12  N3  UNL     1       1.165  -0.708  -0.631  1.00  0.00    -0.357 N 
HETATM   13  H10 UNL     1       0.517  -1.558  -0.681  1.00  0.00     0.166 HD
BRANCH  12  14
HETATM   14  C12 UNL     1       2.426  -0.982  -0.065  1.00  0.00     0.033 A 
HETATM   15  C13 UNL     1       2.706  -2.223   0.504  1.00  0.00     0.029 A 
HETATM   16  C14 UNL     1       3.912  -2.543   1.063  1.00  0.00     0.004 A 
HETATM   17  C15 UNL     1       4.937  -1.621   1.087  1.00  0.00     0.019 A 
HETATM   18  C16 UNL     1       4.727  -0.362   0.538  1.00  0.00     0.013 A 
HETATM   19 BR1  UNL     1       6.122   0.958   0.539  1.00  0.00    -0.051 Br
HETATM   20  C17 UNL     1       3.489  -0.108  -0.008  1.00  0.00     0.048 A 
ENDBRANCH  12  14
ENDBRANCH  11  12
BRANCH   1  21
HETATM   21  N1  UNL     1      -3.841  -0.045   0.943  1.00  0.00    -0.370 N 
HETATM   22  C1  UNL     1      -3.597  -0.092   2.367  1.00  0.00     0.151 C 
HETATM   23  C2  UNL     1      -5.112  -0.571   0.481  1.00  0.00     0.151 C 
ENDBRANCH   1  21
TORSDOF 3
