REMARK  6 active torsions:
REMARK  status: ('A' for Active; 'I' for Inactive)
REMARK    1  A    between atoms: N1_2  and  C3_4 
REMARK    2  A    between atoms: C3_4  and  C4_5 
REMARK    3  A    between atoms: C5_6  and  C6_7 
REMARK       I    between atoms: C6_7  and  N2_9 
REMARK    4  A    between atoms: N2_9  and  C7_10 
REMARK    5  A    between atoms: C13_19  and  N6_21 
REMARK    6  A    between atoms: N6_21  and  C15_22 
ROOT
HETATM    1  C7  UNL     1      -0.796  -0.770  -2.061  1.00  0.00     0.241 C 
HETATM    2  N3  UNL     1      -0.452  -0.934  -3.424  1.00  0.00    -0.272 NA
HETATM    3  C8  UNL     1      -0.677  -0.568  -4.636  1.00  0.00     0.132 C 
HETATM    4  C9  UNL     1      -1.645   0.429  -5.158  1.00  0.00     0.135 C 
HETATM    5  N4  UNL     1      -2.816   0.749  -4.703  1.00  0.00    -0.270 NA
HETATM    6  C10 UNL     1      -3.626   0.332  -3.608  1.00  0.00     0.137 C 
HETATM    7  C11 UNL     1      -3.240  -0.268  -2.491  1.00  0.00     0.071 C 
HETATM    8  C12 UNL     1      -4.489  -0.452  -1.744  1.00  0.00     0.099 C 
HETATM    9  N5  UNL     1      -5.492  -0.611  -1.127  1.00  0.00    -0.192 NA
HETATM   10  C13 UNL     1      -2.197  -0.834  -1.630  1.00  0.00     0.105 C 
HETATM   11  C14 UNL     1      -2.562  -2.317  -1.442  1.00  0.00     0.049 C 
ENDROOT
BRANCH  10  12
HETATM   12  N6  UNL     1      -2.256  -0.273  -0.276  1.00  0.00    -0.372 N 
HETATM   13  H19 UNL     1      -2.818   0.628  -0.339  1.00  0.00     0.161 HD
BRANCH  12  14
HETATM   14  C15 UNL     1      -1.771  -0.616   1.005  1.00  0.00     0.030 A 
HETATM   15  C16 UNL     1      -1.037  -1.738   1.310  1.00  0.00     0.029 A 
HETATM   16  C17 UNL     1      -0.550  -2.087   2.550  1.00  0.00     0.004 A 
HETATM   17  C18 UNL     1      -0.854  -1.185   3.562  1.00  0.00     0.019 A 
HETATM   18  C19 UNL     1      -1.579  -0.061   3.304  1.00  0.00     0.013 A 
HETATM   19 BR1  UNL     1      -1.979   1.160   4.731  1.00  0.00    -0.051 Br
HETATM   20  C20 UNL     1      -2.041   0.238   2.045  1.00  0.00     0.048 A 
ENDBRANCH  12  14
ENDBRANCH  10  12
BRANCH   1  21
HETATM   21  N2  UNL     1      -0.144   0.479  -1.618  1.00  0.00    -0.332 N 
HETATM   22  C6  UNL     1       1.005   0.486  -0.781  1.00  0.00     0.242 C 
HETATM   23  O1  UNL     1       1.480  -0.617  -0.408  1.00  0.00    -0.269 OA
HETATM   24  H11 UNL     1      -0.565   1.387  -1.949  1.00  0.00     0.165 HD
BRANCH  22  25
HETATM   25  C5  UNL     1       1.591   1.756  -0.384  1.00  0.00     0.072 C 
HETATM   26  C4  UNL     1       2.657   1.865   0.384  1.00  0.00     0.008 C 
BRANCH  26  27
HETATM   27  C3  UNL     1       3.595   0.974   1.081  1.00  0.00     0.299 C 
BRANCH  27  28
HETATM   28  N1  UNL     1       3.639   1.166   2.519  1.00  0.00     0.083 N 
HETATM   29  C1  UNL     1       4.219   2.436   2.902  1.00  0.00     0.309 C 
HETATM   30  C2  UNL     1       4.323   0.065   3.170  1.00  0.00     0.309 C 
ENDBRANCH  27  28
ENDBRANCH  26  27
ENDBRANCH  22  25
ENDBRANCH   1  21
TORSDOF 6
