REMARK  4 active torsions:
REMARK  status: ('A' for Active; 'I' for Inactive)
REMARK    1  A    between atoms: N1_2  and  C3_4 
REMARK    2  A    between atoms: C3_4  and  C4_5 
REMARK    3  A    between atoms: C5_6  and  C6_7 
REMARK       I    between atoms: C6_7  and  N2_9 
REMARK    4  A    between atoms: N2_9  and  C7_10 
ROOT
HETATM    1  C7  UNL     1       0.460   0.686   0.505  1.00  0.00     0.130 A 
HETATM    2  C8  UNL     1      -0.582  -0.219   0.399  1.00  0.00     0.064 A 
HETATM    3  C9  UNL     1      -1.880   0.221   0.448  1.00  0.00    -0.004 A 
HETATM    4  C10 UNL     1      -2.082   1.569   0.602  1.00  0.00     0.084 A 
HETATM    5  C11 UNL     1      -1.035   2.461   0.707  1.00  0.00     0.151 A 
HETATM    6  N3  UNL     1       0.251   2.015   0.657  1.00  0.00    -0.241 NA
HETATM    7  N4  UNL     1      -3.067   2.398   0.669  1.00  0.00    -0.256 NA
HETATM    8  C12 UNL     1      -4.491   2.203   0.598  1.00  0.00     0.158 C 
HETATM    9  C13 UNL     1      -5.283   1.147   0.302  1.00  0.00     0.134 C 
HETATM   10  C14 UNL     1      -6.707   1.457   0.365  1.00  0.00     0.119 C 
HETATM   11  N5  UNL     1      -7.845   1.710   0.416  1.00  0.00    -0.190 NA
HETATM   12  N6  UNL     1      -5.041  -0.232  -0.067  1.00  0.00    -0.334 N 
HETATM   13  C15 UNL     1      -6.121  -0.423  -1.017  1.00  0.00     0.112 C 
HETATM   14  C16 UNL     1      -6.109  -1.569  -1.708  1.00  0.00     0.026 C 
HETATM   15 BR1  UNL     1      -7.475  -1.921  -2.989  1.00  0.00    -0.050 Br
HETATM   16  C17 UNL     1      -5.114  -2.610  -1.488  1.00  0.00     0.019 C 
HETATM   17  C18 UNL     1      -4.203  -2.415  -0.573  1.00  0.00     0.004 C 
HETATM   18  C19 UNL     1      -4.074  -1.200   0.304  1.00  0.00     0.137 C 
HETATM   19  C20 UNL     1      -2.676  -0.806   0.342  1.00  0.00     0.016 C 
ENDROOT
BRANCH   1  20
HETATM   20  N2  UNL     1       1.825   0.224   0.454  1.00  0.00    -0.308 N 
HETATM   21  C6  UNL     1       2.430  -0.127   1.699  1.00  0.00     0.246 C 
HETATM   22  O1  UNL     1       1.527   0.084   2.542  1.00  0.00    -0.268 OA
HETATM   23  H11 UNL     1       2.153   0.227  -0.545  1.00  0.00     0.170 HD
BRANCH  21  24
HETATM   24  C5  UNL     1       3.796  -0.579   1.565  1.00  0.00     0.072 C 
HETATM   25  C4  UNL     1       4.831  -0.843   0.810  1.00  0.00     0.008 C 
BRANCH  25  26
HETATM   26  C3  UNL     1       5.189  -0.795  -0.621  1.00  0.00     0.299 C 
BRANCH  26  27
HETATM   27  N1  UNL     1       6.317   0.091  -0.854  1.00  0.00     0.083 N 
HETATM   28  C1  UNL     1       5.890   1.453  -0.594  1.00  0.00     0.309 C 
HETATM   29  C2  UNL     1       7.458  -0.216  -0.014  1.00  0.00     0.309 C 
ENDBRANCH  26  27
ENDBRANCH  25  26
ENDBRANCH  21  24
ENDBRANCH   1  20
TORSDOF 4
