REMARK  3 active torsions:
REMARK  status: ('A' for Active; 'I' for Inactive)
REMARK    1  A    between atoms: O1_2  and  C2_3 
REMARK    2  A    between atoms: C2_3  and  C3_4 
REMARK    3  A    between atoms: C9_12  and  O4_13 
ROOT
HETATM    1  C3  UNL     1      -1.018   0.663   0.419  1.00  0.00     0.082 C 
HETATM    2  C4  UNL     1      -0.265   1.879  -0.133  1.00  0.00    -0.005 C 
HETATM    3  C5  UNL     1       0.592   1.793  -1.176  1.00  0.00    -0.003 C 
HETATM    4  C6  UNL     1       1.581   1.914  -2.316  1.00  0.00     0.201 C 
HETATM    5  O2  UNL     1       2.693   1.103  -2.085  1.00  0.00    -0.358 OA
HETATM    6  C7  UNL     1       3.515   0.472  -2.959  1.00  0.00     0.159 C 
HETATM    7  C8  UNL     1       3.430  -0.551  -2.134  1.00  0.00     0.164 C 
HETATM    8  O3  UNL     1       2.863  -0.821  -1.052  1.00  0.00    -0.311 OA
HETATM    9  C9  UNL     1       2.257  -1.109   0.102  1.00  0.00     0.398 C 
HETATM   10  N1  UNL     1       1.137  -0.263   0.324  1.00  0.00    -0.218 NA
HETATM   11  C11 UNL     1      -0.104  -0.463   0.038  1.00  0.00     0.119 C 
HETATM   12  N2  UNL     1      -0.239  -1.725  -0.573  1.00  0.00    -0.374 N 
HETATM   13  C12 UNL     1      -1.083  -2.846  -0.531  1.00  0.00     0.148 C 
HETATM   14  C13 UNL     1      -2.512  -2.652  -0.321  1.00  0.00    -0.007 C 
HETATM   15  C14 UNL     1      -3.397  -1.670  -0.275  1.00  0.00    -0.002 C 
HETATM   16  C15 UNL     1      -3.337  -0.244  -0.424  1.00  0.00     0.004 C 
HETATM   17  C16 UNL     1      -2.357   0.592  -0.123  1.00  0.00    -0.062 C 
HETATM   18  C17 UNL     1      -2.791   1.993  -0.473  1.00  0.00     0.045 C 
HETATM   19  H16 UNL     1       0.565  -1.809  -1.271  1.00  0.00     0.161 HD
ENDROOT
BRANCH   1  20
HETATM   20  C2  UNL     1      -0.912   0.834   1.912  1.00  0.00     0.193 C 
BRANCH  20  21
HETATM   21  O1  UNL     1      -1.513   2.043   2.228  1.00  0.00    -0.394 OA
HETATM   22  C1  UNL     1      -1.502   2.355   3.574  1.00  0.00     0.201 C 
ENDBRANCH  20  21
ENDBRANCH   1  20
BRANCH   9  23
HETATM   23  O4  UNL     1       3.235  -0.929   1.137  1.00  0.00    -0.347 OA
HETATM   24  C10 UNL     1       3.374  -2.126   1.842  1.00  0.00     0.206 C 
ENDBRANCH   9  23
TORSDOF 3
