REMARK  5 active torsions:
REMARK  status: ('A' for Active; 'I' for Inactive)
REMARK    1  A    between atoms: N1_2  and  C3_4 
REMARK    2  A    between atoms: C3_4  and  C4_5 
REMARK    3  A    between atoms: C5_6  and  C6_7 
REMARK       I    between atoms: C6_7  and  N2_9 
REMARK    4  A    between atoms: N2_9  and  C7_10 
REMARK    5  A    between atoms: C10_13  and  N3_14 
ROOT
HETATM    1  C7  UNL     1      -0.161  -1.083   0.932  1.00  0.00     0.131 A 
HETATM    2  C8  UNL     1      -1.430  -0.632   0.543  1.00  0.00     0.066 A 
HETATM    3  C9  UNL     1      -2.489  -1.414   0.988  1.00  0.00     0.026 A 
HETATM    4  C10 UNL     1      -3.749  -0.955   0.613  1.00  0.00     0.073 A 
HETATM    5  C16 UNL     1      -4.797  -1.736   1.079  1.00  0.00     0.090 A 
HETATM    6  C17 UNL     1      -6.164  -1.369   0.768  1.00  0.00     0.103 C 
HETATM    7  N4  UNL     1      -7.263  -1.077   0.498  1.00  0.00    -0.191 NA
HETATM    8  C18 UNL     1      -4.611  -2.867   1.845  1.00  0.00     0.142 A 
HETATM    9  N5  UNL     1      -3.382  -3.268   2.180  1.00  0.00    -0.257 NA
HETATM   10  C19 UNL     1      -2.331  -2.547   1.755  1.00  0.00     0.086 A 
HETATM   11  C20 UNL     1      -1.052  -2.956   2.116  1.00  0.00     0.151 A 
HETATM   12  N6  UNL     1      -0.049  -2.188   1.675  1.00  0.00    -0.241 NA
ENDROOT
BRANCH   4  13
HETATM   13  N3  UNL     1      -4.029   0.187  -0.189  1.00  0.00    -0.330 N 
HETATM   14  C11 UNL     1      -3.934   1.555   0.183  1.00  0.00     0.093 A 
HETATM   15  C12 UNL     1      -4.262   2.475  -0.688  1.00  0.00    -0.004 A 
HETATM   16  C13 UNL     1      -4.737   2.217  -2.058  1.00  0.00     0.076 A 
HETATM   17  C14 UNL     1      -4.820   0.777  -2.407  1.00  0.00     0.008 A 
HETATM   18 BR1  UNL     1      -5.432   0.463  -4.182  1.00  0.00    -0.054 Br
HETATM   19  C15 UNL     1      -4.476  -0.150  -1.493  1.00  0.00     0.111 A 
ENDBRANCH   4  13
BRANCH   1  20
HETATM   20  N2  UNL     1       1.052  -0.436   0.603  1.00  0.00    -0.308 N 
HETATM   21  C6  UNL     1       2.067  -0.456  -0.389  1.00  0.00     0.246 C 
HETATM   22  O1  UNL     1       1.731  -1.347  -1.195  1.00  0.00    -0.268 OA
HETATM   23  H11 UNL     1       1.047   0.227   1.444  1.00  0.00     0.170 HD
BRANCH  21  24
HETATM   24  C5  UNL     1       3.104   0.520  -0.140  1.00  0.00     0.072 C 
HETATM   25  C4  UNL     1       4.194   0.887  -0.725  1.00  0.00     0.008 C 
BRANCH  25  26
HETATM   26  C3  UNL     1       5.281   1.835  -0.558  1.00  0.00     0.299 C 
BRANCH  26  27
HETATM   27  N1  UNL     1       6.609   1.315  -0.475  1.00  0.00     0.083 N 
HETATM   28  C1  UNL     1       7.057   0.752  -1.743  1.00  0.00     0.309 C 
HETATM   29  C2  UNL     1       6.838   0.363   0.585  1.00  0.00     0.309 C 
ENDBRANCH  26  27
ENDBRANCH  25  26
ENDBRANCH  21  24
ENDBRANCH   1  20
TORSDOF 5
