REMARK  7 active torsions:
REMARK  status: ('A' for Active; 'I' for Inactive)
REMARK    1  A    between atoms: C2_3  and  C3_5 
REMARK    2  A    between atoms: C4_6  and  C5_7 
REMARK    3  A    between atoms: C11_16  and  N5_17 
REMARK       I    between atoms: N5_17  and  C12_18 
REMARK    4  A    between atoms: C12_18  and  C13_20 
REMARK    5  A    between atoms: C13_20  and  P1_21 
REMARK    6  A    between atoms: P1_21  and  C14_22 
REMARK    7  A    between atoms: C14_22  and  N6_23 
ROOT
HETATM    1  C5  UNL     1      -3.749  -1.705  -0.212  1.00  0.00    -0.001 A 
HETATM    2  C6  UNL     1      -4.723  -2.664  -0.329  1.00  0.00     0.073 A 
HETATM    3  C7  UNL     1      -6.109  -2.475  -0.121  1.00  0.00     0.102 C 
HETATM    4  N2  UNL     1      -7.239  -2.340   0.044  1.00  0.00    -0.191 NA
HETATM    5  C8  UNL     1      -4.316  -3.927  -0.681  1.00  0.00     0.141 A 
HETATM    6  N3  UNL     1      -3.036  -4.168  -0.889  1.00  0.00    -0.257 NA
HETATM    7  C9  UNL     1      -2.104  -3.226  -0.771  1.00  0.00     0.085 A 
HETATM    8  C10 UNL     1      -0.797  -3.595  -1.013  1.00  0.00     0.151 A 
HETATM    9  N4  UNL     1       0.212  -2.700  -0.916  1.00  0.00    -0.241 NA
HETATM   10  C11 UNL     1      -0.065  -1.425  -0.576  1.00  0.00     0.130 A 
HETATM   11  C17 UNL     1      -1.379  -1.083  -0.340  1.00  0.00     0.065 A 
HETATM   12  C18 UNL     1      -2.419  -1.952  -0.427  1.00  0.00     0.009 A 
ENDROOT
BRANCH   1  13
HETATM   13  C4  UNL     1      -4.109  -0.373   0.151  1.00  0.00     0.017 C 
HETATM   14  C3  UNL     1      -4.925   0.574   0.475  1.00  0.00     0.040 C 
BRANCH  14  15
HETATM   15  C2  UNL     1      -5.306   1.908   0.841  1.00  0.00     0.096 C 
HETATM   16  N1  UNL     1      -4.648   2.991   1.025  1.00  0.00    -0.287 NA
HETATM   17  C1  UNL     1      -3.228   3.006   0.862  1.00  0.00     0.179 C 
HETATM   18 BR1  UNL     1      -7.121   2.371   1.165  1.00  0.00    -0.030 Br
ENDBRANCH  14  15
ENDBRANCH   1  13
BRANCH  10  19
HETATM   19  N5  UNL     1       0.966  -0.452  -0.462  1.00  0.00    -0.311 N 
HETATM   20  C12 UNL     1       1.494  -0.406   0.864  1.00  0.00     0.227 C 
HETATM   21  O1  UNL     1       1.040  -1.177   1.776  1.00  0.00    -0.273 OA
HETATM   22  H8  UNL     1       1.471   0.253  -1.048  1.00  0.00     0.170 HD
BRANCH  20  23
HETATM   23  C13 UNL     1       2.539   0.393   1.508  1.00  0.00     0.136 C 
BRANCH  23  24
HETATM   24  P1  UNL     1       3.321   1.587   0.312  1.00  0.00    -0.090 P 
HETATM   25  H11 UNL     1       3.356   1.032  -1.028  1.00  0.00     0.059 HD
BRANCH  24  26
HETATM   26  C14 UNL     1       5.002   2.080   0.906  1.00  0.00     0.302 C 
BRANCH  26  27
HETATM   27  N6  UNL     1       6.061   1.746  -0.008  1.00  0.00     0.083 N 
HETATM   28  C15 UNL     1       5.880   2.397  -1.287  1.00  0.00     0.309 C 
HETATM   29  C16 UNL     1       6.271   0.323  -0.135  1.00  0.00     0.309 C 
ENDBRANCH  26  27
ENDBRANCH  24  26
ENDBRANCH  23  24
ENDBRANCH  20  23
ENDBRANCH  10  19
TORSDOF 7
