REMARK  6 active torsions:
REMARK  status: ('A' for Active; 'I' for Inactive)
REMARK    1  A    between atoms: N1_2  and  C3_4 
REMARK    2  A    between atoms: C3_4  and  C4_5 
REMARK    3  A    between atoms: C5_6  and  C6_7 
REMARK       I    between atoms: C6_7  and  N2_9 
REMARK    4  A    between atoms: N2_9  and  C7_10 
REMARK    5  A    between atoms: C13_19  and  N5_20 
REMARK    6  A    between atoms: N5_20  and  C14_21 
ROOT
HETATM    1  C7  UNL     1       0.110  -0.380   1.705  1.00  0.00    -0.035 C 
HETATM    2  B1  UNL     1       0.303   0.670   3.378  1.00  0.00     0.236 B 
HETATM    3  C8  UNL     1       0.539   2.419   2.606  1.00  0.00    -0.047 C 
HETATM    4  C9  UNL     1       1.467   2.281   1.596  1.00  0.00     0.055 A 
HETATM    5  N3  UNL     1       2.176   3.413   1.412  1.00  0.00    -0.260 NA
HETATM    6  C10 UNL     1       3.136   3.554   0.500  1.00  0.00     0.142 A 
HETATM    7  C11 UNL     1       3.478   2.519  -0.342  1.00  0.00     0.089 A 
HETATM    8  C12 UNL     1       4.515   2.645  -1.339  1.00  0.00     0.103 C 
HETATM    9  N4  UNL     1       5.354   2.732  -2.143  1.00  0.00    -0.191 NA
HETATM   10  C13 UNL     1       2.765   1.354  -0.169  1.00  0.00     0.067 A 
HETATM   11  C20 UNL     1       1.777   1.235   0.782  1.00  0.00     0.021 A 
HETATM   12  C21 UNL     1       1.108   0.045   0.893  1.00  0.00     0.028 C 
ENDROOT
BRANCH  10  13
HETATM   13  N5  UNL     1       3.080   0.255  -1.014  1.00  0.00    -0.354 N 
HETATM   14  H14 UNL     1       2.641   0.063  -1.927  1.00  0.00     0.166 HD
BRANCH  13  15
HETATM   15  C14 UNL     1       4.083  -0.651  -0.562  1.00  0.00     0.033 A 
HETATM   16  C15 UNL     1       4.466  -1.757  -1.313  1.00  0.00     0.029 A 
HETATM   17  C16 UNL     1       5.441  -2.636  -0.869  1.00  0.00     0.004 A 
HETATM   18  C17 UNL     1       6.070  -2.433   0.349  1.00  0.00     0.019 A 
HETATM   19  C18 UNL     1       5.715  -1.352   1.110  1.00  0.00     0.013 A 
HETATM   20 BR1  UNL     1       6.537  -1.000   2.808  1.00  0.00    -0.051 Br
HETATM   21  C19 UNL     1       4.740  -0.492   0.645  1.00  0.00     0.048 A 
ENDBRANCH  13  15
ENDBRANCH  10  13
BRANCH   1  22
HETATM   22  N2  UNL     1      -0.837  -1.367   1.348  1.00  0.00    -0.338 N 
HETATM   23  C6  UNL     1      -2.022  -0.918   0.711  1.00  0.00     0.244 C 
HETATM   24  O1  UNL     1      -1.992   0.330   0.585  1.00  0.00    -0.268 OA
HETATM   25  H11 UNL     1      -0.663  -2.398   1.550  1.00  0.00     0.168 HD
BRANCH  23  26
HETATM   26  C5  UNL     1      -3.060  -1.839   0.301  1.00  0.00     0.072 C 
HETATM   27  C4  UNL     1      -4.178  -1.503  -0.290  1.00  0.00     0.008 C 
BRANCH  27  28
HETATM   28  C3  UNL     1      -4.730  -0.196  -0.710  1.00  0.00     0.299 C 
BRANCH  28  29
HETATM   29  N1  UNL     1      -6.008   0.016  -0.013  1.00  0.00     0.083 N 
HETATM   30  C1  UNL     1      -6.595   1.267  -0.378  1.00  0.00     0.309 C 
HETATM   31  C2  UNL     1      -6.888  -1.063  -0.349  1.00  0.00     0.309 C 
ENDBRANCH  28  29
ENDBRANCH  27  28
ENDBRANCH  23  26
ENDBRANCH   1  22
TORSDOF 6
