REMARK  2 active torsions:
REMARK  status: ('A' for Active; 'I' for Inactive)
REMARK    1  A    between atoms: C8_12  and  N4_13 
REMARK    2  A    between atoms: N4_13  and  C9_14 
ROOT
HETATM    1  N1  UNL     1      -0.267   3.764  -0.799  1.00  0.00    -0.191 NA
HETATM    2  C1  UNL     1       0.442   2.854  -0.675  1.00  0.00     0.103 C 
HETATM    3  C2  UNL     1       1.313   1.722  -0.544  1.00  0.00     0.089 A 
HETATM    4  C3  UNL     1       2.526   1.690  -1.210  1.00  0.00     0.142 A 
HETATM    5  N2  UNL     1       3.310   0.614  -1.061  1.00  0.00    -0.257 NA
HETATM    6  C4  UNL     1       2.962  -0.438  -0.289  1.00  0.00     0.083 A 
HETATM    7  C5  UNL     1       3.912  -1.421  -0.287  1.00  0.00     0.121 C 
HETATM    8  N3  UNL     1       3.970  -2.612   0.331  1.00  0.00    -0.365 NA
HETATM    9  B1  UNL     1       2.217  -3.140   0.857  1.00  0.00     0.334 B 
HETATM   10  C6  UNL     1       1.397  -1.544   1.199  1.00  0.00    -0.042 C 
HETATM   11  C7  UNL     1       1.770  -0.479   0.404  1.00  0.00     0.010 A 
HETATM   12  C8  UNL     1       0.971   0.646   0.237  1.00  0.00     0.066 A 
ENDROOT
BRANCH  12  13
HETATM   13  N4  UNL     1      -0.274   0.673   0.923  1.00  0.00    -0.354 N 
HETATM   14  H4  UNL     1      -0.118   1.107   1.859  1.00  0.00     0.166 HD
BRANCH  13  15
HETATM   15  C9  UNL     1      -1.509   0.200   0.436  1.00  0.00     0.033 A 
HETATM   16  C10 UNL     1      -1.531  -0.347  -0.829  1.00  0.00     0.029 A 
HETATM   17  C11 UNL     1      -2.784  -0.795  -1.249  1.00  0.00     0.004 A 
HETATM   18  C12 UNL     1      -3.913  -0.693  -0.448  1.00  0.00     0.019 A 
HETATM   19  C13 UNL     1      -3.817  -0.125   0.828  1.00  0.00     0.013 A 
HETATM   20 BR1  UNL     1      -5.333   0.034   1.956  1.00  0.00    -0.051 Br
HETATM   21  C14 UNL     1      -2.587   0.334   1.286  1.00  0.00     0.048 A 
ENDBRANCH  13  15
ENDBRANCH  12  13
TORSDOF 2
