REMARK  6 active torsions:
REMARK  status: ('A' for Active; 'I' for Inactive)
REMARK    1  A    between atoms: N1_2  and  C3_4 
REMARK    2  A    between atoms: C3_4  and  C4_5 
REMARK    3  A    between atoms: C5_6  and  C6_7 
REMARK    4  A    between atoms: C6_7  and  C7_9 
REMARK    5  A    between atoms: C10_13  and  N3_14 
REMARK    6  A    between atoms: N3_14  and  C11_15 
ROOT
HETATM    1  C7  UNL     1      -1.780  -0.447   0.237  1.00  0.00     0.081 C 
HETATM    2  C8  UNL     1      -0.627  -0.899   0.166  1.00  0.00     0.031 C 
HETATM    3  C9  UNL     1       0.680  -1.610  -0.032  1.00  0.00     0.173 C 
HETATM    4  N2  UNL     1       1.701  -1.059  -0.769  1.00  0.00    -0.394 N 
HETATM    5  C10 UNL     1       2.523   0.019  -0.630  1.00  0.00     0.229 C 
HETATM    6  C17 UNL     1       2.412   0.928   0.590  1.00  0.00     0.257 A 
HETATM    7  C18 UNL     1       2.999  -0.483   1.155  1.00  0.00     0.025 C 
HETATM    8  N4  UNL     1       3.430  -1.570   1.581  1.00  0.00    -0.099 N 
HETATM    9  C19 UNL     1       2.379   1.744   1.736  1.00  0.00     0.263 A 
HETATM   10  N5  UNL     1       1.347   1.541   0.768  1.00  0.00    -0.056 NA
HETATM   11  C20 UNL     1       0.496   0.571   1.013  1.00  0.00     0.679 A 
HETATM   12  C21 UNL     1       0.410  -0.379   2.208  1.00  0.00     0.165 A 
HETATM   13  N6  UNL     1       0.093  -0.130   1.057  1.00  0.00    -0.341 N 
HETATM   14  H14 UNL     1       1.369  -1.127  -1.839  1.00  0.00     0.155 HD
ENDROOT
BRANCH   5  15
HETATM   15  N3  UNL     1       3.865  -0.023  -1.130  1.00  0.00    -0.366 N 
HETATM   16  H16 UNL     1       3.729   0.320  -2.142  1.00  0.00     0.162 HD
BRANCH  15  17
HETATM   17  C11 UNL     1       5.205  -0.480  -0.865  1.00  0.00     0.030 A 
HETATM   18  C12 UNL     1       6.015  -1.344  -0.160  1.00  0.00     0.029 A 
HETATM   19  C13 UNL     1       7.290  -1.100   0.069  1.00  0.00     0.004 A 
HETATM   20  C14 UNL     1       7.999   0.022  -0.354  1.00  0.00     0.019 A 
HETATM   21  C15 UNL     1       7.254   0.945  -1.073  1.00  0.00     0.013 A 
HETATM   22 BR1  UNL     1       8.277   2.476  -1.590  1.00  0.00    -0.051 Br
HETATM   23  C16 UNL     1       5.873   0.724  -1.344  1.00  0.00     0.048 A 
ENDBRANCH  15  17
ENDBRANCH   5  15
BRANCH   1  24
HETATM   24  C6  UNL     1      -2.628   0.559   0.679  1.00  0.00     0.173 C 
HETATM   25  O1  UNL     1      -2.056   1.399   1.467  1.00  0.00    -0.288 OA
BRANCH  24  26
HETATM   26  C5  UNL     1      -3.847   1.264   0.806  1.00  0.00     0.052 C 
HETATM   27  C4  UNL     1      -4.982   1.031   0.175  1.00  0.00     0.007 C 
BRANCH  27  28
HETATM   28  C3  UNL     1      -5.455   0.001  -0.827  1.00  0.00     0.299 C 
BRANCH  28  29
HETATM   29  N1  UNL     1      -6.795  -0.459  -0.667  1.00  0.00     0.083 N 
HETATM   30  C1  UNL     1      -7.135  -1.160   0.498  1.00  0.00     0.309 C 
HETATM   31  C2  UNL     1      -7.733   0.638  -1.036  1.00  0.00     0.309 C 
ENDBRANCH  28  29
ENDBRANCH  27  28
ENDBRANCH  24  26
ENDBRANCH   1  24
TORSDOF 6
