REMARK  7 active torsions:
REMARK  status: ('A' for Active; 'I' for Inactive)
REMARK    1  A    between atoms: B1_1  and  N1_2 
REMARK    2  A    between atoms: N1_2  and  C1_3 
REMARK    3  A    between atoms: C1_3  and  C2_4 
REMARK    4  A    between atoms: C2_4  and  N5_20 
REMARK    5  A    between atoms: C3_5  and  C4_6 
REMARK       I    between atoms: N5_20  and  C14_21 
REMARK    6  A    between atoms: C14_21  and  C15_23 
REMARK    7  A    between atoms: C16_24  and  C17_25 
ROOT
HETATM    1  C4  UNL     1      -1.228   0.431   0.731  1.00  0.00     0.085 C 
HETATM    2  C5  UNL     1      -1.767   1.339  -0.429  1.00  0.00     0.127 C 
HETATM    3  N2  UNL     1      -2.944   1.666  -0.844  1.00  0.00    -0.165 NA
HETATM    4  N3  UNL     1      -4.100   1.238  -0.274  1.00  0.00    -0.147 NA
HETATM    5  C6  UNL     1      -5.082   1.135  -1.113  1.00  0.00     0.126 C 
HETATM    6  C7  UNL     1      -4.711   0.469  -2.197  1.00  0.00     0.124 C 
HETATM    7  N4  UNL     1      -4.168  -0.791  -1.735  1.00  0.00    -0.363 N 
HETATM    8  C8  UNL     1      -3.705  -1.151  -0.395  1.00  0.00     0.033 A 
HETATM    9  C9  UNL     1      -4.635  -1.667   0.457  1.00  0.00     0.048 A 
HETATM   10  C10 UNL     1      -4.125  -1.540   1.752  1.00  0.00     0.013 A 
HETATM   11 BR1  UNL     1      -5.232  -2.198   3.146  1.00  0.00    -0.051 Br
HETATM   12  C11 UNL     1      -2.901  -0.982   2.051  1.00  0.00     0.027 A 
HETATM   13  C12 UNL     1      -2.325  -0.608   0.892  1.00  0.00    -0.042 A 
HETATM   14  C13 UNL     1      -2.486  -0.577  -0.465  1.00  0.00     0.037 A 
HETATM   15  H8  UNL     1      -3.964  -1.713  -2.123  1.00  0.00     0.165 HD
ENDROOT
BRANCH   1  16
HETATM   16  C3  UNL     1       0.029  -0.099   0.269  1.00  0.00     0.015 C 
HETATM   17  C2  UNL     1       1.164   0.537   0.219  1.00  0.00     0.027 C 
BRANCH  17  18
HETATM   18  C1  UNL     1       1.556   1.896   0.577  1.00  0.00     0.175 C 
BRANCH  18  19
HETATM   19  N1  UNL     1       0.533   2.728   1.087  1.00  0.00    -0.401 NA
BRANCH  19  20
HETATM   20  B1  UNL     1       0.871   4.427   1.078  1.00  0.00     0.274 B 
HETATM   21  H1  UNL     1      -0.009   5.889   1.576  1.00  0.00    -0.007 HD
ENDBRANCH  19  20
ENDBRANCH  18  19
ENDBRANCH  17  18
BRANCH  17  22
HETATM   22  N5  UNL     1       2.351  -0.126  -0.270  1.00  0.00    -0.326 N 
HETATM   23  C14 UNL     1       3.551  -0.342   0.443  1.00  0.00     0.245 C 
HETATM   24  O1  UNL     1       3.742   0.025   1.624  1.00  0.00    -0.268 OA
HETATM   25  H12 UNL     1       2.213  -0.445  -1.265  1.00  0.00     0.169 HD
BRANCH  23  26
HETATM   26  C15 UNL     1       4.617  -1.039  -0.265  1.00  0.00     0.073 C 
HETATM   27  C16 UNL     1       5.774  -1.284   0.325  1.00  0.00     0.009 C 
BRANCH  27  28
HETATM   28  C17 UNL     1       6.909  -1.978  -0.303  1.00  0.00     0.249 C 
HETATM   29  F1  UNL     1       7.997  -1.108  -0.307  1.00  0.00    -0.251 F 
ENDBRANCH  27  28
ENDBRANCH  23  26
ENDBRANCH  17  22
ENDBRANCH   1  16
TORSDOF 7
