REMARK  6 active torsions:
REMARK  status: ('A' for Active; 'I' for Inactive)
REMARK    1  A    between atoms: N1_2  and  C3_4 
REMARK    2  A    between atoms: C3_4  and  C4_5 
REMARK    3  A    between atoms: C5_6  and  C6_7 
REMARK       I    between atoms: C6_7  and  N2_9 
REMARK    4  A    between atoms: N2_9  and  C7_10 
REMARK    5  A    between atoms: C10_13  and  N3_14 
REMARK    6  A    between atoms: N3_14  and  C11_15 
ROOT
HETATM    1  C7  UNL     1       0.218   0.321  -0.273  1.00  0.00     0.131 A 
HETATM    2  C8  UNL     1       1.544   0.463   0.076  1.00  0.00     0.066 A 
HETATM    3  C9  UNL     1       2.476   1.111  -0.678  1.00  0.00     0.026 A 
HETATM    4  C10 UNL     1       3.796   1.234  -0.299  1.00  0.00     0.068 A 
HETATM    5  C16 UNL     1       4.643   1.909  -1.141  1.00  0.00     0.089 A 
HETATM    6  C17 UNL     1       6.038   2.078  -0.809  1.00  0.00     0.103 C 
HETATM    7  N4  UNL     1       7.163   2.208  -0.532  1.00  0.00    -0.191 NA
HETATM    8  C18 UNL     1       4.242   2.463  -2.336  1.00  0.00     0.142 A 
HETATM    9  N5  UNL     1       2.942   2.332  -2.693  1.00  0.00    -0.257 NA
HETATM   10  C19 UNL     1       2.096   1.672  -1.877  1.00  0.00     0.086 A 
HETATM   11  C20 UNL     1       0.774   1.540  -2.243  1.00  0.00     0.151 A 
HETATM   12  N6  UNL     1      -0.084   0.888  -1.447  1.00  0.00    -0.241 NA
ENDROOT
BRANCH   4  13
HETATM   13  N3  UNL     1       4.251   0.688   0.907  1.00  0.00    -0.354 N 
HETATM   14  H13 UNL     1       4.183   1.343   1.726  1.00  0.00     0.166 HD
BRANCH  13  15
HETATM   15  C11 UNL     1       4.798  -0.594   1.272  1.00  0.00     0.043 C 
HETATM   16  C12 UNL     1       4.532  -1.869   1.487  1.00  0.00     0.003 C 
HETATM   17  C13 UNL     1       5.548  -2.656   1.173  1.00  0.00     0.014 C 
HETATM   18  C14 UNL     1       6.718  -1.823   1.472  1.00  0.00     0.003 C 
HETATM   19  C15 UNL     1       6.253  -0.566   1.531  1.00  0.00     0.030 C 
ENDBRANCH  13  15
ENDBRANCH   4  13
BRANCH   1  20
HETATM   20  N2  UNL     1      -0.736  -0.361   0.535  1.00  0.00    -0.308 N 
HETATM   21  C6  UNL     1      -2.095  -0.483   0.134  1.00  0.00     0.246 C 
HETATM   22  O1  UNL     1      -2.277   0.078  -0.975  1.00  0.00    -0.268 OA
HETATM   23  H11 UNL     1      -0.370  -0.763   1.437  1.00  0.00     0.170 HD
BRANCH  21  24
HETATM   24  C5  UNL     1      -3.056  -1.178   0.961  1.00  0.00     0.072 C 
HETATM   25  C4  UNL     1      -4.328  -1.323   0.642  1.00  0.00     0.008 C 
BRANCH  25  26
HETATM   26  C3  UNL     1      -5.120  -0.880  -0.531  1.00  0.00     0.299 C 
BRANCH  26  27
HETATM   27  N1  UNL     1      -6.181  -0.007  -0.038  1.00  0.00     0.083 N 
HETATM   28  C1  UNL     1      -7.007   0.474  -1.122  1.00  0.00     0.309 C 
HETATM   29  C2  UNL     1      -6.978  -0.784   0.885  1.00  0.00     0.309 C 
ENDBRANCH  26  27
ENDBRANCH  25  26
ENDBRANCH  21  24
ENDBRANCH   1  20
TORSDOF 6
