REMARK  7 active torsions:
REMARK  status: ('A' for Active; 'I' for Inactive)
REMARK    1  A    between atoms: B1_1  and  C1_2 
REMARK    2  A    between atoms: C2_3  and  N1_4 
REMARK    3  A    between atoms: N1_4  and  C3_5 
REMARK    4  A    between atoms: C9_14  and  N5_15 
REMARK       I    between atoms: N5_15  and  C10_16 
REMARK    5  A    between atoms: C10_16  and  C11_18 
REMARK    6  A    between atoms: C12_19  and  C13_20 
REMARK    7  A    between atoms: C13_20  and  N6_21 
ROOT
HETATM    1  C3  UNL     1      -3.711  -1.758   0.695  1.00  0.00     0.068 A 
HETATM    2  C4  UNL     1      -4.711  -2.696   0.443  1.00  0.00     0.089 A 
HETATM    3  C5  UNL     1      -6.064  -2.328   0.738  1.00  0.00     0.103 C 
HETATM    4  N2  UNL     1      -7.157  -2.047   0.974  1.00  0.00    -0.191 NA
HETATM    5  C6  UNL     1      -4.329  -3.905  -0.070  1.00  0.00     0.142 A 
HETATM    6  N3  UNL     1      -3.070  -4.271  -0.354  1.00  0.00    -0.257 NA
HETATM    7  C7  UNL     1      -2.088  -3.389  -0.122  1.00  0.00     0.086 A 
HETATM    8  C8  UNL     1      -0.743  -3.671  -0.385  1.00  0.00     0.151 A 
HETATM    9  N4  UNL     1       0.220  -2.735  -0.132  1.00  0.00    -0.241 NA
HETATM   10  C9  UNL     1      -0.102  -1.528   0.374  1.00  0.00     0.131 A 
HETATM   11  C16 UNL     1      -1.418  -1.219   0.644  1.00  0.00     0.066 A 
HETATM   12  C17 UNL     1      -2.428  -2.149   0.399  1.00  0.00     0.026 A 
ENDROOT
BRANCH   1  13
HETATM   13  N1  UNL     1      -3.962  -0.458   1.228  1.00  0.00    -0.355 N 
HETATM   14  H3  UNL     1      -3.946  -0.453   2.259  1.00  0.00     0.166 HD
BRANCH  13  15
HETATM   15  C2  UNL     1      -4.201   0.666   0.395  1.00  0.00     0.024 A 
HETATM   16  C1  UNL     1      -3.858   1.906   0.749  1.00  0.00    -0.099 A 
HETATM   17  C20 UNL     1      -4.233   2.869  -0.322  1.00  0.00     0.070 A 
HETATM   18  C19 UNL     1      -4.850   1.982  -1.354  1.00  0.00    -0.006 A 
HETATM   19  C18 UNL     1      -4.815   0.732  -0.912  1.00  0.00     0.043 A 
HETATM   20 BR1  UNL     1      -5.565   2.581  -3.031  1.00  0.00    -0.055 Br
BRANCH  16  21
HETATM   21  B1  UNL     1      -3.157   2.298   2.105  1.00  0.00     0.172 B 
HETATM   22  H1  UNL     1      -2.255   3.085   2.022  1.00  0.00    -0.026 HD
HETATM   23  H2  UNL     1      -3.768   2.285   3.127  1.00  0.00    -0.026 HD
ENDBRANCH  16  21
ENDBRANCH  13  15
ENDBRANCH   1  13
BRANCH  10  24
HETATM   24  N5  UNL     1       0.903  -0.556   0.632  1.00  0.00    -0.308 N 
HETATM   25  C10 UNL     1       2.268  -0.815   0.364  1.00  0.00     0.246 C 
HETATM   26  O1  UNL     1       2.674  -1.908  -0.113  1.00  0.00    -0.268 OA
HETATM   27  H6  UNL     1       0.671   0.366   1.022  1.00  0.00     0.170 HD
BRANCH  25  28
HETATM   28  C11 UNL     1       3.279   0.227   0.648  1.00  0.00     0.072 C 
HETATM   29  C12 UNL     1       4.586   0.036   0.412  1.00  0.00    -0.002 C 
BRANCH  29  30
HETATM   30  C13 UNL     1       5.545   1.149   0.730  1.00  0.00     0.143 C 
BRANCH  30  31
HETATM   31  N6  UNL     1       6.191   1.496  -0.499  1.00  0.00    -0.418 N 
HETATM   32  C14 UNL     1       7.076   0.512  -1.035  1.00  0.00     0.142 C 
HETATM   33  C15 UNL     1       6.673   2.846  -0.537  1.00  0.00     0.142 C 
ENDBRANCH  30  31
ENDBRANCH  29  30
ENDBRANCH  25  28
ENDBRANCH  10  24
TORSDOF 7
