REMARK  9 active torsions:
REMARK  status: ('A' for Active; 'I' for Inactive)
REMARK    1  A    between atoms: C2_2  and  C3_3 
REMARK    2  A    between atoms: C4_5  and  C5_6 
REMARK    3  A    between atoms: C5_6  and  N1_8 
REMARK    4  A    between atoms: C14_18  and  O1_19 
REMARK    5  A    between atoms: O1_19  and  C15_20 
REMARK    6  A    between atoms: C15_20  and  C16_21 
REMARK    7  A    between atoms: C16_21  and  C17_22 
REMARK    8  A    between atoms: C17_22  and  N4_23 
REMARK    9  A    between atoms: C22_29  and  O3_30 
ROOT
HETATM    1  N1  UNL     1       3.369  -0.965  -0.088  1.00  0.00    -0.327 N 
HETATM    2  C7  UNL     1       3.902  -1.965  -0.979  1.00  0.00     0.135 A 
HETATM    3  C8  UNL     1       5.324  -2.144  -1.231  1.00  0.00     0.119 C 
HETATM    4  N2  UNL     1       6.434  -2.294  -1.417  1.00  0.00    -0.190 NA
HETATM    5  C9  UNL     1       3.099  -2.809  -1.643  1.00  0.00     0.158 A 
HETATM    6  N3  UNL     1       1.675  -2.797  -1.532  1.00  0.00    -0.257 NA
HETATM    7  C10 UNL     1       1.139  -1.923  -0.748  1.00  0.00     0.096 A 
HETATM    8  C11 UNL     1       1.948  -0.974   0.005  1.00  0.00     0.064 A 
HETATM    9  C12 UNL     1       1.466  -0.078   0.811  1.00  0.00     0.034 A 
HETATM   10  C13 UNL     1       0.026   0.028   1.004  1.00  0.00     0.038 A 
HETATM   11  C14 UNL     1      -0.727  -0.840   0.310  1.00  0.00     0.081 A 
HETATM   12  C22 UNL     1      -0.339  -1.896  -0.625  1.00  0.00     0.231 A 
ENDROOT
BRANCH   1  13
HETATM   13  C5  UNL     1       4.358  -0.187   0.506  1.00  0.00     0.111 C 
HETATM   14  C6  UNL     1       5.389  -0.828   1.350  1.00  0.00     0.037 C 
BRANCH  13  15
HETATM   15  C4  UNL     1       5.139   0.463  -0.631  1.00  0.00     0.017 C 
HETATM   16  C3  UNL     1       5.880   1.534  -0.317  1.00  0.00     0.009 C 
HETATM   17 CL1  UNL     1       5.957   2.173   1.337  1.00  0.00    -0.089 Cl
BRANCH  16  18
HETATM   18  C2  UNL     1       6.766   2.424  -1.137  1.00  0.00     0.046 C 
HETATM   19  C1  UNL     1       6.276   3.860  -1.092  1.00  0.00     0.011 C 
ENDBRANCH  16  18
ENDBRANCH  13  15
ENDBRANCH   1  13
BRANCH  12  20
HETATM   20  O3  UNL     1      -0.947  -1.782  -1.871  1.00  0.00    -0.378 OA
HETATM   21  C23 UNL     1      -1.711  -2.933  -2.069  1.00  0.00     0.203 C 
ENDBRANCH  12  20
BRANCH  11  22
HETATM   22  O1  UNL     1      -2.117  -0.776   0.462  1.00  0.00    -0.352 OA
BRANCH  22  23
HETATM   23  C15 UNL     1      -2.788  -1.336   1.571  1.00  0.00     0.177 C 
BRANCH  23  24
HETATM   24  C16 UNL     1      -4.298  -1.095   1.466  1.00  0.00     0.057 C 
BRANCH  24  25
HETATM   25  C17 UNL     1      -4.492   0.397   1.436  1.00  0.00     0.274 C 
BRANCH  25  26
HETATM   26  N4  UNL     1      -5.885   0.776   1.335  1.00  0.00     0.092 N 
HETATM   27  C18 UNL     1      -5.983   2.218   1.314  1.00  0.00     0.298 C 
HETATM   28  C19 UNL     1      -5.928   2.756  -0.106  1.00  0.00     0.198 C 
HETATM   29  O2  UNL     1      -5.146   1.971  -0.943  1.00  0.00    -0.388 OA
HETATM   30  C20 UNL     1      -5.793   0.760  -1.136  1.00  0.00     0.198 C 
HETATM   31  C21 UNL     1      -6.499   0.282   0.119  1.00  0.00     0.298 C 
ENDBRANCH  25  26
ENDBRANCH  24  25
ENDBRANCH  23  24
ENDBRANCH  22  23
ENDBRANCH  11  22
TORSDOF 9
