REMARK  9 active torsions:
REMARK  status: ('A' for Active; 'I' for Inactive)
REMARK    1  A    between atoms: C2_2  and  O1_3 
REMARK    2  A    between atoms: O1_3  and  C3_4 
REMARK    3  A    between atoms: C9_12  and  N3_13 
REMARK    4  A    between atoms: N3_13  and  C10_14 
REMARK    5  A    between atoms: C10_14  and  C11_15 
REMARK    6  A    between atoms: C15_20  and  N4_21 
REMARK       I    between atoms: N4_21  and  C16_22 
REMARK    7  A    between atoms: C16_22  and  C17_24 
REMARK    8  A    between atoms: C18_25  and  C19_26 
REMARK    9  A    between atoms: C19_26  and  N5_27 
ROOT
HETATM    1  C3  UNL     1      -0.234  -2.266   0.450  1.00  0.00     0.097 A 
HETATM    2  C4  UNL     1      -1.354  -3.039   0.229  1.00  0.00     0.071 A 
HETATM    3  C5  UNL     1      -2.577  -2.468  -0.040  1.00  0.00     0.071 A 
HETATM    4  N1  UNL     1      -3.624  -3.278  -0.246  1.00  0.00    -0.259 NA
HETATM    5  C6  UNL     1      -4.817  -2.765  -0.510  1.00  0.00     0.142 A 
HETATM    6  C7  UNL     1      -4.933  -1.378  -0.562  1.00  0.00     0.089 A 
HETATM    7  C8  UNL     1      -6.262  -0.877  -0.853  1.00  0.00     0.103 C 
HETATM    8  N2  UNL     1      -7.318  -0.459  -1.092  1.00  0.00    -0.191 NA
HETATM    9  C9  UNL     1      -3.847  -0.530  -0.347  1.00  0.00     0.063 A 
HETATM   10  C13 UNL     1      -2.635  -1.105  -0.079  1.00  0.00     0.023 A 
HETATM   11  C14 UNL     1      -1.573  -0.250   0.128  1.00  0.00     0.048 A 
HETATM   12  C15 UNL     1      -0.352  -0.871   0.398  1.00  0.00     0.069 A 
ENDROOT
BRANCH   9  13
HETATM   13  N3  UNL     1      -4.137   0.838  -0.436  1.00  0.00    -0.384 N 
HETATM   14  H8  UNL     1      -4.430   1.308   0.448  1.00  0.00     0.160 HD
BRANCH  13  15
HETATM   15  C10 UNL     1      -3.992   1.415  -1.744  1.00  0.00     0.148 C 
BRANCH  15  16
HETATM   16  C11 UNL     1      -4.328   2.859  -1.798  1.00  0.00     0.004 C 
HETATM   17  C12 UNL     1      -3.580   3.900  -2.142  1.00  0.00     0.082 C 
HETATM   18 CL1  UNL     1      -1.933   3.497  -2.605  1.00  0.00    -0.097 Cl
ENDBRANCH  15  16
ENDBRANCH  13  15
ENDBRANCH   9  13
BRANCH  12  19
HETATM   19  N4  UNL     1       0.754   0.031   0.612  1.00  0.00    -0.321 N 
HETATM   20  C16 UNL     1       1.159   0.574   1.838  1.00  0.00     0.245 C 
HETATM   21  O2  UNL     1       0.592   0.338   2.936  1.00  0.00    -0.268 OA
HETATM   22  H14 UNL     1       1.185   0.192  -0.324  1.00  0.00     0.169 HD
BRANCH  20  23
HETATM   23  C17 UNL     1       2.308   1.469   1.843  1.00  0.00     0.072 C 
HETATM   24  C18 UNL     1       2.979   1.786   0.747  1.00  0.00     0.008 C 
BRANCH  24  25
HETATM   25  C19 UNL     1       4.159   2.682   0.633  1.00  0.00     0.299 C 
BRANCH  25  26
HETATM   26  N5  UNL     1       5.304   1.966   0.096  1.00  0.00     0.083 N 
HETATM   27  C20 UNL     1       6.404   2.886   0.013  1.00  0.00     0.309 C 
HETATM   28  C21 UNL     1       5.047   1.401  -1.208  1.00  0.00     0.309 C 
ENDBRANCH  25  26
ENDBRANCH  24  25
ENDBRANCH  20  23
ENDBRANCH  12  19
BRANCH   1  29
HETATM   29  O1  UNL     1       1.063  -2.661   0.731  1.00  0.00    -0.349 OA
BRANCH  29  30
HETATM   30  C2  UNL     1       1.473  -3.996   0.847  1.00  0.00     0.171 C 
HETATM   31  C1  UNL     1       0.704  -4.639   1.971  1.00  0.00     0.034 C 
ENDBRANCH  29  30
ENDBRANCH   1  29
TORSDOF 9
