REMARK  7 active torsions:
REMARK  status: ('A' for Active; 'I' for Inactive)
REMARK    1  A    between atoms: C6_10  and  N5_11 
REMARK    2  A    between atoms: N5_11  and  O1_12 
REMARK    3  A    between atoms: N5_11  and  C7_13 
REMARK    4  A    between atoms: C8_14  and  C9_15 
REMARK    5  A    between atoms: C9_15  and  C10_16 
REMARK    6  A    between atoms: C10_16  and  N6_17 
REMARK    7  A    between atoms: N6_17  and  C11_18 
ROOT
HETATM    1  N1  UNL     1      -5.372  -1.905   3.589  1.00  0.00    -0.192 NA
HETATM    2  C1  UNL     1      -5.145  -1.290   2.616  1.00  0.00     0.097 C 
HETATM    3  C2  UNL     1      -4.859  -0.521   1.432  1.00  0.00     0.044 A 
HETATM    4  C3  UNL     1      -5.522   0.622   1.255  1.00  0.00     0.135 A 
HETATM    5  N2  UNL     1      -5.265   1.413   0.094  1.00  0.00    -0.262 NA
HETATM    6  C4  UNL     1      -4.410   1.051  -0.788  1.00  0.00     0.066 A 
HETATM    7  C5  UNL     1      -4.262   1.986  -1.936  1.00  0.00     0.233 A 
HETATM    8  N3  UNL     1      -3.286   1.485  -2.855  1.00  0.00    -0.185 NA
HETATM    9  N4  UNL     1      -2.659   0.417  -2.700  1.00  0.00    -0.134 NA
HETATM   10  C6  UNL     1      -2.797  -0.480  -1.605  1.00  0.00     0.184 A 
HETATM   11  C17 UNL     1      -3.654  -0.186  -0.653  1.00  0.00     0.023 A 
HETATM   12  C18 UNL     1      -3.831  -1.087   0.504  1.00  0.00     0.096 A 
ENDROOT
BRANCH  10  13
HETATM   13  N5  UNL     1      -2.000  -1.657  -1.588  1.00  0.00    -0.215 N 
BRANCH  13  14
HETATM   14  O1  UNL     1      -1.956  -2.764  -2.351  1.00  0.00    -0.281 OA
HETATM   15  H4  UNL     1      -2.517  -3.436  -1.859  1.00  0.00     0.245 HD
ENDBRANCH  13  14
BRANCH  13  16
HETATM   16  C7  UNL     1      -1.041  -1.656  -0.527  1.00  0.00     0.121 C 
HETATM   17  C8  UNL     1      -0.182  -0.692  -0.250  1.00  0.00    -0.005 C 
BRANCH  17  18
HETATM   18  C9  UNL     1       0.908  -0.322   0.696  1.00  0.00     0.048 C 
BRANCH  18  19
HETATM   19  C10 UNL     1       2.165  -0.108  -0.087  1.00  0.00     0.123 C 
BRANCH  19  20
HETATM   20  N6  UNL     1       3.231   0.253   0.835  1.00  0.00    -0.390 N 
HETATM   21  H11 UNL     1       3.079   0.334   1.869  1.00  0.00     0.159 HD
BRANCH  20  22
HETATM   22  C11 UNL     1       4.531   0.507   0.314  1.00  0.00     0.029 A 
HETATM   23  C12 UNL     1       4.785   0.415  -1.032  1.00  0.00     0.029 A 
HETATM   24  C13 UNL     1       6.056   0.665  -1.516  1.00  0.00     0.004 A 
HETATM   25  C14 UNL     1       7.095   1.013  -0.661  1.00  0.00     0.019 A 
HETATM   26  C15 UNL     1       6.876   1.115   0.701  1.00  0.00     0.013 A 
HETATM   27 BR1  UNL     1       8.265   1.590   1.931  1.00  0.00    -0.051 Br
HETATM   28  C16 UNL     1       5.573   0.850   1.125  1.00  0.00     0.048 A 
ENDBRANCH  20  22
ENDBRANCH  19  20
ENDBRANCH  18  19
ENDBRANCH  17  18
ENDBRANCH  13  16
ENDBRANCH  10  13
TORSDOF 7
