REMARK  8 active torsions:
REMARK  status: ('A' for Active; 'I' for Inactive)
REMARK    1  A    between atoms: N1_2  and  C2_3 
REMARK    2  A    between atoms: N2_8  and  C6_9 
REMARK    3  A    between atoms: C6_9  and  C7_10 
REMARK    4  A    between atoms: C7_10  and  C8_11 
REMARK    5  A    between atoms: C8_11  and  O2_12 
REMARK    6  A    between atoms: O2_12  and  C9_13 
REMARK    7  A    between atoms: C11_15  and  C12_16 
REMARK    8  A    between atoms: C20_27  and  O3_28 
ROOT
HETATM    1  C9  UNL     1      -1.774  -0.563   0.357  1.00  0.00     0.100 C 
HETATM    2  C10 UNL     1      -2.596  -0.466   1.387  1.00  0.00     0.038 C 
HETATM    3  C11 UNL     1      -3.929  -0.259   0.882  1.00  0.00     0.082 A 
HETATM    4  C15 UNL     1      -5.125  -0.632   1.605  1.00  0.00     0.062 A 
HETATM    5  C16 UNL     1      -5.303  -0.496   3.010  1.00  0.00     0.098 C 
HETATM    6  N3  UNL     1      -5.432  -0.387   4.161  1.00  0.00    -0.192 NA
HETATM    7  C17 UNL     1      -5.996  -1.115   0.700  1.00  0.00     0.137 A 
HETATM    8  N4  UNL     1      -5.413  -1.094  -0.621  1.00  0.00    -0.262 NA
HETATM    9  C18 UNL     1      -4.194  -0.603  -0.509  1.00  0.00     0.058 A 
HETATM   10  C19 UNL     1      -3.218  -0.598  -1.559  1.00  0.00     0.068 C 
HETATM   11  C20 UNL     1      -1.950  -0.605  -1.089  1.00  0.00     0.103 C 
ENDROOT
BRANCH   3  12
HETATM   12  C12 UNL     1      -4.104   1.346   0.913  1.00  0.00     0.018 C 
HETATM   13  C13 UNL     1      -5.207   2.085   0.853  1.00  0.00     0.006 C 
HETATM   14  C14 UNL     1      -5.215   3.582   0.893  1.00  0.00     0.061 C 
HETATM   15 CL1  UNL     1      -6.908   1.687   0.716  1.00  0.00    -0.090 Cl
ENDBRANCH   3  12
BRANCH   1  16
HETATM   16  O2  UNL     1      -0.435  -0.714   0.740  1.00  0.00    -0.348 OA
BRANCH  16  17
HETATM   17  C8  UNL     1       0.289  -1.912   0.614  1.00  0.00     0.177 C 
BRANCH  17  18
HETATM   18  C7  UNL     1       1.702  -1.766   1.129  1.00  0.00     0.057 C 
BRANCH  18  19
HETATM   19  C6  UNL     1       2.469  -0.703   0.379  1.00  0.00     0.277 C 
BRANCH  19  20
HETATM   20  N2  UNL     1       3.809  -0.537   0.840  1.00  0.00     0.126 N 
HETATM   21  C2  UNL     1       4.339   0.696   0.307  1.00  0.00     0.476 C 
HETATM   22  C3  UNL     1       5.290   0.497  -0.844  1.00  0.00     0.236 C 
HETATM   23  O1  UNL     1       6.348  -0.338  -0.573  1.00  0.00    -0.385 OA
HETATM   24  C4  UNL     1       6.136  -1.162   0.520  1.00  0.00     0.198 C 
HETATM   25  C5  UNL     1       4.688  -1.652   0.573  1.00  0.00     0.301 C 
BRANCH  21  26
HETATM   26  N1  UNL     1       3.267   1.563  -0.211  1.00  0.00     0.115 N 
HETATM   27  C1  UNL     1       3.867   2.830  -0.639  1.00  0.00     0.309 C 
HETATM   28  H4  UNL     1       2.896   1.150  -1.118  1.00  0.00     0.318 HD
ENDBRANCH  21  26
ENDBRANCH  19  20
ENDBRANCH  18  19
ENDBRANCH  17  18
ENDBRANCH  16  17
ENDBRANCH   1  16
BRANCH  11  29
HETATM   29  O3  UNL     1      -0.874  -0.650  -1.962  1.00  0.00    -0.353 OA
HETATM   30  C21 UNL     1      -0.992  -1.309  -3.206  1.00  0.00     0.210 C 
ENDBRANCH  11  29
TORSDOF 8
