REMARK  3 active torsions:
REMARK  status: ('A' for Active; 'I' for Inactive)
REMARK    1  A    between atoms: C12_16  and  N4_17 
REMARK    2  A    between atoms: C16_22  and  C17_23 
REMARK    3  A    between atoms: C17_23  and  O2_25 
ROOT
HETATM    1  C1  UNL     1       1.849  -1.856  -0.451  1.00  0.00     0.028 C 
HETATM    2  C2  UNL     1       1.380  -0.973   0.734  1.00  0.00     0.067 A 
HETATM    3  C3  UNL     1       0.461  -1.731   1.426  1.00  0.00     0.135 A 
HETATM    4  C4  UNL     1       1.187  -1.149   2.446  1.00  0.00     0.167 A 
HETATM    5  N1  UNL     1       2.195  -0.308   2.141  1.00  0.00    -0.258 N 
HETATM    6  N2  UNL     1       3.061   0.393   2.908  1.00  0.00    -0.165 NA
HETATM    7  C5  UNL     1       3.947   1.152   2.181  1.00  0.00     0.258 A 
HETATM    8  N3  UNL     1       4.042   1.273   0.820  1.00  0.00    -0.214 NA
HETATM    9  C6  UNL     1       3.191   0.586   0.042  1.00  0.00     0.197 A 
HETATM   10  C7  UNL     1       2.391  -0.119   0.814  1.00  0.00     0.098 A 
HETATM   11  O1  UNL     1       2.760   0.300  -1.285  1.00  0.00    -0.287 OA
HETATM   12  C8  UNL     1       1.350   0.674  -1.495  1.00  0.00     0.117 C 
HETATM   13  C9  UNL     1       1.472   2.009  -1.330  1.00  0.00     0.040 C 
HETATM   14  C10 UNL     1       0.698   3.148  -0.770  1.00  0.00     0.005 C 
HETATM   15  C11 UNL     1      -0.539   3.165  -0.225  1.00  0.00     0.029 C 
HETATM   16  C12 UNL     1      -1.524   2.149   0.192  1.00  0.00     0.026 C 
HETATM   17  C13 UNL     1      -1.586   0.830  -0.108  1.00  0.00     0.042 C 
HETATM   18  C14 UNL     1      -0.885  -0.291  -0.787  1.00  0.00     0.017 C 
HETATM   19  C15 UNL     1      -0.037   0.159  -1.792  1.00  0.00     0.159 C 
HETATM   20  F1  UNL     1      -0.393   0.164  -3.099  1.00  0.00    -0.203 F 
HETATM   21  C16 UNL     1      -1.411  -1.524  -0.076  1.00  0.00     0.187 C 
HETATM   22  O3  UNL     1      -0.252  -2.301   0.364  1.00  0.00    -0.361 OA
ENDROOT
BRANCH  21  23
HETATM   23  C17 UNL     1      -2.361  -2.300  -0.880  1.00  0.00     0.147 C 
HETATM   24  C18 UNL     1      -3.515  -1.431  -1.317  1.00  0.00     0.042 C 
BRANCH  23  25
HETATM   25  O2  UNL     1      -2.840  -3.372  -0.129  1.00  0.00    -0.393 OA
HETATM   26  H17 UNL     1      -2.982  -4.135  -0.750  1.00  0.00     0.210 HD
ENDBRANCH  23  25
ENDBRANCH  21  23
BRANCH  16  27
HETATM   27  N4  UNL     1      -2.562   2.646   1.044  1.00  0.00    -0.399 N 
HETATM   28  H9  UNL     1      -3.581   2.578   0.750  1.00  0.00     0.156 HD
HETATM   29  H10 UNL     1      -2.129   3.032   1.887  1.00  0.00     0.156 HD
ENDBRANCH  16  27
TORSDOF 3
