REMARK  4 active torsions:
REMARK  status: ('A' for Active; 'I' for Inactive)
REMARK    1  A    between atoms: C2_2  and  O1_3 
REMARK    2  A    between atoms: O1_3  and  C3_4 
REMARK    3  A    between atoms: C9_12  and  N3_13 
REMARK    4  A    between atoms: N3_13  and  C10_14 
ROOT
HETATM    1  C3  UNL     1      -2.937   0.772  -0.290  1.00  0.00     0.121 C 
HETATM    2  C4  UNL     1      -2.027   1.724  -0.270  1.00  0.00     0.212 C 
HETATM    3  C5  UNL     1      -0.600   1.694   0.075  1.00  0.00     0.056 A 
HETATM    4  N1  UNL     1      -0.533   3.015  -0.202  1.00  0.00    -0.262 NA
HETATM    5  C6  UNL     1       0.552   3.803  -0.150  1.00  0.00     0.142 A 
HETATM    6  C7  UNL     1       1.743   3.287   0.217  1.00  0.00     0.089 A 
HETATM    7  C8  UNL     1       3.009   3.956   0.333  1.00  0.00     0.103 C 
HETATM    8  N2  UNL     1       4.021   4.493   0.439  1.00  0.00    -0.191 NA
HETATM    9  C9  UNL     1       1.788   1.952   0.525  1.00  0.00     0.067 A 
HETATM   10  C16 UNL     1       0.665   1.209   0.452  1.00  0.00     0.017 A 
HETATM   11  C17 UNL     1       0.782  -0.220   0.780  1.00  0.00     0.013 C 
HETATM   12  C18 UNL     1       0.964  -1.523   0.744  1.00  0.00     0.004 C 
HETATM   13  C19 UNL     1       0.828  -2.484   1.913  1.00  0.00     0.299 C 
HETATM   14  N4  UNL     1      -0.247  -3.472   1.602  1.00  0.00     0.087 N 
HETATM   15  C20 UNL     1       0.255  -4.368   0.549  1.00  0.00     0.310 C 
HETATM   16  C21 UNL     1      -1.263  -2.625   1.121  1.00  0.00     0.281 C 
HETATM   17  C22 UNL     1      -2.623  -3.037   0.717  1.00  0.00     0.133 C 
HETATM   18  C23 UNL     1      -3.190  -1.693   0.234  1.00  0.00     0.221 C 
HETATM   19  O2  UNL     1      -2.184  -1.095   0.373  1.00  0.00    -0.274 OA
HETATM   20  N5  UNL     1      -3.711  -0.463  -0.209  1.00  0.00    -0.333 N 
HETATM   21  H23 UNL     1      -4.692  -0.500  -0.480  1.00  0.00     0.165 HD
ENDROOT
BRANCH   9  22
HETATM   22  N3  UNL     1       2.872   1.156   0.961  1.00  0.00    -0.354 N 
HETATM   23  H8  UNL     1       2.977   1.204   1.972  1.00  0.00     0.166 HD
BRANCH  22  24
HETATM   24  C10 UNL     1       3.597   0.459  -0.035  1.00  0.00     0.034 A 
HETATM   25  C11 UNL     1       3.401   0.825  -1.359  1.00  0.00     0.032 A 
HETATM   26  C12 UNL     1       4.070   0.166  -2.393  1.00  0.00     0.046 A 
HETATM   27  C13 UNL     1       4.946  -0.874  -2.100  1.00  0.00     0.138 A 
HETATM   28  F1  UNL     1       5.621  -1.550  -3.071  1.00  0.00    -0.204 F 
HETATM   29  C14 UNL     1       5.166  -1.264  -0.805  1.00  0.00     0.074 A 
HETATM   30 CL1  UNL     1       6.267  -2.567  -0.425  1.00  0.00    -0.081 Cl
HETATM   31  C15 UNL     1       4.484  -0.584   0.175  1.00  0.00     0.056 A 
ENDBRANCH  22  24
ENDBRANCH   9  22
BRANCH   1  32
HETATM   32  O1  UNL     1      -3.781   1.790  -0.714  1.00  0.00    -0.366 OA
BRANCH  32  33
HETATM   33  C2  UNL     1      -4.787   2.327   0.118  1.00  0.00     0.166 C 
HETATM   34  C1  UNL     1      -5.574   3.333  -0.681  1.00  0.00     0.033 C 
ENDBRANCH  32  33
ENDBRANCH   1  32
TORSDOF 4
