REMARK  5 active torsions:
REMARK  status: ('A' for Active; 'I' for Inactive)
REMARK    1  A    between atoms: C3_3  and  N1_4 
REMARK    2  A    between atoms: C7_8  and  O1_9 
REMARK    3  A    between atoms: C8_10  and  O2_11 
REMARK    4  A    between atoms: O2_11  and  C9_12 
REMARK    5  A    between atoms: C9_12  and  C10_13 
ROOT
HETATM    1  N1  UNL     1      -2.353  -0.020  -1.211  1.00  0.00    -0.261 NA
HETATM    2  C4  UNL     1      -1.551   0.372  -0.278  1.00  0.00     0.072 C 
HETATM    3  C5  UNL     1      -0.482   0.899   0.585  1.00  0.00     0.031 C 
HETATM    4  C6  UNL     1       0.251   1.288   1.624  1.00  0.00     0.010 C 
HETATM    5  C7  UNL     1       1.541   1.803   1.050  1.00  0.00     0.179 C 
HETATM    6  C8  UNL     1       2.449   0.666   0.733  1.00  0.00     0.132 C 
HETATM    7  C11 UNL     1       2.028  -0.530   1.000  1.00  0.00     0.061 C 
HETATM    8  C12 UNL     1       1.937  -1.964   1.140  1.00  0.00    -0.001 C 
HETATM    9  C13 UNL     1       0.815  -2.422   1.667  1.00  0.00     0.086 C 
HETATM   10  N2  UNL     1      -0.291  -1.668   2.105  1.00  0.00    -0.351 N 
HETATM   11  C14 UNL     1      -1.582  -1.417   1.532  1.00  0.00     0.137 C 
HETATM   12  N3  UNL     1      -1.927  -2.569   2.076  1.00  0.00    -0.268 NA
HETATM   13  C15 UNL     1      -3.224  -3.206   2.011  1.00  0.00     0.181 C 
HETATM   14  C16 UNL     1      -4.327  -2.223   2.179  1.00  0.00     0.039 C 
HETATM   15  C17 UNL     1      -4.627  -0.987   1.766  1.00  0.00     0.137 C 
HETATM   16  F1  UNL     1      -5.682  -0.176   1.987  1.00  0.00    -0.205 F 
HETATM   17  C18 UNL     1      -3.633  -0.329   0.881  1.00  0.00     0.088 C 
HETATM   18 CL2  UNL     1      -4.100   0.882  -0.294  1.00  0.00    -0.080 Cl
HETATM   19  C19 UNL     1      -2.346  -0.422   0.707  1.00  0.00     0.063 C 
HETATM   20  H17 UNL     1      -0.163  -1.186   3.048  1.00  0.00     0.166 HD
ENDROOT
BRANCH   1  21
HETATM   21  C3  UNL     1      -1.870   0.239  -2.546  1.00  0.00     0.113 C 
HETATM   22  C2  UNL     1      -1.282   1.275  -3.089  1.00  0.00    -0.012 C 
HETATM   23  C1  UNL     1      -0.730   1.713  -4.403  1.00  0.00     0.037 C 
ENDBRANCH   1  21
BRANCH   5  24
HETATM   24  O1  UNL     1       2.180   2.649   1.916  1.00  0.00    -0.389 OA
HETATM   25  H9  UNL     1       3.130   2.740   1.727  1.00  0.00     0.210 HD
ENDBRANCH   5  24
BRANCH   6  26
HETATM   26  O2  UNL     1       3.601   1.274   0.189  1.00  0.00    -0.372 OA
BRANCH  26  27
HETATM   27  C9  UNL     1       3.981   0.898  -1.098  1.00  0.00     0.184 C 
BRANCH  27  28
HETATM   28  C10 UNL     1       5.215   1.626  -1.583  1.00  0.00     0.141 C 
HETATM   29 CL1  UNL     1       4.981   3.379  -1.625  1.00  0.00    -0.128 Cl
ENDBRANCH  27  28
ENDBRANCH  26  27
ENDBRANCH   6  26
TORSDOF 5
