REMARK  7 active torsions:
REMARK  status: ('A' for Active; 'I' for Inactive)
REMARK    1  A    between atoms: O1_2  and  C2_3 
REMARK    2  A    between atoms: C2_3  and  C3_4 
REMARK    3  A    between atoms: C3_4  and  O2_5 
REMARK    4  A    between atoms: O2_5  and  C4_6 
REMARK    5  A    between atoms: C8_11  and  O4_12 
REMARK    6  A    between atoms: C12_18  and  N3_19 
REMARK    7  A    between atoms: N3_19  and  C13_20 
ROOT
HETATM    1  C4  UNL     1       0.862  -1.023   0.166  1.00  0.00     0.091 C 
HETATM    2  C5  UNL     1       1.069  -2.313   0.161  1.00  0.00     0.171 C 
HETATM    3  O3  UNL     1       0.012  -2.935  -0.273  1.00  0.00    -0.360 OA
HETATM    4  C6  UNL     1      -0.528  -4.152  -0.557  1.00  0.00     0.177 C 
HETATM    5  C7  UNL     1      -1.692  -4.010  -1.517  1.00  0.00     0.062 C 
HETATM    6  C8  UNL     1      -2.809  -3.160  -1.027  1.00  0.00     0.145 C 
HETATM    7  C9  UNL     1      -2.614  -1.729  -0.917  1.00  0.00     0.037 C 
HETATM    8  C10 UNL     1      -2.272  -0.475  -0.768  1.00  0.00     0.071 A 
HETATM    9  N1  UNL     1      -3.470   0.016  -1.115  1.00  0.00    -0.241 NA
HETATM   10  C11 UNL     1      -3.723   1.339  -1.171  1.00  0.00     0.236 A 
HETATM   11  N2  UNL     1      -2.732   2.183  -0.867  1.00  0.00    -0.224 NA
HETATM   12  C12 UNL     1      -1.545   1.679  -0.524  1.00  0.00     0.142 A 
HETATM   13  C17 UNL     1      -1.230   0.358  -0.450  1.00  0.00     0.041 A 
HETATM   14  C18 UNL     1      -0.011   0.070  -0.078  1.00  0.00     0.056 C 
ENDROOT
BRANCH  12  15
HETATM   15  N3  UNL     1      -0.566   2.665  -0.223  1.00  0.00    -0.340 N 
HETATM   16  H17 UNL     1       0.427   2.820   0.066  1.00  0.00     0.167 HD
BRANCH  15  17
HETATM   17  C13 UNL     1      -0.931   4.049  -0.306  1.00  0.00     0.033 A 
HETATM   18  C14 UNL     1      -1.948   4.568   0.398  1.00  0.00     0.029 A 
HETATM   19  C15 UNL     1      -1.775   5.921  -0.128  1.00  0.00     0.004 A 
HETATM   20  C16 UNL     1      -0.755   5.392  -0.832  1.00  0.00     0.029 A 
ENDBRANCH  15  17
ENDBRANCH  12  15
BRANCH   1  21
HETATM   21  O2  UNL     1       2.154  -0.812   0.652  1.00  0.00    -0.347 OA
BRANCH  21  22
HETATM   22  C3  UNL     1       3.064   0.119   0.150  1.00  0.00     0.201 C 
BRANCH  22  23
HETATM   23  C2  UNL     1       4.326   0.105   1.016  1.00  0.00     0.193 C 
BRANCH  23  24
HETATM   24  O1  UNL     1       3.909   0.446   2.303  1.00  0.00    -0.394 OA
HETATM   25  C1  UNL     1       4.979   0.464   3.167  1.00  0.00     0.201 C 
ENDBRANCH  23  24
ENDBRANCH  22  23
ENDBRANCH  21  22
ENDBRANCH   1  21
BRANCH   6  26
HETATM   26  O4  UNL     1      -3.351  -3.684   0.180  1.00  0.00    -0.392 OA
HETATM   27  H14 UNL     1      -4.321  -3.525   0.249  1.00  0.00     0.210 HD
ENDBRANCH   6  26
TORSDOF 7
