REMARK  6 active torsions:
REMARK  status: ('A' for Active; 'I' for Inactive)
REMARK    1  A    between atoms: C6_8  and  O1_9 
REMARK    2  A    between atoms: O1_9  and  C7_10 
REMARK    3  A    between atoms: C7_10  and  C8_11 
REMARK    4  A    between atoms: C8_11  and  C9_12 
REMARK    5  A    between atoms: C9_12  and  N3_13 
REMARK    6  A    between atoms: N4_22  and  C17_23 
ROOT
HETATM    1  N1  UNL     1      -6.765  -0.050   2.588  1.00  0.00    -0.190 NA
HETATM    2  C1  UNL     1      -5.679  -0.151   2.211  1.00  0.00     0.119 C 
HETATM    3  C2  UNL     1      -4.317  -0.295   1.755  1.00  0.00     0.139 A 
HETATM    4  C3  UNL     1      -3.394  -0.966   2.422  1.00  0.00     0.158 A 
HETATM    5  N2  UNL     1      -2.066  -1.068   1.910  1.00  0.00    -0.260 NA
HETATM    6  C4  UNL     1      -1.740  -0.508   0.787  1.00  0.00     0.067 A 
HETATM    7  C5  UNL     1      -0.315  -0.725   0.422  1.00  0.00     0.126 A 
HETATM    8  C6  UNL     1      -0.011  -0.056  -0.873  1.00  0.00     0.052 A 
HETATM    9  C14 UNL     1      -0.907   0.625  -1.570  1.00  0.00     0.035 A 
HETATM   10  C15 UNL     1      -2.276   0.798  -1.159  1.00  0.00     0.034 A 
HETATM   11  C16 UNL     1      -2.687   0.254  -0.023  1.00  0.00     0.066 A 
HETATM   12  N4  UNL     1      -4.009   0.349   0.498  1.00  0.00    -0.300 N 
ENDROOT
BRANCH  12  13
HETATM   13  C17 UNL     1      -4.970   1.070  -0.232  1.00  0.00     0.042 A 
HETATM   14  C18 UNL     1      -5.246   2.422  -0.114  1.00  0.00     0.033 A 
HETATM   15  C19 UNL     1      -6.216   3.041  -0.880  1.00  0.00     0.046 A 
HETATM   16  C20 UNL     1      -6.955   2.329  -1.802  1.00  0.00     0.138 A 
HETATM   17  F1  UNL     1      -7.902   2.950  -2.545  1.00  0.00    -0.204 F 
HETATM   18  C21 UNL     1      -6.693   0.982  -1.933  1.00  0.00     0.074 A 
HETATM   19 CL1  UNL     1      -7.615   0.039  -3.099  1.00  0.00    -0.081 Cl
HETATM   20  C22 UNL     1      -5.722   0.346  -1.171  1.00  0.00     0.057 A 
ENDBRANCH  12  13
BRANCH   8  21
HETATM   21  O1  UNL     1       1.298  -0.253  -1.208  1.00  0.00    -0.355 OA
BRANCH  21  22
HETATM   22  C7  UNL     1       2.049  -1.419  -1.128  1.00  0.00     0.177 C 
BRANCH  22  23
HETATM   23  C8  UNL     1       3.495  -1.197  -1.574  1.00  0.00     0.057 C 
BRANCH  23  24
HETATM   24  C9  UNL     1       4.153  -0.171  -0.712  1.00  0.00     0.274 C 
BRANCH  24  25
HETATM   25  N3  UNL     1       4.185  -0.532   0.666  1.00  0.00     0.092 N 
HETATM   26  C10 UNL     1       4.812   0.515   1.483  1.00  0.00     0.298 C 
HETATM   27  C11 UNL     1       6.199   0.735   0.978  1.00  0.00     0.198 C 
HETATM   28  O2  UNL     1       6.817  -0.369   0.448  1.00  0.00    -0.388 OA
HETATM   29  C12 UNL     1       6.398  -1.581   0.950  1.00  0.00     0.198 C 
HETATM   30  C13 UNL     1       4.891  -1.749   0.953  1.00  0.00     0.298 C 
ENDBRANCH  24  25
ENDBRANCH  23  24
ENDBRANCH  22  23
ENDBRANCH  21  22
ENDBRANCH   8  21
TORSDOF 6
