REMARK  11 active torsions:
REMARK  status: ('A' for Active; 'I' for Inactive)
REMARK    1  A    between atoms: C2_2  and  O1_3 
REMARK    2  A    between atoms: O1_3  and  C3_4 
REMARK    3  A    between atoms: C3_4  and  C4_5 
REMARK    4  A    between atoms: C4_5  and  N1_6 
REMARK    5  A    between atoms: N1_6  and  C5_7 
REMARK    6  A    between atoms: C5_7  and  C6_8 
REMARK    7  A    between atoms: C6_8  and  C7_9 
REMARK    8  A    between atoms: C7_9  and  O2_10 
REMARK    9  A    between atoms: O2_10  and  C8_11 
REMARK   10  A    between atoms: N4_20  and  C15_21 
REMARK   11  A    between atoms: C22_28  and  O3_29 
ROOT
HETATM    1  C8  UNL     1      -0.875   1.594  -0.136  1.00  0.00     0.100 C 
HETATM    2  C9  UNL     1      -1.745   0.599  -0.165  1.00  0.00     0.044 C 
HETATM    3  C10 UNL     1      -3.030   0.880  -0.772  1.00  0.00     0.168 C 
HETATM    4  C11 UNL     1      -3.209   2.316  -1.005  1.00  0.00     0.064 C 
HETATM    5  N2  UNL     1      -4.415   2.833  -1.073  1.00  0.00    -0.260 NA
HETATM    6  C12 UNL     1      -5.580   2.037  -0.896  1.00  0.00     0.158 C 
HETATM    7  C13 UNL     1      -5.529   0.743  -0.628  1.00  0.00     0.135 C 
HETATM    8  C14 UNL     1      -6.604  -0.168  -0.443  1.00  0.00     0.119 C 
HETATM    9  N3  UNL     1      -7.478  -0.882  -0.298  1.00  0.00    -0.190 NA
HETATM   10  N4  UNL     1      -4.202   0.244  -0.349  1.00  0.00    -0.323 N 
HETATM   11  C21 UNL     1      -2.207   3.372  -1.036  1.00  0.00     0.069 C 
HETATM   12  C22 UNL     1      -1.003   2.990  -0.563  1.00  0.00     0.103 C 
ENDROOT
BRANCH  10  13
HETATM   13  C15 UNL     1      -3.951  -0.936   0.380  1.00  0.00     0.036 A 
HETATM   14  C16 UNL     1      -3.800  -0.917   1.771  1.00  0.00     0.029 A 
HETATM   15  C17 UNL     1      -3.555  -2.113   2.425  1.00  0.00     0.002 A 
HETATM   16  C18 UNL     1      -3.449  -3.340   1.776  1.00  0.00     0.000 A 
HETATM   17  C19 UNL     1      -3.604  -3.334   0.387  1.00  0.00     0.002 A 
HETATM   18  C20 UNL     1      -3.848  -2.146  -0.269  1.00  0.00     0.029 A 
ENDBRANCH  10  13
BRANCH   1  19
HETATM   19  O2  UNL     1       0.381   1.293   0.429  1.00  0.00    -0.348 OA
BRANCH  19  20
HETATM   20  C7  UNL     1       0.557   0.585   1.619  1.00  0.00     0.177 C 
BRANCH  20  21
HETATM   21  C6  UNL     1       2.034   0.447   1.969  1.00  0.00     0.056 C 
BRANCH  21  22
HETATM   22  C5  UNL     1       2.770  -0.300   0.856  1.00  0.00     0.272 C 
BRANCH  22  23
HETATM   23  N1  UNL     1       4.144  -0.409   1.216  1.00  0.00     0.085 N 
HETATM   24  H10 UNL     1       4.614   0.479   1.421  1.00  0.00     0.315 HD
BRANCH  23  25
HETATM   25  C4  UNL     1       4.968  -1.127   0.243  1.00  0.00     0.295 C 
BRANCH  25  26
HETATM   26  C3  UNL     1       5.143  -0.396  -1.037  1.00  0.00     0.197 C 
BRANCH  26  27
HETATM   27  O1  UNL     1       5.905  -0.987  -1.965  1.00  0.00    -0.390 OA
BRANCH  27  28
HETATM   28  C2  UNL     1       5.701  -2.175  -2.520  1.00  0.00     0.163 C 
HETATM   29  C1  UNL     1       5.794  -3.403  -1.649  1.00  0.00     0.033 C 
ENDBRANCH  27  28
ENDBRANCH  26  27
ENDBRANCH  25  26
ENDBRANCH  23  25
ENDBRANCH  22  23
ENDBRANCH  21  22
ENDBRANCH  20  21
ENDBRANCH  19  20
ENDBRANCH   1  19
BRANCH  12  30
HETATM   30  O3  UNL     1       0.062   3.876  -0.485  1.00  0.00    -0.353 OA
HETATM   31  C23 UNL     1      -0.233   5.261  -0.447  1.00  0.00     0.210 C 
ENDBRANCH  12  30
TORSDOF 11
