REMARK  8 active torsions:
REMARK  status: ('A' for Active; 'I' for Inactive)
REMARK    1  A    between atoms: O1_2  and  C2_3 
REMARK    2  A    between atoms: C8_11  and  N3_12 
REMARK    3  A    between atoms: N3_12  and  C9_13 
REMARK    4  A    between atoms: C16_21  and  O2_22 
REMARK    5  A    between atoms: O2_22  and  C17_23 
REMARK    6  A    between atoms: C17_23  and  C18_24 
REMARK    7  A    between atoms: C18_24  and  C19_25 
REMARK    8  A    between atoms: C19_25  and  N4_26 
ROOT
HETATM    1  C2  UNL     1      -0.210  -2.558   0.365  1.00  0.00     0.103 A 
HETATM    2  C3  UNL     1      -1.250  -3.323   0.839  1.00  0.00     0.072 A 
HETATM    3  C4  UNL     1      -2.510  -2.819   0.646  1.00  0.00     0.071 A 
HETATM    4  N1  UNL     1      -3.545  -3.573   1.114  1.00  0.00    -0.259 NA
HETATM    5  C5  UNL     1      -4.823  -3.165   0.972  1.00  0.00     0.142 A 
HETATM    6  C6  UNL     1      -5.018  -1.964   0.339  1.00  0.00     0.089 A 
HETATM    7  C7  UNL     1      -6.390  -1.555   0.200  1.00  0.00     0.103 C 
HETATM    8  N2  UNL     1      -7.495  -1.207   0.078  1.00  0.00    -0.191 NA
HETATM    9  C8  UNL     1      -4.022  -1.143  -0.163  1.00  0.00     0.067 A 
HETATM   10  C14 UNL     1      -2.737  -1.620   0.015  1.00  0.00     0.024 A 
HETATM   11  C15 UNL     1      -1.656  -0.892  -0.442  1.00  0.00     0.055 A 
HETATM   12  C16 UNL     1      -0.360  -1.347  -0.277  1.00  0.00     0.103 A 
ENDROOT
BRANCH   9  13
HETATM   13  N3  UNL     1      -4.272   0.095  -0.811  1.00  0.00    -0.357 N 
HETATM   14  H6  UNL     1      -4.367  -0.207  -1.814  1.00  0.00     0.166 HD
BRANCH  13  15
HETATM   15  C9  UNL     1      -4.365   1.407  -0.220  1.00  0.00     0.014 A 
HETATM   16  C10 UNL     1      -3.504   2.348   0.138  1.00  0.00     0.026 A 
HETATM   17  C11 UNL     1      -4.236   3.476   0.692  1.00  0.00     0.021 A 
HETATM   18  C12 UNL     1      -5.530   3.199   0.661  1.00  0.00     0.017 A 
HETATM   19 CL1  UNL     1      -6.714   4.349   1.257  1.00  0.00    -0.089 Cl
HETATM   20  C13 UNL     1      -5.767   1.838   0.072  1.00  0.00     0.108 A 
ENDBRANCH  13  15
ENDBRANCH   9  13
BRANCH  12  21
HETATM   21  O2  UNL     1       0.791  -0.729  -0.680  1.00  0.00    -0.348 OA
BRANCH  21  22
HETATM   22  C17 UNL     1       0.900   0.499  -1.346  1.00  0.00     0.177 C 
BRANCH  22  23
HETATM   23  C18 UNL     1       2.355   0.863  -1.631  1.00  0.00     0.046 C 
BRANCH  23  24
HETATM   24  C19 UNL     1       3.062   0.948  -0.313  1.00  0.00     0.119 C 
BRANCH  24  25
HETATM   25  N4  UNL     1       4.425   1.270  -0.327  1.00  0.00    -0.408 N 
HETATM   26  C20 UNL     1       5.345   0.339  -0.864  1.00  0.00     0.143 C 
HETATM   27  C21 UNL     1       6.720   0.501  -0.314  1.00  0.00     0.187 C 
HETATM   28  O3  UNL     1       6.738   1.447   0.685  1.00  0.00    -0.388 OA
HETATM   29  C22 UNL     1       6.312   2.659   0.144  1.00  0.00     0.187 C 
HETATM   30  C23 UNL     1       4.829   2.614  -0.183  1.00  0.00     0.143 C 
ENDBRANCH  24  25
ENDBRANCH  23  24
ENDBRANCH  22  23
ENDBRANCH  21  22
ENDBRANCH  12  21
BRANCH   1  31
HETATM   31  O1  UNL     1       1.073  -3.100   0.577  1.00  0.00    -0.353 OA
HETATM   32  C1  UNL     1       1.235  -4.339   1.233  1.00  0.00     0.210 C 
ENDBRANCH   1  31
TORSDOF 8
