REMARK  4 active torsions:
REMARK  status: ('A' for Active; 'I' for Inactive)
REMARK    1  A    between atoms: C10_13  and  O1_14 
REMARK    2  A    between atoms: O1_14  and  C11_15 
REMARK    3  A    between atoms: C11_15  and  C12_16 
REMARK    4  A    between atoms: C12_16  and  O2_17 
ROOT
HETATM    1  C1  UNL     1      -3.390   4.468   0.964  1.00  0.00     0.017 C 
HETATM    2  C2  UNL     1      -2.949   3.416   0.518  1.00  0.00    -0.082 C 
HETATM    3  C3  UNL     1      -2.409   2.175   0.006  1.00  0.00    -0.004 A 
HETATM    4  C4  UNL     1      -1.976   1.755  -1.139  1.00  0.00     0.025 A 
HETATM    5  C5  UNL     1      -1.674   0.423  -0.612  1.00  0.00     0.077 A 
HETATM    6  C6  UNL     1      -2.181   0.901   0.693  1.00  0.00     0.087 A 
HETATM    7  N1  UNL     1      -2.409  -0.650  -1.173  1.00  0.00    -0.379 N 
HETATM    8  C7  UNL     1      -3.151  -1.708  -1.689  1.00  0.00     0.454 C 
HETATM    9  N2  UNL     1      -3.227  -2.540  -0.730  1.00  0.00    -0.335 NA
HETATM   10  N3  UNL     1      -2.635  -2.306   0.531  1.00  0.00    -0.324 N 
HETATM   11  C8  UNL     1      -1.251  -2.582   0.506  1.00  0.00     0.108 C 
HETATM   12  C9  UNL     1      -0.034  -2.167   0.229  1.00  0.00     0.055 C 
HETATM   13  C10 UNL     1       0.490  -0.921  -0.304  1.00  0.00     0.074 C 
HETATM   14  C14 UNL     1      -0.191   0.182  -0.664  1.00  0.00    -0.019 C 
HETATM   15  C15 UNL     1       0.664   1.291  -1.180  1.00  0.00     0.049 C 
HETATM   16  H5  UNL     1      -2.013  -0.729  -2.138  1.00  0.00     0.157 HD
HETATM   17  H7  UNL     1      -3.172  -1.977   1.346  1.00  0.00     0.184 HD
ENDROOT
BRANCH  13  18
HETATM   18  O1  UNL     1       1.869  -0.870  -0.459  1.00  0.00    -0.349 OA
BRANCH  18  19
HETATM   19  C11 UNL     1       2.698  -1.244   0.600  1.00  0.00     0.201 C 
BRANCH  19  20
HETATM   20  C12 UNL     1       4.117  -0.987   0.171  1.00  0.00     0.193 C 
BRANCH  20  21
HETATM   21  O2  UNL     1       4.361   0.329  -0.136  1.00  0.00    -0.394 OA
HETATM   22  C13 UNL     1       4.131   1.123   0.970  1.00  0.00     0.201 C 
ENDBRANCH  20  21
ENDBRANCH  19  20
ENDBRANCH  18  19
ENDBRANCH  13  18
TORSDOF 4
