REMARK  5 active torsions:
REMARK  status: ('A' for Active; 'I' for Inactive)
REMARK    1  A    between atoms: C7_9  and  C8_10 
REMARK    2  A    between atoms: C13_15  and  C14_16 
REMARK    3  A    between atoms: C14_16  and  C15_18 
REMARK    4  A    between atoms: C16_19  and  C17_20 
REMARK    5  A    between atoms: C17_20  and  N1_21 
ROOT
HETATM    1  C8  UNL     1       2.778   0.817  -0.410  1.00  0.00    -0.017 A 
HETATM    2  C9  UNL     1       1.786  -0.048  -0.368  1.00  0.00    -0.015 A 
HETATM    3  C10 UNL     1       2.105  -1.450  -0.183  1.00  0.00     0.009 A 
HETATM    4  C11 UNL     1       1.124  -2.325  -0.109  1.00  0.00    -0.021 A 
HETATM    5  C12 UNL     1      -0.299  -1.961  -0.205  1.00  0.00     0.071 A 
HETATM    6  C13 UNL     1      -0.511  -0.523  -0.394  1.00  0.00     0.008 A 
HETATM    7  C20 UNL     1       0.404   0.398  -0.475  1.00  0.00     0.002 A 
HETATM    8  C21 UNL     1       0.168   1.821  -0.651  1.00  0.00     0.123 A 
HETATM    9  N2  UNL     1       1.147   2.625  -0.706  1.00  0.00    -0.296 NA
HETATM   10  C22 UNL     1       2.539   2.250  -0.606  1.00  0.00     0.188 A 
ENDROOT
BRANCH   1  11
HETATM   11  C7  UNL     1       4.183   0.576  -0.288  1.00  0.00    -0.020 A 
HETATM   12  C2  UNL     1       4.808  -0.005   0.785  1.00  0.00    -0.048 A 
HETATM   13  C1  UNL     1       4.073  -0.378   2.020  1.00  0.00     0.049 C 
HETATM   14  C3  UNL     1       6.190  -0.227   0.758  1.00  0.00     0.051 A 
HETATM   15  C4  UNL     1       6.981   0.125  -0.330  1.00  0.00     0.138 A 
HETATM   16  F1  UNL     1       8.316  -0.096  -0.341  1.00  0.00    -0.204 F 
HETATM   17  C5  UNL     1       6.348   0.710  -1.406  1.00  0.00     0.073 A 
HETATM   18 CL1  UNL     1       7.291   1.174  -2.802  1.00  0.00    -0.081 Cl
HETATM   19  C6  UNL     1       4.982   0.924  -1.371  1.00  0.00     0.039 A 
ENDBRANCH   1  11
BRANCH   6  20
HETATM   20  C14 UNL     1      -1.906  -0.164  -0.493  1.00  0.00     0.179 C 
HETATM   21  O1  UNL     1      -2.694   0.787  -0.645  1.00  0.00    -0.288 OA
BRANCH  20  22
HETATM   22  C15 UNL     1      -3.048  -1.041  -0.422  1.00  0.00     0.053 C 
HETATM   23  C16 UNL     1      -4.344  -0.836  -0.500  1.00  0.00    -0.004 C 
BRANCH  23  24
HETATM   24  C17 UNL     1      -5.409   0.177  -0.675  1.00  0.00     0.143 C 
BRANCH  24  25
HETATM   25  N1  UNL     1      -6.259   0.162   0.478  1.00  0.00    -0.418 N 
HETATM   26  C18 UNL     1      -5.593   0.643   1.634  1.00  0.00     0.142 C 
HETATM   27  C19 UNL     1      -7.601   0.585   0.275  1.00  0.00     0.142 C 
ENDBRANCH  24  25
ENDBRANCH  23  24
ENDBRANCH  20  22
ENDBRANCH   6  20
TORSDOF 5
