REMARK  6 active torsions:
REMARK  status: ('A' for Active; 'I' for Inactive)
REMARK    1  A    between atoms: C2_2  and  C3_3 
REMARK    2  A    between atoms: C12_16  and  O3_17 
REMARK    3  A    between atoms: O3_17  and  C13_18 
REMARK    4  A    between atoms: C13_18  and  C14_19 
REMARK    5  A    between atoms: C14_19  and  O4_20 
REMARK    6  A    between atoms: O4_20  and  C15_21 
ROOT
HETATM    1  C15 UNL     1       6.352  -0.920  -1.534  1.00  0.00     0.291 C 
HETATM    2  C16 UNL     1       6.965  -2.075  -2.189  1.00  0.00     0.085 C 
HETATM    3  N3  UNL     1       7.433  -2.993  -2.706  1.00  0.00    -0.195 NA
ENDROOT
BRANCH   1   4
HETATM    4  O4  UNL     1       5.000  -1.107  -1.256  1.00  0.00    -0.375 OA
BRANCH   4   5
HETATM    5  C14 UNL     1       4.427  -0.016  -0.639  1.00  0.00     0.195 C 
BRANCH   5   6
HETATM    6  C13 UNL     1       2.943  -0.279  -0.359  1.00  0.00     0.195 C 
BRANCH   6   7
HETATM    7  O3  UNL     1       2.436   0.860   0.262  1.00  0.00    -0.372 OA
BRANCH   7   8
HETATM    8  C12 UNL     1       1.089   1.003   0.680  1.00  0.00     0.128 C 
HETATM    9  C11 UNL     1       1.251   2.297   0.395  1.00  0.00     0.191 C 
HETATM   10  O2  UNL     1       0.404   3.386   0.487  1.00  0.00    -0.378 OA
HETATM   11  C10 UNL     1      -0.590   3.765  -0.519  1.00  0.00     0.194 C 
HETATM   12  C9  UNL     1      -1.553   2.702  -0.281  1.00  0.00     0.194 C 
HETATM   13  O1  UNL     1      -2.738   2.407  -0.805  1.00  0.00    -0.380 OA
HETATM   14  C7  UNL     1      -3.009   1.183  -0.129  1.00  0.00     0.159 C 
HETATM   15  C6  UNL     1      -2.968   1.249   1.357  1.00  0.00     0.182 C 
HETATM   16  C8  UNL     1      -4.062   0.338  -0.697  1.00  0.00     0.153 C 
HETATM   17  N1  UNL     1      -1.751   0.614   1.933  1.00  0.00    -0.291 NA
HETATM   18  C5  UNL     1      -0.974  -0.258   1.316  1.00  0.00     0.034 C 
HETATM   19  C4  UNL     1      -1.428  -1.506   0.615  1.00  0.00     0.056 C 
HETATM   20  C17 UNL     1       0.482  -0.275   1.101  1.00  0.00     0.103 C 
HETATM   21  C3  UNL     1      -2.599  -1.836   0.021  1.00  0.00     0.029 C 
HETATM   22  N2  UNL     1      -3.773  -1.072  -0.353  1.00  0.00    -0.387 N 
HETATM   23  H10 UNL     1      -4.589  -1.724  -0.371  1.00  0.00     0.159 HD
BRANCH  21  24
HETATM   24  C2  UNL     1      -2.637  -3.258  -0.291  1.00  0.00     0.019 C 
HETATM   25  C1  UNL     1      -3.605  -3.945  -0.868  1.00  0.00     0.013 C 
ENDBRANCH  21  24
ENDBRANCH   7   8
ENDBRANCH   6   7
ENDBRANCH   5   6
ENDBRANCH   4   5
ENDBRANCH   1   4
TORSDOF 6
