REMARK  5 active torsions:
REMARK  status: ('A' for Active; 'I' for Inactive)
REMARK    1  A    between atoms: C2_2  and  O1_3 
REMARK    2  A    between atoms: O1_3  and  C3_4 
REMARK    3  A    between atoms: C8_11  and  N2_12 
REMARK    4  A    between atoms: N2_12  and  C9_13 
REMARK    5  A    between atoms: C12_17  and  N3_18 
REMARK       I    between atoms: N3_18  and  C13_19 
ROOT
HETATM    1  N3  UNL     1       0.747   2.314   0.916  1.00  0.00    -0.312 N 
HETATM    2  C13 UNL     1       0.662   3.209  -0.201  1.00  0.00     0.327 C 
HETATM    3  O3  UNL     1       0.363   2.641  -1.294  1.00  0.00    -0.256 OA
HETATM    4  C14 UNL     1       0.896   4.638  -0.092  1.00  0.00     0.162 C 
HETATM    5  N4  UNL     1       1.100   5.760  -0.004  1.00  0.00    -0.186 NA
HETATM    6  H11 UNL     1       0.994   2.758   1.837  1.00  0.00     0.170 HD
ENDROOT
BRANCH   1   7
HETATM    7  C12 UNL     1       0.459   0.983   0.452  1.00  0.00     0.070 A 
HETATM    8  C3  UNL     1       1.403   0.072  -0.025  1.00  0.00     0.097 A 
HETATM    9  C4  UNL     1       0.977  -1.174  -0.437  1.00  0.00     0.071 A 
HETATM   10  C5  UNL     1      -0.365  -1.491  -0.370  1.00  0.00     0.071 A 
HETATM   11  N1  UNL     1      -0.684  -2.733  -0.796  1.00  0.00    -0.258 NA
HETATM   12  C10 UNL     1      -1.300  -0.602   0.097  1.00  0.00     0.024 A 
HETATM   13  C6  UNL     1      -1.960  -3.181  -0.787  1.00  0.00     0.143 A 
HETATM   14  C7  UNL     1      -2.935  -2.302  -0.318  1.00  0.00     0.079 A 
HETATM   15 CL1  UNL     1      -4.602  -2.864  -0.299  1.00  0.00    -0.080 Cl
HETATM   16  C8  UNL     1      -2.611  -1.025   0.120  1.00  0.00     0.070 A 
HETATM   17  C11 UNL     1      -0.890   0.644   0.512  1.00  0.00     0.048 A 
BRANCH   8  18
HETATM   18  O1  UNL     1       2.671   0.613   0.003  1.00  0.00    -0.349 OA
BRANCH  18  19
HETATM   19  C2  UNL     1       3.805  -0.110  -0.429  1.00  0.00     0.171 C 
HETATM   20  C1  UNL     1       4.029  -1.382   0.361  1.00  0.00     0.034 C 
ENDBRANCH  18  19
ENDBRANCH   8  18
BRANCH  16  21
HETATM   21  N2  UNL     1      -3.617  -0.139   0.595  1.00  0.00    -0.332 N 
HETATM   22  H8  UNL     1      -3.596  -0.404   1.614  1.00  0.00     0.168 HD
BRANCH  21  23
HETATM   23  C9  UNL     1      -4.491   0.852   0.088  1.00  0.00     0.353 C 
HETATM   24  O2  UNL     1      -4.576   1.221  -1.101  1.00  0.00    -0.283 OA
ENDBRANCH  21  23
ENDBRANCH  16  21
ENDBRANCH   1   7
TORSDOF 5
