REMARK  5 active torsions:
REMARK  status: ('A' for Active; 'I' for Inactive)
REMARK    1  A    between atoms: C2_2  and  O1_3 
REMARK    2  A    between atoms: O1_3  and  C3_4 
REMARK    3  A    between atoms: C8_10  and  N2_11 
REMARK    4  A    between atoms: N2_11  and  P1_12 
REMARK    5  A    between atoms: C16_22  and  N3_23 
REMARK       I    between atoms: N3_23  and  C17_24 
ROOT
HETATM    1  C3  UNL     1      -2.563  -0.072  -0.235  1.00  0.00     0.097 A 
HETATM    2  C4  UNL     1      -2.331   0.796  -1.275  1.00  0.00     0.071 A 
HETATM    3  C5  UNL     1      -1.135   1.464  -1.429  1.00  0.00     0.071 A 
HETATM    4  N1  UNL     1      -0.941   2.307  -2.460  1.00  0.00    -0.260 NA
HETATM    5  C6  UNL     1       0.227   2.954  -2.603  1.00  0.00     0.119 A 
HETATM    6  C7  UNL     1       1.255   2.754  -1.675  1.00  0.00     0.052 A 
HETATM    7  C8  UNL     1       1.126   1.893  -0.579  1.00  0.00     0.070 A 
HETATM    8  C14 UNL     1      -0.117   1.255  -0.496  1.00  0.00     0.024 A 
HETATM    9  C15 UNL     1      -0.327   0.380   0.568  1.00  0.00     0.048 A 
HETATM   10  C16 UNL     1      -1.551  -0.286   0.701  1.00  0.00     0.069 A 
ENDROOT
BRANCH   7  11
HETATM   11  N2  UNL     1       2.158   1.700   0.366  1.00  0.00    -0.255 NA
BRANCH  11  12
HETATM   12  P1  UNL     1       3.147   0.483   0.150  1.00  0.00     0.056 P 
HETATM   13  C9  UNL     1       3.053  -0.387  -1.200  1.00  0.00     0.063 A 
HETATM   14 CL1  UNL     1       1.787  -0.153  -2.415  1.00  0.00    -0.082 Cl
HETATM   15  C10 UNL     1       4.007  -1.430  -1.508  1.00  0.00     0.064 A 
HETATM   16  C11 UNL     1       4.955  -1.616  -0.606  1.00  0.00     0.096 A 
HETATM   17  F1  UNL     1       5.859  -2.616  -0.916  1.00  0.00    -0.211 F 
HETATM   18  C12 UNL     1       5.340  -1.045   0.687  1.00  0.00     0.077 A 
HETATM   19  C13 UNL     1       4.522   0.061   1.231  1.00  0.00     0.071 A 
ENDBRANCH  11  12
ENDBRANCH   7  11
BRANCH  10  20
HETATM   20  N3  UNL     1      -1.607  -1.150   1.848  1.00  0.00    -0.325 N 
HETATM   21  C17 UNL     1      -2.060  -0.676   3.100  1.00  0.00     0.218 C 
HETATM   22  C18 UNL     1      -2.086  -1.636   4.234  1.00  0.00     0.117 C 
HETATM   23  O2  UNL     1      -2.406   0.533   3.149  1.00  0.00    -0.274 OA
HETATM   24  H15 UNL     1      -1.300  -2.142   1.724  1.00  0.00     0.169 HD
ENDBRANCH  10  20
BRANCH   1  25
HETATM   25  O1  UNL     1      -3.697  -0.792   0.028  1.00  0.00    -0.349 OA
BRANCH  25  26
HETATM   26  C2  UNL     1      -4.875  -0.797  -0.713  1.00  0.00     0.171 C 
HETATM   27  C1  UNL     1      -4.582  -1.264  -2.115  1.00  0.00     0.034 C 
ENDBRANCH  25  26
ENDBRANCH   1  25
TORSDOF 5
