REMARK  6 active torsions:
REMARK  status: ('A' for Active; 'I' for Inactive)
REMARK    1  A    between atoms: C2_2  and  C3_3 
REMARK    2  A    between atoms: C8_8  and  C9_9 
REMARK    3  A    between atoms: C9_9  and  C10_11 
REMARK    4  A    between atoms: C11_12  and  C12_13 
REMARK    5  A    between atoms: C12_13  and  N1_14 
REMARK    6  A    between atoms: C15_17  and  N2_18 
ROOT
HETATM    1  C3  UNL     1      -0.120   0.305   2.424  1.00  0.00    -0.042 A 
HETATM    2  C4  UNL     1       0.969   0.661   3.194  1.00  0.00     0.040 A 
HETATM    3  C5  UNL     1       2.190   0.608   2.555  1.00  0.00     0.064 A 
HETATM    4  C6  UNL     1       2.351   0.231   1.242  1.00  0.00     0.018 A 
HETATM    5  C7  UNL     1       1.252  -0.119   0.492  1.00  0.00     0.032 A 
HETATM    6  C8  UNL     1       0.022  -0.073   1.111  1.00  0.00     0.021 A 
HETATM    7  C15 UNL     1       3.632   0.275   0.900  1.00  0.00     0.044 A 
HETATM    8  C21 UNL     1       4.383   0.721   2.098  1.00  0.00     0.207 A 
HETATM    9  N3  UNL     1       3.333   0.896   3.078  1.00  0.00    -0.283 NA
ENDROOT
BRANCH   6  10
HETATM   10  C9  UNL     1      -1.085  -0.446   0.256  1.00  0.00     0.182 C 
HETATM   11  O1  UNL     1      -0.961  -0.799  -0.942  1.00  0.00    -0.288 OA
BRANCH  10  12
HETATM   12  C10 UNL     1      -2.514  -0.607   0.199  1.00  0.00     0.053 C 
HETATM   13  C11 UNL     1      -2.903  -1.026  -1.018  1.00  0.00     0.007 C 
BRANCH  13  14
HETATM   14  C12 UNL     1      -4.337  -1.263  -1.317  1.00  0.00     0.299 C 
BRANCH  14  15
HETATM   15  N1  UNL     1      -4.816  -0.433  -2.400  1.00  0.00     0.083 N 
HETATM   16  C13 UNL     1      -6.216  -0.756  -2.596  1.00  0.00     0.309 C 
HETATM   17  C14 UNL     1      -4.713   0.968  -2.031  1.00  0.00     0.309 C 
ENDBRANCH  14  15
ENDBRANCH  13  14
ENDBRANCH  10  12
ENDBRANCH   6  10
BRANCH   1  18
HETATM   18  C2  UNL     1      -1.455   0.342   3.078  1.00  0.00     0.035 C 
HETATM   19  C1  UNL     1      -2.242   1.531   2.638  1.00  0.00     0.010 C 
ENDBRANCH   1  18
BRANCH   7  20
HETATM   20  N2  UNL     1       4.292  -0.018  -0.325  1.00  0.00    -0.351 N 
HETATM   21  C16 UNL     1       4.371   0.966  -1.378  1.00  0.00     0.135 A 
HETATM   22  C17 UNL     1       4.979   0.711  -2.506  1.00  0.00     0.153 A 
HETATM   23  F1  UNL     1       4.967   1.734  -3.388  1.00  0.00    -0.203 F 
HETATM   24  C18 UNL     1       5.605  -0.580  -2.761  1.00  0.00     0.071 A 
HETATM   25 CL1  UNL     1       6.401  -0.849  -4.295  1.00  0.00    -0.081 Cl
HETATM   26  C19 UNL     1       5.536  -1.500  -1.793  1.00  0.00     0.020 A 
HETATM   27  C20 UNL     1       4.881  -1.324  -0.490  1.00  0.00     0.157 A 
ENDBRANCH   7  20
TORSDOF 6
