REMARK  0 active torsions:
REMARK  status: ('A' for Active; 'I' for Inactive)
ROOT
HETATM    1  F1  UNL     1      -3.681   4.479   0.511  1.00  0.00    -0.204 F 
HETATM    2  C1  UNL     1      -3.157   3.239   0.276  1.00  0.00     0.140 A 
HETATM    3  C2  UNL     1      -3.461   2.604  -0.927  1.00  0.00     0.076 A 
HETATM    4  C3  UNL     1      -2.959   1.352  -1.221  1.00  0.00     0.072 A 
HETATM    5  C4  UNL     1      -2.172   0.833  -0.253  1.00  0.00     0.007 A 
HETATM    6  C5  UNL     1      -1.782   1.348   0.999  1.00  0.00     0.041 A 
HETATM    7  C6  UNL     1      -2.331   2.628   1.231  1.00  0.00     0.073 A 
HETATM    8 CL1  UNL     1      -1.994   3.488   2.720  1.00  0.00    -0.081 Cl
HETATM    9  C7  UNL     1      -1.487  -0.459  -0.348  1.00  0.00     0.006 C 
HETATM   10  C8  UNL     1      -0.337  -0.112   0.295  1.00  0.00     0.025 C 
HETATM   11  C9  UNL     1       0.851  -0.900   0.608  1.00  0.00    -0.017 C 
HETATM   12  C10 UNL     1       1.021  -2.232   0.739  1.00  0.00     0.057 C 
HETATM   13  C11 UNL     1       0.374  -3.558   0.694  1.00  0.00     0.092 C 
HETATM   14  C12 UNL     1      -0.814  -3.697  -0.134  1.00  0.00    -0.018 C 
HETATM   15  C13 UNL     1      -1.802  -3.117  -0.848  1.00  0.00     0.029 C 
HETATM   16  C14 UNL     1      -1.986  -1.683  -1.029  1.00  0.00     0.069 C 
HETATM   17  N1  UNL     1      -2.756  -1.680  -2.076  1.00  0.00    -0.241 NA
HETATM   18  C15 UNL     1      -3.254  -0.507  -2.756  1.00  0.00     0.234 C 
HETATM   19  N2  UNL     1      -3.360   0.761  -2.451  1.00  0.00    -0.241 NA
HETATM   20  O1  UNL     1       2.399  -2.318   1.042  1.00  0.00    -0.353 OA
HETATM   21  C16 UNL     1       2.815  -1.130   1.689  1.00  0.00     0.190 C 
HETATM   22  C17 UNL     1       2.041  -0.122   0.816  1.00  0.00     0.015 C 
HETATM   23  C18 UNL     1       2.913  -0.038  -0.445  1.00  0.00     0.043 C 
HETATM   24  C19 UNL     1       2.389   0.906  -1.467  1.00  0.00     0.168 C 
HETATM   25  O2  UNL     1       1.787   1.977  -0.867  1.00  0.00    -0.391 OA
HETATM   26  C20 UNL     1       2.412   2.224   0.353  1.00  0.00     0.168 C 
HETATM   27  C21 UNL     1       1.984   1.217   1.402  1.00  0.00     0.043 C 
ENDROOT
TORSDOF 0
