REMARK  7 active torsions:
REMARK  status: ('A' for Active; 'I' for Inactive)
REMARK    1  A    between atoms: C2_2  and  C3_3 
REMARK       I    between atoms: C3_3  and  N1_5 
REMARK    2  A    between atoms: N1_5  and  C4_6 
REMARK    3  A    between atoms: C13_17  and  O2_18 
REMARK    4  A    between atoms: O2_18  and  C14_19 
REMARK    5  A    between atoms: C14_19  and  C15_20 
REMARK    6  A    between atoms: C15_20  and  C16_21 
REMARK    7  A    between atoms: C16_21  and  N4_22 
ROOT
HETATM    1  C4  UNL     1       2.537  -0.561  -0.278  1.00  0.00     0.069 A 
HETATM    2  C5  UNL     1       3.806  -0.114   0.120  1.00  0.00     0.046 A 
HETATM    3  C6  UNL     1       4.027   1.227   0.304  1.00  0.00    -0.004 A 
HETATM    4  C7  UNL     1       5.253   1.736   0.695  1.00  0.00     0.038 A 
HETATM    5  C8  UNL     1       5.379   3.104   0.854  1.00  0.00     0.063 A 
HETATM    6  C9  UNL     1       6.643   3.639   1.258  1.00  0.00     0.101 C 
HETATM    7  N2  UNL     1       7.670   4.060   1.600  1.00  0.00    -0.191 NA
HETATM    8  C10 UNL     1       4.322   3.965   0.635  1.00  0.00     0.140 A 
HETATM    9  N3  UNL     1       3.138   3.430   0.253  1.00  0.00    -0.259 NA
HETATM   10  C11 UNL     1       3.019   2.117   0.100  1.00  0.00     0.069 A 
HETATM   11  C12 UNL     1       1.801   1.661  -0.284  1.00  0.00     0.071 A 
HETATM   12  C13 UNL     1       1.477   0.339  -0.494  1.00  0.00     0.097 A 
ENDROOT
BRANCH   1  13
HETATM   13  N1  UNL     1       2.538  -1.998  -0.407  1.00  0.00    -0.321 N 
HETATM   14  C3  UNL     1       2.198  -2.756   0.745  1.00  0.00     0.245 C 
HETATM   15  O1  UNL     1       1.936  -2.011   1.751  1.00  0.00    -0.268 OA
HETATM   16  H4  UNL     1       2.772  -2.505  -1.289  1.00  0.00     0.169 HD
BRANCH  14  17
HETATM   17  C2  UNL     1       2.150  -4.212   0.791  1.00  0.00     0.064 C 
HETATM   18  C1  UNL     1       2.423  -4.978  -0.252  1.00  0.00     0.017 C 
ENDBRANCH  14  17
ENDBRANCH   1  13
BRANCH  12  19
HETATM   19  O2  UNL     1       0.402  -0.390  -0.863  1.00  0.00    -0.349 OA
BRANCH  19  20
HETATM   20  C14 UNL     1      -0.896  -0.004  -1.184  1.00  0.00     0.177 C 
BRANCH  20  21
HETATM   21  C15 UNL     1      -1.597   0.658  -0.048  1.00  0.00     0.057 C 
BRANCH  21  22
HETATM   22  C16 UNL     1      -2.993   1.022  -0.521  1.00  0.00     0.274 C 
BRANCH  22  23
HETATM   23  N4  UNL     1      -3.771  -0.125  -0.941  1.00  0.00     0.092 N 
HETATM   24  C17 UNL     1      -5.058   0.395  -1.354  1.00  0.00     0.298 C 
HETATM   25  C18 UNL     1      -6.180  -0.018  -0.456  1.00  0.00     0.198 C 
HETATM   26  O3  UNL     1      -5.909  -0.176   0.861  1.00  0.00    -0.388 OA
HETATM   27  C19 UNL     1      -4.641  -0.492   1.239  1.00  0.00     0.198 C 
HETATM   28  C20 UNL     1      -3.908  -1.126   0.100  1.00  0.00     0.298 C 
ENDBRANCH  22  23
ENDBRANCH  21  22
ENDBRANCH  20  21
ENDBRANCH  19  20
ENDBRANCH  12  19
TORSDOF 7
