REMARK  2 active torsions:
REMARK  status: ('A' for Active; 'I' for Inactive)
REMARK    1  A    between atoms: C2_2  and  C3_3 
REMARK       I    between atoms: C3_3  and  N1_5 
REMARK    2  A    between atoms: N1_5  and  C4_6 
ROOT
HETATM    1  C4  UNL     1       1.170  -0.468   0.014  1.00  0.00     0.040 C 
HETATM    2  C5  UNL     1       0.204  -0.908   0.888  1.00  0.00     0.018 C 
HETATM    3  C6  UNL     1      -1.288  -0.975   0.655  1.00  0.00     0.089 C 
HETATM    4  C7  UNL     1      -1.618  -1.920  -0.483  1.00  0.00     0.052 C 
HETATM    5  C8  UNL     1      -2.171  -3.186  -0.089  1.00  0.00     0.097 C 
HETATM    6  N2  UNL     1      -2.598  -4.205   0.215  1.00  0.00    -0.192 NA
HETATM    7  C9  UNL     1      -1.488  -1.792  -1.838  1.00  0.00     0.136 C 
HETATM    8  N3  UNL     1      -0.724  -0.788  -2.640  1.00  0.00    -0.263 NA
HETATM    9  C10 UNL     1      -0.101   0.291  -2.029  1.00  0.00     0.047 C 
HETATM   10  C11 UNL     1      -0.937   1.573  -1.959  1.00  0.00     0.099 C 
HETATM   11  C12 UNL     1      -1.804   1.371  -0.708  1.00  0.00    -0.042 A 
HETATM   12  C13 UNL     1      -2.611   2.483  -0.656  1.00  0.00     0.052 A 
HETATM   13  C14 UNL     1      -3.527   2.643   0.355  1.00  0.00     0.138 A 
HETATM   14  F1  UNL     1      -4.308   3.740   0.389  1.00  0.00    -0.204 F 
HETATM   15  C15 UNL     1      -3.654   1.688   1.337  1.00  0.00     0.073 A 
HETATM   16 CL1  UNL     1      -4.794   1.817   2.656  1.00  0.00    -0.081 Cl
HETATM   17  C16 UNL     1      -2.820   0.595   1.234  1.00  0.00     0.035 A 
HETATM   18  C17 UNL     1      -1.857   0.342   0.244  1.00  0.00    -0.037 A 
HETATM   19  C18 UNL     1       1.267  -0.008  -1.433  1.00  0.00    -0.006 C 
HETATM   20  C19 UNL     1       2.575  -0.001  -1.781  1.00  0.00     0.048 C 
ENDROOT
BRANCH   1  21
HETATM   21  N1  UNL     1       2.416  -0.473   0.753  1.00  0.00    -0.323 N 
HETATM   22  C3  UNL     1       3.633  -1.159   0.580  1.00  0.00     0.244 C 
HETATM   23  O1  UNL     1       3.847  -1.984  -0.373  1.00  0.00    -0.268 OA
HETATM   24  H4  UNL     1       2.290   0.204   1.564  1.00  0.00     0.169 HD
BRANCH  22  25
HETATM   25  C2  UNL     1       4.677  -0.899   1.544  1.00  0.00     0.064 C 
HETATM   26  C1  UNL     1       4.562  -0.079   2.550  1.00  0.00     0.017 C 
ENDBRANCH  22  25
ENDBRANCH   1  21
TORSDOF 2
