REMARK  6 active torsions:
REMARK  status: ('A' for Active; 'I' for Inactive)
REMARK    1  A    between atoms: O1_1  and  C1_2 
REMARK    2  A    between atoms: C15_20  and  O2_21 
REMARK    3  A    between atoms: O2_21  and  C16_22 
REMARK    4  A    between atoms: C16_22  and  C17_23 
REMARK    5  A    between atoms: C17_23  and  C18_24 
REMARK    6  A    between atoms: C18_24  and  N3_25 
ROOT
HETATM    1  C1  UNL     1      -0.227   0.064  -2.332  1.00  0.00     0.197 C 
HETATM    2  C2  UNL     1      -0.872  -0.773  -3.371  1.00  0.00     0.013 C 
HETATM    3  C3  UNL     1      -2.128  -1.210  -3.574  1.00  0.00     0.031 C 
HETATM    4  C4  UNL     1      -3.222  -0.865  -2.642  1.00  0.00     0.070 A 
HETATM    5  N1  UNL     1      -4.427  -0.911  -3.234  1.00  0.00    -0.241 NA
HETATM    6  C5  UNL     1      -5.498  -0.606  -2.465  1.00  0.00     0.234 A 
HETATM    7  N2  UNL     1      -5.442  -0.259  -1.145  1.00  0.00    -0.240 NA
HETATM    8  C6  UNL     1      -4.230  -0.204  -0.515  1.00  0.00     0.081 A 
HETATM    9  C7  UNL     1      -4.209   0.166   0.869  1.00  0.00    -0.005 A 
HETATM   10  C8  UNL     1      -5.152  -0.557   1.606  1.00  0.00     0.017 A 
HETATM   11  C9  UNL     1      -5.338  -0.369   2.969  1.00  0.00     0.045 A 
HETATM   12  C10 UNL     1      -4.585   0.549   3.637  1.00  0.00     0.138 A 
HETATM   13  F1  UNL     1      -4.710   0.787   4.966  1.00  0.00    -0.204 F 
HETATM   14  C11 UNL     1      -3.648   1.275   2.931  1.00  0.00     0.073 A 
HETATM   15 CL1  UNL     1      -2.641   2.472   3.712  1.00  0.00    -0.081 Cl
HETATM   16  C12 UNL     1      -3.455   1.099   1.588  1.00  0.00     0.041 A 
HETATM   17  C13 UNL     1      -3.160  -0.511  -1.290  1.00  0.00     0.025 A 
HETATM   18  C14 UNL     1      -1.930  -0.445  -0.507  1.00  0.00     0.051 C 
HETATM   19  C15 UNL     1      -0.705  -0.203  -0.956  1.00  0.00     0.079 C 
ENDROOT
BRANCH  19  20
HETATM   20  O2  UNL     1       0.250  -0.207   0.044  1.00  0.00    -0.352 OA
BRANCH  20  21
HETATM   21  C16 UNL     1       0.931   0.880   0.552  1.00  0.00     0.177 C 
BRANCH  21  22
HETATM   22  C17 UNL     1       1.918   0.494   1.656  1.00  0.00     0.046 C 
BRANCH  22  23
HETATM   23  C18 UNL     1       2.944  -0.457   1.166  1.00  0.00     0.119 C 
BRANCH  23  24
HETATM   24  N3  UNL     1       3.770  -0.050   0.111  1.00  0.00    -0.408 N 
HETATM   25  C19 UNL     1       4.720  -1.046  -0.278  1.00  0.00     0.143 C 
HETATM   26  C20 UNL     1       5.892  -0.947   0.673  1.00  0.00     0.187 C 
HETATM   27  O3  UNL     1       6.103   0.342   1.122  1.00  0.00    -0.388 OA
HETATM   28  C21 UNL     1       5.705   1.310   0.206  1.00  0.00     0.187 C 
HETATM   29  C22 UNL     1       4.199   1.281   0.002  1.00  0.00     0.143 C 
ENDBRANCH  23  24
ENDBRANCH  22  23
ENDBRANCH  21  22
ENDBRANCH  20  21
ENDBRANCH  19  20
BRANCH   1  30
HETATM   30  O1  UNL     1       1.154  -0.211  -2.441  1.00  0.00    -0.385 OA
HETATM   31  H1  UNL     1       1.377  -0.466  -3.369  1.00  0.00     0.210 HD
ENDBRANCH   1  30
TORSDOF 6
