REMARK  5 active torsions:
REMARK  status: ('A' for Active; 'I' for Inactive)
REMARK    1  A    between atoms: N1_2  and  C2_3 
REMARK    2  A    between atoms: C6_8  and  C7_9 
REMARK    3  A    between atoms: C8_10  and  C9_11 
REMARK    4  A    between atoms: N5_22  and  C17_23 
REMARK    5  A    between atoms: C17_23  and  C18_24 
ROOT
HETATM    1  C7  UNL     1      -0.809  -0.435  -0.198  1.00  0.00     0.100 A 
HETATM    2  C8  UNL     1      -0.747  -0.694  -1.662  1.00  0.00    -0.008 A 
HETATM    3  C10 UNL     1       0.328  -0.853  -2.415  1.00  0.00     0.013 A 
HETATM    4  C11 UNL     1       1.622  -0.770  -1.750  1.00  0.00     0.032 A 
HETATM    5  C12 UNL     1       1.775  -0.543  -0.432  1.00  0.00     0.064 A 
HETATM    6  C13 UNL     1       0.540  -0.372   0.363  1.00  0.00     0.072 A 
HETATM    7  N3  UNL     1       0.799  -0.163   1.607  1.00  0.00    -0.259 NA
HETATM    8  C14 UNL     1       2.108  -0.102   2.153  1.00  0.00     0.158 A 
HETATM    9  C15 UNL     1       3.234  -0.245   1.497  1.00  0.00     0.137 A 
HETATM   10  C16 UNL     1       4.546  -0.180   2.066  1.00  0.00     0.119 C 
HETATM   11  N4  UNL     1       5.607  -0.118   2.511  1.00  0.00    -0.190 NA
HETATM   12  N5  UNL     1       3.093  -0.484   0.103  1.00  0.00    -0.292 N 
ENDROOT
BRANCH  12  13
HETATM   13  C17 UNL     1       4.183  -0.667  -0.790  1.00  0.00     0.212 A 
HETATM   14  C20 UNL     1       4.966   0.295  -1.253  1.00  0.00     0.187 A 
HETATM   15  F1  UNL     1       4.006   0.803  -0.408  1.00  0.00    -0.341 F 
BRANCH  13  16
HETATM   16  C18 UNL     1       4.370  -2.064  -1.146  1.00  0.00     0.055 C 
HETATM   17  C19 UNL     1       3.666  -3.106  -0.759  1.00  0.00     0.086 C 
HETATM   18 CL1  UNL     1       2.301  -3.576   0.225  1.00  0.00    -0.097 Cl
ENDBRANCH  13  16
ENDBRANCH  12  13
BRANCH   1  19
HETATM   19  C6  UNL     1      -1.652   0.793  -0.005  1.00  0.00     0.124 C 
HETATM   20  C2  UNL     1      -1.803   1.266   1.399  1.00  0.00     0.243 C 
HETATM   21  C3  UNL     1      -2.628   0.393   2.291  1.00  0.00     0.039 C 
HETATM   22  C4  UNL     1      -3.665  -0.411   1.605  1.00  0.00     0.021 C 
HETATM   23  C5  UNL     1      -3.899  -0.125   0.170  1.00  0.00     0.114 C 
HETATM   24  N2  UNL     1      -2.969   0.662  -0.533  1.00  0.00    -0.414 N 
HETATM   25  H12 UNL     1      -3.408   1.515  -0.916  1.00  0.00     0.153 HD
BRANCH  20  26
HETATM   26  N1  UNL     1      -2.525   2.549   1.300  1.00  0.00     0.085 N 
HETATM   27  C1  UNL     1      -1.846   3.513   0.493  1.00  0.00     0.307 C 
HETATM   28  H4  UNL     1      -3.472   2.361   0.943  1.00  0.00     0.315 HD
ENDBRANCH  20  26
ENDBRANCH   1  19
BRANCH   2  29
HETATM   29  C9  UNL     1      -1.999  -0.780  -2.403  1.00  0.00     0.266 C 
HETATM   30  O1  UNL     1      -2.026  -0.984  -3.651  1.00  0.00    -0.302 OA
ENDBRANCH   2  29
TORSDOF 5
