REMARK  7 active torsions:
REMARK  status: ('A' for Active; 'I' for Inactive)
REMARK    1  A    between atoms: C5_7  and  C6_8 
REMARK    2  A    between atoms: C7_9  and  N2_10 
REMARK       I    between atoms: N2_10  and  C8_11 
REMARK    3  A    between atoms: C8_11  and  C9_13 
REMARK    4  A    between atoms: C9_13  and  C10_14 
REMARK    5  A    between atoms: C10_14  and  N3_15 
REMARK    6  A    between atoms: C13_18  and  C14_19 
REMARK    7  A    between atoms: C17_22  and  O2_23 
ROOT
HETATM    1  C1  UNL     1      -5.739   2.902   0.937  1.00  0.00     0.070 C 
HETATM    2  C2  UNL     1      -4.396   2.323   1.226  1.00  0.00     0.023 C 
HETATM    3  C3  UNL     1      -3.645   3.215   1.851  1.00  0.00     0.144 C 
HETATM    4  N1  UNL     1      -2.313   2.977   2.266  1.00  0.00    -0.230 NA
HETATM    5  C4  UNL     1      -1.497   2.011   1.945  1.00  0.00     0.222 C 
HETATM    6  F1  UNL     1      -0.319   2.135   2.548  1.00  0.00    -0.183 F 
HETATM    7  C5  UNL     1      -1.711   0.882   1.063  1.00  0.00     0.051 C 
HETATM    8  C13 UNL     1      -2.825   0.400   0.555  1.00  0.00     0.057 C 
HETATM    9  N4  UNL     1      -4.128   0.969   0.810  1.00  0.00    -0.357 N 
HETATM   10  H22 UNL     1      -4.984   0.396   0.697  1.00  0.00     0.166 HD
ENDROOT
BRANCH   7  11
HETATM   11  C6  UNL     1      -0.571   0.089   0.687  1.00  0.00     0.035 C 
HETATM   12  C7  UNL     1       0.729   0.079   0.872  1.00  0.00     0.092 C 
BRANCH  12  13
HETATM   13  N2  UNL     1       1.875  -0.674   0.525  1.00  0.00    -0.337 N 
HETATM   14  C8  UNL     1       2.992  -0.177  -0.219  1.00  0.00     0.223 C 
HETATM   15  O1  UNL     1       2.595   1.002  -0.399  1.00  0.00    -0.273 OA
HETATM   16  H7  UNL     1       1.589  -1.601   0.979  1.00  0.00     0.168 HD
BRANCH  14  17
HETATM   17  C9  UNL     1       3.989  -1.258  -0.383  1.00  0.00     0.122 C 
BRANCH  17  18
HETATM   18  C10 UNL     1       5.194  -0.846  -1.129  1.00  0.00     0.125 C 
BRANCH  18  19
HETATM   19  N3  UNL     1       6.015   0.172  -0.641  1.00  0.00    -0.420 N 
HETATM   20  C11 UNL     1       5.574   1.508  -0.605  1.00  0.00     0.142 C 
HETATM   21  C12 UNL     1       7.160  -0.174   0.122  1.00  0.00     0.142 C 
ENDBRANCH  18  19
ENDBRANCH  17  18
ENDBRANCH  14  17
ENDBRANCH  12  13
ENDBRANCH   7  11
BRANCH   8  22
HETATM   22  C14 UNL     1      -2.974  -0.741  -0.336  1.00  0.00    -0.007 A 
HETATM   23  C15 UNL     1      -2.348  -1.065  -1.526  1.00  0.00     0.016 A 
HETATM   24  C16 UNL     1      -2.643  -2.239  -2.178  1.00  0.00     0.039 A 
HETATM   25  C17 UNL     1      -3.559  -3.152  -1.708  1.00  0.00     0.087 A 
HETATM   26  C18 UNL     1      -4.214  -2.869  -0.515  1.00  0.00     0.068 A 
HETATM   27 CL1  UNL     1      -5.370  -4.011   0.087  1.00  0.00    -0.081 Cl
HETATM   28  C19 UNL     1      -3.900  -1.683   0.123  1.00  0.00     0.040 A 
BRANCH  25  29
HETATM   29  O2  UNL     1      -3.854  -4.335  -2.368  1.00  0.00    -0.359 OA
HETATM   30  H20 UNL     1      -4.160  -4.390  -3.331  1.00  0.00     0.217 HD
ENDBRANCH  25  29
ENDBRANCH   8  22
TORSDOF 7
