REMARK  2 active torsions:
REMARK  status: ('A' for Active; 'I' for Inactive)
REMARK    1  A    between atoms: O1_2  and  C2_3 
REMARK    2  A    between atoms: C14_19  and  O2_20 
ROOT
HETATM    1  C2  UNL     1      -2.617  -0.200  -0.218  1.00  0.00     0.097 C 
HETATM    2  C3  UNL     1      -1.888  -1.268  -0.068  1.00  0.00     0.039 C 
HETATM    3  C4  UNL     1      -0.540  -1.724   0.182  1.00  0.00     0.003 C 
HETATM    4  C5  UNL     1       0.232  -2.767   0.328  1.00  0.00    -0.003 C 
HETATM    5  C6  UNL     1       1.556  -3.252   0.579  1.00  0.00    -0.016 C 
HETATM    6  C7  UNL     1       2.603  -2.418   0.801  1.00  0.00     0.061 C 
HETATM    7  C8  UNL     1       4.066  -2.679   1.088  1.00  0.00    -0.005 C 
HETATM    8 BR1  UNL     1       5.398  -4.103   1.296  1.00  0.00    -0.055 Br
HETATM    9  C9  UNL     1       4.552  -1.435   1.212  1.00  0.00     0.009 C 
HETATM   10  C10 UNL     1       4.448   0.035   1.226  1.00  0.00     0.169 C 
HETATM   11  N1  UNL     1       3.069   0.415   0.946  1.00  0.00    -0.313 N 
HETATM   12  N2  UNL     1       1.956   1.231   0.724  1.00  0.00    -0.183 NA
HETATM   13  C11 UNL     1       2.208   2.415   0.177  1.00  0.00     0.697 C 
HETATM   14  N3  UNL     1       0.909   3.087   0.036  1.00  0.00    -0.119 NA
HETATM   15  C12 UNL     1      -0.191   2.417  -0.047  1.00  0.00     0.551 C 
HETATM   16  C13 UNL     1      -1.194   1.317  -0.111  1.00  0.00     0.091 C 
HETATM   17  C14 UNL     1      -2.514   1.281  -0.254  1.00  0.00     0.086 C 
HETATM   18  H12 UNL     1       2.172  -0.065   0.742  1.00  0.00     0.182 HD
ENDROOT
BRANCH   1  19
HETATM   19  O1  UNL     1      -3.937  -0.696  -0.441  1.00  0.00    -0.353 OA
HETATM   20  C1  UNL     1      -4.402  -0.429  -1.775  1.00  0.00     0.210 C 
ENDBRANCH   1  19
BRANCH  17  21
HETATM   21  O2  UNL     1      -3.773   1.854  -0.403  1.00  0.00    -0.357 OA
HETATM   22  C15 UNL     1      -3.883   3.124  -0.985  1.00  0.00     0.209 C 
ENDBRANCH  17  21
TORSDOF 2
