REMARK  5 active torsions:
REMARK  status: ('A' for Active; 'I' for Inactive)
REMARK    1  A    between atoms: O1_2  and  C2_3 
REMARK    2  A    between atoms: N1_10  and  C8_11 
REMARK    3  A    between atoms: N2_12  and  C9_13 
REMARK    4  A    between atoms: C9_13  and  N3_14 
REMARK    5  A    between atoms: N3_14  and  C10_15 
ROOT
HETATM    1  C2  UNL     1      -3.858   0.628   0.084  1.00  0.00     0.155 C 
HETATM    2  C3  UNL     1      -4.482  -0.513  -0.603  1.00  0.00     0.200 C 
HETATM    3  O2  UNL     1      -4.460  -0.894  -1.892  1.00  0.00    -0.387 OA
HETATM    4  C4  UNL     1      -3.151  -0.889  -2.532  1.00  0.00     0.182 C 
HETATM    5  C5  UNL     1      -2.480   0.178  -1.670  1.00  0.00     0.017 A 
HETATM    6  C6  UNL     1      -2.139  -0.780  -0.811  1.00  0.00     0.013 C 
HETATM    7  C7  UNL     1      -1.146  -0.298   0.262  1.00  0.00     0.034 C 
HETATM    8  N1  UNL     1      -0.248  -0.621   1.006  1.00  0.00    -0.247 NA
HETATM    9  C16 UNL     1      -1.477   1.221   0.376  1.00  0.00     0.072 C 
HETATM   10  C17 UNL     1      -2.625   1.269  -0.642  1.00  0.00     0.012 A 
HETATM   11  C18 UNL     1      -2.825   1.579  -1.895  1.00  0.00     0.019 A 
ENDROOT
BRANCH   8  12
HETATM   12  C8  UNL     1       0.338  -1.912   1.168  1.00  0.00     0.228 C 
HETATM   13  N2  UNL     1       1.452  -2.466   0.825  1.00  0.00    -0.263 NA
BRANCH  13  14
HETATM   14  C9  UNL     1       2.490  -1.783   0.095  1.00  0.00     0.272 C 
BRANCH  14  15
HETATM   15  N3  UNL     1       3.427  -1.089   0.925  1.00  0.00    -0.372 N 
HETATM   16  H13 UNL     1       3.263  -1.150   1.953  1.00  0.00     0.161 HD
BRANCH  15  17
HETATM   17  C10 UNL     1       4.526  -0.353   0.401  1.00  0.00     0.031 A 
HETATM   18  C11 UNL     1       4.706  -0.299  -0.967  1.00  0.00     0.032 A 
HETATM   19  C12 UNL     1       5.778   0.421  -1.425  1.00  0.00     0.046 A 
HETATM   20  C13 UNL     1       6.671   1.085  -0.582  1.00  0.00     0.138 A 
HETATM   21  F1  UNL     1       7.716   1.787  -1.045  1.00  0.00    -0.204 F 
HETATM   22  C14 UNL     1       6.445   0.998   0.762  1.00  0.00     0.074 A 
HETATM   23 CL1  UNL     1       7.474   1.774   1.937  1.00  0.00    -0.081 Cl
HETATM   24  C15 UNL     1       5.383   0.287   1.269  1.00  0.00     0.056 A 
ENDBRANCH  15  17
ENDBRANCH  14  15
ENDBRANCH  13  14
ENDBRANCH   8  12
BRANCH   1  25
HETATM   25  O1  UNL     1      -4.712   1.563   0.611  1.00  0.00    -0.388 OA
HETATM   26  C1  UNL     1      -4.768   1.651   1.975  1.00  0.00     0.202 C 
ENDBRANCH   1  25
TORSDOF 5
