REMARK  7 active torsions:
REMARK  status: ('A' for Active; 'I' for Inactive)
REMARK    1  A    between atoms: C2_2  and  C3_3 
REMARK       I    between atoms: C3_3  and  N1_5 
REMARK    2  A    between atoms: C6_8  and  N2_9 
REMARK    3  A    between atoms: N2_9  and  C7_10 
REMARK    4  A    between atoms: C15_22  and  O2_23 
REMARK    5  A    between atoms: O2_23  and  C16_24 
REMARK    6  A    between atoms: C16_24  and  C17_25 
REMARK    7  A    between atoms: C17_25  and  C18_26 
ROOT
HETATM    1  C3  UNL     1      -1.700  -2.864  -1.318  1.00  0.00     0.242 C 
HETATM    2  O1  UNL     1      -2.421  -3.201  -0.351  1.00  0.00    -0.268 OA
HETATM    3  N1  UNL     1      -1.327  -1.528  -1.020  1.00  0.00    -0.342 N 
HETATM    4  C4  UNL     1      -1.915  -1.125   0.260  1.00  0.00     0.170 C 
HETATM    5  C5  UNL     1      -1.157   0.110   0.681  1.00  0.00     0.033 A 
HETATM    6  C6  UNL     1      -1.934   0.740   1.665  1.00  0.00     0.139 A 
HETATM    7  N3  UNL     1      -1.493   1.907   2.222  1.00  0.00    -0.224 NA
HETATM    8  C13 UNL     1      -0.304   2.414   1.793  1.00  0.00     0.235 A 
HETATM    9  N4  UNL     1       0.405   1.789   0.859  1.00  0.00    -0.243 NA
HETATM   10  C14 UNL     1       0.049   0.647   0.264  1.00  0.00     0.078 A 
HETATM   11  C15 UNL     1       0.640  -0.215  -0.767  1.00  0.00     0.192 C 
HETATM   12  C22 UNL     1      -0.511  -0.595  -1.757  1.00  0.00     0.164 C 
ENDROOT
BRANCH   6  13
HETATM   13  N2  UNL     1      -3.173   0.360   2.221  1.00  0.00    -0.340 N 
HETATM   14  H6  UNL     1      -3.170  -0.260   3.054  1.00  0.00     0.167 HD
BRANCH  13  15
HETATM   15  C7  UNL     1      -4.439   0.767   1.719  1.00  0.00     0.035 A 
HETATM   16  C8  UNL     1      -5.652   0.408   2.282  1.00  0.00     0.032 A 
HETATM   17  C9  UNL     1      -6.867   0.824   1.768  1.00  0.00     0.046 A 
HETATM   18  C10 UNL     1      -6.916   1.630   0.648  1.00  0.00     0.138 A 
HETATM   19  F1  UNL     1      -8.074   2.068   0.100  1.00  0.00    -0.204 F 
HETATM   20  C11 UNL     1      -5.717   2.011   0.054  1.00  0.00     0.074 A 
HETATM   21 CL1  UNL     1      -5.727   3.042  -1.381  1.00  0.00    -0.081 Cl
HETATM   22  C12 UNL     1      -4.517   1.580   0.590  1.00  0.00     0.056 A 
ENDBRANCH  13  15
ENDBRANCH   6  13
BRANCH  11  23
HETATM   23  O2  UNL     1       1.692   0.270  -1.485  1.00  0.00    -0.378 OA
BRANCH  23  24
HETATM   24  C16 UNL     1       2.743  -0.538  -1.740  1.00  0.00     0.171 C 
BRANCH  24  25
HETATM   25  C17 UNL     1       3.540  -1.012  -0.603  1.00  0.00     0.064 C 
BRANCH  25  26
HETATM   26  C18 UNL     1       4.300  -0.034   0.208  1.00  0.00     0.246 C 
HETATM   27  C19 UNL     1       3.536   1.034   0.885  1.00  0.00     0.203 C 
HETATM   28  O3  UNL     1       4.380   1.856   1.620  1.00  0.00    -0.387 OA
HETATM   29  C20 UNL     1       5.661   1.334   1.793  1.00  0.00     0.197 C 
HETATM   30  C21 UNL     1       6.340   1.073   0.469  1.00  0.00     0.296 C 
HETATM   31  N5  UNL     1       5.404   0.574  -0.523  1.00  0.00     0.092 N 
HETATM   32  H23 UNL     1       5.039   1.395  -1.050  1.00  0.00     0.316 HD
ENDBRANCH  25  26
ENDBRANCH  24  25
ENDBRANCH  23  24
ENDBRANCH  11  23
BRANCH   1  33
HETATM   33  C2  UNL     1      -1.407  -3.761  -2.421  1.00  0.00     0.064 C 
HETATM   34  C1  UNL     1      -0.649  -3.383  -3.423  1.00  0.00     0.017 C 
ENDBRANCH   1  33
TORSDOF 7
