REMARK  7 active torsions:
REMARK  status: ('A' for Active; 'I' for Inactive)
REMARK    1  A    between atoms: O1_2  and  C2_3 
REMARK    2  A    between atoms: C6_9  and  N3_10 
REMARK    3  A    between atoms: N3_10  and  C7_11 
REMARK    4  A    between atoms: C15_21  and  O2_22 
REMARK    5  A    between atoms: O2_22  and  C16_23 
REMARK    6  A    between atoms: C16_23  and  C17_24 
REMARK    7  A    between atoms: C17_24  and  N4_25 
ROOT
HETATM    1  C2  UNL     1       0.009  -3.095  -1.530  1.00  0.00     0.103 A 
HETATM    2  C3  UNL     1       1.319  -3.408  -1.794  1.00  0.00     0.072 A 
HETATM    3  C4  UNL     1       2.339  -2.548  -1.445  1.00  0.00     0.075 A 
HETATM    4  N1  UNL     1       3.571  -2.965  -1.755  1.00  0.00    -0.241 NA
HETATM    5  C5  UNL     1       4.601  -2.169  -1.437  1.00  0.00     0.236 A 
HETATM    6  N2  UNL     1       4.369  -1.003  -0.831  1.00  0.00    -0.224 NA
HETATM    7  C6  UNL     1       3.176  -0.526  -0.494  1.00  0.00     0.142 A 
HETATM    8  C13 UNL     1       2.131  -1.337  -0.818  1.00  0.00     0.042 A 
HETATM    9  C14 UNL     1       0.813  -1.064  -0.572  1.00  0.00     0.057 A 
HETATM   10  C15 UNL     1      -0.235  -1.895  -0.905  1.00  0.00     0.103 A 
ENDROOT
BRANCH   7  11
HETATM   11  N3  UNL     1       2.919   0.708   0.147  1.00  0.00    -0.340 N 
HETATM   12  H6  UNL     1       1.956   1.024   0.366  1.00  0.00     0.167 HD
BRANCH  11  13
HETATM   13  C7  UNL     1       3.832   1.695   0.593  1.00  0.00     0.035 A 
HETATM   14  C8  UNL     1       3.497   2.929   1.110  1.00  0.00     0.032 A 
HETATM   15  C9  UNL     1       4.398   3.867   1.539  1.00  0.00     0.046 A 
HETATM   16  C10 UNL     1       5.750   3.612   1.472  1.00  0.00     0.138 A 
HETATM   17  F1  UNL     1       6.563   4.589   1.915  1.00  0.00    -0.204 F 
HETATM   18  C11 UNL     1       6.137   2.392   0.963  1.00  0.00     0.074 A 
HETATM   19 CL1  UNL     1       7.864   2.120   0.901  1.00  0.00    -0.081 Cl
HETATM   20  C12 UNL     1       5.192   1.489   0.547  1.00  0.00     0.056 A 
ENDBRANCH  11  13
ENDBRANCH   7  11
BRANCH  10  21
HETATM   21  O2  UNL     1      -1.568  -1.596  -0.645  1.00  0.00    -0.347 OA
BRANCH  21  22
HETATM   22  C16 UNL     1      -1.997  -0.406  -0.009  1.00  0.00     0.195 C 
BRANCH  22  23
HETATM   23  C17 UNL     1      -3.503  -0.453   0.089  1.00  0.00     0.143 C 
BRANCH  23  24
HETATM   24  N4  UNL     1      -4.095   0.665   0.703  1.00  0.00    -0.406 N 
HETATM   25  C18 UNL     1      -4.060   1.913   0.065  1.00  0.00     0.143 C 
HETATM   26  C19 UNL     1      -5.360   2.640   0.440  1.00  0.00     0.187 C 
HETATM   27  O3  UNL     1      -5.283   2.846   1.798  1.00  0.00    -0.388 OA
HETATM   28  C20 UNL     1      -5.341   1.692   2.565  1.00  0.00     0.187 C 
HETATM   29  C21 UNL     1      -4.647   0.522   1.978  1.00  0.00     0.143 C 
ENDBRANCH  23  24
ENDBRANCH  22  23
ENDBRANCH  21  22
ENDBRANCH  10  21
BRANCH   1  30
HETATM   30  O1  UNL     1      -0.998  -3.962  -1.884  1.00  0.00    -0.353 OA
HETATM   31  C1  UNL     1      -0.715  -5.178  -2.520  1.00  0.00     0.210 C 
ENDBRANCH   1  30
TORSDOF 7
