REMARK  9 active torsions:
REMARK  status: ('A' for Active; 'I' for Inactive)
REMARK    1  A    between atoms: C2_2  and  C3_3 
REMARK    2  A    between atoms: C3_3  and  O1_4 
REMARK    3  A    between atoms: C3_3  and  C4_5 
REMARK    4  A    between atoms: C4_5  and  C5_6 
REMARK    5  A    between atoms: C5_6  and  C7_8 
REMARK    6  A    between atoms: C7_8  and  C8_9 
REMARK    7  A    between atoms: C10_11  and  N1_12 
REMARK    8  A    between atoms: N1_12  and  C11_13 
REMARK    9  A    between atoms: C14_17  and  C15_18 
ROOT
HETATM    1  C8  UNL     1      -0.770   0.195  -0.370  1.00  0.00    -0.043 A 
HETATM    2  C9  UNL     1      -0.851  -1.180  -0.390  1.00  0.00     0.037 A 
HETATM    3  C10 UNL     1      -1.788  -1.941   0.280  1.00  0.00     0.030 A 
HETATM    4  C12 UNL     1      -2.718  -1.257   1.030  1.00  0.00     0.030 A 
HETATM    5  C13 UNL     1      -2.678   0.119   1.079  1.00  0.00     0.016 A 
HETATM    6  C14 UNL     1      -1.731   0.868   0.401  1.00  0.00     0.001 A 
ENDROOT
BRANCH   1   7
HETATM    7  C7  UNL     1       0.200   1.030  -1.060  1.00  0.00     0.043 C 
BRANCH   7   8
HETATM    8  C5  UNL     1       1.335   0.413  -1.776  1.00  0.00    -0.012 C 
HETATM    9  C6  UNL     1       0.946  -0.326  -3.042  1.00  0.00     0.010 C 
BRANCH   8  10
HETATM   10  C4  UNL     1       2.312  -0.383  -0.968  1.00  0.00     0.036 C 
BRANCH  10  11
HETATM   11  C3  UNL     1       2.727   0.336   0.329  1.00  0.00     0.123 C 
BRANCH  11  12
HETATM   12  C2  UNL     1       3.702  -0.493   1.101  1.00  0.00     0.021 C 
HETATM   13  C1  UNL     1       4.446  -1.281   0.340  1.00  0.00     0.008 C 
ENDBRANCH  11  12
BRANCH  11  14
HETATM   14  O1  UNL     1       3.365   1.541   0.001  1.00  0.00    -0.395 OA
HETATM   15  H5  UNL     1       2.960   2.290   0.519  1.00  0.00     0.210 HD
ENDBRANCH  11  14
ENDBRANCH  10  11
ENDBRANCH   8  10
ENDBRANCH   7   8
ENDBRANCH   1   7
BRANCH   6  16
HETATM   16  C15 UNL     1      -1.803   2.315   0.504  1.00  0.00     0.088 A 
HETATM   17  C16 UNL     1      -2.789   2.930   1.237  1.00  0.00     0.173 A 
HETATM   18  N2  UNL     1      -2.960   4.249   1.400  1.00  0.00    -0.159 NA
HETATM   19  N3  UNL     1      -2.108   5.081   0.807  1.00  0.00    -0.144 NA
HETATM   20  C17 UNL     1      -1.123   4.550   0.078  1.00  0.00     0.257 A 
HETATM   21  N4  UNL     1      -1.003   3.229  -0.048  1.00  0.00    -0.238 NA
ENDBRANCH   6  16
BRANCH   3  22
HETATM   22  N1  UNL     1      -1.797  -3.372   0.199  1.00  0.00    -0.365 N 
HETATM   23  H15 UNL     1      -1.066  -3.832  -0.401  1.00  0.00     0.162 HD
BRANCH  22  24
HETATM   24  C11 UNL     1      -2.788  -4.129   0.929  1.00  0.00     0.345 C 
HETATM   25  F1  UNL     1      -4.084  -3.834   0.592  1.00  0.00    -0.234 F 
ENDBRANCH  22  24
ENDBRANCH   3  22
TORSDOF 9
