REMARK  8 active torsions:
REMARK  status: ('A' for Active; 'I' for Inactive)
REMARK    1  A    between atoms: O1_2  and  C2_3 
REMARK    2  A    between atoms: C6_9  and  N3_10 
REMARK    3  A    between atoms: N3_10  and  C7_11 
REMARK    4  A    between atoms: C15_21  and  O2_22 
REMARK    5  A    between atoms: O2_22  and  C16_23 
REMARK    6  A    between atoms: C16_23  and  C17_24 
REMARK    7  A    between atoms: C17_24  and  C18_25 
REMARK    8  A    between atoms: C18_25  and  N4_26 
ROOT
HETATM    1  C2  UNL     1       0.346  -3.345   0.798  1.00  0.00     0.103 A 
HETATM    2  C3  UNL     1       1.660  -3.697   1.117  1.00  0.00     0.072 A 
HETATM    3  C4  UNL     1       2.662  -2.799   0.851  1.00  0.00     0.075 A 
HETATM    4  N1  UNL     1       3.902  -3.177   1.173  1.00  0.00    -0.241 NA
HETATM    5  C5  UNL     1       4.936  -2.353   0.944  1.00  0.00     0.236 A 
HETATM    6  N2  UNL     1       4.676  -1.168   0.393  1.00  0.00    -0.224 NA
HETATM    7  C6  UNL     1       3.490  -0.712   0.044  1.00  0.00     0.142 A 
HETATM    8  C13 UNL     1       2.440  -1.564   0.284  1.00  0.00     0.042 A 
HETATM    9  C14 UNL     1       1.132  -1.285  -0.004  1.00  0.00     0.057 A 
HETATM   10  C15 UNL     1       0.053  -2.104   0.219  1.00  0.00     0.103 A 
ENDROOT
BRANCH   7  11
HETATM   11  N3  UNL     1       3.243   0.544  -0.536  1.00  0.00    -0.340 N 
HETATM   12  H6  UNL     1       2.285   0.854  -0.789  1.00  0.00     0.167 HD
BRANCH  11  13
HETATM   13  C7  UNL     1       4.143   1.582  -0.880  1.00  0.00     0.035 A 
HETATM   14  C8  UNL     1       3.804   2.810  -1.444  1.00  0.00     0.032 A 
HETATM   15  C9  UNL     1       4.691   3.785  -1.763  1.00  0.00     0.046 A 
HETATM   16  C10 UNL     1       6.036   3.608  -1.538  1.00  0.00     0.138 A 
HETATM   17  F1  UNL     1       6.833   4.640  -1.892  1.00  0.00    -0.204 F 
HETATM   18  C11 UNL     1       6.435   2.411  -0.981  1.00  0.00     0.074 A 
HETATM   19 CL1  UNL     1       8.157   2.245  -0.718  1.00  0.00    -0.081 Cl
HETATM   20  C12 UNL     1       5.499   1.462  -0.678  1.00  0.00     0.056 A 
ENDBRANCH  11  13
ENDBRANCH   7  11
BRANCH  10  21
HETATM   21  O2  UNL     1      -1.277  -1.960  -0.010  1.00  0.00    -0.348 OA
BRANCH  21  22
HETATM   22  C16 UNL     1      -2.041  -0.948  -0.530  1.00  0.00     0.177 C 
BRANCH  22  23
HETATM   23  C17 UNL     1      -2.000   0.331   0.262  1.00  0.00     0.057 C 
BRANCH  23  24
HETATM   24  C18 UNL     1      -2.890   1.341  -0.435  1.00  0.00     0.274 C 
BRANCH  24  25
HETATM   25  N4  UNL     1      -4.268   0.908  -0.535  1.00  0.00     0.092 N 
HETATM   26  C19 UNL     1      -4.985   1.965  -1.225  1.00  0.00     0.298 C 
HETATM   27  C20 UNL     1      -5.433   2.965  -0.202  1.00  0.00     0.198 C 
HETATM   28  O3  UNL     1      -6.445   2.441   0.593  1.00  0.00    -0.388 OA
HETATM   29  C21 UNL     1      -6.223   1.113   0.932  1.00  0.00     0.198 C 
HETATM   30  C22 UNL     1      -4.766   0.725   0.816  1.00  0.00     0.298 C 
ENDBRANCH  24  25
ENDBRANCH  23  24
ENDBRANCH  22  23
ENDBRANCH  21  22
ENDBRANCH  10  21
BRANCH   1  31
HETATM   31  O1  UNL     1      -0.621  -4.303   1.095  1.00  0.00    -0.353 OA
HETATM   32  C1  UNL     1      -0.285  -5.545   1.679  1.00  0.00     0.210 C 
ENDBRANCH   1  31
TORSDOF 8
