REMARK  1 active torsions:
REMARK  status: ('A' for Active; 'I' for Inactive)
REMARK    1  A    between atoms: C3_4  and  C4_5 
ROOT
HETATM    1  N1  UNL     1      -2.944   3.644  -1.011  1.00  0.00    -0.096 N 
HETATM    2  C1  UNL     1      -2.182   2.723  -0.837  1.00  0.00     0.018 C 
HETATM    3  C2  UNL     1      -1.229   1.606  -0.634  1.00  0.00     0.039 C 
HETATM    4  C3  UNL     1      -1.765   0.366  -0.482  1.00  0.00    -0.007 C 
HETATM    5  C10 UNL     1      -1.477  -1.055  -0.214  1.00  0.00     0.211 C 
HETATM    6  O1  UNL     1      -0.155  -1.309  -0.008  1.00  0.00    -0.362 OA
HETATM    7  C11 UNL     1       0.043  -2.733   0.250  1.00  0.00     0.339 C 
HETATM    8  O2  UNL     1       1.261  -2.948   0.507  1.00  0.00    -0.356 OA
HETATM    9  C12 UNL     1       2.209  -3.817   0.817  1.00  0.00     0.258 C 
HETATM   10  C13 UNL     1       3.368  -2.992   1.236  1.00  0.00    -0.089 C 
HETATM   11  C14 UNL     1       4.243  -2.342   1.564  1.00  0.00     0.166 A 
HETATM   12  C15 UNL     1       5.384  -1.458   2.001  1.00  0.00     0.167 A 
HETATM   13  O3  UNL     1       5.188  -2.617   1.994  1.00  0.00    -0.283 OA
HETATM   14  N2  UNL     1       5.454   0.049   1.923  1.00  0.00    -0.261 NA
HETATM   15  C16 UNL     1       4.326   0.804   1.288  1.00  0.00     0.086 A 
HETATM   16  C17 UNL     1       4.658   1.479   0.178  1.00  0.00    -0.008 C 
HETATM   17  C18 UNL     1       3.520   2.067  -0.304  1.00  0.00     0.008 C 
HETATM   18  C19 UNL     1       2.528   2.669  -0.854  1.00  0.00     0.049 C 
HETATM   19  N3  UNL     1       1.107   3.002  -0.890  1.00  0.00    -0.309 NA
HETATM   20  C20 UNL     1       0.213   2.025  -0.720  1.00  0.00     0.278 C 
HETATM   21  H11 UNL     1       4.636  -0.356   1.527  1.00  0.00     0.155 HD
ENDROOT
BRANCH   4  22
HETATM   22  C4  UNL     1      -3.209   0.495  -0.567  1.00  0.00    -0.025 A 
HETATM   23  C5  UNL     1      -3.796   1.364   0.316  1.00  0.00     0.012 A 
HETATM   24  C6  UNL     1      -5.160   1.656   0.374  1.00  0.00     0.002 A 
HETATM   25  C7  UNL     1      -5.816   0.898  -0.635  1.00  0.00     0.019 A 
HETATM   26  C8  UNL     1      -5.359   0.003  -1.575  1.00  0.00     0.011 A 
HETATM   27 BR1  UNL     1      -6.546  -0.747  -2.789  1.00  0.00    -0.051 Br
HETATM   28  C9  UNL     1      -3.986  -0.195  -1.518  1.00  0.00     0.031 A 
ENDBRANCH   4  22
TORSDOF 1
