REMARK  3 active torsions:
REMARK  status: ('A' for Active; 'I' for Inactive)
REMARK    1  A    between atoms: O1_2  and  C2_3 
REMARK    2  A    between atoms: C3_4  and  C4_5 
REMARK       I    between atoms: C4_5  and  N1_7 
REMARK    3  A    between atoms: C5_8  and  C6_9 
ROOT
HETATM    1  C6  UNL     1      -0.528   0.062  -0.233  1.00  0.00    -0.018 A 
HETATM    2  C7  UNL     1      -0.599  -0.801  -1.287  1.00  0.00     0.015 A 
HETATM    3  C8  UNL     1      -1.821  -1.321  -1.703  1.00  0.00     0.033 A 
HETATM    4  C9  UNL     1      -3.005  -0.987  -1.069  1.00  0.00     0.066 A 
HETATM    5  N2  UNL     1      -4.214  -1.457  -1.425  1.00  0.00    -0.259 NA
HETATM    6  C10 UNL     1      -5.317  -1.092  -0.768  1.00  0.00     0.140 A 
HETATM    7  C11 UNL     1      -5.300  -0.216   0.312  1.00  0.00     0.063 A 
HETATM    8  C12 UNL     1      -6.478   0.184   1.026  1.00  0.00     0.101 C 
HETATM    9  N3  UNL     1      -7.432   0.513   1.592  1.00  0.00    -0.191 NA
HETATM   10  C13 UNL     1      -4.079   0.274   0.690  1.00  0.00     0.038 A 
HETATM   11  C14 UNL     1      -2.958  -0.109   0.008  1.00  0.00    -0.005 A 
HETATM   12  C15 UNL     1      -1.728   0.371   0.372  1.00  0.00     0.026 A 
ENDROOT
BRANCH   1  13
HETATM   13  C5  UNL     1       0.706   0.638   0.249  1.00  0.00     0.132 C 
HETATM   14  N1  UNL     1       1.835   0.363  -0.301  1.00  0.00    -0.214 NA
HETATM   15  C4  UNL     1       3.065   0.919   0.157  1.00  0.00     0.324 C 
HETATM   16  O2  UNL     1       3.050   2.046   0.731  1.00  0.00    -0.256 OA
BRANCH  15  17
HETATM   17  C3  UNL     1       4.328   0.255  -0.003  1.00  0.00     0.027 C 
HETATM   18  C2  UNL     1       5.397  -0.292  -0.120  1.00  0.00     0.064 C 
BRANCH  18  19
HETATM   19  O1  UNL     1       6.635  -0.901  -0.251  1.00  0.00    -0.308 OA
HETATM   20  C1  UNL     1       7.675  -0.682   0.706  1.00  0.00     0.223 C 
ENDBRANCH  18  19
ENDBRANCH  15  17
ENDBRANCH   1  13
TORSDOF 3
