REMARK  7 active torsions:
REMARK  status: ('A' for Active; 'I' for Inactive)
REMARK    1  A    between atoms: C5_6  and  C6_7 
REMARK    2  A    between atoms: C12_14  and  C13_15 
REMARK    3  A    between atoms: C13_15  and  C14_17 
REMARK    4  A    between atoms: C15_18  and  C16_19 
REMARK    5  A    between atoms: C16_19  and  N3_20 
REMARK    6  A    between atoms: C19_23  and  N4_24 
REMARK    7  A    between atoms: C19_23  and  C20_25 
ROOT
HETATM    1  C1  UNL     1      -2.833   2.470   0.904  1.00  0.00     0.041 C 
HETATM    2  C2  UNL     1      -2.124   1.187   0.517  1.00  0.00     0.072 C 
HETATM    3  C3  UNL     1      -1.730   0.496   1.787  1.00  0.00     0.041 C 
HETATM    4  N1  UNL     1      -3.063   0.411  -0.268  1.00  0.00    -0.377 N 
HETATM    5  C4  UNL     1      -2.734  -0.872  -0.787  1.00  0.00     0.052 A 
HETATM    6  C5  UNL     1      -3.830  -1.667  -1.050  1.00  0.00     0.005 A 
HETATM    7  C8  UNL     1      -3.811  -2.943  -1.552  1.00  0.00     0.129 A 
HETATM    8  N2  UNL     1      -2.560  -3.431  -1.799  1.00  0.00    -0.271 NA
HETATM    9  C9  UNL     1      -1.445  -2.715  -1.567  1.00  0.00     0.130 A 
HETATM   10  C10 UNL     1      -1.525  -1.447  -1.066  1.00  0.00     0.009 A 
HETATM   11  C11 UNL     1      -0.206  -0.808  -0.875  1.00  0.00     0.029 C 
HETATM   12  C12 UNL     1       0.031   0.468  -0.537  1.00  0.00     0.043 C 
HETATM   13  C19 UNL     1      -0.895   1.569  -0.267  1.00  0.00     0.305 C 
HETATM   14  H7  UNL     1      -4.035   0.688  -0.529  1.00  0.00     0.160 HD
ENDROOT
BRANCH  12  15
HETATM   15  C13 UNL     1       1.446   0.802  -0.424  1.00  0.00     0.180 C 
HETATM   16  O1  UNL     1       1.841   1.955  -0.115  1.00  0.00    -0.288 OA
BRANCH  15  17
HETATM   17  C14 UNL     1       2.544  -0.127  -0.647  1.00  0.00     0.053 C 
HETATM   18  C15 UNL     1       3.707   0.479  -0.468  1.00  0.00     0.007 C 
BRANCH  18  19
HETATM   19  C16 UNL     1       5.040  -0.156  -0.610  1.00  0.00     0.299 C 
BRANCH  19  20
HETATM   20  N3  UNL     1       5.781  -0.089   0.624  1.00  0.00     0.083 N 
HETATM   21  C17 UNL     1       7.075  -0.709   0.473  1.00  0.00     0.309 C 
HETATM   22  C18 UNL     1       5.029  -0.699   1.692  1.00  0.00     0.309 C 
ENDBRANCH  19  20
ENDBRANCH  18  19
ENDBRANCH  15  17
ENDBRANCH  12  15
BRANCH  13  23
HETATM   23  N4  UNL     1      -0.202   2.576   0.518  1.00  0.00     0.104 N 
HETATM   24  H24 UNL     1      -0.322   2.394   1.524  1.00  0.00     0.314 HD
HETATM   25  H25 UNL     1      -0.461   3.531   0.250  1.00  0.00     0.314 HD
ENDBRANCH  13  23
BRANCH  13  26
HETATM   26  C20 UNL     1      -1.286   2.256  -1.564  1.00  0.00     0.429 C 
HETATM   27  F1  UNL     1      -2.049   1.435  -2.341  1.00  0.00    -0.168 F 
HETATM   28  F2  UNL     1      -0.084   2.534  -2.220  1.00  0.00    -0.168 F 
HETATM   29  F3  UNL     1      -1.890   3.463  -1.365  1.00  0.00    -0.168 F 
ENDBRANCH  13  26
BRANCH   6  30
HETATM   30  C6  UNL     1      -5.161  -1.152  -0.790  1.00  0.00    -0.011 C 
HETATM   31  C7  UNL     1      -6.407  -1.580  -0.903  1.00  0.00     0.032 C 
ENDBRANCH   6  30
TORSDOF 7
