REMARK  7 active torsions:
REMARK  status: ('A' for Active; 'I' for Inactive)
REMARK    1  A    between atoms: N1_2  and  C3_4 
REMARK    2  A    between atoms: C3_4  and  C4_5 
REMARK       I    between atoms: C4_5  and  N2_7 
REMARK    3  A    between atoms: N2_7  and  C5_8 
REMARK    4  A    between atoms: C8_11  and  C9_12 
REMARK    5  A    between atoms: C9_12  and  C10_13 
REMARK    6  A    between atoms: C13_18  and  O2_19 
REMARK    7  A    between atoms: O2_19  and  C14_20 
ROOT
HETATM    1  C5  UNL     1       0.037  -0.103   0.298  1.00  0.00     0.071 C 
HETATM    2  C6  UNL     1      -0.821   0.629   1.103  1.00  0.00     0.040 C 
HETATM    3  C7  UNL     1      -2.211   0.265   0.854  1.00  0.00    -0.046 C 
HETATM    4  C8  UNL     1      -3.286   0.863   0.384  1.00  0.00    -0.053 C 
HETATM    5  C11 UNL     1      -4.104   0.037  -0.619  1.00  0.00     0.154 C 
HETATM    6  N3  UNL     1      -3.064  -0.782  -1.362  1.00  0.00    -0.387 N 
HETATM    7  C12 UNL     1      -1.917  -1.099  -0.572  1.00  0.00     0.046 C 
HETATM    8  C13 UNL     1      -0.587  -1.097  -0.681  1.00  0.00     0.127 C 
HETATM    9  C15 UNL     1      -2.435  -1.284   0.922  1.00  0.00     0.098 C 
HETATM   10  H17 UNL     1      -2.743  -1.264  -2.284  1.00  0.00     0.159 HD
ENDROOT
BRANCH   1  11
HETATM   11  N2  UNL     1       1.392  -0.011   0.292  1.00  0.00    -0.323 N 
HETATM   12  C4  UNL     1       1.980   0.389  -0.911  1.00  0.00     0.239 C 
HETATM   13  O1  UNL     1       1.358   0.665  -1.976  1.00  0.00    -0.271 OA
HETATM   14  H9  UNL     1       2.030  -0.211   1.087  1.00  0.00     0.169 HD
BRANCH  12  15
HETATM   15  C3  UNL     1       3.411   0.574  -1.202  1.00  0.00     0.219 C 
BRANCH  15  16
HETATM   16  N1  UNL     1       4.316   0.321  -0.152  1.00  0.00    -0.413 N 
HETATM   17  C1  UNL     1       4.481  -1.006   0.302  1.00  0.00     0.143 C 
HETATM   18  C2  UNL     1       5.373   1.239   0.062  1.00  0.00     0.143 C 
ENDBRANCH  15  16
ENDBRANCH  12  15
ENDBRANCH   1  11
BRANCH   8  19
HETATM   19  O2  UNL     1      -0.312  -1.992  -1.651  1.00  0.00    -0.251 OA
BRANCH  19  20
HETATM   20  C14 UNL     1       0.416  -3.175  -1.380  1.00  0.00     0.530 C 
HETATM   21  F2  UNL     1       0.660  -3.903  -2.506  1.00  0.00    -0.144 F 
HETATM   22  F3  UNL     1      -0.353  -3.894  -0.467  1.00  0.00    -0.144 F 
HETATM   23  F4  UNL     1       1.549  -2.802  -0.696  1.00  0.00    -0.144 F 
ENDBRANCH  19  20
ENDBRANCH   8  19
BRANCH   4  24
HETATM   24  C9  UNL     1      -3.257   2.233   1.019  1.00  0.00     0.068 C 
BRANCH  24  25
HETATM   25  C10 UNL     1      -4.461   2.408   1.915  1.00  0.00     0.226 C 
HETATM   26  F1  UNL     1      -5.573   2.263   1.109  1.00  0.00    -0.255 F 
ENDBRANCH  24  25
ENDBRANCH   4  24
TORSDOF 7
