REMARK  7 active torsions:
REMARK  status: ('A' for Active; 'I' for Inactive)
REMARK    1  A    between atoms: O1_2  and  C2_3 
REMARK    2  A    between atoms: C2_3  and  C3_4 
REMARK    3  A    between atoms: C3_4  and  C4_5 
REMARK    4  A    between atoms: C4_5  and  C5_6 
REMARK    5  A    between atoms: C8_10  and  O3_11 
REMARK    6  A    between atoms: O3_11  and  C9_12 
REMARK    7  A    between atoms: C9_12  and  C10_13 
ROOT
HETATM    1  C5  UNL     1       1.778   0.344   0.940  1.00  0.00     0.151 C 
HETATM    2  C6  UNL     1       0.309   0.235   1.230  1.00  0.00     0.203 C 
HETATM    3  O2  UNL     1      -0.487   0.329   0.115  1.00  0.00    -0.354 OA
HETATM    4  C7  UNL     1      -1.325   1.445   0.130  1.00  0.00     0.322 A 
HETATM    5  C8  UNL     1      -2.659   1.162  -0.422  1.00  0.00     0.193 A 
HETATM    6  N1  UNL     1      -3.109   1.759  -1.463  1.00  0.00    -0.216 NA
HETATM    7  C11 UNL     1      -2.372   2.743  -2.181  1.00  0.00     0.257 A 
HETATM    8  N2  UNL     1      -1.186   3.092  -1.809  1.00  0.00    -0.163 NA
HETATM    9  N3  UNL     1      -0.664   2.457  -0.673  1.00  0.00    -0.241 N 
HETATM   10  C12 UNL     1       0.620   3.091  -0.588  1.00  0.00     0.140 C 
HETATM   11  C13 UNL     1       1.766   2.753   0.027  1.00  0.00     0.154 C 
HETATM   12  O4  UNL     1       2.210   1.687   0.824  1.00  0.00    -0.354 OA
ENDROOT
BRANCH   1  13
HETATM   13  C4  UNL     1       2.176  -0.467  -0.285  1.00  0.00     0.036 C 
BRANCH  13  14
HETATM   14  C3  UNL     1       1.878  -1.902  -0.121  1.00  0.00     0.029 C 
BRANCH  14  15
HETATM   15  C2  UNL     1       2.484  -2.639   1.007  1.00  0.00     0.167 C 
BRANCH  15  16
HETATM   16  O1  UNL     1       3.792  -2.810   1.156  1.00  0.00    -0.396 OA
HETATM   17  C1  UNL     1       4.712  -1.851   1.291  1.00  0.00     0.201 C 
ENDBRANCH  15  16
ENDBRANCH  14  15
ENDBRANCH  13  14
ENDBRANCH   1  13
BRANCH   5  18
HETATM   18  O3  UNL     1      -3.492   0.224   0.173  1.00  0.00    -0.332 OA
BRANCH  18  19
HETATM   19  C9  UNL     1      -4.415  -0.542  -0.536  1.00  0.00     0.208 C 
BRANCH  19  20
HETATM   20  C10 UNL     1      -5.221  -1.500   0.301  1.00  0.00     0.248 C 
HETATM   21  F1  UNL     1      -6.071  -2.159  -0.590  1.00  0.00    -0.253 F 
ENDBRANCH  19  20
ENDBRANCH  18  19
ENDBRANCH   5  18
TORSDOF 7
