REMARK  6 active torsions:
REMARK  status: ('A' for Active; 'I' for Inactive)
REMARK    1  A    between atoms: C6_6  and  O1_7 
REMARK    2  A    between atoms: O1_7  and  C7_8 
REMARK    3  A    between atoms: C10_15  and  N2_16 
REMARK       I    between atoms: N2_16  and  C11_17 
REMARK    4  A    between atoms: C11_17  and  C12_19 
REMARK    5  A    between atoms: C13_20  and  C14_21 
REMARK    6  A    between atoms: C14_21  and  N3_22 
ROOT
HETATM    1  C1  UNL     1      -2.890  -0.030  -3.533  1.00  0.00     0.044 C 
HETATM    2  C2  UNL     1      -2.325  -0.494  -2.209  1.00  0.00    -0.068 A 
HETATM    3  C3  UNL     1      -3.245  -0.548  -1.266  1.00  0.00    -0.005 A 
HETATM    4  C4  UNL     1      -4.573  -0.231  -1.420  1.00  0.00     0.017 A 
HETATM    5  C5  UNL     1      -5.365  -0.363  -0.279  1.00  0.00     0.038 A 
HETATM    6  C6  UNL     1      -4.817  -0.791   0.923  1.00  0.00     0.080 A 
HETATM    7  C8  UNL     1      -3.457  -1.104   1.038  1.00  0.00     0.069 A 
HETATM    8  C9  UNL     1      -2.653  -0.975  -0.101  1.00  0.00     0.066 A 
HETATM    9  N1  UNL     1      -1.451  -1.281   0.111  1.00  0.00    -0.263 NA
HETATM   10  C10 UNL     1      -0.422  -1.243  -0.856  1.00  0.00     0.212 A 
HETATM   11  C17 UNL     1      -0.887  -0.800  -2.200  1.00  0.00     0.083 A 
ENDROOT
BRANCH  10  12
HETATM   12  N2  UNL     1       0.721  -0.423  -0.412  1.00  0.00    -0.334 N 
HETATM   13  C11 UNL     1       1.952  -1.092  -0.201  1.00  0.00     0.242 C 
HETATM   14  O2  UNL     1       2.224  -2.308  -0.339  1.00  0.00    -0.269 OA
HETATM   15  H8  UNL     1       0.585   0.598  -0.272  1.00  0.00     0.164 HD
BRANCH  13  16
HETATM   16  C12 UNL     1       3.119  -0.342   0.237  1.00  0.00     0.072 C 
HETATM   17  C13 UNL     1       3.500   0.875   0.550  1.00  0.00     0.008 C 
BRANCH  17  18
HETATM   18  C14 UNL     1       4.555   1.810   0.991  1.00  0.00     0.299 C 
BRANCH  18  19
HETATM   19  N3  UNL     1       5.801   1.133   1.202  1.00  0.00     0.083 N 
HETATM   20  C15 UNL     1       5.680   0.261   2.341  1.00  0.00     0.309 C 
HETATM   21  C16 UNL     1       6.344   0.490   0.049  1.00  0.00     0.309 C 
ENDBRANCH  18  19
ENDBRANCH  17  18
ENDBRANCH  13  16
ENDBRANCH  10  12
BRANCH   6  22
HETATM   22  O1  UNL     1      -5.710  -0.875   1.962  1.00  0.00    -0.255 OA
BRANCH  22  23
HETATM   23  C7  UNL     1      -5.967   0.206   2.828  1.00  0.00     0.530 C 
HETATM   24  F1  UNL     1      -6.913  -0.208   3.766  1.00  0.00    -0.144 F 
HETATM   25  F2  UNL     1      -4.809   0.603   3.488  1.00  0.00    -0.144 F 
HETATM   26  F3  UNL     1      -6.545   1.238   2.117  1.00  0.00    -0.144 F 
ENDBRANCH  22  23
ENDBRANCH   6  22
TORSDOF 6
