REMARK  3 active torsions:
REMARK  status: ('A' for Active; 'I' for Inactive)
REMARK    1  A    between atoms: C2_2  and  C3_3 
REMARK    2  A    between atoms: N1_4  and  C4_5 
REMARK    3  A    between atoms: C4_5  and  C5_6 
ROOT
HETATM    1  C5  UNL     1       0.768  -0.702   0.072  1.00  0.00    -0.051 C 
HETATM    2  C6  UNL     1       0.531  -1.955   0.494  1.00  0.00     0.026 C 
HETATM    3  C7  UNL     1      -0.552  -2.960   0.500  1.00  0.00     0.148 C 
HETATM    4  N2  UNL     1      -1.471  -2.372  -0.098  1.00  0.00    -0.068 NA
HETATM    5  N3  UNL     1      -2.773  -2.903  -0.372  1.00  0.00     0.233 N 
HETATM    6  C8  UNL     1      -4.173  -2.531  -0.441  1.00  0.00     0.312 A 
HETATM    7  O1  UNL     1      -3.185  -1.761  -0.145  1.00  0.00     0.000 OA
HETATM    8  C9  UNL     1      -4.739  -1.264  -0.202  1.00  0.00     0.049 A 
HETATM    9  C10 UNL     1      -5.182  -0.221  -0.004  1.00  0.00    -0.118 C 
HETATM   10  C11 UNL     1      -5.705   1.077   0.245  1.00  0.00     0.255 C 
HETATM   11  O2  UNL     1      -4.714   1.828   0.950  1.00  0.00    -0.356 OA
HETATM   12  C12 UNL     1      -3.557   1.871   0.174  1.00  0.00     0.344 C 
HETATM   13  O3  UNL     1      -2.564   2.589   0.876  1.00  0.00    -0.338 OA
HETATM   14  C13 UNL     1      -1.220   2.306   0.510  1.00  0.00     0.134 C 
HETATM   15  C14 UNL     1      -0.223   1.572  -0.014  1.00  0.00     0.006 C 
HETATM   16  C15 UNL     1      -0.132   0.265  -0.655  1.00  0.00     0.036 C 
HETATM   17  C16 UNL     1       0.625   0.511  -1.978  1.00  0.00     0.019 C 
HETATM   18  H11 UNL     1      -2.812  -3.952  -0.629  1.00  0.00     0.353 HD
ENDROOT
BRANCH   1  19
HETATM   19  C4  UNL     1       2.110  -0.045   0.304  1.00  0.00     0.182 C 
BRANCH  19  20
HETATM   20  N1  UNL     1       3.015  -0.939   0.986  1.00  0.00    -0.301 NA
HETATM   21  C3  UNL     1       4.256  -0.768   0.793  1.00  0.00     0.083 C 
BRANCH  21  22
HETATM   22  C2  UNL     1       4.808   0.293  -0.090  1.00  0.00     0.042 C 
HETATM   23  C1  UNL     1       6.260   0.569   0.302  1.00  0.00     0.010 C 
ENDBRANCH  21  22
ENDBRANCH  19  20
ENDBRANCH   1  19
TORSDOF 3
