REMARK  7 active torsions:
REMARK  status: ('A' for Active; 'I' for Inactive)
REMARK    1  A    between atoms: N1_2  and  C3_4 
REMARK    2  A    between atoms: C3_4  and  C4_5 
REMARK    3  A    between atoms: C5_6  and  C6_7 
REMARK       I    between atoms: C6_7  and  N2_9 
REMARK    4  A    between atoms: N2_9  and  C7_10 
REMARK    5  A    between atoms: C21_29  and  O2_30 
REMARK    6  A    between atoms: O2_30  and  C22_31 
REMARK    7  A    between atoms: C22_31  and  C23_32 
ROOT
HETATM    1  C7  UNL     1      -0.962  -0.650   0.615  1.00  0.00     0.047 C 
HETATM    2  C8  UNL     1      -2.063  -1.325   0.604  1.00  0.00     0.027 C 
HETATM    3  C9  UNL     1      -2.903  -1.873  -0.493  1.00  0.00     0.015 C 
HETATM    4  C10 UNL     1      -4.126  -2.487  -0.354  1.00  0.00     0.122 C 
HETATM    5  N3  UNL     1      -3.734  -2.134   1.018  1.00  0.00    -0.369 N 
HETATM    6  C11 UNL     1      -4.085  -0.661   1.228  1.00  0.00     0.043 A 
HETATM    7  C12 UNL     1      -4.857  -0.448   2.333  1.00  0.00     0.057 A 
HETATM    8  C13 UNL     1      -5.154   0.867   2.557  1.00  0.00     0.074 A 
HETATM    9 CL1  UNL     1      -6.143   1.159   3.968  1.00  0.00    -0.081 Cl
HETATM   10  C14 UNL     1      -4.714   1.880   1.741  1.00  0.00     0.139 A 
HETATM   11  F1  UNL     1      -5.026   3.163   1.993  1.00  0.00    -0.204 F 
HETATM   12  C15 UNL     1      -3.939   1.655   0.634  1.00  0.00     0.060 A 
HETATM   13  C16 UNL     1      -3.599   0.390   0.338  1.00  0.00     0.021 A 
HETATM   14  C17 UNL     1      -2.764   0.198  -0.916  1.00  0.00     0.081 C 
HETATM   15  N4  UNL     1      -3.418   0.053  -2.087  1.00  0.00    -0.260 NA
HETATM   16  C18 UNL     1      -4.080  -1.228  -2.493  1.00  0.00     0.138 C 
HETATM   17  C19 UNL     1      -4.041  -2.493  -1.855  1.00  0.00     0.075 C 
HETATM   18  C20 UNL     1      -3.918  -3.686  -2.576  1.00  0.00     0.099 C 
HETATM   19  N5  UNL     1      -3.811  -4.647  -3.178  1.00  0.00    -0.192 NA
HETATM   20  C21 UNL     1      -1.219   0.095  -0.676  1.00  0.00     0.223 C 
HETATM   21  H14 UNL     1      -3.305  -2.784   1.686  1.00  0.00     0.161 HD
ENDROOT
BRANCH   1  22
HETATM   22  N2  UNL     1       0.188   0.054   1.013  1.00  0.00    -0.324 N 
HETATM   23  C6  UNL     1       1.446  -0.541   0.630  1.00  0.00     0.245 C 
HETATM   24  O1  UNL     1       1.506  -1.614  -0.017  1.00  0.00    -0.268 OA
HETATM   25  H11 UNL     1       0.097   0.945   1.550  1.00  0.00     0.169 HD
BRANCH  23  26
HETATM   26  C5  UNL     1       2.663   0.151   1.021  1.00  0.00     0.072 C 
HETATM   27  C4  UNL     1       3.845  -0.329   0.708  1.00  0.00     0.008 C 
BRANCH  27  28
HETATM   28  C3  UNL     1       5.196   0.173   0.983  1.00  0.00     0.299 C 
BRANCH  28  29
HETATM   29  N1  UNL     1       5.960   0.438  -0.220  1.00  0.00     0.083 N 
HETATM   30  C1  UNL     1       7.289   0.933   0.096  1.00  0.00     0.309 C 
HETATM   31  C2  UNL     1       6.113  -0.755  -1.028  1.00  0.00     0.309 C 
ENDBRANCH  28  29
ENDBRANCH  27  28
ENDBRANCH  23  26
ENDBRANCH   1  22
BRANCH  20  32
HETATM   32  O2  UNL     1      -0.745   1.396  -0.717  1.00  0.00    -0.371 OA
BRANCH  32  33
HETATM   33  C22 UNL     1       0.080   1.594  -1.800  1.00  0.00     0.200 C 
BRANCH  33  34
HETATM   34  C23 UNL     1       0.625   3.003  -1.874  1.00  0.00     0.248 C 
HETATM   35  F2  UNL     1      -0.350   3.952  -1.975  1.00  0.00    -0.253 F 
ENDBRANCH  33  34
ENDBRANCH  32  33
ENDBRANCH  20  32
TORSDOF 7
