REMARK  3 active torsions:
REMARK  status: ('A' for Active; 'I' for Inactive)
REMARK    1  A    between atoms: C5_7  and  C6_8 
REMARK    2  A    between atoms: C8_11  and  N2_12 
REMARK    3  A    between atoms: N2_12  and  C9_13 
ROOT
HETATM    1  C1  UNL     1      -2.074  -0.172   3.412  1.00  0.00     0.070 C 
HETATM    2  C2  UNL     1      -2.364  -0.116   1.935  1.00  0.00     0.024 C 
HETATM    3  C3  UNL     1      -3.371   0.615   1.483  1.00  0.00     0.144 C 
HETATM    4  N1  UNL     1      -3.770   0.771   0.125  1.00  0.00    -0.230 NA
HETATM    5  C4  UNL     1      -3.186   0.442  -0.966  1.00  0.00     0.223 C 
HETATM    6  F1  UNL     1      -3.876   0.750  -2.086  1.00  0.00    -0.183 F 
HETATM    7  C5  UNL     1      -1.890  -0.213  -1.092  1.00  0.00     0.068 C 
HETATM    8  C8  UNL     1      -1.108  -0.805  -0.205  1.00  0.00     0.120 C 
HETATM    9  N3  UNL     1      -1.441  -0.918   1.195  1.00  0.00    -0.344 N 
HETATM   10  H13 UNL     1      -0.900  -1.706   1.654  1.00  0.00     0.167 HD
ENDROOT
BRANCH   8  11
HETATM   11  N2  UNL     1       0.095  -1.335  -0.696  1.00  0.00    -0.351 N 
HETATM   12  H7  UNL     1      -0.384  -2.271  -0.739  1.00  0.00     0.166 HD
BRANCH  11  13
HETATM   13  C9  UNL     1       1.421  -1.116  -1.071  1.00  0.00     0.101 C 
HETATM   14  C10 UNL     1       2.312  -0.353  -0.469  1.00  0.00    -0.022 A 
HETATM   15  C11 UNL     1       1.997   0.400   0.736  1.00  0.00    -0.003 A 
HETATM   16  C14 UNL     1       3.658  -0.253  -1.018  1.00  0.00     0.020 A 
HETATM   17  C12 UNL     1       2.864   1.188   1.384  1.00  0.00    -0.075 A 
HETATM   18  B1  UNL     1       4.316   1.316   0.818  1.00  0.00     0.234 B 
HETATM   19  C13 UNL     1       4.606   0.492  -0.472  1.00  0.00    -0.030 A 
HETATM   20  H11 UNL     1       5.180   1.727   1.543  1.00  0.00    -0.015 HD
HETATM   21 CL1  UNL     1       6.213   0.583  -1.167  1.00  0.00    -0.102 Cl
ENDBRANCH  11  13
ENDBRANCH   8  11
BRANCH   7  22
HETATM   22  C6  UNL     1      -1.335  -0.229  -2.438  1.00  0.00     0.049 C 
HETATM   23  C7  UNL     1      -1.811   0.253  -3.575  1.00  0.00     0.189 C 
HETATM   24  F2  UNL     1      -1.339   0.265  -4.841  1.00  0.00    -0.219 F 
ENDBRANCH   7  22
TORSDOF 3
