REMARK  6 active torsions:
REMARK  status: ('A' for Active; 'I' for Inactive)
REMARK    1  A    between atoms: N1_2  and  C3_4 
REMARK    2  A    between atoms: C3_4  and  C4_5 
REMARK    3  A    between atoms: C5_6  and  C6_7 
REMARK    4  A    between atoms: C6_7  and  N2_8 
REMARK    5  A    between atoms: N2_8  and  C7_9 
REMARK    6  A    between atoms: N5_19  and  C15_20 
ROOT
HETATM    1  C7  UNL     1       0.466   0.642   0.178  1.00  0.00     0.123 A 
HETATM    2  C8  UNL     1      -0.765   1.109   0.422  1.00  0.00     0.052 A 
HETATM    3  C9  UNL     1      -2.060   0.543   0.031  1.00  0.00     0.036 A 
HETATM    4  C10 UNL     1      -2.277  -0.569  -0.657  1.00  0.00     0.071 A 
HETATM    5  C11 UNL     1      -1.340  -1.536  -1.216  1.00  0.00     0.101 A 
HETATM    6  N3  UNL     1      -1.768  -2.569  -1.861  1.00  0.00    -0.254 NA
HETATM    7  C12 UNL     1      -3.180  -2.798  -2.048  1.00  0.00     0.159 A 
HETATM    8  C13 UNL     1      -4.049  -1.920  -1.542  1.00  0.00     0.139 A 
HETATM    9  C14 UNL     1      -5.451  -2.221  -1.773  1.00  0.00     0.119 C 
HETATM   10  N4  UNL     1      -6.568  -2.478  -1.951  1.00  0.00    -0.190 NA
HETATM   11  N5  UNL     1      -3.683  -0.740  -0.809  1.00  0.00    -0.299 N 
HETATM   12  C21 UNL     1       0.116  -1.445  -1.112  1.00  0.00     0.152 A 
HETATM   13  N6  UNL     1       0.838  -0.535  -0.530  1.00  0.00    -0.241 NA
ENDROOT
BRANCH  11  14
HETATM   14  C15 UNL     1      -4.685   0.133  -0.309  1.00  0.00     0.042 A 
HETATM   15  C16 UNL     1      -5.086   1.170  -1.147  1.00  0.00     0.033 A 
HETATM   16  C17 UNL     1      -6.037   2.082  -0.799  1.00  0.00     0.046 A 
HETATM   17  C18 UNL     1      -6.651   1.998   0.439  1.00  0.00     0.138 A 
HETATM   18  F1  UNL     1      -7.600   2.884   0.818  1.00  0.00    -0.204 F 
HETATM   19  C19 UNL     1      -6.270   0.982   1.279  1.00  0.00     0.074 A 
HETATM   20 CL1  UNL     1      -6.993   0.793   2.874  1.00  0.00    -0.081 Cl
HETATM   21  C20 UNL     1      -5.301   0.043   0.942  1.00  0.00     0.057 A 
ENDBRANCH  11  14
BRANCH   1  22
HETATM   22  N2  UNL     1       1.581   1.400   0.680  1.00  0.00    -0.371 N 
HETATM   23  H13 UNL     1       1.576   2.376   0.310  1.00  0.00     0.161 HD
BRANCH  22  24
HETATM   24  C6  UNL     1       2.400   0.586   1.564  1.00  0.00     0.148 C 
BRANCH  24  25
HETATM   25  C5  UNL     1       3.561   1.286   2.121  1.00  0.00    -0.010 C 
HETATM   26  C4  UNL     1       4.863   1.051   2.034  1.00  0.00     0.000 C 
BRANCH  26  27
HETATM   27  C3  UNL     1       5.433  -0.090   1.272  1.00  0.00     0.298 C 
BRANCH  27  28
HETATM   28  N1  UNL     1       6.307   0.418   0.233  1.00  0.00     0.083 N 
HETATM   29  C1  UNL     1       5.598   1.126  -0.807  1.00  0.00     0.309 C 
HETATM   30  C2  UNL     1       7.161  -0.623  -0.306  1.00  0.00     0.309 C 
ENDBRANCH  27  28
ENDBRANCH  26  27
ENDBRANCH  24  25
ENDBRANCH  22  24
ENDBRANCH   1  22
TORSDOF 6
