REMARK  2 active torsions:
REMARK  status: ('A' for Active; 'I' for Inactive)
REMARK    1  A    between atoms: C6_7  and  B1_8 
REMARK    2  A    between atoms: B1_8  and  C7_9 
ROOT
HETATM    1  N1  UNL     1      -5.788  -3.722  -0.685  1.00  0.00    -0.190 NA
HETATM    2  C1  UNL     1      -4.761  -3.254  -0.439  1.00  0.00     0.117 C 
HETATM    3  C2  UNL     1      -3.509  -2.663  -0.134  1.00  0.00     0.111 A 
HETATM    4  C3  UNL     1      -3.329  -1.485   0.404  1.00  0.00     0.029 A 
HETATM    5  C4  UNL     1      -1.897  -1.123   0.604  1.00  0.00     0.079 A 
HETATM    6  C5  UNL     1      -1.616   0.117  -0.127  1.00  0.00    -0.022 C 
HETATM    7  C6  UNL     1      -1.243   1.225  -0.825  1.00  0.00    -0.116 C 
HETATM    8  C8  UNL     1       0.172   1.076  -1.235  1.00  0.00     0.022 C 
HETATM    9  C9  UNL     1       1.033   2.028  -0.375  1.00  0.00     0.007 C 
HETATM   10  C10 UNL     1       2.482   1.683  -0.570  1.00  0.00     0.027 C 
HETATM   11  C11 UNL     1       3.355   2.278   0.449  1.00  0.00    -0.021 C 
HETATM   12  C12 UNL     1       3.778   1.259   1.224  1.00  0.00     0.070 C 
HETATM   13  C13 UNL     1       3.864  -0.164   1.656  1.00  0.00     0.244 C 
HETATM   14  O1  UNL     1       4.194  -1.196   2.291  1.00  0.00    -0.268 OA
HETATM   15  N2  UNL     1       3.177  -1.289   1.117  1.00  0.00    -0.337 N 
HETATM   16  C14 UNL     1       2.475  -2.439   0.567  1.00  0.00     0.065 C 
HETATM   17  C15 UNL     1       1.330  -3.075   0.176  1.00  0.00     0.020 C 
HETATM   18  C16 UNL     1       0.139  -2.201   0.395  1.00  0.00     0.081 C 
HETATM   19  C17 UNL     1      -1.151  -2.327   0.188  1.00  0.00     0.004 A 
HETATM   20  N3  UNL     1      -2.222  -3.199  -0.283  1.00  0.00    -0.354 N 
HETATM   21  H13 UNL     1       2.506  -0.910   0.423  1.00  0.00     0.168 HD
HETATM   22  H17 UNL     1      -2.091  -4.145  -0.702  1.00  0.00     0.166 HD
ENDROOT
BRANCH   7  23
HETATM   23  B1  UNL     1      -1.783   2.616  -1.340  1.00  0.00     0.322 B 
HETATM   24  H4  UNL     1      -2.217   2.720  -2.449  1.00  0.00    -0.012 HD
BRANCH  23  25
HETATM   25  C7  UNL     1      -2.467   3.616  -0.284  1.00  0.00     0.338 C 
HETATM   26  F1  UNL     1      -1.721   4.767  -0.196  1.00  0.00    -0.184 F 
HETATM   27  F2  UNL     1      -3.743   3.943  -0.667  1.00  0.00    -0.184 F 
HETATM   28  F3  UNL     1      -2.440   3.061   0.989  1.00  0.00    -0.184 F 
ENDBRANCH  23  25
ENDBRANCH   7  23
TORSDOF 2
