REMARK  5 active torsions:
REMARK  status: ('A' for Active; 'I' for Inactive)
REMARK    1  A    between atoms: N1_7  and  C6_8 
REMARK    2  A    between atoms: C6_8  and  C8_10 
REMARK       I    between atoms: C8_10  and  N2_12 
REMARK    3  A    between atoms: N2_12  and  C9_13 
REMARK    4  A    between atoms: C16_22  and  N5_23 
REMARK    5  A    between atoms: N5_23  and  C17_24 
ROOT
HETATM    1  C9  UNL     1      -0.333  -1.266   1.178  1.00  0.00     0.035 A 
HETATM    2  C10 UNL     1      -0.487  -1.789   2.451  1.00  0.00     0.032 A 
HETATM    3  C11 UNL     1       0.592  -2.481   3.012  1.00  0.00     0.035 A 
HETATM    4  C12 UNL     1       1.772  -2.630   2.305  1.00  0.00     0.069 A 
HETATM    5  N3  UNL     1       2.801  -3.298   2.857  1.00  0.00    -0.259 NA
HETATM    6  C13 UNL     1       3.983  -3.483   2.226  1.00  0.00     0.142 A 
HETATM    7  C14 UNL     1       4.152  -2.968   0.957  1.00  0.00     0.089 A 
HETATM    8  C15 UNL     1       5.367  -3.108   0.201  1.00  0.00     0.103 C 
HETATM    9  N4  UNL     1       6.334  -3.221  -0.422  1.00  0.00    -0.191 NA
HETATM   10  C16 UNL     1       3.115  -2.278   0.365  1.00  0.00     0.067 A 
HETATM   11  C23 UNL     1       1.899  -2.094   1.027  1.00  0.00     0.023 A 
HETATM   12  C24 UNL     1       0.834  -1.399   0.448  1.00  0.00     0.045 A 
ENDROOT
BRANCH  10  13
HETATM   13  N5  UNL     1       3.159  -1.690  -0.951  1.00  0.00    -0.354 N 
HETATM   14  H17 UNL     1       2.886  -2.166  -1.834  1.00  0.00     0.166 HD
BRANCH  13  15
HETATM   15  C17 UNL     1       3.612  -0.343  -1.060  1.00  0.00     0.034 A 
HETATM   16  C18 UNL     1       3.695   0.318  -2.270  1.00  0.00     0.032 A 
HETATM   17  C19 UNL     1       4.128   1.620  -2.423  1.00  0.00     0.046 A 
HETATM   18  C20 UNL     1       4.507   2.325  -1.296  1.00  0.00     0.138 A 
HETATM   19  F1  UNL     1       4.950   3.610  -1.312  1.00  0.00    -0.204 F 
HETATM   20  C21 UNL     1       4.437   1.698  -0.071  1.00  0.00     0.074 A 
HETATM   21 CL1  UNL     1       4.882   2.451   1.455  1.00  0.00    -0.081 Cl
HETATM   22  C22 UNL     1       3.999   0.386   0.061  1.00  0.00     0.056 A 
ENDBRANCH  13  15
ENDBRANCH  10  13
BRANCH   1  23
HETATM   23  N2  UNL     1      -1.454  -0.570   0.647  1.00  0.00    -0.325 N 
HETATM   24  C8  UNL     1      -1.490   0.816   0.923  1.00  0.00     0.244 C 
HETATM   25  O2  UNL     1      -0.510   1.278   1.610  1.00  0.00    -0.271 OA
HETATM   26  H13 UNL     1      -2.278  -0.842   0.078  1.00  0.00     0.169 HD
BRANCH  24  27
HETATM   27  C6  UNL     1      -2.445   1.939   0.588  1.00  0.00     0.172 C 
HETATM   28  C7  UNL     1      -1.755   2.920  -0.320  1.00  0.00     0.042 C 
BRANCH  27  29
HETATM   29  N1  UNL     1      -3.621   1.351   0.045  1.00  0.00    -0.370 N 
HETATM   30  C2  UNL     1      -4.028   1.535  -1.306  1.00  0.00     0.009 C 
HETATM   31  C1  UNL     1      -3.808   2.708  -1.865  1.00  0.00     0.060 C 
HETATM   32  C3  UNL     1      -4.674   0.356  -1.961  1.00  0.00     0.219 C 
HETATM   33  O1  UNL     1      -4.764  -0.709  -1.063  1.00  0.00    -0.384 OA
HETATM   34  C4  UNL     1      -5.351  -0.293   0.106  1.00  0.00     0.187 C 
HETATM   35  C5  UNL     1      -4.420   0.522   0.965  1.00  0.00     0.149 C 
ENDBRANCH  27  29
ENDBRANCH  24  27
ENDBRANCH   1  23
TORSDOF 5
