REMARK  6 active torsions:
REMARK  status: ('A' for Active; 'I' for Inactive)
REMARK    1  A    between atoms: C1_2  and  C2_3 
REMARK       I    between atoms: C1_2  and  N2_12 
REMARK    2  A    between atoms: C3_4  and  C4_5 
REMARK    3  A    between atoms: C4_5  and  N1_6 
REMARK    4  A    between atoms: N2_12  and  C9_13 
REMARK    5  A    between atoms: N3_17  and  C13_18 
REMARK    6  A    between atoms: C14_19  and  C15_20 
ROOT
HETATM    1  C9  UNL     1       0.120  -0.512   0.888  1.00  0.00     0.032 A 
HETATM    2  C10 UNL     1       0.688   0.238  -0.032  1.00  0.00     0.009 A 
HETATM    3  C11 UNL     1       2.080   0.503  -0.426  1.00  0.00     0.088 A 
HETATM    4  C12 UNL     1       2.958  -0.289   0.473  1.00  0.00     0.037 A 
HETATM    5  N3  UNL     1       4.205  -0.185   0.291  1.00  0.00    -0.265 NA
HETATM    6  C21 UNL     1       2.370  -1.130   1.500  1.00  0.00     0.029 A 
HETATM    7  C22 UNL     1       1.069  -1.241   1.702  1.00  0.00     0.031 A 
ENDROOT
BRANCH   1   8
HETATM    8  N2  UNL     1      -1.263  -0.657   1.140  1.00  0.00    -0.317 N 
HETATM    9  C1  UNL     1      -2.371  -0.065   0.507  1.00  0.00     0.301 C 
HETATM   10  O1  UNL     1      -2.179   0.729  -0.442  1.00  0.00    -0.258 OA
HETATM   11  H11 UNL     1      -1.558  -1.294   1.909  1.00  0.00     0.170 HD
BRANCH   9  12
HETATM   12  C2  UNL     1      -3.739  -0.302   0.868  1.00  0.00    -0.004 C 
HETATM   13  C3  UNL     1      -4.891  -0.492   1.182  1.00  0.00    -0.077 C 
BRANCH  13  14
HETATM   14  C4  UNL     1      -6.301  -0.708   1.545  1.00  0.00     0.212 C 
BRANCH  14  15
HETATM   15  N1  UNL     1      -7.085   0.025   0.607  1.00  0.00    -0.401 N 
HETATM   16  C5  UNL     1      -6.988   1.435   0.695  1.00  0.00     0.128 C 
HETATM   17  C6  UNL     1      -6.600   2.102  -0.615  1.00  0.00     0.093 C 
HETATM   18  S1  UNL     1      -8.021   1.795  -1.727  1.00  0.00    -0.166 SA
HETATM   19  C7  UNL     1      -8.415   0.043  -1.416  1.00  0.00     0.093 C 
HETATM   20  C8  UNL     1      -7.227  -0.528  -0.685  1.00  0.00     0.128 C 
ENDBRANCH  14  15
ENDBRANCH  13  14
ENDBRANCH   9  12
ENDBRANCH   1   8
BRANCH   5  21
HETATM   21  C13 UNL     1       4.775   0.638  -0.713  1.00  0.00     0.118 C 
HETATM   22  C14 UNL     1       6.050   0.770  -1.003  1.00  0.00     0.030 C 
BRANCH  22  23
HETATM   23  C15 UNL     1       7.176   0.125  -0.385  1.00  0.00    -0.034 A 
HETATM   24  C16 UNL     1       7.157  -0.774   0.651  1.00  0.00     0.011 A 
HETATM   25  C17 UNL     1       8.248  -1.372   1.219  1.00  0.00     0.002 A 
HETATM   26  C18 UNL     1       9.486  -1.068   0.731  1.00  0.00     0.019 A 
HETATM   27  C19 UNL     1       9.599  -0.182  -0.300  1.00  0.00     0.011 A 
HETATM   28 BR1  UNL     1      11.315   0.250  -0.985  1.00  0.00    -0.051 Br
HETATM   29  C20 UNL     1       8.474   0.394  -0.839  1.00  0.00     0.030 A 
ENDBRANCH  22  23
ENDBRANCH   5  21
TORSDOF 6
