REMARK  8 active torsions:
REMARK  status: ('A' for Active; 'I' for Inactive)
REMARK    1  A    between atoms: C2_2  and  C3_3 
REMARK    2  A    between atoms: C2_2  and  C8_10 
REMARK    3  A    between atoms: C3_3  and  N1_4 
REMARK       I    between atoms: C8_10  and  N2_12 
REMARK    4  A    between atoms: N2_12  and  C9_13 
REMARK    5  A    between atoms: C12_16  and  N3_17 
REMARK    6  A    between atoms: C13_18  and  C14_19 
REMARK    7  A    between atoms: C14_19  and  N5_22 
REMARK    8  A    between atoms: C16_23  and  C17_24 
ROOT
HETATM    1  C14 UNL     1       6.593  -1.334  -0.519  1.00  0.00     0.254 C 
HETATM    2  C15 UNL     1       7.035  -2.601   0.073  1.00  0.00     0.092 C 
HETATM    3  N4  UNL     1       7.392  -3.601   0.561  1.00  0.00    -0.195 NA
ENDROOT
BRANCH   1   4
HETATM    4  C13 UNL     1       5.148  -1.121  -0.311  1.00  0.00     0.132 C 
HETATM    5  N3  UNL     1       4.381  -0.185   0.169  1.00  0.00    -0.262 NA
BRANCH   5   6
HETATM    6  C12 UNL     1       2.966  -0.328   0.215  1.00  0.00     0.056 A 
HETATM    7  C11 UNL     1       2.220  -0.618  -0.908  1.00  0.00     0.034 A 
HETATM    8  C10 UNL     1       0.860  -0.737  -0.766  1.00  0.00     0.032 A 
HETATM    9  C9  UNL     1       0.156  -0.593   0.404  1.00  0.00     0.035 A 
HETATM   10  C20 UNL     1       0.932  -0.306   1.499  1.00  0.00     0.032 A 
HETATM   11  C19 UNL     1       2.300  -0.176   1.411  1.00  0.00     0.034 A 
BRANCH   9  12
HETATM   12  N2  UNL     1      -1.229  -0.707   0.587  1.00  0.00    -0.323 N 
HETATM   13  C8  UNL     1      -2.240  -0.990  -0.353  1.00  0.00     0.253 C 
HETATM   14  O2  UNL     1      -1.938  -1.182  -1.554  1.00  0.00    -0.268 OA
HETATM   15  H13 UNL     1      -1.657  -0.577   1.529  1.00  0.00     0.169 HD
BRANCH  13  16
HETATM   16  C2  UNL     1      -3.660  -1.094  -0.103  1.00  0.00     0.029 C 
HETATM   17  C1  UNL     1      -3.736  -1.347  -1.418  1.00  0.00     0.026 C 
BRANCH  16  18
HETATM   18  C3  UNL     1      -4.893  -1.079   0.684  1.00  0.00     0.316 C 
BRANCH  18  19
HETATM   19  N1  UNL     1      -5.073   0.205   1.287  1.00  0.00     0.096 N 
HETATM   20  C4  UNL     1      -6.270   0.302   2.084  1.00  0.00     0.299 C 
HETATM   21  C5  UNL     1      -7.349   1.090   1.423  1.00  0.00     0.198 C 
HETATM   22  O1  UNL     1      -7.275   0.901   0.051  1.00  0.00    -0.388 OA
HETATM   23  C6  UNL     1      -6.177   1.619  -0.398  1.00  0.00     0.198 C 
HETATM   24  C7  UNL     1      -4.921   1.300   0.362  1.00  0.00     0.299 C 
ENDBRANCH  18  19
ENDBRANCH  16  18
ENDBRANCH  13  16
ENDBRANCH   9  12
ENDBRANCH   5   6
ENDBRANCH   1   4
BRANCH   1  25
HETATM   25  N5  UNL     1       7.343  -0.292   0.177  1.00  0.00    -0.277 NA
HETATM   26  C16 UNL     1       7.609   0.792  -0.464  1.00  0.00     0.111 C 
BRANCH  26  27
HETATM   27  C17 UNL     1       8.320   1.382   0.690  1.00  0.00     0.031 C 
HETATM   28  C18 UNL     1       8.923   2.558   0.829  1.00  0.00     0.443 C 
HETATM   29  F1  UNL     1       8.832   3.283  -0.316  1.00  0.00    -0.452 F 
ENDBRANCH  26  27
ENDBRANCH   1  25
TORSDOF 8
