REMARK  1 active torsions:
REMARK  status: ('A' for Active; 'I' for Inactive)
REMARK    1  A    between atoms: C18_25  and  O3_26 
ROOT
HETATM    1  C1  UNL     1       4.636  -1.102  -0.117  1.00  0.00     0.042 C 
HETATM    2  C2  UNL     1       3.309  -0.433  -0.279  1.00  0.00    -0.097 C 
HETATM    3  C3  UNL     1       2.875  -0.151   0.944  1.00  0.00    -0.072 C 
HETATM    4  B1  UNL     1       1.786   0.439   1.861  1.00  0.00     0.245 B 
HETATM    5  C4  UNL     1       1.091   1.797   1.464  1.00  0.00     0.137 A 
HETATM    6  C5  UNL     1       0.697   1.779   0.245  1.00  0.00     0.172 A 
HETATM    7  F1  UNL     1       0.327   3.014   0.759  1.00  0.00    -0.388 F 
HETATM    8  C6  UNL     1      -0.094   2.102  -0.910  1.00  0.00     0.094 C 
HETATM    9  C7  UNL     1       0.575   1.404  -1.879  1.00  0.00     0.016 C 
HETATM   10  C8  UNL     1       1.614   0.749  -1.074  1.00  0.00     0.055 C 
HETATM   11  C9  UNL     1       2.630  -0.022  -1.528  1.00  0.00     0.008 C 
HETATM   12  O1  UNL     1      -1.346   2.899  -1.258  1.00  0.00    -0.291 OA
HETATM   13  C10 UNL     1      -2.088   1.872  -2.030  1.00  0.00     0.201 A 
HETATM   14  N1  UNL     1      -2.449   1.871  -3.328  1.00  0.00    -0.214 NA
HETATM   15  C11 UNL     1      -3.073   0.747  -3.803  1.00  0.00     0.258 A 
HETATM   16  N2  UNL     1      -3.338  -0.335  -3.049  1.00  0.00    -0.161 NA
HETATM   17  N3  UNL     1      -2.986  -0.340  -1.750  1.00  0.00    -0.236 N 
HETATM   18  C12 UNL     1      -3.124  -1.323  -0.823  1.00  0.00     0.156 A 
HETATM   19  C13 UNL     1      -2.601  -0.911   0.406  1.00  0.00     0.094 A 
HETATM   20  C14 UNL     1      -2.239   0.319  -0.035  1.00  0.00     0.006 A 
HETATM   21  C15 UNL     1      -2.185   1.269   1.143  1.00  0.00     0.054 C 
HETATM   22  C16 UNL     1      -2.375   0.780  -1.277  1.00  0.00     0.120 A 
HETATM   23  O2  UNL     1      -2.350  -1.308   1.744  1.00  0.00    -0.347 OA
HETATM   24  C17 UNL     1      -1.182  -2.182   1.792  1.00  0.00     0.206 C 
HETATM   25  C18 UNL     1       0.013  -1.404   1.285  1.00  0.00     0.134 C 
HETATM   26  C19 UNL     1       0.657  -0.637   2.399  1.00  0.00    -0.007 C 
ENDROOT
BRANCH  25  27
HETATM   27  O3  UNL     1       0.973  -2.492   1.037  1.00  0.00    -0.394 OA
HETATM   28  H17 UNL     1       0.942  -3.013   1.868  1.00  0.00     0.210 HD
ENDBRANCH  25  27
TORSDOF 1
