REMARK  4 active torsions:
REMARK  status: ('A' for Active; 'I' for Inactive)
REMARK    1  A    between atoms: O1_2  and  C2_3 
REMARK    2  A    between atoms: C8_11  and  N3_12 
REMARK    3  A    between atoms: N3_12  and  C9_13 
REMARK    4  A    between atoms: C12_16  and  C13_17 
ROOT
HETATM    1  C2  UNL     1       3.595   1.360  -0.064  1.00  0.00     0.087 A 
HETATM    2  C3  UNL     1       3.702   0.027  -0.403  1.00  0.00     0.070 A 
HETATM    3  C4  UNL     1       2.647  -0.839  -0.187  1.00  0.00     0.071 A 
HETATM    4  N1  UNL     1       2.855  -2.099  -0.549  1.00  0.00    -0.259 NA
HETATM    5  C5  UNL     1       1.860  -2.986  -0.360  1.00  0.00     0.142 A 
HETATM    6  C6  UNL     1       0.633  -2.661   0.189  1.00  0.00     0.089 A 
HETATM    7  C7  UNL     1      -0.413  -3.632   0.379  1.00  0.00     0.103 C 
HETATM    8  N2  UNL     1      -1.256  -4.413   0.514  1.00  0.00    -0.191 NA
HETATM    9  C8  UNL     1       0.447  -1.331   0.558  1.00  0.00     0.067 A 
HETATM   10  C16 UNL     1       1.461  -0.396   0.372  1.00  0.00     0.022 A 
HETATM   11  C17 UNL     1       1.332   0.924   0.717  1.00  0.00     0.037 A 
HETATM   12  C18 UNL     1       2.406   1.779   0.491  1.00  0.00     0.040 A 
HETATM   13  I1  UNL     1       2.067   3.787   1.071  1.00  0.00    -0.042 I 
ENDROOT
BRANCH   9  14
HETATM   14  N3  UNL     1      -0.775  -0.935   1.122  1.00  0.00    -0.354 N 
HETATM   15  H6  UNL     1      -0.542  -1.094   2.129  1.00  0.00     0.166 HD
BRANCH  14  16
HETATM   16  C9  UNL     1      -2.002  -0.461   0.656  1.00  0.00     0.034 A 
HETATM   17  C10 UNL     1      -2.976  -0.169   1.592  1.00  0.00     0.030 A 
HETATM   18  C11 UNL     1      -4.182   0.298   1.111  1.00  0.00     0.013 A 
HETATM   19  C12 UNL     1      -4.383   0.459  -0.254  1.00  0.00    -0.008 A 
HETATM   20  C14 UNL     1      -3.407   0.165  -1.177  1.00  0.00     0.044 A 
HETATM   21 CL1  UNL     1      -3.703   0.381  -2.887  1.00  0.00    -0.084 Cl
HETATM   22  C15 UNL     1      -2.203  -0.302  -0.691  1.00  0.00     0.054 A 
BRANCH  19  23
HETATM   23  C13 UNL     1      -5.676   0.959  -0.770  1.00  0.00     0.262 C 
HETATM   24  F1  UNL     1      -5.607   2.286  -1.169  1.00  0.00    -0.251 F 
ENDBRANCH  19  23
ENDBRANCH  14  16
ENDBRANCH   9  14
BRANCH   1  25
HETATM   25  O1  UNL     1       4.538   2.359  -0.207  1.00  0.00    -0.355 OA
HETATM   26  C1  UNL     1       5.823   2.162  -0.750  1.00  0.00     0.210 C 
ENDBRANCH   1  25
TORSDOF 4
