REMARK  6 active torsions:
REMARK  status: ('A' for Active; 'I' for Inactive)
REMARK    1  A    between atoms: C2_2  and  C3_3 
REMARK    2  A    between atoms: C2_2  and  C6_7 
REMARK    3  A    between atoms: C3_3  and  N1_4 
REMARK       I    between atoms: C6_7  and  N2_9 
REMARK    4  A    between atoms: N2_9  and  C7_10 
REMARK    5  A    between atoms: C12_15  and  O2_16 
REMARK    6  A    between atoms: O2_16  and  C13_17 
ROOT
HETATM    1  C7  UNL     1       1.041   0.386  -0.812  1.00  0.00     0.071 A 
HETATM    2  C8  UNL     1       0.180   0.069   0.300  1.00  0.00     0.066 A 
HETATM    3  C9  UNL     1      -1.073   0.678   0.507  1.00  0.00     0.082 A 
HETATM    4  C10 UNL     1      -1.255   1.602  -0.542  1.00  0.00     0.082 A 
HETATM    5  C11 UNL     1      -0.529   1.996  -1.627  1.00  0.00     0.072 A 
HETATM    6  C12 UNL     1       0.674   1.338  -1.736  1.00  0.00     0.097 A 
HETATM    7  N3  UNL     1      -2.353   2.180  -0.386  1.00  0.00    -0.278 NA
HETATM    8  C15 UNL     1      -3.150   3.157  -1.030  1.00  0.00     0.206 C 
HETATM    9  C16 UNL     1      -4.450   3.216  -0.495  1.00  0.00     0.049 C 
HETATM   10  C17 UNL     1      -4.788   4.327  -1.499  1.00  0.00    -0.013 C 
HETATM   11  N4  UNL     1      -5.040   5.245  -2.332  1.00  0.00    -0.101 N 
HETATM   12  C18 UNL     1      -5.828   3.119   0.248  1.00  0.00     0.021 C 
HETATM   13  C19 UNL     1      -6.333   1.723  -0.268  1.00  0.00     0.007 C 
HETATM   14  C20 UNL     1      -5.540   0.718   0.523  1.00  0.00     0.000 C 
HETATM   15  C21 UNL     1      -5.037  -0.228   1.245  1.00  0.00     0.044 C 
HETATM   16  C22 UNL     1      -4.985  -1.382   2.058  1.00  0.00     0.015 C 
HETATM   17 CL1  UNL     1      -5.834  -2.700   2.814  1.00  0.00    -0.089 Cl
HETATM   18  C23 UNL     1      -3.632  -1.123   2.172  1.00  0.00     0.014 C 
HETATM   19  C24 UNL     1      -2.248  -0.618   2.117  1.00  0.00     0.178 C 
HETATM   20  N5  UNL     1      -2.118   0.538   1.170  1.00  0.00    -0.284 NA
ENDROOT
BRANCH   6  21
HETATM   21  O2  UNL     1       1.773   1.277  -2.502  1.00  0.00    -0.349 OA
BRANCH  21  22
HETATM   22  C13 UNL     1       2.217   1.867  -3.663  1.00  0.00     0.171 C 
HETATM   23  C14 UNL     1       3.568   1.261  -4.040  1.00  0.00     0.034 C 
ENDBRANCH  21  22
ENDBRANCH   6  21
BRANCH   1  24
HETATM   24  N2  UNL     1       2.146  -0.559  -0.825  1.00  0.00    -0.321 N 
HETATM   25  C6  UNL     1       2.799  -0.473   0.386  1.00  0.00     0.253 C 
HETATM   26  O1  UNL     1       3.183  -0.202   1.509  1.00  0.00    -0.268 OA
HETATM   27  H11 UNL     1       2.316  -1.181  -1.625  1.00  0.00     0.169 HD
BRANCH  25  28
HETATM   28  C2  UNL     1       3.976  -1.387   0.610  1.00  0.00     0.029 C 
HETATM   29  C1  UNL     1       4.255  -2.263  -0.394  1.00  0.00     0.026 C 
BRANCH  28  30
HETATM   30  C3  UNL     1       5.152  -1.858   1.353  1.00  0.00     0.314 C 
BRANCH  30  31
HETATM   31  N1  UNL     1       4.651  -2.499   2.606  1.00  0.00     0.084 N 
HETATM   32  C4  UNL     1       3.675  -3.573   2.128  1.00  0.00     0.309 C 
HETATM   33  C5  UNL     1       5.854  -3.436   2.866  1.00  0.00     0.309 C 
ENDBRANCH  30  31
ENDBRANCH  28  30
ENDBRANCH  25  28
ENDBRANCH   1  24
TORSDOF 6
