REMARK  6 active torsions:
REMARK  status: ('A' for Active; 'I' for Inactive)
REMARK    1  A    between atoms: C2_2  and  N1_3 
REMARK    2  A    between atoms: N1_3  and  C4_5 
REMARK    3  A    between atoms: C4_5  and  C5_6 
REMARK    4  A    between atoms: C5_6  and  C6_7 
REMARK    5  A    between atoms: C6_7  and  C7_8 
REMARK    6  A    between atoms: N2_12  and  C11_13 
ROOT
HETATM    1  C7  UNL     1       0.450  -1.303  -0.177  1.00  0.00     0.026 C 
HETATM    2  C8  UNL     1      -0.586  -0.459   0.060  1.00  0.00     0.052 C 
HETATM    3  C9  UNL     1      -1.998  -0.809   0.479  1.00  0.00     0.243 A 
HETATM    4  C10 UNL     1      -2.390   0.357   0.029  1.00  0.00     0.230 A 
HETATM    5  N2  UNL     1      -2.147   1.569  -0.518  1.00  0.00    -0.340 N 
HETATM    6  N3  UNL     1      -3.382  -0.645  -0.381  1.00  0.00     0.011 N 
HETATM    7  C17 UNL     1      -4.378  -1.738  -0.684  1.00  0.00     0.369 C 
HETATM    8  N4  UNL     1      -3.512  -2.822  -1.160  1.00  0.00    -0.355 N 
HETATM    9  C18 UNL     1      -3.674  -3.697  -2.065  1.00  0.00     0.089 A 
HETATM   10  C19 UNL     1      -2.395  -3.758  -1.412  1.00  0.00     0.163 A 
HETATM   11  C20 UNL     1      -1.462  -3.592  -0.500  1.00  0.00     0.137 C 
HETATM   12  C21 UNL     1      -0.007  -3.966  -0.579  1.00  0.00     0.163 C 
HETATM   13  N5  UNL     1       0.779  -2.684  -0.407  1.00  0.00    -0.387 N 
HETATM   14  O1  UNL     1      -1.813  -3.068   0.669  1.00  0.00    -0.369 OA
HETATM   15  C22 UNL     1      -2.419  -1.999   1.294  1.00  0.00     0.221 C 
HETATM   16  H14 UNL     1      -1.723   1.350  -1.472  1.00  0.00     0.167 HD
HETATM   17  H18 UNL     1      -3.496  -0.135  -1.329  1.00  0.00     0.292 HD
HETATM   18  H25 UNL     1       1.773  -2.857  -0.487  1.00  0.00     0.159 HD
ENDROOT
BRANCH   5  19
HETATM   19  C11 UNL     1      -2.657   2.735   0.456  1.00  0.00     0.021 A 
HETATM   20  C12 UNL     1      -3.888   2.136   0.832  1.00  0.00     0.029 A 
HETATM   21  C13 UNL     1      -4.202   3.371   1.556  1.00  0.00     0.046 A 
HETATM   22  C14 UNL     1      -3.347   4.494   1.628  1.00  0.00     0.134 A 
HETATM   23  F1  UNL     1      -3.933   5.524   2.354  1.00  0.00    -0.205 F 
HETATM   24  C15 UNL     1      -2.073   4.426   0.935  1.00  0.00     0.061 A 
HETATM   25 CL1  UNL     1      -1.359   6.027   1.374  1.00  0.00    -0.085 Cl
HETATM   26  C16 UNL     1      -1.565   3.242   0.113  1.00  0.00     0.098 A 
ENDBRANCH   5  19
BRANCH   1  27
HETATM   27  C6  UNL     1       1.691  -0.559  -0.151  1.00  0.00     0.026 C 
BRANCH  27  28
HETATM   28  C5  UNL     1       2.366   0.510  -0.034  1.00  0.00    -0.005 C 
BRANCH  28  29
HETATM   29  C4  UNL     1       3.315   1.592   0.069  1.00  0.00     0.143 C 
BRANCH  29  30
HETATM   30  N1  UNL     1       4.652   1.223   0.171  1.00  0.00    -0.414 N 
HETATM   31  C3  UNL     1       5.316   1.816   1.302  1.00  0.00     0.143 C 
BRANCH  30  32
HETATM   32  C2  UNL     1       5.472   0.671  -0.809  1.00  0.00     0.112 C 
HETATM   33  C1  UNL     1       6.239  -0.563  -0.321  1.00  0.00     0.026 C 
ENDBRANCH  30  32
ENDBRANCH  29  30
ENDBRANCH  28  29
ENDBRANCH  27  28
ENDBRANCH   1  27
TORSDOF 6
