REMARK  5 active torsions:
REMARK  status: ('A' for Active; 'I' for Inactive)
REMARK    1  A    between atoms: C5_7  and  C6_8 
REMARK    2  A    between atoms: C7_9  and  N3_10 
REMARK    3  A    between atoms: N3_10  and  C8_11 
REMARK    4  A    between atoms: C9_13  and  N4_14 
REMARK    5  A    between atoms: N4_14  and  C10_15 
ROOT
HETATM    1  N1  UNL     1       2.492  -2.303  -3.060  1.00  0.00    -0.191 NA
HETATM    2  C1  UNL     1       1.431  -2.164  -2.575  1.00  0.00     0.103 C 
HETATM    3  C2  UNL     1       0.125  -1.978  -1.994  1.00  0.00     0.089 A 
HETATM    4  C3  UNL     1      -0.860  -2.947  -2.084  1.00  0.00     0.141 A 
HETATM    5  N2  UNL     1      -2.091  -2.803  -1.551  1.00  0.00    -0.271 NA
HETATM    6  C4  UNL     1      -2.397  -1.659  -0.892  1.00  0.00     0.130 A 
HETATM    7  C5  UNL     1      -1.431  -0.672  -0.786  1.00  0.00     0.011 A 
HETATM    8  C9  UNL     1      -0.169  -0.806  -1.326  1.00  0.00     0.067 A 
ENDROOT
BRANCH   8   9
HETATM    9  N4  UNL     1       0.852   0.171  -1.246  1.00  0.00    -0.354 N 
HETATM   10  H7  UNL     1       0.738   0.784  -2.093  1.00  0.00     0.166 HD
BRANCH   9  11
HETATM   11  C10 UNL     1       1.852   0.370  -0.289  1.00  0.00     0.034 A 
HETATM   12  C11 UNL     1       2.730   1.423  -0.466  1.00  0.00     0.032 A 
HETATM   13  C12 UNL     1       3.714   1.608   0.488  1.00  0.00     0.046 A 
HETATM   14  C13 UNL     1       3.823   0.778   1.580  1.00  0.00     0.138 A 
HETATM   15  F1  UNL     1       4.782   0.934   2.539  1.00  0.00    -0.204 F 
HETATM   16  C14 UNL     1       2.917  -0.276   1.726  1.00  0.00     0.074 A 
HETATM   17 CL1  UNL     1       3.074  -1.331   3.137  1.00  0.00    -0.081 Cl
HETATM   18  C15 UNL     1       1.910  -0.501   0.790  1.00  0.00     0.056 A 
ENDBRANCH   9  11
ENDBRANCH   8   9
BRANCH   7  19
HETATM   19  C6  UNL     1      -1.746   0.556  -0.083  1.00  0.00     0.032 C 
HETATM   20  C7  UNL     1      -2.926   0.788   0.472  1.00  0.00     0.091 C 
BRANCH  20  21
HETATM   21  N3  UNL     1      -3.339   1.944   1.178  1.00  0.00    -0.344 N 
HETATM   22  H5  UNL     1      -3.241   2.709   0.488  1.00  0.00     0.167 HD
BRANCH  21  23
HETATM   23  C8  UNL     1      -3.793   2.043   2.541  1.00  0.00     0.352 C 
HETATM   24  O1  UNL     1      -3.817   0.946   3.167  1.00  0.00    -0.283 OA
ENDBRANCH  21  23
ENDBRANCH  20  21
ENDBRANCH   7  19
TORSDOF 5
