REMARK  5 active torsions:
REMARK  status: ('A' for Active; 'I' for Inactive)
REMARK    1  A    between atoms: C7_9  and  N3_10 
REMARK       I    between atoms: N3_10  and  C8_11 
REMARK    2  A    between atoms: C8_11  and  C9_13 
REMARK    3  A    between atoms: C10_14  and  C11_15 
REMARK    4  A    between atoms: C11_15  and  N4_16 
REMARK    5  A    between atoms: C18_24  and  S2_25 
ROOT
HETATM    1  N1  UNL     1      -8.719   1.414   1.999  1.00  0.00    -0.191 NA
HETATM    2  C1  UNL     1      -7.881   1.017   1.273  1.00  0.00     0.102 C 
HETATM    3  C2  UNL     1      -6.869   0.510   0.391  1.00  0.00     0.081 A 
HETATM    4  C3  UNL     1      -7.266   0.087  -0.862  1.00  0.00     0.141 A 
HETATM    5  N2  UNL     1      -6.308  -0.396  -1.702  1.00  0.00    -0.259 NA
HETATM    6  C4  UNL     1      -5.015  -0.459  -1.323  1.00  0.00     0.068 A 
HETATM    7  C5  UNL     1      -4.023  -0.951  -2.173  1.00  0.00     0.035 A 
HETATM    8  C6  UNL     1      -2.727  -0.978  -1.703  1.00  0.00     0.032 A 
HETATM    9  C7  UNL     1      -2.315  -0.567  -0.475  1.00  0.00     0.036 A 
HETATM   10  C16 UNL     1      -3.304  -0.092   0.333  1.00  0.00     0.044 A 
HETATM   11  C17 UNL     1      -4.621  -0.033  -0.062  1.00  0.00     0.014 A 
HETATM   12  C18 UNL     1      -5.547   0.465   0.828  1.00  0.00     0.051 A 
ENDROOT
BRANCH  12  13
HETATM   13  S2  UNL     1      -5.168   1.036   2.463  1.00  0.00    -0.017 SA
HETATM   14 CL1  UNL     1      -5.315  -0.542   3.865  1.00  0.00    -0.038 Cl
ENDBRANCH  12  13
BRANCH   9  15
HETATM   15  N3  UNL     1      -0.991  -0.599   0.002  1.00  0.00    -0.316 N 
HETATM   16  C8  UNL     1       0.186  -1.052  -0.617  1.00  0.00     0.301 C 
HETATM   17  O1  UNL     1       0.137  -1.510  -1.763  1.00  0.00    -0.258 OA
HETATM   18  H4  UNL     1      -0.800  -0.235   0.979  1.00  0.00     0.170 HD
BRANCH  16  19
HETATM   19  C9  UNL     1       1.481  -1.006   0.036  1.00  0.00    -0.004 C 
HETATM   20  C10 UNL     1       2.563  -0.946   0.579  1.00  0.00    -0.077 C 
BRANCH  20  21
HETATM   21  C11 UNL     1       3.871  -0.855   1.255  1.00  0.00     0.212 C 
BRANCH  21  22
HETATM   22  N4  UNL     1       4.689  -0.008   0.519  1.00  0.00    -0.401 N 
HETATM   23  C12 UNL     1       4.337   1.336   0.471  1.00  0.00     0.128 C 
HETATM   24  C13 UNL     1       5.475   2.229   0.923  1.00  0.00     0.093 C 
HETATM   25  S1  UNL     1       6.962   1.757   0.009  1.00  0.00    -0.166 SA
HETATM   26  C14 UNL     1       6.997  -0.047  -0.241  1.00  0.00     0.093 C 
HETATM   27  C15 UNL     1       5.563  -0.584  -0.395  1.00  0.00     0.128 C 
ENDBRANCH  21  22
ENDBRANCH  20  21
ENDBRANCH  16  19
ENDBRANCH   9  15
TORSDOF 5
