REMARK  6 active torsions:
REMARK  status: ('A' for Active; 'I' for Inactive)
REMARK    1  A    between atoms: C2_2  and  O1_3 
REMARK    2  A    between atoms: O1_3  and  C3_4 
REMARK    3  A    between atoms: C17_23  and  C18_24 
REMARK    4  A    between atoms: C18_24  and  N4_25 
REMARK    5  A    between atoms: N4_25  and  C19_26 
REMARK    6  A    between atoms: C19_26  and  C20_27 
ROOT
HETATM    1  C3  UNL     1       0.832   0.688  -0.742  1.00  0.00     0.068 C 
HETATM    2  C4  UNL     1       0.495   1.802  -1.328  1.00  0.00     0.122 C 
HETATM    3  N1  UNL     1      -0.605   2.625  -1.629  1.00  0.00    -0.348 N 
HETATM    4  C5  UNL     1      -1.818   2.615  -0.866  1.00  0.00     0.128 C 
HETATM    5  N2  UNL     1      -1.485   3.173   0.288  1.00  0.00    -0.242 NA
HETATM    6  C6  UNL     1      -2.133   2.735   1.543  1.00  0.00     0.136 C 
HETATM    7  C7  UNL     1      -2.814   1.618   1.906  1.00  0.00     0.116 C 
HETATM    8  N3  UNL     1      -3.099   0.734   0.831  1.00  0.00    -0.331 N 
HETATM    9  C8  UNL     1      -3.582   0.981  -0.529  1.00  0.00     0.100 C 
HETATM   10  C9  UNL     1      -3.190   2.097  -1.197  1.00  0.00     0.068 C 
HETATM   11  C10 UNL     1      -2.849  -0.620   1.275  1.00  0.00     0.046 A 
HETATM   12  C11 UNL     1      -4.001  -0.784   2.007  1.00  0.00     0.057 A 
HETATM   13  C12 UNL     1      -4.086  -2.115   2.469  1.00  0.00     0.074 A 
HETATM   14 CL1  UNL     1      -5.420  -2.663   3.442  1.00  0.00    -0.081 Cl
HETATM   15  C13 UNL     1      -3.138  -3.068   2.202  1.00  0.00     0.138 A 
HETATM   16  F1  UNL     1      -3.110  -4.347   2.578  1.00  0.00    -0.204 F 
HETATM   17  C14 UNL     1      -2.020  -2.772   1.454  1.00  0.00     0.054 A 
HETATM   18  C15 UNL     1      -1.798  -1.487   0.930  1.00  0.00    -0.022 A 
HETATM   19  C16 UNL     1      -0.903  -0.540   0.234  1.00  0.00     0.089 C 
HETATM   20  C17 UNL     1       0.448  -0.528   0.017  1.00  0.00     0.033 C 
HETATM   21  H7  UNL     1      -1.123   3.329  -2.147  1.00  0.00     0.167 HD
ENDROOT
BRANCH  20  22
HETATM   22  C18 UNL     1       1.784  -1.289   0.234  1.00  0.00     0.282 C 
BRANCH  22  23
HETATM   23  N4  UNL     1       2.295  -1.549  -1.062  1.00  0.00     0.090 N 
HETATM   24  H17 UNL     1       1.659  -1.937  -1.761  1.00  0.00     0.316 HD
BRANCH  23  25
HETATM   25  C19 UNL     1       3.530  -2.259  -1.095  1.00  0.00     0.338 C 
BRANCH  25  26
HETATM   26  C20 UNL     1       3.923  -2.448  -2.529  1.00  0.00     0.261 C 
HETATM   27  O2  UNL     1       3.933  -2.422  -3.750  1.00  0.00    -0.305 OA
ENDBRANCH  25  26
ENDBRANCH  23  25
ENDBRANCH  22  23
ENDBRANCH  20  22
BRANCH   1  28
HETATM   28  O1  UNL     1       2.216   0.832  -1.043  1.00  0.00    -0.354 OA
BRANCH  28  29
HETATM   29  C2  UNL     1       3.032   1.771  -0.396  1.00  0.00     0.171 C 
HETATM   30  C1  UNL     1       4.474   1.691  -0.845  1.00  0.00     0.034 C 
ENDBRANCH  28  29
ENDBRANCH   1  28
TORSDOF 6
