REMARK  5 active torsions:
REMARK  status: ('A' for Active; 'I' for Inactive)
REMARK    1  A    between atoms: C2_2  and  N1_3 
REMARK    2  A    between atoms: C2_2  and  C17_24 
REMARK    3  A    between atoms: N1_3  and  C3_4 
REMARK    4  A    between atoms: C3_4  and  C4_5 
REMARK    5  A    between atoms: C11_13  and  S1_14 
ROOT
HETATM    1  C4  UNL     1      -0.303  -0.280  -1.117  1.00  0.00    -0.046 A 
HETATM    2  C5  UNL     1      -0.032  -1.637  -1.260  1.00  0.00     0.009 A 
HETATM    3  C6  UNL     1       1.198  -2.232  -0.957  1.00  0.00     0.017 A 
HETATM    4  C7  UNL     1       2.076  -1.296  -0.508  1.00  0.00     0.032 A 
HETATM    5  C8  UNL     1       1.850   0.043  -0.352  1.00  0.00     0.012 A 
HETATM    6  C9  UNL     1       0.638   0.603  -0.657  1.00  0.00    -0.093 A 
HETATM    7  B1  UNL     1       0.500   2.300  -0.486  1.00  0.00     0.213 B 
HETATM    8  C10 UNL     1       2.083   3.289  -0.197  1.00  0.00    -0.062 C 
HETATM    9  C11 UNL     1       3.488   2.942  -0.067  1.00  0.00    -0.010 C 
HETATM   10  C12 UNL     1       4.711   2.696   0.147  1.00  0.00     0.067 C 
HETATM   11  S2  UNL     1       5.964   1.846  -0.730  1.00  0.00    -0.096 SA
HETATM   12  C13 UNL     1       6.722   0.464   0.076  1.00  0.00     0.068 A 
HETATM   13  C14 UNL     1       7.629  -0.330   0.690  1.00  0.00     0.141 A 
HETATM   14  N2  UNL     1       6.709  -1.444   0.851  1.00  0.00    -0.240 NA
HETATM   15  C15 UNL     1       5.874  -0.683   0.272  1.00  0.00     0.148 A 
HETATM   16  N3  UNL     1       4.574  -1.032   0.015  1.00  0.00    -0.306 N 
HETATM   17  C16 UNL     1       3.412  -1.745  -0.181  1.00  0.00     0.257 C 
HETATM   18  O1  UNL     1       3.902  -2.854   0.014  1.00  0.00    -0.267 OA
HETATM   19  H15 UNL     1       4.271  -0.070  -0.162  1.00  0.00     0.170 HD
ENDROOT
BRANCH   1  20
HETATM   20  C3  UNL     1      -1.605   0.315  -1.461  1.00  0.00     0.152 C 
BRANCH  20  21
HETATM   21  N1  UNL     1      -2.706  -0.541  -1.560  1.00  0.00    -0.413 N 
HETATM   22  H5  UNL     1      -3.382  -0.345  -2.328  1.00  0.00     0.153 HD
BRANCH  21  23
HETATM   23  C2  UNL     1      -3.353  -1.104  -0.461  1.00  0.00     0.080 C 
HETATM   24  C1  UNL     1      -2.581  -1.903   0.532  1.00  0.00     0.032 C 
BRANCH  23  25
HETATM   25  C17 UNL     1      -4.348  -0.209   0.267  1.00  0.00    -0.032 C 
HETATM   26  C18 UNL     1      -5.133   0.612  -0.696  1.00  0.00     0.016 C 
HETATM   27  C19 UNL     1      -3.730   0.665   1.313  1.00  0.00     0.016 C 
HETATM   28  C20 UNL     1      -5.345  -1.138   0.975  1.00  0.00     0.016 C 
ENDBRANCH  23  25
ENDBRANCH  21  23
ENDBRANCH  20  21
ENDBRANCH   1  20
BRANCH   9  29
HETATM   29  S1  UNL     1       3.252   3.681   1.605  1.00  0.00    -0.144 SA
HETATM   30  H12 UNL     1       3.045   2.604   2.471  1.00  0.00     0.107 HD
ENDBRANCH   9  29
TORSDOF 5
