REMARK  6 active torsions:
REMARK  status: ('A' for Active; 'I' for Inactive)
REMARK    1  A    between atoms: C2_2  and  C3_3 
REMARK    2  A    between atoms: C2_2  and  C6_7 
REMARK    3  A    between atoms: C3_3  and  N1_4 
REMARK       I    between atoms: C6_7  and  N2_9 
REMARK    4  A    between atoms: N2_9  and  C7_10 
REMARK    5  A    between atoms: C11_15  and  C12_16 
REMARK    6  A    between atoms: C12_16  and  C13_17 
ROOT
HETATM    1  C7  UNL     1      -1.309  -0.547   1.368  1.00  0.00     0.067 A 
HETATM    2  C8  UNL     1      -2.078  -0.399   2.407  1.00  0.00     0.037 A 
HETATM    3  C9  UNL     1      -1.574   0.347   3.633  1.00  0.00     0.150 A 
HETATM    4  C10 UNL     1      -2.422   1.538   3.960  1.00  0.00     0.044 C 
HETATM    5  O2  UNL     1      -0.289   0.687   3.199  1.00  0.00    -0.340 OA
HETATM    6  C11 UNL     1      -0.114   0.180   1.895  1.00  0.00     0.093 A 
ENDROOT
BRANCH   6   7
HETATM    7  C12 UNL     1       1.112   0.602   1.710  1.00  0.00     0.027 C 
BRANCH   7   8
HETATM    8  C13 UNL     1       2.450   1.120   1.637  1.00  0.00     0.084 C 
HETATM    9  C14 UNL     1       3.426  -0.025   1.254  1.00  0.00    -0.005 C 
HETATM   10  C15 UNL     1       3.423   0.350  -0.037  1.00  0.00    -0.056 C 
HETATM   11  C16 UNL     1       3.061   1.647  -0.616  1.00  0.00     0.033 C 
HETATM   12  C22 UNL     1       4.176  -0.531  -1.034  1.00  0.00     0.076 C 
HETATM   13  C17 UNL     1       2.881   2.030   0.607  1.00  0.00     0.021 C 
HETATM   14  N3  UNL     1       3.273   3.349   0.806  1.00  0.00    -0.367 N 
HETATM   15  C18 UNL     1       4.711   3.246   0.767  1.00  0.00     0.110 C 
HETATM   16  H21 UNL     1       2.949   4.298   0.953  1.00  0.00     0.165 HD
HETATM   17  C19 UNL     1       5.915   2.655   0.415  1.00  0.00     0.060 C 
HETATM   18 CL1  UNL     1       7.658   3.028   0.660  1.00  0.00    -0.085 Cl
HETATM   19  C20 UNL     1       5.727   1.286  -0.258  1.00  0.00     0.115 A 
HETATM   20  F1  UNL     1       6.992   0.675  -0.556  1.00  0.00    -0.388 F 
HETATM   21  C21 UNL     1       5.638   0.013  -0.892  1.00  0.00     0.256 A 
ENDBRANCH   7   8
ENDBRANCH   6   7
BRANCH   1  22
HETATM   22  N2  UNL     1      -1.142  -1.049   0.092  1.00  0.00    -0.321 N 
HETATM   23  C6  UNL     1      -2.322  -1.645  -0.460  1.00  0.00     0.249 C 
HETATM   24  O1  UNL     1      -3.274  -1.576   0.401  1.00  0.00    -0.268 OA
HETATM   25  H11 UNL     1      -0.275  -1.042  -0.438  1.00  0.00     0.169 HD
BRANCH  23  26
HETATM   26  C2  UNL     1      -2.370  -2.203  -1.791  1.00  0.00     0.006 C 
HETATM   27  C1  UNL     1      -1.282  -2.213  -2.594  1.00  0.00     0.046 C 
BRANCH  26  28
HETATM   28  C3  UNL     1      -3.693  -2.724  -2.275  1.00  0.00     0.155 C 
BRANCH  28  29
HETATM   29  N1  UNL     1      -4.702  -1.735  -2.182  1.00  0.00    -0.417 N 
HETATM   30  C4  UNL     1      -4.636  -0.599  -3.013  1.00  0.00     0.142 C 
HETATM   31  C5  UNL     1      -5.781  -1.922  -1.306  1.00  0.00     0.142 C 
ENDBRANCH  28  29
ENDBRANCH  26  28
ENDBRANCH  23  26
ENDBRANCH   1  22
TORSDOF 6
