REMARK  4 active torsions:
REMARK  status: ('A' for Active; 'I' for Inactive)
REMARK    1  A    between atoms: O1_2  and  C2_3 
REMARK    2  A    between atoms: C7_9  and  C8_10 
REMARK    3  A    between atoms: C8_10  and  N2_12 
REMARK    4  A    between atoms: C13_16  and  O2_17 
ROOT
HETATM    1  C2  UNL     1       2.448  -0.264   0.338  1.00  0.00     0.096 C 
HETATM    2  C3  UNL     1       2.821  -1.423   0.939  1.00  0.00     0.066 C 
HETATM    3  C4  UNL     1       2.463  -1.951  -0.416  1.00  0.00     0.036 C 
HETATM    4  N1  UNL     1       1.404  -2.213  -1.171  1.00  0.00    -0.282 NA
HETATM    5  C5  UNL     1       0.104  -1.942  -0.645  1.00  0.00     0.160 C 
HETATM    6  C6  UNL     1      -0.966  -1.152  -0.339  1.00  0.00     0.011 C 
HETATM    7  C7  UNL     1      -1.187   0.315  -0.556  1.00  0.00    -0.027 C 
HETATM    8  C12 UNL     1      -0.086   0.842  -1.150  1.00  0.00     0.035 C 
HETATM    9  C13 UNL     1       1.006   1.565  -1.781  1.00  0.00     0.242 C 
HETATM   10  N3  UNL     1       2.282   1.407  -1.059  1.00  0.00    -0.359 N 
HETATM   11  C14 UNL     1       3.091   0.253  -0.897  1.00  0.00     0.060 C 
HETATM   12  C15 UNL     1       4.096  -0.537  -1.370  1.00  0.00     0.011 C 
HETATM   13  C16 UNL     1       3.748  -2.035  -1.215  1.00  0.00     0.088 C 
HETATM   14  H20 UNL     1       2.730   2.239  -0.564  1.00  0.00     0.162 HD
ENDROOT
BRANCH   7  15
HETATM   15  C8  UNL     1      -2.521   0.673  -0.065  1.00  0.00     0.250 C 
HETATM   16  C9  UNL     1      -3.612  -0.124  -0.737  1.00  0.00     0.048 C 
BRANCH  15  17
HETATM   17  N2  UNL     1      -2.561   0.682   1.361  1.00  0.00     0.088 N 
HETATM   18  C10 UNL     1      -3.867   1.148   1.817  1.00  0.00     0.310 C 
HETATM   19  C11 UNL     1      -2.231  -0.563   2.007  1.00  0.00     0.310 C 
ENDBRANCH  15  17
ENDBRANCH   7  15
BRANCH   9  20
HETATM   20  O2  UNL     1       1.242   1.103  -3.099  1.00  0.00    -0.373 OA
HETATM   21  H19 UNL     1       0.486   0.556  -3.417  1.00  0.00     0.212 HD
ENDBRANCH   9  20
BRANCH   1  22
HETATM   22  O1  UNL     1       1.510  -0.093   1.306  1.00  0.00    -0.354 OA
HETATM   23  C1  UNL     1       1.301   1.142   1.957  1.00  0.00     0.210 C 
ENDBRANCH   1  22
TORSDOF 4
