REMARK  10 active torsions:
REMARK  status: ('A' for Active; 'I' for Inactive)
REMARK    1  A    between atoms: C2_2  and  C3_3 
REMARK    2  A    between atoms: C2_2  and  C6_7 
REMARK    3  A    between atoms: C3_3  and  N1_4 
REMARK       I    between atoms: C6_7  and  N2_9 
REMARK    4  A    between atoms: N2_9  and  C7_10 
REMARK    5  A    between atoms: C12_15  and  O2_16 
REMARK    6  A    between atoms: O2_16  and  C13_17 
REMARK    7  A    between atoms: C16_21  and  N4_22 
REMARK    8  A    between atoms: N4_22  and  C17_23 
REMARK    9  A    between atoms: C17_23  and  C18_24 
REMARK   10  A    between atoms: C19_25  and  C20_27 
ROOT
HETATM    1  C7  UNL     1      -0.406  -0.387  -1.142  1.00  0.00     0.069 A 
HETATM    2  C8  UNL     1       0.716  -0.586  -0.340  1.00  0.00     0.048 A 
HETATM    3  C9  UNL     1       1.911   0.050  -0.598  1.00  0.00     0.018 A 
HETATM    4  C10 UNL     1       1.901   0.883  -1.697  1.00  0.00     0.066 A 
HETATM    5  C11 UNL     1       0.819   1.112  -2.521  1.00  0.00     0.071 A 
HETATM    6  C12 UNL     1      -0.369   0.469  -2.250  1.00  0.00     0.097 A 
HETATM    7  N3  UNL     1       3.052   1.440  -1.873  1.00  0.00    -0.283 NA
HETATM    8  C15 UNL     1       3.998   1.012  -0.855  1.00  0.00     0.207 A 
HETATM    9  C16 UNL     1       3.136   0.077  -0.046  1.00  0.00     0.038 A 
ENDROOT
BRANCH   1  10
HETATM   10  N2  UNL     1      -1.619  -1.088  -0.808  1.00  0.00    -0.321 N 
HETATM   11  C6  UNL     1      -2.369  -0.279   0.087  1.00  0.00     0.249 C 
HETATM   12  O1  UNL     1      -2.106   0.871   0.568  1.00  0.00    -0.268 OA
HETATM   13  H11 UNL     1      -2.165  -1.957  -0.962  1.00  0.00     0.169 HD
BRANCH  11  14
HETATM   14  C2  UNL     1      -3.639  -0.398   0.777  1.00  0.00     0.006 C 
HETATM   15  C1  UNL     1      -3.918   0.650   1.525  1.00  0.00     0.046 C 
BRANCH  14  16
HETATM   16  C3  UNL     1      -4.646  -1.450   0.791  1.00  0.00     0.155 C 
BRANCH  16  17
HETATM   17  N1  UNL     1      -5.779  -1.198   1.605  1.00  0.00    -0.417 N 
HETATM   18  C4  UNL     1      -5.577  -1.171   3.010  1.00  0.00     0.142 C 
HETATM   19  C5  UNL     1      -6.659  -0.174   1.103  1.00  0.00     0.142 C 
ENDBRANCH  16  17
ENDBRANCH  14  16
ENDBRANCH  11  14
ENDBRANCH   1  10
BRANCH   6  20
HETATM   20  O2  UNL     1      -1.544   0.578  -2.959  1.00  0.00    -0.349 OA
BRANCH  20  21
HETATM   21  C13 UNL     1      -1.707   1.376  -4.090  1.00  0.00     0.171 C 
HETATM   22  C14 UNL     1      -0.757   0.933  -5.162  1.00  0.00     0.034 C 
ENDBRANCH  20  21
ENDBRANCH   6  20
BRANCH   9  23
HETATM   23  N4  UNL     1       3.474  -0.686   1.112  1.00  0.00    -0.388 N 
HETATM   24  H21 UNL     1       3.008  -1.636   1.226  1.00  0.00     0.159 HD
BRANCH  23  25
HETATM   25  C17 UNL     1       4.391  -0.281   2.138  1.00  0.00     0.148 C 
BRANCH  25  26
HETATM   26  C18 UNL     1       5.799  -0.213   1.729  1.00  0.00     0.014 C 
HETATM   27  C19 UNL     1       7.113  -0.515   1.749  1.00  0.00     0.038 C 
HETATM   28 CL1  UNL     1       8.608  -0.072   0.906  1.00  0.00    -0.087 Cl
BRANCH  27  29
HETATM   29  C20 UNL     1       7.464  -1.522   2.775  1.00  0.00     0.273 C 
HETATM   30  F1  UNL     1       6.354  -1.935   3.492  1.00  0.00    -0.250 F 
ENDBRANCH  27  29
ENDBRANCH  25  26
ENDBRANCH  23  25
ENDBRANCH   9  23
TORSDOF 10
