REMARK  11 active torsions:
REMARK  status: ('A' for Active; 'I' for Inactive)
REMARK    1  A    between atoms: C2_2  and  C3_3 
REMARK    2  A    between atoms: C3_3  and  C14_18 
REMARK    3  A    between atoms: C4_4  and  C5_5 
REMARK    4  A    between atoms: C5_5  and  C6_6 
REMARK    5  A    between atoms: C7_7  and  C8_8 
REMARK    6  A    between atoms: C7_7  and  N2_10 
REMARK    7  A    between atoms: C8_8  and  N1_9 
REMARK    8  A    between atoms: C14_18  and  N3_19 
REMARK       I    between atoms: N3_19  and  C15_20 
REMARK    9  A    between atoms: C15_20  and  C16_22 
REMARK   10  A    between atoms: C16_22  and  C17_23 
REMARK   11  A    between atoms: C17_23  and  N4_25 
ROOT
HETATM    1  C3  UNL     1       0.004   0.401   1.122  1.00  0.00    -0.066 C 
HETATM    2  C4  UNL     1       0.726   1.252   0.400  1.00  0.00    -0.019 C 
ENDROOT
BRANCH   2   3
HETATM    3  C5  UNL     1       1.787   1.246  -0.622  1.00  0.00     0.056 C 
BRANCH   3   4
HETATM    4  C6  UNL     1       2.226  -0.133  -1.013  1.00  0.00     0.004 C 
HETATM    5  C7  UNL     1       3.402  -0.741  -0.934  1.00  0.00     0.029 C 
BRANCH   5   6
HETATM    6  C8  UNL     1       3.840  -2.116  -1.324  1.00  0.00     0.168 C 
BRANCH   6   7
HETATM    7  N1  UNL     1       4.344  -2.858  -0.199  1.00  0.00    -0.425 N 
HETATM    8  H12 UNL     1       4.244  -3.879  -0.293  1.00  0.00     0.150 HD
HETATM    9  H13 UNL     1       5.228  -2.504   0.177  1.00  0.00     0.150 HD
ENDBRANCH   6   7
ENDBRANCH   5   6
BRANCH   5  10
HETATM   10  N2  UNL     1       4.479  -0.008  -0.389  1.00  0.00    -0.334 N 
HETATM   11  C9  UNL     1       4.520   0.200   1.012  1.00  0.00     0.095 A 
HETATM   12  C10 UNL     1       5.539   0.888   1.485  1.00  0.00     0.033 A 
HETATM   13  C11 UNL     1       6.656   1.477   0.724  1.00  0.00     0.240 A 
HETATM   14  F1  UNL     1       6.816   2.830   0.952  1.00  0.00    -0.239 F 
HETATM   15  C12 UNL     1       6.459   1.168  -0.717  1.00  0.00     0.065 A 
HETATM   16 CL1  UNL     1       7.793   1.872  -1.619  1.00  0.00    -0.084 Cl
HETATM   17  C13 UNL     1       5.486   0.495  -1.287  1.00  0.00     0.119 A 
ENDBRANCH   5  10
ENDBRANCH   3   4
ENDBRANCH   2   3
BRANCH   1  18
HETATM   18  C2  UNL     1      -0.115  -1.047   1.277  1.00  0.00     0.031 C 
HETATM   19  C1  UNL     1       0.167  -1.538   2.676  1.00  0.00     0.010 C 
ENDBRANCH   1  18
BRANCH   1  20
HETATM   20  C14 UNL     1      -1.004   0.865   2.077  1.00  0.00     0.156 C 
BRANCH  20  21
HETATM   21  N3  UNL     1      -2.350   0.403   1.803  1.00  0.00    -0.357 N 
HETATM   22  C15 UNL     1      -2.922   0.771   0.551  1.00  0.00     0.219 C 
HETATM   23  O1  UNL     1      -2.092   1.474  -0.120  1.00  0.00    -0.274 OA
HETATM   24  H20 UNL     1      -2.830  -0.172   2.531  1.00  0.00     0.162 HD
BRANCH  22  25
HETATM   25  C16 UNL     1      -4.312   0.286   0.285  1.00  0.00     0.138 C 
BRANCH  25  26
HETATM   26  C17 UNL     1      -4.699   0.796  -1.084  1.00  0.00     0.226 C 
HETATM   27  C18 UNL     1      -3.757   0.277  -2.152  1.00  0.00     0.043 C 
BRANCH  26  28
HETATM   28  N4  UNL     1      -6.028   0.396  -1.462  1.00  0.00     0.084 N 
HETATM   29  C19 UNL     1      -7.045   0.874  -0.561  1.00  0.00     0.309 C 
HETATM   30  C20 UNL     1      -6.144  -1.017  -1.729  1.00  0.00     0.309 C 
ENDBRANCH  26  28
ENDBRANCH  25  26
ENDBRANCH  22  25
ENDBRANCH  20  21
ENDBRANCH   1  20
TORSDOF 11
