REMARK  5 active torsions:
REMARK  status: ('A' for Active; 'I' for Inactive)
REMARK    1  A    between atoms: C2_2  and  C3_3 
REMARK    2  A    between atoms: C3_3  and  C4_4 
REMARK    3  A    between atoms: C3_3  and  N4_29 
REMARK    4  A    between atoms: C13_14  and  O1_15 
REMARK    5  A    between atoms: C22_27  and  O2_28 
ROOT
HETATM    1  C4  UNL     1      -2.513  -0.197   0.877  1.00  0.00    -0.014 C 
HETATM    2  C5  UNL     1      -1.536  -0.635   0.122  1.00  0.00     0.001 C 
HETATM    3  C6  UNL     1      -0.937  -0.970  -1.167  1.00  0.00     0.147 C 
HETATM    4  N1  UNL     1       0.267  -0.230  -1.496  1.00  0.00    -0.384 N 
HETATM    5  C7  UNL     1       1.574  -0.228  -1.002  1.00  0.00     0.066 C 
HETATM    6  C8  UNL     1       2.442  -0.375  -0.049  1.00  0.00    -0.026 C 
HETATM    7  C9  UNL     1       3.396  -1.573  -0.152  1.00  0.00     0.053 C 
HETATM    8  C10 UNL     1       4.565  -0.594  -0.511  1.00  0.00    -0.002 C 
HETATM    9  C11 UNL     1       5.843  -1.223  -0.731  1.00  0.00     0.021 C 
HETATM   10  C12 UNL     1       3.953   0.153  -1.675  1.00  0.00     0.023 C 
HETATM   11  C13 UNL     1       2.636   0.112  -2.012  1.00  0.00     0.091 C 
HETATM   12  C15 UNL     1       4.478   0.392   0.678  1.00  0.00     0.132 C 
HETATM   13  C16 UNL     1       5.456   0.094   1.693  1.00  0.00     0.067 C 
HETATM   14  N2  UNL     1       6.238  -0.146   2.510  1.00  0.00    -0.197 NA
HETATM   15  C17 UNL     1       3.049   0.158   1.195  1.00  0.00     0.131 C 
HETATM   16  N3  UNL     1       2.402   1.342   1.661  1.00  0.00    -0.389 N 
HETATM   17  C18 UNL     1       1.204   0.830   2.297  1.00  0.00     0.083 C 
HETATM   18  C19 UNL     1       0.474   0.259   3.246  1.00  0.00     0.019 C 
HETATM   19  C20 UNL     1      -0.759  -0.244   3.848  1.00  0.00     0.042 C 
HETATM   20  C21 UNL     1      -1.968  -0.228   3.325  1.00  0.00     0.126 C 
HETATM   21  F1  UNL     1      -2.607  -0.833   4.399  1.00  0.00    -0.208 F 
HETATM   22  C22 UNL     1      -2.903   0.095   2.272  1.00  0.00     0.211 C 
HETATM   23  H10 UNL     1       0.118   0.478  -2.285  1.00  0.00     0.160 HD
HETATM   24  H22 UNL     1       2.439   2.371   1.729  1.00  0.00     0.159 HD
ENDROOT
BRANCH  11  25
HETATM   25  O1  UNL     1       2.421   0.423  -3.387  1.00  0.00    -0.354 OA
HETATM   26  C14 UNL     1       2.346   1.754  -3.814  1.00  0.00     0.210 C 
ENDBRANCH  11  25
BRANCH   1  27
HETATM   27  C3  UNL     1      -3.460   0.080  -0.217  1.00  0.00     0.253 C 
BRANCH  27  28
HETATM   28  C2  UNL     1      -3.358   1.452  -0.810  1.00  0.00     0.036 C 
HETATM   29  C1  UNL     1      -3.629   2.542   0.180  1.00  0.00     0.007 C 
ENDBRANCH  27  28
BRANCH  27  30
HETATM   30  N4  UNL     1      -3.685  -0.975  -1.167  1.00  0.00     0.088 NA
HETATM   31  C23 UNL     1      -3.864  -2.254  -0.508  1.00  0.00     0.310 C 
HETATM   32  C24 UNL     1      -4.926  -0.711  -1.869  1.00  0.00     0.310 C 
ENDBRANCH  27  30
ENDBRANCH   1  27
BRANCH  22  33
HETATM   33  O2  UNL     1      -4.130  -0.572   2.560  1.00  0.00    -0.384 OA
HETATM   34  H27 UNL     1      -4.824   0.069   2.788  1.00  0.00     0.211 HD
ENDBRANCH  22  33
TORSDOF 5
