REMARK  8 active torsions:
REMARK  status: ('A' for Active; 'I' for Inactive)
REMARK    1  A    between atoms: O1_2  and  C2_3 
REMARK    2  A    between atoms: C8_11  and  N3_12 
REMARK    3  A    between atoms: N3_12  and  C9_13 
REMARK    4  A    between atoms: C17_23  and  N4_24 
REMARK       I    between atoms: N4_24  and  C18_25 
REMARK    5  A    between atoms: C18_25  and  C19_27 
REMARK    6  A    between atoms: C19_27  and  C20_28 
REMARK    7  A    between atoms: C20_28  and  C21_29 
REMARK    8  A    between atoms: C21_29  and  N5_30 
ROOT
HETATM    1  C2  UNL     1      -0.218  -2.746   1.183  1.00  0.00     0.097 A 
HETATM    2  C3  UNL     1      -1.378  -3.525   1.126  1.00  0.00     0.071 A 
HETATM    3  C4  UNL     1      -2.602  -2.897   1.032  1.00  0.00     0.071 A 
HETATM    4  N1  UNL     1      -3.724  -3.672   0.977  1.00  0.00    -0.259 NA
HETATM    5  C5  UNL     1      -4.962  -3.149   0.884  1.00  0.00     0.142 A 
HETATM    6  C6  UNL     1      -5.072  -1.774   0.846  1.00  0.00     0.089 A 
HETATM    7  C7  UNL     1      -6.404  -1.196   0.746  1.00  0.00     0.103 C 
HETATM    8  N2  UNL     1      -7.463  -0.730   0.655  1.00  0.00    -0.191 NA
HETATM    9  C8  UNL     1      -3.994  -0.919   0.896  1.00  0.00     0.067 A 
HETATM   10  C15 UNL     1      -2.741  -1.526   0.992  1.00  0.00     0.023 A 
HETATM   11  C16 UNL     1      -1.601  -0.740   1.048  1.00  0.00     0.048 A 
HETATM   12  C17 UNL     1      -0.364  -1.360   1.142  1.00  0.00     0.069 A 
ENDROOT
BRANCH   9  13
HETATM   13  N3  UNL     1      -4.107   0.477   0.857  1.00  0.00    -0.354 N 
HETATM   14  H6  UNL     1      -4.187   0.687   1.861  1.00  0.00     0.166 HD
BRANCH  13  15
HETATM   15  C9  UNL     1      -4.124   1.465  -0.166  1.00  0.00     0.034 A 
HETATM   16  C10 UNL     1      -4.258   2.783   0.215  1.00  0.00     0.032 A 
HETATM   17  C11 UNL     1      -4.269   3.695  -0.813  1.00  0.00     0.046 A 
HETATM   18  C12 UNL     1      -4.155   3.358  -2.153  1.00  0.00     0.138 A 
HETATM   19  F1  UNL     1      -4.180   4.360  -3.079  1.00  0.00    -0.204 F 
HETATM   20  C13 UNL     1      -4.024   2.027  -2.471  1.00  0.00     0.074 A 
HETATM   21 CL1  UNL     1      -3.882   1.620  -4.173  1.00  0.00    -0.081 Cl
HETATM   22  C14 UNL     1      -4.006   1.045  -1.477  1.00  0.00     0.056 A 
ENDBRANCH  13  15
ENDBRANCH   9  13
BRANCH  12  23
HETATM   23  N4  UNL     1       0.851  -0.596   1.204  1.00  0.00    -0.325 N 
HETATM   24  C18 UNL     1       1.616  -0.191   0.067  1.00  0.00     0.222 C 
HETATM   25  O2  UNL     1       1.230  -0.505  -1.087  1.00  0.00    -0.273 OA
HETATM   26  H11 UNL     1       1.030  -0.420   2.219  1.00  0.00     0.169 HD
BRANCH  24  27
HETATM   27  C19 UNL     1       2.797   0.575   0.498  1.00  0.00     0.105 C 
BRANCH  27  28
HETATM   28  C20 UNL     1       3.621   1.014  -0.693  1.00  0.00     0.039 C 
BRANCH  28  29
HETATM   29  C21 UNL     1       4.829   1.801  -0.204  1.00  0.00     0.271 C 
BRANCH  29  30
HETATM   30  N5  UNL     1       5.596   2.206  -1.360  1.00  0.00     0.080 N 
HETATM   31  C22 UNL     1       6.757   2.962  -0.896  1.00  0.00     0.309 C 
HETATM   32  C23 UNL     1       6.090   1.011  -2.007  1.00  0.00     0.309 C 
ENDBRANCH  29  30
ENDBRANCH  28  29
ENDBRANCH  27  28
ENDBRANCH  24  27
ENDBRANCH  12  23
BRANCH   1  33
HETATM   33  O1  UNL     1       1.024  -3.318   1.277  1.00  0.00    -0.354 OA
HETATM   34  C1  UNL     1       1.139  -4.717   1.316  1.00  0.00     0.210 C 
ENDBRANCH   1  33
TORSDOF 8
