REMARK  6 active torsions:
REMARK  status: ('A' for Active; 'I' for Inactive)
REMARK    1  A    between atoms: C8_10  and  C9_11 
REMARK    2  A    between atoms: C9_11  and  C10_12 
REMARK    3  A    between atoms: C20_26  and  O2_27 
REMARK    4  A    between atoms: O2_27  and  C21_28 
REMARK    5  A    between atoms: C21_28  and  C22_29 
REMARK    6  A    between atoms: C22_29  and  N4_30 
ROOT
HETATM    1  C1  UNL     1      -3.429  -1.302   2.589  1.00  0.00     0.143 C 
HETATM    2  N1  UNL     1      -2.204  -0.776   2.303  1.00  0.00    -0.408 N 
HETATM    3  C2  UNL     1      -1.177  -1.605   1.691  1.00  0.00     0.144 C 
HETATM    4  C3  UNL     1      -1.561  -2.042   0.337  1.00  0.00    -0.004 C 
HETATM    5  C4  UNL     1      -1.290  -1.879  -0.960  1.00  0.00     0.049 C 
HETATM    6  C5  UNL     1      -0.439  -1.147  -1.910  1.00  0.00     0.162 C 
HETATM    7  O1  UNL     1      -0.465  -1.371  -3.175  1.00  0.00    -0.292 OA
HETATM    8  C6  UNL     1       0.502  -0.078  -1.453  1.00  0.00     0.134 C 
HETATM    9  C7  UNL     1       1.500  -0.600  -0.551  1.00  0.00     0.001 C 
HETATM   10  C8  UNL     1       2.269   0.113   0.293  1.00  0.00    -0.040 C 
HETATM   11  C16 UNL     1       2.452   1.518   0.662  1.00  0.00     0.119 C 
HETATM   12  N2  UNL     1       1.977   2.668   0.355  1.00  0.00    -0.280 NA
HETATM   13  C17 UNL     1       0.967   3.136  -0.565  1.00  0.00     0.297 C 
HETATM   14  N3  UNL     1      -0.183   2.263  -0.553  1.00  0.00    -0.272 NA
HETATM   15  C18 UNL     1      -0.328   1.050  -0.895  1.00  0.00     0.048 C 
HETATM   16  C19 UNL     1      -1.772   0.796  -0.606  1.00  0.00     0.061 C 
HETATM   17  C20 UNL     1      -2.685   0.560   0.368  1.00  0.00     0.065 C 
HETATM   18  C23 UNL     1      -2.147   0.533   1.752  1.00  0.00     0.181 C 
ENDROOT
BRANCH  10  19
HETATM   19  C9  UNL     1       3.193  -0.752   1.077  1.00  0.00     0.075 C 
BRANCH  19  20
HETATM   20  C10 UNL     1       4.610  -0.448   0.873  1.00  0.00    -0.059 C 
HETATM   21  C11 UNL     1       5.442  -0.077   1.811  1.00  0.00     0.004 C 
HETATM   22  C12 UNL     1       6.571   0.526   1.525  1.00  0.00     0.083 C 
HETATM   23 CL1  UNL     1       7.345   1.770   2.490  1.00  0.00    -0.080 Cl
HETATM   24  C13 UNL     1       7.198   0.075   0.267  1.00  0.00     0.135 C 
HETATM   25  F1  UNL     1       8.544   0.208   0.105  1.00  0.00    -0.205 F 
HETATM   26  C14 UNL     1       6.487  -0.455  -0.709  1.00  0.00     0.021 C 
HETATM   27  C15 UNL     1       5.020  -0.610  -0.554  1.00  0.00     0.065 C 
ENDBRANCH  19  20
ENDBRANCH  10  19
BRANCH  17  28
HETATM   28  O2  UNL     1      -3.981   0.388  -0.077  1.00  0.00    -0.352 OA
BRANCH  28  29
HETATM   29  C21 UNL     1      -4.565   1.186  -1.087  1.00  0.00     0.205 C 
BRANCH  29  30
HETATM   30  C22 UNL     1      -5.999   0.732  -1.363  1.00  0.00     0.293 C 
BRANCH  30  31
HETATM   31  N4  UNL     1      -5.997  -0.670  -1.804  1.00  0.00     0.080 N 
HETATM   32  H23 UNL     1      -6.440  -1.230  -1.021  1.00  0.00     0.312 HD
HETATM   33  H24 UNL     1      -5.017  -1.003  -1.947  1.00  0.00     0.312 HD
ENDBRANCH  30  31
ENDBRANCH  29  30
ENDBRANCH  28  29
ENDBRANCH  17  28
TORSDOF 6
