REMARK  6 active torsions:
REMARK  status: ('A' for Active; 'I' for Inactive)
REMARK    1  A    between atoms: C2_2  and  C3_3 
REMARK    2  A    between atoms: C2_2  and  N1_6 
REMARK    3  A    between atoms: C3_3  and  C4_4 
REMARK    4  A    between atoms: N1_6  and  C5_7 
REMARK    5  A    between atoms: C10_14  and  N3_15 
REMARK    6  A    between atoms: N3_15  and  C11_16 
ROOT
HETATM    1  C5  UNL     1      -1.282  -0.318  -0.151  1.00  0.00     0.007 C 
HETATM    2  C6  UNL     1      -1.440  -1.254   0.802  1.00  0.00     0.005 C 
HETATM    3  C7  UNL     1      -0.883  -1.934   1.950  1.00  0.00     0.101 C 
HETATM    4  C8  UNL     1       0.392  -1.416   2.489  1.00  0.00     0.106 C 
HETATM    5 CL1  UNL     1       0.639  -1.993   4.155  1.00  0.00    -0.067 Cl
HETATM    6  N2  UNL     1       1.426  -0.675   2.148  1.00  0.00    -0.251 NA
HETATM    7  C9  UNL     1       1.683  -0.011   0.895  1.00  0.00     0.143 C 
HETATM    8  C10 UNL     1       1.072   0.499  -0.159  1.00  0.00     0.033 C 
HETATM    9  C17 UNL     1      -0.305   0.656  -0.583  1.00  0.00     0.114 C 
ENDROOT
BRANCH   8  10
HETATM   10  N3  UNL     1       2.051   1.028  -1.085  1.00  0.00    -0.358 N 
HETATM   11  H13 UNL     1       1.689   1.612  -1.898  1.00  0.00     0.166 HD
BRANCH  10  12
HETATM   12  C11 UNL     1       3.442   0.779  -0.902  1.00  0.00     0.032 A 
HETATM   13  C12 UNL     1       4.059  -0.449  -1.166  1.00  0.00     0.032 A 
HETATM   14  C13 UNL     1       5.413  -0.690  -1.015  1.00  0.00     0.044 A 
HETATM   15  C14 UNL     1       6.173   0.368  -0.577  1.00  0.00     0.116 A 
HETATM   16  F1  UNL     1       7.509   0.079  -0.453  1.00  0.00    -0.206 F 
HETATM   17  C15 UNL     1       5.603   1.604  -0.304  1.00  0.00     0.044 A 
HETATM   18  C16 UNL     1       4.262   1.819  -0.460  1.00  0.00     0.032 A 
ENDBRANCH  10  12
ENDBRANCH   8  10
BRANCH   1  19
HETATM   19  N1  UNL     1      -2.559  -0.519  -0.787  1.00  0.00    -0.388 N 
HETATM   20  H8  UNL     1      -2.857  -1.212  -1.493  1.00  0.00     0.159 HD
BRANCH  19  21
HETATM   21  C2  UNL     1      -3.564   0.405  -0.341  1.00  0.00     0.083 C 
HETATM   22  C1  UNL     1      -3.337   1.762  -0.946  1.00  0.00     0.032 C 
BRANCH  21  23
HETATM   23  C3  UNL     1      -4.980  -0.014  -0.521  1.00  0.00     0.094 C 
BRANCH  23  24
HETATM   24  C4  UNL     1      -5.271  -1.350   0.069  1.00  0.00     0.233 C 
HETATM   25  O1  UNL     1      -6.265  -2.056   0.100  1.00  0.00    -0.307 OA
ENDBRANCH  23  24
ENDBRANCH  21  23
ENDBRANCH  19  21
ENDBRANCH   1  19
TORSDOF 6
