REMARK  5 active torsions:
REMARK  status: ('A' for Active; 'I' for Inactive)
REMARK    1  A    between atoms: C2_2  and  O1_3 
REMARK    2  A    between atoms: O1_3  and  C3_4 
REMARK    3  A    between atoms: C7_9  and  N2_10 
REMARK    4  A    between atoms: C8_11  and  N3_12 
REMARK    5  A    between atoms: N3_12  and  C9_13 
ROOT
HETATM    1  C3  UNL     1      -2.724   1.341   0.181  1.00  0.00     0.143 C 
HETATM    2  C4  UNL     1      -1.795   0.488  -0.112  1.00  0.00     0.128 C 
HETATM    3  C5  UNL     1      -0.557  -0.259  -0.417  1.00  0.00     0.040 C 
HETATM    4  N1  UNL     1      -0.301   0.013  -1.621  1.00  0.00    -0.266 NA
HETATM    5  C6  UNL     1       0.778  -0.425  -2.449  1.00  0.00     0.142 C 
HETATM    6  C7  UNL     1       1.945  -0.832  -1.984  1.00  0.00     0.050 C 
HETATM    7  C8  UNL     1       2.436  -0.956  -0.587  1.00  0.00     0.052 C 
HETATM    8  C15 UNL     1       1.589  -1.062   0.484  1.00  0.00     0.022 C 
HETATM    9  C16 UNL     1       0.092  -1.084   0.590  1.00  0.00     0.047 A 
HETATM   10  C17 UNL     1      -0.001  -1.920   1.649  1.00  0.00     0.049 A 
HETATM   11  C18 UNL     1      -1.333  -2.285   2.170  1.00  0.00    -0.045 A 
HETATM   12  O2  UNL     1      -1.229  -1.561   1.178  1.00  0.00     0.000 OA
HETATM   13  C19 UNL     1      -2.609  -2.633   2.668  1.00  0.00     0.006 C 
HETATM   14  C20 UNL     1      -3.676  -2.237   2.037  1.00  0.00    -0.005 C 
HETATM   15  C21 UNL     1      -4.640  -1.661   1.129  1.00  0.00     0.169 C 
HETATM   16  N4  UNL     1      -4.131  -1.043  -0.039  1.00  0.00    -0.327 N 
HETATM   17  C22 UNL     1      -3.564  -1.979  -0.992  1.00  0.00     0.171 C 
HETATM   18  N5  UNL     1      -3.547   0.172   0.015  1.00  0.00    -0.285 N 
HETATM   19  H24 UNL     1      -4.510   0.194  -0.420  1.00  0.00     0.188 HD
ENDROOT
BRANCH   7  20
HETATM   20  N3  UNL     1       3.847  -0.965  -0.270  1.00  0.00    -0.355 N 
HETATM   21  H10 UNL     1       4.289  -1.851   0.059  1.00  0.00     0.166 HD
BRANCH  20  22
HETATM   22  C9  UNL     1       4.900  -0.005  -0.283  1.00  0.00     0.032 A 
HETATM   23  C10 UNL     1       4.990   0.705   0.888  1.00  0.00     0.032 A 
HETATM   24  C11 UNL     1       5.963   1.659   1.004  1.00  0.00     0.044 A 
HETATM   25  C12 UNL     1       6.836   1.903  -0.037  1.00  0.00     0.116 A 
HETATM   26  F1  UNL     1       7.795   2.847   0.086  1.00  0.00    -0.206 F 
HETATM   27  C13 UNL     1       6.683   1.144  -1.194  1.00  0.00     0.044 A 
HETATM   28  C14 UNL     1       5.723   0.164  -1.376  1.00  0.00     0.032 A 
ENDBRANCH  20  22
ENDBRANCH   7  20
BRANCH   6  29
HETATM   29  N2  UNL     1       3.003  -1.265  -2.866  1.00  0.00    -0.300 NA
HETATM   30  H8  UNL     1       3.029  -2.268  -3.127  1.00  0.00     0.124 HD
HETATM   31  H9  UNL     1       2.954  -2.296  -3.078  1.00  0.00     0.124 HD
ENDBRANCH   6  29
BRANCH   1  32
HETATM   32  O1  UNL     1      -3.540   2.379   0.502  1.00  0.00    -0.338 OA
BRANCH  32  33
HETATM   33  C2  UNL     1      -3.491   3.640  -0.153  1.00  0.00     0.172 C 
HETATM   34  C1  UNL     1      -4.309   4.584   0.673  1.00  0.00     0.034 C 
ENDBRANCH  32  33
ENDBRANCH   1  32
TORSDOF 5
