REMARK  6 active torsions:
REMARK  status: ('A' for Active; 'I' for Inactive)
REMARK    1  A    between atoms: N1_2  and  C3_4 
REMARK    2  A    between atoms: C3_4  and  C4_5 
REMARK    3  A    between atoms: C5_6  and  C6_7 
REMARK       I    between atoms: C6_7  and  N2_9 
REMARK    4  A    between atoms: N2_9  and  C7_10 
REMARK    5  A    between atoms: C13_16  and  N3_17 
REMARK    6  A    between atoms: N3_17  and  C14_18 
ROOT
HETATM    1  C7  UNL     1       0.117  -1.373   1.140  1.00  0.00     0.035 A 
HETATM    2  C8  UNL     1       0.352  -2.532   1.872  1.00  0.00     0.032 A 
HETATM    3  C9  UNL     1       1.571  -3.174   1.805  1.00  0.00     0.035 A 
HETATM    4  C10 UNL     1       2.582  -2.671   1.003  1.00  0.00     0.070 A 
HETATM    5  C11 UNL     1       2.312  -1.518   0.289  1.00  0.00     0.022 A 
HETATM    6  C12 UNL     1       1.109  -0.844   0.327  1.00  0.00     0.045 A 
HETATM    7  C13 UNL     1       3.390  -0.999  -0.554  1.00  0.00     0.059 C 
HETATM    8  C20 UNL     1       4.318  -1.868  -0.909  1.00  0.00     0.038 C 
HETATM    9  C21 UNL     1       4.594  -2.890  -0.190  1.00  0.00     0.100 C 
HETATM   10  N4  UNL     1       3.887  -3.216   0.827  1.00  0.00    -0.245 NA
ENDROOT
BRANCH   1  11
HETATM   11  N2  UNL     1      -1.158  -0.703   1.211  1.00  0.00    -0.324 N 
HETATM   12  C6  UNL     1      -2.100  -1.152   0.245  1.00  0.00     0.245 C 
HETATM   13  O1  UNL     1      -1.843  -2.050  -0.594  1.00  0.00    -0.268 OA
HETATM   14  H11 UNL     1      -1.422   0.034   1.872  1.00  0.00     0.169 HD
BRANCH  12  15
HETATM   15  C5  UNL     1      -3.412  -0.537   0.238  1.00  0.00     0.072 C 
HETATM   16  C4  UNL     1      -4.301  -0.936  -0.647  1.00  0.00     0.008 C 
BRANCH  16  17
HETATM   17  C3  UNL     1      -5.686  -0.547  -0.936  1.00  0.00     0.299 C 
BRANCH  17  18
HETATM   18  N1  UNL     1      -6.147   0.509  -0.032  1.00  0.00     0.083 N 
HETATM   19  C1  UNL     1      -7.522   0.817  -0.392  1.00  0.00     0.309 C 
HETATM   20  C2  UNL     1      -5.371   1.691  -0.393  1.00  0.00     0.309 C 
ENDBRANCH  17  18
ENDBRANCH  16  17
ENDBRANCH  12  15
ENDBRANCH   1  11
BRANCH   7  21
HETATM   21  N3  UNL     1       3.432   0.363  -0.965  1.00  0.00    -0.355 N 
HETATM   22  H15 UNL     1       2.611   0.776  -1.467  1.00  0.00     0.166 HD
BRANCH  21  23
HETATM   23  C14 UNL     1       4.538   1.243  -0.742  1.00  0.00     0.034 A 
HETATM   24  C15 UNL     1       4.579   2.567  -1.141  1.00  0.00     0.032 A 
HETATM   25  C16 UNL     1       5.691   3.351  -0.886  1.00  0.00     0.046 A 
HETATM   26  C17 UNL     1       6.798   2.849  -0.226  1.00  0.00     0.138 A 
HETATM   27  F1  UNL     1       7.868   3.650   0.005  1.00  0.00    -0.204 F 
HETATM   28  C18 UNL     1       6.777   1.529   0.181  1.00  0.00     0.074 A 
HETATM   29 CL1  UNL     1       8.188   0.930   1.009  1.00  0.00    -0.081 Cl
HETATM   30  C19 UNL     1       5.657   0.748  -0.079  1.00  0.00     0.056 A 
ENDBRANCH  21  23
ENDBRANCH   7  21
TORSDOF 6
