REMARK  6 active torsions:
REMARK  status: ('A' for Active; 'I' for Inactive)
REMARK    1  A    between atoms: C2_2  and  C4_4 
REMARK    2  A    between atoms: C4_4  and  C5_5 
REMARK    3  A    between atoms: C5_5  and  C6_6 
REMARK    4  A    between atoms: C6_6  and  C7_7 
REMARK    5  A    between atoms: C11_14  and  N3_15 
REMARK    6  A    between atoms: N3_15  and  C12_16 
ROOT
HETATM    1  C7  UNL     1      -0.224   0.069  -0.144  1.00  0.00    -0.094 C 
HETATM    2  B1  UNL     1      -0.820  -1.201   1.181  1.00  0.00     0.309 B 
HETATM    3  N1  UNL     1       0.414  -2.786   0.631  1.00  0.00    -0.448 N 
HETATM    4  C8  UNL     1       0.142  -2.865  -0.779  1.00  0.00     0.088 C 
HETATM    5  C9  UNL     1       0.321  -1.795  -1.567  1.00  0.00     0.061 C 
HETATM    6  C10 UNL     1       0.018  -1.969  -2.978  1.00  0.00     0.099 C 
HETATM    7  N2  UNL     1      -0.226  -2.088  -4.097  1.00  0.00    -0.192 NA
HETATM    8  C11 UNL     1       0.826  -0.526  -0.985  1.00  0.00     0.143 C 
HETATM    9  H10 UNL     1       1.069  -3.418   1.097  1.00  0.00     0.137 HD
ENDROOT
BRANCH   8  10
HETATM   10  N3  UNL     1       2.089  -0.736  -0.300  1.00  0.00    -0.378 N 
HETATM   11  H13 UNL     1       2.372  -1.757  -0.190  1.00  0.00     0.160 HD
BRANCH  10  12
HETATM   12  C12 UNL     1       3.080   0.092   0.278  1.00  0.00     0.030 A 
HETATM   13  C13 UNL     1       4.235  -0.352   0.931  1.00  0.00     0.032 A 
HETATM   14  C14 UNL     1       5.095   0.600   1.421  1.00  0.00     0.046 A 
HETATM   15  C15 UNL     1       4.894   1.958   1.310  1.00  0.00     0.138 A 
HETATM   16  F1  UNL     1       5.815   2.794   1.834  1.00  0.00    -0.204 F 
HETATM   17  C16 UNL     1       3.762   2.417   0.670  1.00  0.00     0.074 A 
HETATM   18 CL1  UNL     1       3.472   4.123   0.510  1.00  0.00    -0.081 Cl
HETATM   19  C17 UNL     1       2.896   1.458   0.177  1.00  0.00     0.056 A 
ENDBRANCH  10  12
ENDBRANCH   8  10
BRANCH   1  20
HETATM   20  C6  UNL     1      -0.947   1.361  -0.017  1.00  0.00     0.039 C 
BRANCH  20  21
HETATM   21  C5  UNL     1      -1.935   1.367   1.044  1.00  0.00     0.070 C 
BRANCH  21  22
HETATM   22  C4  UNL     1      -3.136   0.847   0.822  1.00  0.00    -0.166 C 
BRANCH  22  23
HETATM   23  C2  UNL     1      -4.232   0.279   0.336  1.00  0.00     0.022 C 
HETATM   24  C1  UNL     1      -4.259  -1.176   0.548  1.00  0.00     0.029 C 
HETATM   25  C3  UNL     1      -5.144   1.257  -0.297  1.00  0.00     0.029 C 
ENDBRANCH  22  23
ENDBRANCH  21  22
ENDBRANCH  20  21
ENDBRANCH   1  20
TORSDOF 6
