REMARK  8 active torsions:
REMARK  status: ('A' for Active; 'I' for Inactive)
REMARK    1  A    between atoms: C2_2  and  N1_3 
REMARK    2  A    between atoms: N1_3  and  C4_5 
REMARK    3  A    between atoms: C4_5  and  C5_6 
REMARK    4  A    between atoms: C5_6  and  C6_7 
REMARK    5  A    between atoms: C6_7  and  N2_9 
REMARK    6  A    between atoms: N2_9  and  C8_10 
REMARK    7  A    between atoms: C22_29  and  O1_30 
REMARK    8  A    between atoms: O1_30  and  C23_31 
ROOT
HETATM    1  C8  UNL     1       0.464   0.596  -0.325  1.00  0.00     0.279 C 
HETATM    2  C9  UNL     1       0.402  -0.189  -1.611  1.00  0.00     0.067 C 
HETATM    3  C10 UNL     1      -0.926  -0.680  -1.938  1.00  0.00     0.120 A 
HETATM    4  C11 UNL     1      -2.051  -1.088  -2.408  1.00  0.00     0.049 A 
HETATM    5 CL1  UNL     1      -0.788  -0.576  -3.552  1.00  0.00    -0.173 Cl
HETATM    6  C12 UNL     1      -3.376  -1.506  -2.693  1.00  0.00     0.122 C 
HETATM    7  F1  UNL     1      -3.397  -1.860  -4.000  1.00  0.00    -0.208 F 
HETATM    8  C13 UNL     1      -3.769  -1.280  -1.467  1.00  0.00     0.105 C 
HETATM    9  C14 UNL     1      -4.988  -1.391  -0.693  1.00  0.00     0.269 C 
HETATM   10  N3  UNL     1      -5.236  -1.066   0.516  1.00  0.00    -0.389 NA
HETATM   11  C15 UNL     1      -4.232  -0.487   1.331  1.00  0.00     0.047 A 
HETATM   12  C16 UNL     1      -3.384   0.428   0.695  1.00  0.00     0.061 A 
HETATM   13  C17 UNL     1      -2.324   1.117   1.316  1.00  0.00     0.061 A 
HETATM   14  N4  UNL     1      -2.103   0.890   2.622  1.00  0.00    -0.259 NA
HETATM   15  C18 UNL     1      -2.917   0.001   3.270  1.00  0.00     0.142 A 
HETATM   16  C19 UNL     1      -3.955  -0.678   2.666  1.00  0.00     0.087 A 
HETATM   17  C20 UNL     1      -4.804  -1.603   3.328  1.00  0.00     0.103 C 
HETATM   18  N5  UNL     1      -5.501  -2.355   3.891  1.00  0.00    -0.191 NA
HETATM   19  C21 UNL     1      -1.534   1.983   0.407  1.00  0.00     0.066 C 
HETATM   20  C22 UNL     1      -0.422   1.763  -0.245  1.00  0.00     0.081 C 
ENDROOT
BRANCH  20  21
HETATM   21  O1  UNL     1      -0.164   2.952  -0.955  1.00  0.00    -0.353 OA
BRANCH  21  22
HETATM   22  C23 UNL     1      -0.995   3.179  -2.083  1.00  0.00     0.171 C 
HETATM   23  C24 UNL     1      -0.534   4.504  -2.692  1.00  0.00     0.034 C 
ENDBRANCH  21  22
ENDBRANCH  20  21
BRANCH   1  24
HETATM   24  N2  UNL     1       0.195  -0.206   0.824  1.00  0.00     0.098 N 
HETATM   25  H15 UNL     1      -0.764  -0.643   0.796  1.00  0.00     0.317 HD
BRANCH  24  26
HETATM   26  C6  UNL     1       1.079  -1.251   1.197  1.00  0.00     0.219 C 
HETATM   27  C7  UNL     1       0.741  -2.621   0.703  1.00  0.00     0.042 C 
BRANCH  26  28
HETATM   28  C5  UNL     1       2.518  -0.961   1.397  1.00  0.00     0.055 C 
BRANCH  28  29
HETATM   29  C4  UNL     1       3.426  -1.098   0.230  1.00  0.00     0.123 C 
BRANCH  29  30
HETATM   30  N1  UNL     1       4.823  -0.778   0.583  1.00  0.00    -0.395 N 
HETATM   31  C3  UNL     1       5.763  -0.895  -0.518  1.00  0.00     0.148 C 
BRANCH  30  32
HETATM   32  C2  UNL     1       5.288  -0.378   1.887  1.00  0.00     0.075 C 
HETATM   33  C1  UNL     1       5.448   0.940   1.869  1.00  0.00     0.029 C 
ENDBRANCH  30  32
ENDBRANCH  29  30
ENDBRANCH  28  29
ENDBRANCH  26  28
ENDBRANCH  24  26
ENDBRANCH   1  24
TORSDOF 8
