REMARK  7 active torsions:
REMARK  status: ('A' for Active; 'I' for Inactive)
REMARK    1  A    between atoms: O1_2  and  C2_3 
REMARK    2  A    between atoms: N3_11  and  C8_12 
REMARK    3  A    between atoms: C17_22  and  N4_23 
REMARK       I    between atoms: N4_23  and  C18_24 
REMARK    4  A    between atoms: C18_24  and  C19_26 
REMARK    5  A    between atoms: C19_26  and  C20_27 
REMARK    6  A    between atoms: C20_27  and  C21_28 
REMARK    7  A    between atoms: C21_28  and  N5_29 
ROOT
HETATM    1  C2  UNL     1       0.549   2.841  -0.233  1.00  0.00     0.096 A 
HETATM    2  C3  UNL     1      -0.402   3.710   0.063  1.00  0.00     0.068 A 
HETATM    3  C4  UNL     1      -1.794   3.298   0.179  1.00  0.00     0.060 A 
HETATM    4  N1  UNL     1      -2.415   4.393   0.547  1.00  0.00    -0.270 NA
HETATM    5  C5  UNL     1      -3.821   4.716   0.848  1.00  0.00     0.298 C 
HETATM    6  N2  UNL     1      -4.166   4.240   2.179  1.00  0.00    -0.265 NA
HETATM    7  C6  UNL     1      -3.712   3.176   2.765  1.00  0.00     0.098 C 
HETATM    8  C7  UNL     1      -3.665   2.044   2.080  1.00  0.00     0.126 C 
HETATM    9  N3  UNL     1      -3.136   1.401   0.905  1.00  0.00    -0.340 N 
HETATM   10  C15 UNL     1      -2.252   1.924  -0.073  1.00  0.00     0.166 A 
HETATM   11  C16 UNL     1      -1.053   1.115  -0.373  1.00  0.00     0.037 A 
HETATM   12  C17 UNL     1       0.219   1.443  -0.466  1.00  0.00     0.067 A 
ENDROOT
BRANCH  12  13
HETATM   13  N4  UNL     1       1.319   0.606  -0.764  1.00  0.00    -0.321 N 
HETATM   14  C18 UNL     1       1.294  -0.780  -1.034  1.00  0.00     0.245 C 
HETATM   15  O2  UNL     1       0.233  -1.439  -1.035  1.00  0.00    -0.268 OA
HETATM   16  H16 UNL     1       2.280   0.962  -0.811  1.00  0.00     0.169 HD
BRANCH  14  17
HETATM   17  C19 UNL     1       2.429  -1.600  -1.332  1.00  0.00     0.072 C 
BRANCH  17  18
HETATM   18  C20 UNL     1       3.694  -1.841  -1.532  1.00  0.00     0.008 C 
BRANCH  18  19
HETATM   19  C21 UNL     1       5.057  -2.331  -1.793  1.00  0.00     0.299 C 
BRANCH  19  20
HETATM   20  N5  UNL     1       5.895  -2.091  -0.625  1.00  0.00     0.083 N 
HETATM   21  C22 UNL     1       7.199  -2.591  -0.942  1.00  0.00     0.309 C 
HETATM   22  C23 UNL     1       5.298  -2.700   0.541  1.00  0.00     0.309 C 
ENDBRANCH  19  20
ENDBRANCH  18  19
ENDBRANCH  17  18
ENDBRANCH  14  17
ENDBRANCH  12  13
BRANCH   1  23
HETATM   23  O1  UNL     1       1.832   3.339  -0.310  1.00  0.00    -0.354 OA
HETATM   24  C1  UNL     1       2.742   3.380   0.758  1.00  0.00     0.210 C 
ENDBRANCH   1  23
BRANCH   9  25
HETATM   25  C8  UNL     1      -3.573   0.062   0.739  1.00  0.00     0.038 A 
HETATM   26  C9  UNL     1      -3.923  -0.812   1.745  1.00  0.00     0.030 A 
HETATM   27  C10 UNL     1      -4.361  -2.094   1.509  1.00  0.00     0.012 A 
HETATM   28  C11 UNL     1      -4.477  -2.584   0.230  1.00  0.00    -0.023 A 
HETATM   29  C12 UNL     1      -4.949  -3.969   0.000  1.00  0.00     0.051 C 
HETATM   30  C13 UNL     1      -4.141  -1.753  -0.812  1.00  0.00     0.124 A 
HETATM   31  F1  UNL     1      -4.266  -2.270  -2.057  1.00  0.00    -0.205 F 
HETATM   32  C14 UNL     1      -3.704  -0.470  -0.531  1.00  0.00     0.072 A 
ENDBRANCH   9  25
TORSDOF 7
