REMARK  8 active torsions:
REMARK  status: ('A' for Active; 'I' for Inactive)
REMARK    1  A    between atoms: C3_4  and  C4_5 
REMARK    2  A    between atoms: C4_5  and  N1_6 
REMARK    3  A    between atoms: N1_6  and  C5_7 
REMARK    4  A    between atoms: C8_10  and  N2_11 
REMARK       I    between atoms: N2_11  and  C9_12 
REMARK    5  A    between atoms: C9_12  and  C10_14 
REMARK    6  A    between atoms: C10_14  and  C11_15 
REMARK    7  A    between atoms: C11_15  and  C12_16 
REMARK    8  A    between atoms: C12_16  and  N3_17 
ROOT
HETATM    1  C5  UNL     1       2.970   1.027  -0.249  1.00  0.00     0.045 C 
HETATM    2  C6  UNL     1       1.713   0.963  -0.261  1.00  0.00     0.033 C 
HETATM    3  C7  UNL     1       0.340   0.747  -0.304  1.00  0.00     0.029 C 
HETATM    4  C8  UNL     1      -0.954   0.632  -0.331  1.00  0.00     0.035 C 
HETATM    5  C15 UNL     1      -1.004   2.081  -0.229  1.00  0.00     0.225 C 
HETATM    6  O2  UNL     1      -1.563   2.798   0.833  1.00  0.00    -0.376 OA
HETATM    7  C16 UNL     1      -0.883   4.204   0.863  1.00  0.00     0.063 C 
HETATM    8  C17 UNL     1      -1.835   5.340   0.969  1.00  0.00     0.045 C 
HETATM    9  C18 UNL     1       0.536   4.406   0.806  1.00  0.00     0.099 C 
HETATM   10  C19 UNL     1       1.342   5.562   0.809  1.00  0.00     0.111 C 
HETATM   11  N4  UNL     1       2.621   5.626   0.729  1.00  0.00    -0.281 NA
HETATM   12  C20 UNL     1       3.500   4.534   0.620  1.00  0.00     0.296 C 
HETATM   13  N5  UNL     1       2.854   3.237   0.334  1.00  0.00    -0.278 NA
HETATM   14  C21 UNL     1       3.749   2.269   0.012  1.00  0.00     0.141 C 
ENDROOT
BRANCH   4  15
HETATM   15  N2  UNL     1      -1.813  -0.470  -0.478  1.00  0.00    -0.329 N 
HETATM   16  C9  UNL     1      -2.700  -1.340  -1.268  1.00  0.00     0.222 C 
HETATM   17  O1  UNL     1      -2.794  -0.944  -2.388  1.00  0.00    -0.273 OA
HETATM   18  H10 UNL     1      -1.512  -0.438   0.554  1.00  0.00     0.168 HD
BRANCH  16  19
HETATM   19  C10 UNL     1      -3.092  -2.406  -0.204  1.00  0.00     0.068 C 
BRANCH  19  20
HETATM   20  C11 UNL     1      -2.747  -2.658   1.117  1.00  0.00     0.069 C 
BRANCH  20  21
HETATM   21  C12 UNL     1      -3.359  -3.766   1.774  1.00  0.00     0.277 C 
BRANCH  21  22
HETATM   22  N3  UNL     1      -4.354  -4.603   1.220  1.00  0.00     0.080 NA
HETATM   23  C13 UNL     1      -5.649  -3.929   1.090  1.00  0.00     0.309 C 
HETATM   24  C14 UNL     1      -4.587  -5.712   2.178  1.00  0.00     0.309 C 
ENDBRANCH  21  22
ENDBRANCH  20  21
ENDBRANCH  19  20
ENDBRANCH  16  19
ENDBRANCH   4  15
BRANCH   1  25
HETATM   25  N1  UNL     1       3.402  -0.247  -0.539  1.00  0.00    -0.385 N 
HETATM   26  H7  UNL     1       3.615   0.215  -1.508  1.00  0.00     0.160 HD
BRANCH  25  27
HETATM   27  C4  UNL     1       3.767  -1.602  -0.577  1.00  0.00     0.148 C 
BRANCH  27  28
HETATM   28  C3  UNL     1       4.299  -1.973  -1.943  1.00  0.00     0.011 C 
HETATM   29  C2  UNL     1       4.339  -0.912  -2.792  1.00  0.00     0.005 C 
HETATM   30  C1  UNL     1       4.909  -1.850  -3.868  1.00  0.00     0.061 C 
HETATM   31 CL1  UNL     1       4.455   0.341  -4.078  1.00  0.00    -0.090 Cl
ENDBRANCH  27  28
ENDBRANCH  25  27
ENDBRANCH   1  25
TORSDOF 8
