REMARK  8 active torsions:
REMARK  status: ('A' for Active; 'I' for Inactive)
REMARK    1  A    between atoms: C2_2  and  N1_3 
REMARK    2  A    between atoms: N1_3  and  C3_4 
REMARK    3  A    between atoms: C6_7  and  N2_8 
REMARK    4  A    between atoms: N2_8  and  C7_9 
REMARK    5  A    between atoms: C18_24  and  O1_25 
REMARK    6  A    between atoms: O1_25  and  C19_26 
REMARK    7  A    between atoms: C19_26  and  C20_27 
REMARK    8  A    between atoms: C20_27  and  N5_28 
ROOT
HETATM    1  C3  UNL     1       0.484   0.961  -0.212  1.00  0.00     0.062 A 
HETATM    2  C4  UNL     1      -0.754   0.734   0.404  1.00  0.00     0.048 A 
HETATM    3  C5  UNL     1      -1.068  -0.515   0.929  1.00  0.00     0.023 A 
HETATM    4  C6  UNL     1      -2.262  -0.816   1.550  1.00  0.00     0.067 A 
HETATM    5  C13 UNL     1      -2.449  -2.092   2.028  1.00  0.00     0.089 A 
HETATM    6  C14 UNL     1      -3.697  -2.430   2.684  1.00  0.00     0.103 C 
HETATM    7  N3  UNL     1      -4.705  -2.705   3.210  1.00  0.00    -0.191 NA
HETATM    8  C15 UNL     1      -1.526  -3.114   1.937  1.00  0.00     0.142 A 
HETATM    9  N4  UNL     1      -0.352  -2.792   1.318  1.00  0.00    -0.259 NA
HETATM   10  C16 UNL     1      -0.157  -1.546   0.846  1.00  0.00     0.071 A 
HETATM   11  C17 UNL     1       1.041  -1.270   0.232  1.00  0.00     0.071 A 
HETATM   12  C18 UNL     1       1.434  -0.072  -0.311  1.00  0.00     0.097 A 
ENDROOT
BRANCH   4  13
HETATM   13  N2  UNL     1      -3.245   0.205   1.669  1.00  0.00    -0.354 N 
HETATM   14  H8  UNL     1      -3.341   0.861   2.455  1.00  0.00     0.166 HD
BRANCH  13  15
HETATM   15  C7  UNL     1      -4.189   0.345   0.615  1.00  0.00     0.034 A 
HETATM   16  C8  UNL     1      -4.107  -0.450  -0.515  1.00  0.00     0.032 A 
HETATM   17  C9  UNL     1      -4.981  -0.385  -1.583  1.00  0.00     0.046 A 
HETATM   18  C10 UNL     1      -5.995   0.550  -1.488  1.00  0.00     0.138 A 
HETATM   19  F1  UNL     1      -6.872   0.653  -2.505  1.00  0.00    -0.204 F 
HETATM   20  C11 UNL     1      -6.128   1.360  -0.404  1.00  0.00     0.074 A 
HETATM   21 CL1  UNL     1      -7.407   2.551  -0.260  1.00  0.00    -0.081 Cl
HETATM   22  C12 UNL     1      -5.225   1.244   0.625  1.00  0.00     0.056 A 
ENDBRANCH  13  15
ENDBRANCH   4  13
BRANCH   1  23
HETATM   23  N1  UNL     1       0.564   2.298  -0.665  1.00  0.00    -0.388 N 
HETATM   24  H6  UNL     1       1.507   2.444  -1.134  1.00  0.00     0.159 HD
BRANCH  23  25
HETATM   25  C2  UNL     1      -0.330   3.413  -0.611  1.00  0.00     0.115 C 
HETATM   26  C1  UNL     1      -0.589   3.768   0.838  1.00  0.00     0.026 C 
ENDBRANCH  23  25
ENDBRANCH   1  23
BRANCH  12  27
HETATM   27  O1  UNL     1       2.541   0.368  -0.937  1.00  0.00    -0.347 OA
BRANCH  27  28
HETATM   28  C19 UNL     1       3.726  -0.275  -1.247  1.00  0.00     0.206 C 
BRANCH  28  29
HETATM   29  C20 UNL     1       4.500  -0.747  -0.053  1.00  0.00     0.297 C 
BRANCH  29  30
HETATM   30  N5  UNL     1       5.725  -1.410  -0.432  1.00  0.00     0.082 N 
HETATM   31  C21 UNL     1       6.713  -0.574  -1.021  1.00  0.00     0.309 C 
HETATM   32  C22 UNL     1       5.426  -2.626  -1.109  1.00  0.00     0.309 C 
ENDBRANCH  29  30
ENDBRANCH  28  29
ENDBRANCH  27  28
ENDBRANCH  12  27
TORSDOF 8
