REMARK  11 active torsions:
REMARK  status: ('A' for Active; 'I' for Inactive)
REMARK    1  A    between atoms: B1_1  and  N1_2 
REMARK    2  A    between atoms: N1_2  and  C2_4 
REMARK    3  A    between atoms: C2_4  and  C3_5 
REMARK    4  A    between atoms: C4_6  and  C5_7 
REMARK       I    between atoms: C5_7  and  N2_9 
REMARK    5  A    between atoms: N2_9  and  C6_10 
REMARK    6  A    between atoms: C6_10  and  C7_11 
REMARK    7  A    between atoms: C7_11  and  C8_12 
REMARK    8  A    between atoms: C8_12  and  C9_13 
REMARK    9  A    between atoms: C11_16  and  C12_17 
REMARK   10  A    between atoms: C13_18  and  N4_19 
REMARK   11  A    between atoms: N4_19  and  C14_20 
ROOT
HETATM    1  C9  UNL     1      -3.414  -1.675  -0.812  1.00  0.00     0.233 A 
HETATM    2  N3  UNL     1      -4.167  -1.926   0.232  1.00  0.00    -0.000 N 
HETATM    3  C10 UNL     1      -4.741  -2.034   1.284  1.00  0.00     0.245 A 
HETATM    4  C11 UNL     1      -5.135  -2.636   0.419  1.00  0.00     0.286 A 
HETATM    5  C12 UNL     1      -4.082  -1.780   0.480  1.00  0.00     0.247 A 
HETATM    6  C13 UNL     1      -3.315  -0.796   1.556  1.00  0.00     0.071 A 
HETATM    7  C20 UNL     1      -4.195  -1.218   2.435  1.00  0.00     0.089 A 
HETATM    8  C21 UNL     1      -4.506  -1.035   3.802  1.00  0.00     0.100 C 
HETATM    9  N5  UNL     1      -4.767  -0.902   4.858  1.00  0.00    -0.192 NA
ENDROOT
BRANCH   6  10
HETATM   10  N4  UNL     1      -2.400   0.158   2.143  1.00  0.00    -0.356 N 
HETATM   11  H15 UNL     1      -1.676  -0.359   2.645  1.00  0.00     0.166 HD
BRANCH  10  12
HETATM   12  C14 UNL     1      -2.906   1.439   1.756  1.00  0.00     0.034 A 
HETATM   13  C15 UNL     1      -3.798   1.631   0.752  1.00  0.00     0.032 A 
HETATM   14  C16 UNL     1      -4.227   2.942   0.501  1.00  0.00     0.046 A 
HETATM   15  C17 UNL     1      -3.757   4.016   1.247  1.00  0.00     0.138 A 
HETATM   16  F1  UNL     1      -4.217   5.255   0.943  1.00  0.00    -0.204 F 
HETATM   17  C18 UNL     1      -2.846   3.726   2.257  1.00  0.00     0.074 A 
HETATM   18 CL1  UNL     1      -2.234   5.081   3.222  1.00  0.00    -0.081 Cl
HETATM   19  C19 UNL     1      -2.424   2.461   2.508  1.00  0.00     0.056 A 
ENDBRANCH  10  12
ENDBRANCH   6  10
BRANCH   1  20
HETATM   20  C8  UNL     1      -2.138  -1.553  -1.287  1.00  0.00     0.020 C 
BRANCH  20  21
HETATM   21  C7  UNL     1      -1.083  -1.817  -0.239  1.00  0.00     0.016 C 
BRANCH  21  22
HETATM   22  C6  UNL     1       0.151  -1.584  -0.628  1.00  0.00     0.091 C 
BRANCH  22  23
HETATM   23  N2  UNL     1       1.426  -1.306  -1.146  1.00  0.00    -0.334 N 
HETATM   24  C5  UNL     1       2.486  -2.197  -0.999  1.00  0.00     0.244 C 
HETATM   25  O1  UNL     1       2.300  -3.292  -0.408  1.00  0.00    -0.268 OA
HETATM   26  H10 UNL     1       1.639  -0.427  -1.671  1.00  0.00     0.168 HD
BRANCH  24  27
HETATM   27  C4  UNL     1       3.870  -2.016  -1.464  1.00  0.00     0.071 C 
HETATM   28  C3  UNL     1       4.154  -0.910  -2.110  1.00  0.00    -0.008 C 
BRANCH  28  29
HETATM   29  C2  UNL     1       5.524  -0.644  -2.582  1.00  0.00     0.100 C 
BRANCH  29  30
HETATM   30  N1  UNL     1       6.061   0.559  -1.923  1.00  0.00    -0.369 NA
HETATM   31  C1  UNL     1       5.371   1.735  -2.366  1.00  0.00     0.092 C 
BRANCH  30  32
HETATM   32  B1  UNL     1       7.534   0.603  -2.192  1.00  0.00     0.220 B 
HETATM   33  H1  UNL     1       7.985   1.692  -2.452  1.00  0.00    -0.013 HD
HETATM   34  H2  UNL     1       8.215  -0.162  -1.577  1.00  0.00    -0.013 HD
ENDBRANCH  30  32
ENDBRANCH  29  30
ENDBRANCH  28  29
ENDBRANCH  24  27
ENDBRANCH  22  23
ENDBRANCH  21  22
ENDBRANCH  20  21
ENDBRANCH   1  20
TORSDOF 11
