REMARK  5 active torsions:
REMARK  status: ('A' for Active; 'I' for Inactive)
REMARK    1  A    between atoms: N1_2  and  C3_4 
REMARK    2  A    between atoms: C3_4  and  C4_5 
REMARK    3  A    between atoms: C5_6  and  C6_7 
REMARK       I    between atoms: C6_7  and  N2_9 
REMARK    4  A    between atoms: N2_9  and  C7_10 
REMARK    5  A    between atoms: C14_19  and  N5_20 
ROOT
HETATM    1  C7  UNL     1      -0.164  -0.812   0.079  1.00  0.00     0.035 A 
HETATM    2  C8  UNL     1       0.202  -2.078   0.439  1.00  0.00     0.032 A 
HETATM    3  C9  UNL     1      -0.647  -3.094   0.815  1.00  0.00     0.035 A 
HETATM    4  C10 UNL     1      -1.992  -2.857   0.844  1.00  0.00     0.069 A 
HETATM    5  N3  UNL     1      -2.846  -3.829   1.207  1.00  0.00    -0.259 NA
HETATM    6  C11 UNL     1      -4.183  -3.594   1.236  1.00  0.00     0.142 A 
HETATM    7  C12 UNL     1      -4.626  -2.316   0.877  1.00  0.00     0.089 A 
HETATM    8  C13 UNL     1      -6.063  -2.118   0.925  1.00  0.00     0.103 C 
HETATM    9  N4  UNL     1      -7.209  -1.951   0.968  1.00  0.00    -0.191 NA
HETATM   10  C14 UNL     1      -3.770  -1.286   0.496  1.00  0.00     0.069 A 
HETATM   11  C20 UNL     1      -2.419  -1.592   0.488  1.00  0.00     0.023 A 
HETATM   12  C21 UNL     1      -1.523  -0.607   0.118  1.00  0.00     0.045 A 
ENDROOT
BRANCH  10  13
HETATM   13  N5  UNL     1      -4.284  -0.025   0.148  1.00  0.00    -0.348 N 
HETATM   14  C15 UNL     1      -4.602   0.148  -1.233  1.00  0.00     0.133 A 
HETATM   15  C16 UNL     1      -5.096   1.304  -1.660  1.00  0.00     0.131 A 
HETATM   16  F1  UNL     1      -5.410   1.514  -2.948  1.00  0.00    -0.205 F 
HETATM   17  C17 UNL     1      -5.301   2.379  -0.699  1.00  0.00     0.041 A 
HETATM   18  C18 UNL     1      -5.020   2.251   0.566  1.00  0.00    -0.004 A 
HETATM   19  C19 UNL     1      -4.465   1.007   1.157  1.00  0.00     0.156 A 
ENDBRANCH  10  13
BRANCH   1  20
HETATM   20  N2  UNL     1       0.667   0.239  -0.305  1.00  0.00    -0.324 N 
HETATM   21  C6  UNL     1       2.069   0.297  -0.427  1.00  0.00     0.245 C 
HETATM   22  O1  UNL     1       2.727  -0.737  -0.160  1.00  0.00    -0.268 OA
HETATM   23  H11 UNL     1       0.228   1.168  -0.557  1.00  0.00     0.169 HD
BRANCH  21  24
HETATM   24  C5  UNL     1       2.804   1.462  -0.839  1.00  0.00     0.072 C 
HETATM   25  C4  UNL     1       4.113   1.504  -0.948  1.00  0.00     0.008 C 
BRANCH  25  26
HETATM   26  C3  UNL     1       5.266   0.614  -0.761  1.00  0.00     0.299 C 
BRANCH  26  27
HETATM   27  N1  UNL     1       6.201   1.111   0.235  1.00  0.00     0.083 N 
HETATM   28  C1  UNL     1       6.844   2.292  -0.243  1.00  0.00     0.309 C 
HETATM   29  C2  UNL     1       7.193   0.122   0.546  1.00  0.00     0.309 C 
ENDBRANCH  26  27
ENDBRANCH  25  26
ENDBRANCH  21  24
ENDBRANCH   1  20
TORSDOF 5
