REMARK  9 active torsions:
REMARK  status: ('A' for Active; 'I' for Inactive)
REMARK    1  A    between atoms: N1_2  and  C2_3 
REMARK    2  A    between atoms: C2_3  and  C3_4 
REMARK    3  A    between atoms: C3_4  and  C4_5 
REMARK       I    between atoms: C4_5  and  N2_7 
REMARK    4  A    between atoms: N2_7  and  C5_8 
REMARK    5  A    between atoms: C8_11  and  N3_12 
REMARK    6  A    between atoms: C9_13  and  C10_14 
REMARK    7  A    between atoms: C12_17  and  C13_18 
REMARK    8  A    between atoms: C13_18  and  C14_19 
REMARK    9  A    between atoms: C14_19  and  C15_20 
ROOT
HETATM    1  C10 UNL     1      -3.841   4.063  -0.293  1.00  0.00     0.170 C 
HETATM    2  C11 UNL     1      -3.693   5.263   0.561  1.00  0.00     0.064 C 
HETATM    3  N4  UNL     1      -3.575   6.198   1.230  1.00  0.00    -0.197 NA
ENDROOT
BRANCH   1   4
HETATM    4  C9  UNL     1      -2.514   3.409  -0.390  1.00  0.00     0.104 C 
HETATM    5  N3  UNL     1      -2.103   2.590   0.516  1.00  0.00    -0.264 NA
BRANCH   5   6
HETATM    6  C8  UNL     1      -0.839   1.945   0.458  1.00  0.00     0.062 A 
HETATM    7  C7  UNL     1       0.363   2.545   0.155  1.00  0.00     0.034 A 
HETATM    8  C6  UNL     1       1.508   1.784   0.143  1.00  0.00     0.032 A 
HETATM    9  C5  UNL     1       1.566   0.442   0.412  1.00  0.00     0.035 A 
HETATM   10  C21 UNL     1       0.359  -0.112   0.707  1.00  0.00     0.039 A 
HETATM   11  C12 UNL     1      -0.819   0.609   0.732  1.00  0.00    -0.027 A 
BRANCH   9  12
HETATM   12  N2  UNL     1       2.705  -0.392   0.404  1.00  0.00    -0.327 N 
HETATM   13  C4  UNL     1       4.035  -0.037   0.087  1.00  0.00     0.223 C 
HETATM   14  O1  UNL     1       4.334   1.138  -0.238  1.00  0.00    -0.273 OA
HETATM   15  H9  UNL     1       2.622  -1.384   0.648  1.00  0.00     0.169 HD
BRANCH  13  16
HETATM   16  C3  UNL     1       5.152  -1.002   0.111  1.00  0.00     0.133 C 
BRANCH  16  17
HETATM   17  C2  UNL     1       6.456  -0.423  -0.292  1.00  0.00     0.278 C 
BRANCH  17  18
HETATM   18  N1  UNL     1       7.550  -1.349  -0.273  1.00  0.00     0.079 N 
HETATM   19  C1  UNL     1       7.452  -2.375  -1.284  1.00  0.00     0.306 C 
HETATM   20  H4  UNL     1       8.479  -0.925  -0.205  1.00  0.00     0.315 HD
ENDBRANCH  17  18
ENDBRANCH  16  17
ENDBRANCH  13  16
ENDBRANCH   9  12
BRANCH  11  21
HETATM   21  C13 UNL     1      -2.065  -0.171   1.060  1.00  0.00     0.045 C 
BRANCH  21  22
HETATM   22  C14 UNL     1      -2.843  -0.450  -0.219  1.00  0.00     0.043 C 
BRANCH  22  23
HETATM   23  C15 UNL     1      -4.077  -1.225   0.062  1.00  0.00    -0.056 A 
HETATM   24  C16 UNL     1      -5.324  -0.720   0.348  1.00  0.00     0.010 A 
HETATM   25  C17 UNL     1      -6.350  -1.610   0.581  1.00  0.00     0.044 A 
HETATM   26  C18 UNL     1      -6.203  -2.976   0.545  1.00  0.00     0.138 A 
HETATM   27  F1  UNL     1      -7.265  -3.788   0.786  1.00  0.00    -0.204 F 
HETATM   28  C19 UNL     1      -4.967  -3.491   0.262  1.00  0.00     0.073 A 
HETATM   29 CL1  UNL     1      -4.720  -5.216   0.203  1.00  0.00    -0.081 Cl
HETATM   30  C20 UNL     1      -3.931  -2.616   0.027  1.00  0.00     0.034 A 
ENDBRANCH  22  23
ENDBRANCH  21  22
ENDBRANCH  11  21
ENDBRANCH   5   6
ENDBRANCH   1   4
TORSDOF 9
