REMARK  3 active torsions:
REMARK  status: ('A' for Active; 'I' for Inactive)
REMARK    1  A    between atoms: N1_2  and  C2_3 
REMARK    2  A    between atoms: C9_12  and  N4_13 
REMARK    3  A    between atoms: N4_13  and  C10_14 
ROOT
HETATM    1  C2  UNL     1      -1.670   0.196  -0.095  1.00  0.00     0.283 A 
HETATM    2  C3  UNL     1      -1.917   0.576  -1.484  1.00  0.00    -0.032 A 
HETATM    3  C4  UNL     1      -1.160   1.466  -2.430  1.00  0.00     0.047 C 
HETATM    4  C5  UNL     1      -3.051  -0.055  -1.857  1.00  0.00     0.008 A 
HETATM    5  C6  UNL     1      -3.611  -0.902  -0.777  1.00  0.00     0.031 A 
HETATM    6  C7  UNL     1      -2.746  -0.732   0.228  1.00  0.00     0.086 A 
HETATM    7  N2  UNL     1      -2.682  -1.600   1.397  1.00  0.00    -0.243 NA
HETATM    8  C8  UNL     1      -1.460  -1.706   1.939  1.00  0.00     0.235 C 
HETATM    9  N3  UNL     1      -0.311  -0.973   1.451  1.00  0.00    -0.225 NA
HETATM   10  C9  UNL     1      -0.404  -0.096   0.479  1.00  0.00     0.155 C 
ENDROOT
BRANCH  10  11
HETATM   11  N4  UNL     1       0.879   0.413   0.196  1.00  0.00    -0.342 N 
HETATM   12  H11 UNL     1       0.881   1.420  -0.156  1.00  0.00     0.167 HD
BRANCH  11  13
HETATM   13  C10 UNL     1       2.191  -0.125   0.258  1.00  0.00     0.033 A 
HETATM   14  C11 UNL     1       2.664  -0.455  -1.009  1.00  0.00     0.031 A 
HETATM   15  C12 UNL     1       3.936  -0.998  -1.243  1.00  0.00     0.021 A 
HETATM   16  C13 UNL     1       4.751  -1.210  -0.145  1.00  0.00     0.011 A 
HETATM   17 BR1  UNL     1       6.519  -1.948  -0.315  1.00  0.00    -0.051 Br
HETATM   18  C14 UNL     1       4.290  -0.884   1.126  1.00  0.00     0.021 A 
HETATM   19  C15 UNL     1       3.019  -0.342   1.351  1.00  0.00     0.031 A 
ENDBRANCH  11  13
ENDBRANCH  10  11
BRANCH   1  20
HETATM   20  N1  UNL     1      -2.184   1.491   0.586  1.00  0.00     0.107 N 
HETATM   21  C1  UNL     1      -1.987   1.419   1.977  1.00  0.00     0.309 C 
HETATM   22  H4  UNL     1      -1.721   2.290   0.105  1.00  0.00     0.317 HD
ENDBRANCH   1  20
TORSDOF 3
