REMARK  3 active torsions:
REMARK  status: ('A' for Active; 'I' for Inactive)
REMARK    1  A    between atoms: N3_14  and  C11_15 
REMARK       I    between atoms: C17_22  and  N4_23 
REMARK    2  A    between atoms: N4_23  and  C18_24 
REMARK    3  A    between atoms: C18_24  and  C19_25 
ROOT
HETATM    1  C19 UNL     1      -4.384   1.677   1.653  1.00  0.00     0.170 C 
HETATM    2  C20 UNL     1      -4.571   2.367   2.929  1.00  0.00     0.064 C 
HETATM    3  N5  UNL     1      -4.725   2.912   3.950  1.00  0.00    -0.197 NA
ENDROOT
BRANCH   1   4
HETATM    4  C18 UNL     1      -2.969   1.221   1.499  1.00  0.00     0.101 C 
BRANCH   4   5
HETATM    5  N4  UNL     1      -1.785   0.819   1.232  1.00  0.00    -0.260 NA
HETATM    6  C17 UNL     1      -1.351   0.488  -0.077  1.00  0.00     0.311 C 
HETATM    7  N1  UNL     1      -0.593   1.595  -0.622  1.00  0.00    -0.376 N 
HETATM    8  N3  UNL     1      -0.531  -0.711  -0.029  1.00  0.00    -0.341 N 
HETATM    9  C1  UNL     1      -1.280   2.825  -0.705  1.00  0.00     0.147 C 
HETATM   10  C2  UNL     1       0.185   1.287  -1.776  1.00  0.00     0.149 C 
HETATM   11  C3  UNL     1       1.350   2.237  -1.846  1.00  0.00     0.019 C 
HETATM   12  C4  UNL     1       2.631   1.880  -1.824  1.00  0.00     0.165 C 
HETATM   13  O1  UNL     1       3.015   0.554  -1.732  1.00  0.00    -0.251 OA
HETATM   14  N2  UNL     1       4.316   0.144  -1.589  1.00  0.00    -0.276 N 
HETATM   15  C5  UNL     1       4.554   0.188  -0.155  1.00  0.00     0.097 C 
HETATM   16  H8  UNL     1       5.193  -0.180  -2.037  1.00  0.00     0.193 HD
HETATM   17  C6  UNL     1       4.257   0.141   1.159  1.00  0.00     0.061 C 
HETATM   18  C7  UNL     1       3.208  -0.035   2.193  1.00  0.00    -0.020 C 
HETATM   19  C8  UNL     1       1.995  -0.243   2.683  1.00  0.00    -0.028 C 
HETATM   20  C9  UNL     1       0.587  -0.493   2.202  1.00  0.00     0.047 C 
HETATM   21  C10 UNL     1       0.666  -0.558   0.723  1.00  0.00     0.131 C 
BRANCH   8  22
HETATM   22  C11 UNL     1      -0.872  -1.940  -0.652  1.00  0.00     0.034 A 
HETATM   23  C12 UNL     1      -1.893  -2.125  -1.557  1.00  0.00     0.029 A 
HETATM   24  C13 UNL     1      -2.229  -3.318  -2.155  1.00  0.00     0.004 A 
HETATM   25  C14 UNL     1      -1.495  -4.443  -1.836  1.00  0.00     0.024 A 
HETATM   26  C15 UNL     1      -0.465  -4.311  -0.937  1.00  0.00     0.036 A 
HETATM   27 CL1  UNL     1       0.417  -5.774  -0.582  1.00  0.00    -0.084 Cl
HETATM   28  C16 UNL     1      -0.174  -3.091  -0.370  1.00  0.00     0.053 A 
ENDBRANCH   8  22
ENDBRANCH   4   5
ENDBRANCH   1   4
TORSDOF 3
