REMARK  6 active torsions:
REMARK  status: ('A' for Active; 'I' for Inactive)
REMARK    1  A    between atoms: N1_2  and  C3_4 
REMARK    2  A    between atoms: C3_4  and  C4_5 
REMARK    3  A    between atoms: C5_6  and  C6_7 
REMARK    4  A    between atoms: C6_7  and  B1_9 
REMARK    5  A    between atoms: B1_9  and  C7_10 
REMARK    6  A    between atoms: C17_22  and  N2_23 
ROOT
HETATM    1  C7  UNL     1      -0.377  -0.264   0.942  1.00  0.00    -0.032 C 
HETATM    2  C8  UNL     1      -1.174   0.173   2.183  1.00  0.00     0.001 C 
HETATM    3  C9  UNL     1      -2.325   0.163   1.456  1.00  0.00     0.015 C 
HETATM    4  C10 UNL     1      -3.433   0.088   0.515  1.00  0.00    -0.014 C 
HETATM    5  C11 UNL     1      -4.812   0.510   0.387  1.00  0.00    -0.025 A 
HETATM    6  C12 UNL     1      -5.719  -0.386  -0.192  1.00  0.00     0.015 A 
HETATM    7  C13 UNL     1      -7.050   0.013  -0.328  1.00  0.00     0.045 A 
HETATM    8  C14 UNL     1      -7.394   1.269   0.117  1.00  0.00     0.138 A 
HETATM    9  F1  UNL     1      -8.687   1.722   0.012  1.00  0.00    -0.204 F 
HETATM   10  C15 UNL     1      -6.522   2.182   0.695  1.00  0.00     0.073 A 
HETATM   11 CL1  UNL     1      -7.058   3.762   1.233  1.00  0.00    -0.081 Cl
HETATM   12  C16 UNL     1      -5.203   1.756   0.816  1.00  0.00     0.039 A 
HETATM   13  C17 UNL     1      -2.672  -0.584  -0.292  1.00  0.00     0.015 C 
HETATM   14  C18 UNL     1      -1.616  -0.893   0.599  1.00  0.00     0.046 C 
ENDROOT
BRANCH   1  15
HETATM   15  B1  UNL     1       0.765  -1.271   1.343  1.00  0.00     0.252 B 
HETATM   16  H11 UNL     1       0.486  -2.203   2.008  1.00  0.00    -0.017 HD
BRANCH  15  17
HETATM   17  C6  UNL     1       2.207  -1.184   0.765  1.00  0.00     0.095 C 
HETATM   18  O1  UNL     1       2.179  -1.563  -0.425  1.00  0.00    -0.308 OA
BRANCH  17  19
HETATM   19  C5  UNL     1       3.286  -0.722   1.592  1.00  0.00     0.033 C 
HETATM   20  C4  UNL     1       4.523  -0.630   1.129  1.00  0.00    -0.005 C 
BRANCH  20  21
HETATM   21  C3  UNL     1       5.196  -0.897  -0.148  1.00  0.00     0.143 C 
BRANCH  21  22
HETATM   22  N1  UNL     1       5.831   0.193  -0.758  1.00  0.00    -0.418 N 
HETATM   23  C1  UNL     1       6.489  -0.032  -1.978  1.00  0.00     0.142 C 
HETATM   24  C2  UNL     1       5.648   1.497  -0.277  1.00  0.00     0.142 C 
ENDBRANCH  21  22
ENDBRANCH  20  21
ENDBRANCH  17  19
ENDBRANCH  15  17
ENDBRANCH   1  15
BRANCH  13  25
HETATM   25  N2  UNL     1      -2.504  -1.241  -1.519  1.00  0.00    -0.402 N 
HETATM   26  H17 UNL     1      -2.221  -2.040  -2.092  1.00  0.00     0.156 HD
HETATM   27  H18 UNL     1      -2.855  -0.542  -2.237  1.00  0.00     0.156 HD
ENDBRANCH  13  25
TORSDOF 6
