REMARK  8 active torsions:
REMARK  status: ('A' for Active; 'I' for Inactive)
REMARK    1  A    between atoms: C2_2  and  N4_22 
REMARK    2  A    between atoms: C3_3  and  C4_4 
REMARK    3  A    between atoms: C7_7  and  N1_8 
REMARK    4  A    between atoms: N1_8  and  C8_9 
REMARK    5  A    between atoms: N4_22  and  C17_23 
REMARK    6  A    between atoms: C17_23  and  C19_25 
REMARK    7  A    between atoms: C20_26  and  C21_27 
REMARK    8  A    between atoms: C21_27  and  N5_28 
ROOT
HETATM    1  C4  UNL     1      -2.071  -2.138  -0.384  1.00  0.00     0.012 C 
HETATM    2  C5  UNL     1      -3.230  -1.464  -0.257  1.00  0.00     0.036 A 
HETATM    3  C6  UNL     1      -3.087   0.024  -0.057  1.00  0.00     0.117 A 
HETATM    4  C7  UNL     1      -4.388   0.670   0.199  1.00  0.00     0.037 A 
HETATM    5  C14 UNL     1      -5.537   0.056   0.150  1.00  0.00     0.085 A 
HETATM    6  C15 UNL     1      -6.803   0.735   0.407  1.00  0.00     0.103 C 
HETATM    7  N2  UNL     1      -7.804   1.262   0.624  1.00  0.00    -0.191 NA
HETATM    8  C16 UNL     1      -5.632  -1.373  -0.115  1.00  0.00     0.141 A 
HETATM    9  N3  UNL     1      -4.538  -1.982  -0.288  1.00  0.00    -0.264 NA
ENDROOT
BRANCH   4  10
HETATM   10  N1  UNL     1      -4.454   2.031   0.531  1.00  0.00    -0.358 N 
HETATM   11  H8  UNL     1      -4.527   2.104   1.566  1.00  0.00     0.166 HD
BRANCH  10  12
HETATM   12  C8  UNL     1      -4.434   3.149  -0.306  1.00  0.00     0.034 A 
HETATM   13  C9  UNL     1      -4.360   3.082  -1.680  1.00  0.00     0.032 A 
HETATM   14  C10 UNL     1      -4.324   4.157  -2.557  1.00  0.00     0.046 A 
HETATM   15  C11 UNL     1      -4.367   5.407  -1.979  1.00  0.00     0.138 A 
HETATM   16  F1  UNL     1      -4.330   6.494  -2.785  1.00  0.00    -0.204 F 
HETATM   17  C12 UNL     1      -4.442   5.531  -0.591  1.00  0.00     0.074 A 
HETATM   18 CL1  UNL     1      -4.486   7.151   0.062  1.00  0.00    -0.081 Cl
HETATM   19  C13 UNL     1      -4.475   4.433   0.237  1.00  0.00     0.056 A 
ENDBRANCH  10  12
ENDBRANCH   4  10
BRANCH   1  20
HETATM   20  C3  UNL     1      -1.090  -1.062  -0.272  1.00  0.00     0.068 C 
HETATM   21  C2  UNL     1       0.248  -0.842  -0.274  1.00  0.00    -0.013 C 
HETATM   22  C1  UNL     1       0.579   0.580  -0.106  1.00  0.00     0.064 C 
BRANCH  21  23
HETATM   23  N4  UNL     1       1.610  -1.391  -0.371  1.00  0.00    -0.389 N 
HETATM   24  H13 UNL     1       1.959  -1.586  -1.336  1.00  0.00     0.159 HD
BRANCH  23  25
HETATM   25  C17 UNL     1       2.326  -1.601   0.901  1.00  0.00     0.100 C 
HETATM   26  C18 UNL     1       1.465  -2.472   1.804  1.00  0.00     0.036 C 
BRANCH  25  27
HETATM   27  C19 UNL     1       3.565  -2.327   0.508  1.00  0.00    -0.005 C 
HETATM   28  C20 UNL     1       4.665  -1.746   0.043  1.00  0.00     0.001 C 
BRANCH  28  29
HETATM   29  C21 UNL     1       5.897  -2.457  -0.348  1.00  0.00     0.298 C 
BRANCH  29  30
HETATM   30  N5  UNL     1       7.041  -2.058   0.398  1.00  0.00     0.083 N 
HETATM   31  C22 UNL     1       7.440  -0.704   0.110  1.00  0.00     0.309 C 
HETATM   32  C23 UNL     1       6.987  -2.255   1.808  1.00  0.00     0.309 C 
ENDBRANCH  29  30
ENDBRANCH  28  29
ENDBRANCH  25  27
ENDBRANCH  23  25
ENDBRANCH  21  23
ENDBRANCH   1  20
TORSDOF 8
