REMARK  10 active torsions:
REMARK  status: ('A' for Active; 'I' for Inactive)
REMARK    1  A    between atoms: C2_2  and  O1_3 
REMARK    2  A    between atoms: O1_3  and  C3_4 
REMARK    3  A    between atoms: C7_9  and  C8_10 
REMARK    4  A    between atoms: C8_10  and  N2_11 
REMARK    5  A    between atoms: C9_12  and  N3_13 
REMARK    6  A    between atoms: N3_13  and  C10_14 
REMARK    7  A    between atoms: C10_14  and  C11_15 
REMARK    8  A    between atoms: C12_16  and  C13_18 
REMARK    9  A    between atoms: C16_22  and  N4_23 
REMARK   10  A    between atoms: N4_23  and  C17_24 
ROOT
HETATM    1  C17 UNL     1       3.042   3.329  -0.158  1.00  0.00     0.156 C 
HETATM    2  C18 UNL     1       2.748   4.120   1.090  1.00  0.00     0.410 C 
HETATM    3  O2  UNL     1       2.478   4.707   2.108  1.00  0.00    -0.428 OA
ENDROOT
BRANCH   1   4
HETATM    4  N4  UNL     1       2.407   2.079  -0.160  1.00  0.00    -0.385 N 
HETATM    5  H19 UNL     1       1.493   2.636  -0.111  1.00  0.00     0.159 HD
BRANCH   4   6
HETATM    6  C16 UNL     1       1.761   0.821  -0.161  1.00  0.00     0.062 A 
HETATM    7  C3  UNL     1       2.826  -0.105  -0.222  1.00  0.00     0.097 A 
HETATM    8  C4  UNL     1       2.550  -1.482  -0.238  1.00  0.00     0.071 A 
HETATM    9  C5  UNL     1       1.215  -1.808  -0.190  1.00  0.00     0.071 A 
HETATM   10  N1  UNL     1       0.846  -3.084  -0.200  1.00  0.00    -0.260 NA
HETATM   11  C14 UNL     1       0.171  -0.920  -0.131  1.00  0.00     0.022 A 
HETATM   12  C6  UNL     1      -0.438  -3.473  -0.155  1.00  0.00     0.128 A 
HETATM   13  C7  UNL     1      -1.473  -2.570  -0.095  1.00  0.00     0.014 A 
HETATM   14  C9  UNL     1      -1.169  -1.224  -0.082  1.00  0.00     0.050 A 
HETATM   15  C15 UNL     1       0.465   0.413  -0.117  1.00  0.00     0.048 A 
BRANCH   7  16
HETATM   16  O1  UNL     1       4.195   0.151  -0.272  1.00  0.00    -0.349 OA
BRANCH  16  17
HETATM   17  C2  UNL     1       5.225  -0.768  -0.327  1.00  0.00     0.171 C 
HETATM   18  C1  UNL     1       5.339  -1.722   0.816  1.00  0.00     0.034 C 
ENDBRANCH  16  17
ENDBRANCH   7  16
BRANCH  13  19
HETATM   19  C8  UNL     1      -2.884  -3.046  -0.046  1.00  0.00     0.309 C 
BRANCH  19  20
HETATM   20  N2  UNL     1      -3.489  -2.862  -1.344  1.00  0.00     0.082 N 
HETATM   21  H10 UNL     1      -2.917  -2.217  -1.937  1.00  0.00     0.313 HD
HETATM   22  H11 UNL     1      -3.578  -3.795  -1.801  1.00  0.00     0.313 HD
ENDBRANCH  19  20
ENDBRANCH  13  19
BRANCH  14  23
HETATM   23  N3  UNL     1      -2.174  -0.221  -0.018  1.00  0.00    -0.385 N 
HETATM   24  H12 UNL     1      -2.210  -0.157   1.039  1.00  0.00     0.160 HD
BRANCH  23  25
HETATM   25  C10 UNL     1      -2.994   0.577  -0.874  1.00  0.00     0.148 C 
BRANCH  25  26
HETATM   26  C11 UNL     1      -3.830   1.467  -0.025  1.00  0.00     0.014 C 
HETATM   27  C12 UNL     1      -5.145   1.567   0.077  1.00  0.00     0.038 C 
HETATM   28 CL1  UNL     1      -6.149   0.523  -0.908  1.00  0.00    -0.087 Cl
BRANCH  27  29
HETATM   29  C13 UNL     1      -5.674   2.560   1.020  1.00  0.00     0.273 C 
HETATM   30  F1  UNL     1      -4.655   3.226   1.646  1.00  0.00    -0.250 F 
ENDBRANCH  27  29
ENDBRANCH  25  26
ENDBRANCH  23  25
ENDBRANCH  14  23
ENDBRANCH   4   6
ENDBRANCH   1   4
TORSDOF 10
