REMARK  3 active torsions:
REMARK  status: ('A' for Active; 'I' for Inactive)
REMARK    1  A    between atoms: N1_2  and  C2_3 
REMARK    2  A    between atoms: C7_10  and  N4_11 
REMARK    3  A    between atoms: N4_11  and  C8_12 
ROOT
HETATM    1  C2  UNL     1      -2.348   0.442   0.020  1.00  0.00     0.028 A 
HETATM    2  C3  UNL     1      -3.105  -0.377   0.819  1.00  0.00     0.031 A 
HETATM    3  C4  UNL     1      -2.693  -1.655   1.216  1.00  0.00     0.035 A 
HETATM    4  C5  UNL     1      -1.470  -2.049   0.754  1.00  0.00     0.072 A 
HETATM    5  N2  UNL     1      -1.048  -3.269   1.109  1.00  0.00    -0.241 NA
HETATM    6  C6  UNL     1       0.151  -3.726   0.683  1.00  0.00     0.236 A 
HETATM    7  N3  UNL     1       0.968  -2.997  -0.104  1.00  0.00    -0.224 NA
HETATM    8  C7  UNL     1       0.568  -1.767  -0.475  1.00  0.00     0.142 A 
HETATM    9  C14 UNL     1      -0.653  -1.288  -0.049  1.00  0.00     0.041 A 
HETATM   10  C15 UNL     1      -1.134  -0.046  -0.390  1.00  0.00     0.046 A 
ENDROOT
BRANCH   8  11
HETATM   11  N4  UNL     1       1.295  -0.858  -1.308  1.00  0.00    -0.340 N 
HETATM   12  H8  UNL     1       1.054  -0.875  -2.301  1.00  0.00     0.167 HD
BRANCH  11  13
HETATM   13  C8  UNL     1       2.291   0.021  -0.792  1.00  0.00     0.035 A 
HETATM   14  C9  UNL     1       2.884   0.938  -1.653  1.00  0.00     0.029 A 
HETATM   15  C10 UNL     1       3.851   1.769  -1.133  1.00  0.00     0.004 A 
HETATM   16  C11 UNL     1       4.248   1.722   0.207  1.00  0.00     0.019 A 
HETATM   17  C12 UNL     1       3.639   0.798   1.035  1.00  0.00     0.013 A 
HETATM   18 BR1  UNL     1       4.158   0.699   2.882  1.00  0.00    -0.051 Br
HETATM   19  C13 UNL     1       2.650  -0.071   0.559  1.00  0.00     0.048 A 
ENDBRANCH  11  13
ENDBRANCH   8  11
BRANCH   1  20
HETATM   20  N1  UNL     1      -2.765   1.738  -0.387  1.00  0.00    -0.394 N 
HETATM   21  C1  UNL     1      -4.020   2.363  -0.034  1.00  0.00     0.146 C 
HETATM   22  H4  UNL     1      -2.130   2.305  -0.996  1.00  0.00     0.159 HD
ENDBRANCH   1  20
TORSDOF 3
