REMARK  6 active torsions:
REMARK  status: ('A' for Active; 'I' for Inactive)
REMARK    1  A    between atoms: C2_2  and  O1_3 
REMARK    2  A    between atoms: O1_3  and  C3_4 
REMARK    3  A    between atoms: C3_4  and  C4_5 
REMARK    4  A    between atoms: C4_5  and  C5_7 
REMARK    5  A    between atoms: C5_7  and  C6_8 
REMARK    6  A    between atoms: C6_8  and  C7_9 
ROOT
HETATM    1  C7  UNL     1      -0.485   0.421  -0.156  1.00  0.00    -0.051 C 
HETATM    2  C8  UNL     1      -1.269   1.684  -0.198  1.00  0.00     0.027 C 
HETATM    3  C9  UNL     1      -2.529   2.012  -0.009  1.00  0.00     0.040 C 
HETATM    4  C10 UNL     1      -3.220   3.261  -0.044  1.00  0.00     0.097 C 
HETATM    5  N1  UNL     1      -3.754   4.265  -0.070  1.00  0.00    -0.192 NA
HETATM    6  C11 UNL     1      -3.364   0.789   0.022  1.00  0.00     0.169 C 
HETATM    7  N2  UNL     1      -3.827   0.484   1.331  1.00  0.00    -0.389 N 
HETATM    8  C12 UNL     1      -4.496  -0.761   0.957  1.00  0.00     0.001 C 
HETATM    9  C13 UNL     1      -5.865  -0.579   1.408  1.00  0.00     0.068 C 
HETATM   10  C14 UNL     1      -4.049  -1.868   0.342  1.00  0.00     0.027 C 
HETATM   11  C15 UNL     1      -2.768  -2.325  -0.197  1.00  0.00     0.040 C 
HETATM   12  C16 UNL     1      -1.472  -1.958  -0.326  1.00  0.00     0.098 C 
HETATM   13  F1  UNL     1      -0.529  -2.727  -0.966  1.00  0.00    -0.210 F 
HETATM   14  C17 UNL     1      -0.738  -0.895   0.330  1.00  0.00     0.108 C 
HETATM   15  H13 UNL     1      -3.814   0.845   2.300  1.00  0.00     0.159 HD
ENDROOT
BRANCH   1  16
HETATM   16  C6  UNL     1       0.764   0.785  -0.471  1.00  0.00     0.009 C 
BRANCH  16  17
HETATM   17  C5  UNL     1       1.990   0.048  -0.606  1.00  0.00     0.022 C 
BRANCH  17  18
HETATM   18  C4  UNL     1       3.268   0.225  -0.893  1.00  0.00     0.035 C 
HETATM   19 CL1  UNL     1       3.354   1.944  -1.182  1.00  0.00    -0.087 Cl
BRANCH  18  20
HETATM   20  C3  UNL     1       4.253  -0.853  -0.926  1.00  0.00     0.218 C 
BRANCH  20  21
HETATM   21  O1  UNL     1       5.293  -0.710  -0.050  1.00  0.00    -0.386 OA
BRANCH  21  22
HETATM   22  C2  UNL     1       6.069   0.421  -0.222  1.00  0.00     0.163 C 
HETATM   23  C1  UNL     1       7.165   0.367   0.848  1.00  0.00     0.033 C 
ENDBRANCH  21  22
ENDBRANCH  20  21
ENDBRANCH  18  20
ENDBRANCH  17  18
ENDBRANCH  16  17
ENDBRANCH   1  16
TORSDOF 6
