REMARK  6 active torsions:
REMARK  status: ('A' for Active; 'I' for Inactive)
REMARK    1  A    between atoms: C3_3  and  C4_4 
REMARK    2  A    between atoms: C11_13  and  N3_14 
REMARK    3  A    between atoms: N3_14  and  C12_15 
REMARK    4  A    between atoms: C18_23  and  O1_24 
REMARK    5  A    between atoms: O1_24  and  C19_25 
REMARK    6  A    between atoms: C19_25  and  C20_26 
ROOT
HETATM    1  C4  UNL     1       1.730   0.840  -0.316  1.00  0.00     0.185 C 
HETATM    2  C5  UNL     1       1.915   0.696  -1.767  1.00  0.00     0.100 C 
HETATM    3  N1  UNL     1       2.052   0.597  -2.933  1.00  0.00    -0.194 NA
HETATM    4  N2  UNL     1       0.403   1.437  -0.146  1.00  0.00    -0.263 NA
HETATM    5  C6  UNL     1      -0.431   0.865   0.675  1.00  0.00     0.036 C 
HETATM    6  C7  UNL     1       0.393   0.806   1.950  1.00  0.00     0.068 C 
HETATM    7  C8  UNL     1       1.108  -0.546   1.689  1.00  0.00     0.046 C 
HETATM    8  C9  UNL     1      -0.086  -1.466   1.521  1.00  0.00    -0.021 C 
HETATM    9  C10 UNL     1      -1.388  -1.146   1.461  1.00  0.00     0.000 C 
HETATM   10  C11 UNL     1      -1.780   0.219   0.948  1.00  0.00     0.152 C 
HETATM   11  C18 UNL     1       1.847  -0.488   0.381  1.00  0.00     0.178 C 
ENDROOT
BRANCH   1  12
HETATM   12  C3  UNL     1       2.780   1.747   0.214  1.00  0.00     0.020 C 
HETATM   13  C2  UNL     1       2.938   3.012  -0.111  1.00  0.00    -0.031 C 
HETATM   14  C1  UNL     1       3.957   4.000   0.365  1.00  0.00     0.036 C 
ENDBRANCH   1  12
BRANCH  11  15
HETATM   15  O1  UNL     1       3.194  -0.731   0.498  1.00  0.00    -0.376 OA
BRANCH  15  16
HETATM   16  C19 UNL     1       3.751  -1.789  -0.117  1.00  0.00     0.214 C 
BRANCH  16  17
HETATM   17  C20 UNL     1       3.657  -1.882  -1.576  1.00  0.00     0.106 C 
HETATM   18  N4  UNL     1       4.546  -1.321  -2.344  1.00  0.00    -0.314 NA
HETATM   19  H20 UNL     1       4.487  -1.381  -3.367  1.00  0.00     0.185 HD
ENDBRANCH  16  17
ENDBRANCH  15  16
ENDBRANCH  11  15
BRANCH  10  20
HETATM   20  N3  UNL     1      -2.572   0.155  -0.247  1.00  0.00    -0.377 N 
HETATM   21  H12 UNL     1      -2.153   0.530  -1.128  1.00  0.00     0.160 HD
BRANCH  20  22
HETATM   22  C12 UNL     1      -3.870  -0.382  -0.291  1.00  0.00     0.030 A 
HETATM   23  C13 UNL     1      -4.517  -0.898   0.804  1.00  0.00     0.032 A 
HETATM   24  C14 UNL     1      -5.793  -1.419   0.722  1.00  0.00     0.046 A 
HETATM   25  C15 UNL     1      -6.464  -1.439  -0.463  1.00  0.00     0.138 A 
HETATM   26  F1  UNL     1      -7.730  -1.942  -0.600  1.00  0.00    -0.204 F 
HETATM   27  C16 UNL     1      -5.867  -0.932  -1.610  1.00  0.00     0.074 A 
HETATM   28 CL1  UNL     1      -6.681  -0.929  -3.171  1.00  0.00    -0.081 Cl
HETATM   29  C17 UNL     1      -4.595  -0.429  -1.456  1.00  0.00     0.056 A 
ENDBRANCH  20  22
ENDBRANCH  10  20
TORSDOF 6
