REMARK  6 active torsions:
REMARK  status: ('A' for Active; 'I' for Inactive)
REMARK    1  A    between atoms: O1_2  and  C2_3 
REMARK    2  A    between atoms: C2_3  and  C3_4 
REMARK    3  A    between atoms: C4_5  and  C5_6 
REMARK       I    between atoms: C5_6  and  N1_8 
REMARK    4  A    between atoms: N1_8  and  C6_9 
REMARK    5  A    between atoms: C9_12  and  N2_13 
REMARK    6  A    between atoms: C20_27  and  O3_28 
ROOT
HETATM    1  C6  UNL     1       0.595  -0.930  -0.051  1.00  0.00     0.070 A 
HETATM    2  C7  UNL     1      -0.677  -0.443   0.162  1.00  0.00     0.048 A 
HETATM    3  C8  UNL     1      -1.697  -1.361   0.005  1.00  0.00     0.024 A 
HETATM    4  C9  UNL     1      -2.977  -0.885   0.219  1.00  0.00     0.073 A 
HETATM    5  C15 UNL     1      -4.047  -1.782   0.075  1.00  0.00     0.090 A 
HETATM    6  C16 UNL     1      -5.420  -1.341   0.287  1.00  0.00     0.103 C 
HETATM    7  N3  UNL     1      -6.523  -1.002   0.451  1.00  0.00    -0.191 NA
HETATM    8  C17 UNL     1      -3.801  -3.115  -0.277  1.00  0.00     0.142 A 
HETATM    9  N4  UNL     1      -2.537  -3.544  -0.479  1.00  0.00    -0.259 NA
HETATM   10  C18 UNL     1      -1.506  -2.685  -0.341  1.00  0.00     0.071 A 
HETATM   11  C19 UNL     1      -0.207  -3.106  -0.540  1.00  0.00     0.071 A 
HETATM   12  C20 UNL     1       0.870  -2.257  -0.404  1.00  0.00     0.097 A 
ENDROOT
BRANCH   4  13
HETATM   13  N2  UNL     1      -3.365   0.429   0.564  1.00  0.00    -0.330 N 
HETATM   14  C10 UNL     1      -4.191   0.987  -0.486  1.00  0.00     0.093 A 
HETATM   15  C11 UNL     1      -4.662   2.233  -0.345  1.00  0.00    -0.004 A 
HETATM   16  C12 UNL     1      -4.401   3.108   0.827  1.00  0.00     0.076 A 
HETATM   17  C13 UNL     1      -3.545   2.438   1.840  1.00  0.00     0.008 A 
HETATM   18 BR1  UNL     1      -3.092   3.396   3.424  1.00  0.00    -0.054 Br
HETATM   19  C14 UNL     1      -3.072   1.210   1.717  1.00  0.00     0.111 A 
ENDBRANCH   4  13
BRANCH   1  20
HETATM   20  N1  UNL     1       1.727  -0.076   0.084  1.00  0.00    -0.314 N 
HETATM   21  C5  UNL     1       2.527   0.792  -0.662  1.00  0.00     0.301 C 
HETATM   22  O2  UNL     1       2.365   1.051  -1.889  1.00  0.00    -0.258 OA
HETATM   23  H6  UNL     1       1.935  -0.235   1.115  1.00  0.00     0.170 HD
BRANCH  21  24
HETATM   24  C4  UNL     1       3.623   1.443   0.026  1.00  0.00    -0.003 C 
HETATM   25  C3  UNL     1       4.552   1.981   0.584  1.00  0.00    -0.070 C 
BRANCH  25  26
HETATM   26  C2  UNL     1       5.693   2.614   1.258  1.00  0.00     0.261 C 
BRANCH  26  27
HETATM   27  O1  UNL     1       6.903   2.056   0.915  1.00  0.00    -0.384 OA
HETATM   28  C1  UNL     1       7.169   2.161  -0.454  1.00  0.00     0.202 C 
ENDBRANCH  26  27
ENDBRANCH  25  26
ENDBRANCH  21  24
ENDBRANCH   1  20
BRANCH  12  29
HETATM   29  O3  UNL     1       2.180  -2.676  -0.603  1.00  0.00    -0.354 OA
HETATM   30  C21 UNL     1       2.378  -4.034  -0.956  1.00  0.00     0.210 C 
ENDBRANCH  12  29
TORSDOF 6
