REMARK  4 active torsions:
REMARK  status: ('A' for Active; 'I' for Inactive)
REMARK    1  A    between atoms: C3_3  and  C4_4 
REMARK       I    between atoms: C4_4  and  N1_6 
REMARK    2  A    between atoms: N1_6  and  C5_7 
REMARK    3  A    between atoms: C19_25  and  O2_26 
REMARK    4  A    between atoms: O2_26  and  C20_27 
ROOT
HETATM    1  C5  UNL     1       0.417   0.276  -0.997  1.00  0.00     0.066 C 
HETATM    2  C6  UNL     1      -0.308  -0.749  -0.498  1.00  0.00     0.030 C 
HETATM    3  C7  UNL     1      -1.128  -1.668   0.319  1.00  0.00     0.102 C 
HETATM    4  C8  UNL     1      -0.829  -1.724   1.733  1.00  0.00     0.044 C 
HETATM    5  C9  UNL     1      -1.274  -0.466   2.567  1.00  0.00     0.049 A 
HETATM    6  C10 UNL     1      -2.029   0.270   1.688  1.00  0.00     0.050 A 
HETATM    7  C11 UNL     1      -3.107  -0.562   2.157  1.00  0.00     0.027 C 
HETATM    8  C12 UNL     1      -3.911  -1.524   2.394  1.00  0.00     0.110 C 
HETATM    9  F1  UNL     1      -4.991  -1.414   3.186  1.00  0.00    -0.209 F 
HETATM   10  C13 UNL     1      -3.892  -2.945   1.790  1.00  0.00     0.079 C 
HETATM   11 CL1  UNL     1      -4.951  -4.141   2.493  1.00  0.00    -0.117 Cl
HETATM   12  C14 UNL     1      -3.376  -3.933   0.948  1.00  0.00     0.104 C 
HETATM   13  C15 UNL     1      -2.213  -3.893  -0.020  1.00  0.00     0.122 C 
HETATM   14  N2  UNL     1      -1.679  -2.712  -0.418  1.00  0.00    -0.413 N 
HETATM   15  C16 UNL     1      -0.557   0.614   2.079  1.00  0.00     0.239 A 
HETATM   16  N3  UNL     1       0.553   0.153   2.951  1.00  0.00     0.321 N 
HETATM   17  C17 UNL     1      -0.619  -0.461   3.940  1.00  0.00     0.329 C 
HETATM   18  C18 UNL     1       0.165   1.673   1.363  1.00  0.00     0.058 C 
HETATM   19  C19 UNL     1       0.335   1.121   0.243  1.00  0.00     0.094 C 
HETATM   20  H15 UNL     1      -2.064  -2.397  -1.366  1.00  0.00     0.153 HD
ENDROOT
BRANCH   1  21
HETATM   21  N1  UNL     1       1.081   0.488  -2.227  1.00  0.00    -0.321 N 
HETATM   22  C4  UNL     1       2.455   0.652  -2.392  1.00  0.00     0.245 C 
HETATM   23  O1  UNL     1       3.024   0.583  -1.261  1.00  0.00    -0.268 OA
HETATM   24  H6  UNL     1       0.401   0.506  -3.031  1.00  0.00     0.169 HD
BRANCH  22  25
HETATM   25  C3  UNL     1       3.063   0.867  -3.690  1.00  0.00     0.070 C 
HETATM   26  C2  UNL     1       4.357   1.030  -3.905  1.00  0.00    -0.026 C 
HETATM   27  C1  UNL     1       5.205   0.970  -2.658  1.00  0.00     0.036 C 
ENDBRANCH  22  25
ENDBRANCH   1  21
BRANCH  19  28
HETATM   28  O2  UNL     1       1.056   2.185  -0.371  1.00  0.00    -0.349 OA
BRANCH  28  29
HETATM   29  C20 UNL     1       0.387   3.359  -0.759  1.00  0.00     0.171 C 
HETATM   30  C21 UNL     1       1.346   4.413  -1.267  1.00  0.00     0.034 C 
ENDBRANCH  28  29
ENDBRANCH  19  28
TORSDOF 4
