REMARK  8 active torsions:
REMARK  status: ('A' for Active; 'I' for Inactive)
REMARK    1  A    between atoms: O1_2  and  C2_3 
REMARK    2  A    between atoms: N1_7  and  C6_8 
REMARK    3  A    between atoms: C6_8  and  C7_9 
REMARK    4  A    between atoms: C7_9  and  N2_10 
REMARK    5  A    between atoms: N2_10  and  C8_11 
REMARK    6  A    between atoms: C8_11  and  N3_12 
REMARK    7  A    between atoms: N3_12  and  C9_13 
REMARK    8  A    between atoms: C17_22  and  O2_23 
ROOT
HETATM    1  C7  UNL     1       0.643  -0.680   0.556  1.00  0.00    -0.001 C 
ENDROOT
BRANCH   1   2
HETATM    2  C6  UNL     1      -0.253  -0.684   1.531  1.00  0.00     0.193 C 
BRANCH   2   3
HETATM    3  N1  UNL     1      -1.455  -1.355   1.112  1.00  0.00    -0.256 NA
HETATM    4  C5  UNL     1      -2.378  -0.620   0.587  1.00  0.00     0.041 A 
HETATM    5  C4  UNL     1      -2.118   0.846   0.465  1.00  0.00     0.089 A 
HETATM    6  C16 UNL     1      -3.601  -1.291   0.158  1.00  0.00     0.066 A 
HETATM    7  C3  UNL     1      -3.259   1.543  -0.149  1.00  0.00     0.019 A 
HETATM    8  C2  UNL     1      -4.383   0.921  -0.542  1.00  0.00     0.098 A 
HETATM    9  C17 UNL     1      -4.553  -0.536  -0.382  1.00  0.00     0.100 A 
BRANCH   8  10
HETATM   10  O1  UNL     1      -5.383   1.701  -1.107  1.00  0.00    -0.353 OA
HETATM   11  C1  UNL     1      -6.214   2.452  -0.250  1.00  0.00     0.210 C 
ENDBRANCH   8  10
BRANCH   9  12
HETATM   12  O2  UNL     1      -5.758  -1.084  -0.823  1.00  0.00    -0.358 OA
HETATM   13  H18 UNL     1      -5.778  -2.025  -1.234  1.00  0.00     0.217 HD
ENDBRANCH   9  12
ENDBRANCH   2   3
ENDBRANCH   1   2
BRANCH   1  14
HETATM   14  N2  UNL     1       1.650  -0.806  -0.239  1.00  0.00    -0.216 NA
BRANCH  14  15
HETATM   15  C8  UNL     1       2.381  -2.071  -0.162  1.00  0.00     0.429 C 
BRANCH  15  16
HETATM   16  N3  UNL     1       3.625  -1.966  -0.856  1.00  0.00     0.116 N 
HETATM   17  H10 UNL     1       4.063  -2.879  -1.032  1.00  0.00     0.319 HD
BRANCH  16  18
HETATM   18  C9  UNL     1       4.498  -0.952  -0.336  1.00  0.00     0.279 A 
HETATM   19  C10 UNL     1       4.849  -1.195   1.092  1.00  0.00     0.013 A 
HETATM   20  C11 UNL     1       4.629  -0.362   2.092  1.00  0.00    -0.002 A 
HETATM   21  C12 UNL     1       3.991   0.926   1.857  1.00  0.00     0.000 A 
HETATM   22  C13 UNL     1       3.622   1.275   0.621  1.00  0.00     0.010 A 
HETATM   23  C14 UNL     1       3.858   0.368  -0.492  1.00  0.00    -0.015 A 
HETATM   24  C15 UNL     1       3.475   0.761  -1.693  1.00  0.00     0.065 C 
HETATM   25 BR1  UNL     1       2.640   2.450  -1.995  1.00  0.00    -0.063 Br
ENDBRANCH  16  18
ENDBRANCH  15  16
ENDBRANCH  14  15
ENDBRANCH   1  14
TORSDOF 8
