REMARK  5 active torsions:
REMARK  status: ('A' for Active; 'I' for Inactive)
REMARK    1  A    between atoms: C3_4  and  S1_5 
REMARK    2  A    between atoms: S1_5  and  C4_6 
REMARK    3  A    between atoms: C4_6  and  C5_7 
REMARK    4  A    between atoms: C9_12  and  N2_13 
REMARK    5  A    between atoms: N2_13  and  C10_14 
ROOT
HETATM    1  N1  UNL     1       5.185  -3.372  -2.029  1.00  0.00    -0.191 NA
HETATM    2  C1  UNL     1       4.336  -2.655  -1.690  1.00  0.00     0.100 C 
HETATM    3  C2  UNL     1       3.265  -1.777  -1.280  1.00  0.00     0.059 A 
HETATM    4  C3  UNL     1       3.544  -0.750  -0.453  1.00  0.00     0.004 A 
HETATM    5  C6  UNL     1       2.485   0.166  -0.010  1.00  0.00     0.088 A 
HETATM    6  C7  UNL     1       1.171  -0.204  -0.583  1.00  0.00    -0.026 A 
HETATM    7  C8  UNL     1       0.202   0.592  -0.216  1.00  0.00     0.013 A 
HETATM    8  C9  UNL     1      -1.225   0.482  -0.620  1.00  0.00     0.146 A 
HETATM    9  C16 UNL     1      -1.413  -0.692  -1.525  1.00  0.00     0.119 A 
HETATM   10  N3  UNL     1      -0.451  -1.474  -1.886  1.00  0.00    -0.262 NA
HETATM   11  C17 UNL     1       0.897  -1.324  -1.471  1.00  0.00     0.064 A 
HETATM   12  C18 UNL     1       1.912  -2.071  -1.802  1.00  0.00     0.056 A 
ENDROOT
BRANCH   4  13
HETATM   13  S1  UNL     1       5.240  -0.580   0.057  1.00  0.00    -0.126 SA
BRANCH  13  14
HETATM   14  C4  UNL     1       5.372   0.775   1.233  1.00  0.00     0.148 C 
BRANCH  14  15
HETATM   15  C5  UNL     1       5.084   2.100   0.639  1.00  0.00     0.241 C 
HETATM   16  O1  UNL     1       6.067   2.572   0.068  1.00  0.00    -0.306 OA
ENDBRANCH  14  15
ENDBRANCH  13  14
ENDBRANCH   4  13
BRANCH   8  17
HETATM   17  N2  UNL     1      -2.115   0.425   0.502  1.00  0.00    -0.377 N 
HETATM   18  H8  UNL     1      -1.564   0.453   1.411  1.00  0.00     0.160 HD
BRANCH  17  19
HETATM   19  C10 UNL     1      -3.526   0.357   0.650  1.00  0.00     0.030 A 
HETATM   20  C11 UNL     1      -4.347   0.339  -0.465  1.00  0.00     0.029 A 
HETATM   21  C12 UNL     1      -5.716   0.263  -0.307  1.00  0.00     0.004 A 
HETATM   22  C13 UNL     1      -6.303   0.204   0.941  1.00  0.00     0.019 A 
HETATM   23  C14 UNL     1      -5.440   0.226   1.994  1.00  0.00     0.013 A 
HETATM   24 BR1  UNL     1      -6.168   0.151   3.759  1.00  0.00    -0.051 Br
HETATM   25  C15 UNL     1      -4.079   0.300   1.911  1.00  0.00     0.048 A 
ENDBRANCH  17  19
ENDBRANCH   8  17
TORSDOF 5
