REMARK  4 active torsions:
REMARK  status: ('A' for Active; 'I' for Inactive)
REMARK    1  A    between atoms: O1_2  and  C2_3 
REMARK    2  A    between atoms: C2_3  and  C3_4 
REMARK    3  A    between atoms: C4_5  and  C5_6 
REMARK       I    between atoms: C5_6  and  N1_8 
REMARK    4  A    between atoms: N1_8  and  C6_9 
ROOT
HETATM    1  C6  UNL     1      -0.011   0.597  -0.698  1.00  0.00     0.114 A 
HETATM    2  C7  UNL     1      -0.527   1.049   0.481  1.00  0.00     0.028 A 
HETATM    3  C8  UNL     1      -0.956   2.168  -0.125  1.00  0.00     0.021 A 
HETATM    4  C9  UNL     1      -1.925   2.713   0.752  1.00  0.00     0.069 A 
HETATM    5  C10 UNL     1      -2.856   3.656   1.100  1.00  0.00     0.052 A 
HETATM    6  C11 UNL     1      -2.929   4.605   0.067  1.00  0.00     0.119 A 
HETATM    7  N2  UNL     1      -2.065   4.293  -0.966  1.00  0.00    -0.260 NA
HETATM    8  C12 UNL     1      -1.313   3.216  -0.870  1.00  0.00     0.069 A 
HETATM    9  C13 UNL     1      -0.722   2.575  -1.934  1.00  0.00     0.043 A 
HETATM   10  C14 UNL     1      -0.118   1.363  -1.900  1.00  0.00    -0.011 A 
HETATM   11  O3  UNL     1       0.493   0.186  -1.972  1.00  0.00     0.000 OA
HETATM   12  C15 UNL     1      -0.122  -1.003  -2.469  1.00  0.00     0.056 C 
HETATM   13  C16 UNL     1      -1.484  -1.213  -1.832  1.00  0.00     0.036 C 
HETATM   14  C17 UNL     1      -1.823  -2.525  -2.474  1.00  0.00     0.096 C 
HETATM   15  N3  UNL     1      -2.111  -3.565  -2.978  1.00  0.00    -0.192 NA
HETATM   16  C18 UNL     1      -2.618  -0.967  -1.039  1.00  0.00     0.010 C 
HETATM   17 BR1  UNL     1      -4.100  -2.228  -0.931  1.00  0.00    -0.054 Br
HETATM   18  C19 UNL     1      -3.110   0.280  -0.396  1.00  0.00     0.094 C 
HETATM   19  C20 UNL     1      -2.876   0.546   1.005  1.00  0.00     0.095 C 
HETATM   20  N4  UNL     1      -2.347   1.608   1.656  1.00  0.00    -0.264 NA
ENDROOT
BRANCH   1  21
HETATM   21  N1  UNL     1       0.474  -0.571   0.036  1.00  0.00    -0.330 N 
HETATM   22  C5  UNL     1       1.838  -0.397   0.467  1.00  0.00     0.297 C 
HETATM   23  O2  UNL     1       2.477   0.662   0.216  1.00  0.00    -0.258 OA
HETATM   24  H6  UNL     1       0.134  -1.466   0.332  1.00  0.00     0.165 HD
BRANCH  22  25
HETATM   25  C4  UNL     1       2.606  -1.386   1.210  1.00  0.00    -0.003 C 
HETATM   26  C3  UNL     1       3.223  -2.214   1.816  1.00  0.00    -0.070 C 
BRANCH  26  27
HETATM   27  C2  UNL     1       3.973  -3.235   2.536  1.00  0.00     0.261 C 
BRANCH  27  28
HETATM   28  O1  UNL     1       5.250  -2.733   2.761  1.00  0.00    -0.384 OA
HETATM   29  C1  UNL     1       5.903  -2.436   1.568  1.00  0.00     0.202 C 
ENDBRANCH  27  28
ENDBRANCH  26  27
ENDBRANCH  22  25
ENDBRANCH   1  21
TORSDOF 4
