REMARK  3 active torsions:
REMARK  status: ('A' for Active; 'I' for Inactive)
REMARK    1  A    between atoms: N1_2  and  C2_3 
REMARK    2  A    between atoms: C7_10  and  N4_11 
REMARK    3  A    between atoms: N4_11  and  C8_12 
ROOT
HETATM    1  C2  UNL     1      -2.349  -0.495   0.890  1.00  0.00     0.056 A 
HETATM    2  C3  UNL     1      -3.273   0.508   0.638  1.00  0.00     0.034 A 
HETATM    3  C4  UNL     1      -3.095   1.457  -0.368  1.00  0.00     0.035 A 
HETATM    4  C5  UNL     1      -1.932   1.369  -1.134  1.00  0.00     0.072 A 
HETATM    5  N2  UNL     1      -1.644   2.229  -2.135  1.00  0.00    -0.241 NA
HETATM    6  C6  UNL     1      -0.488   2.095  -2.849  1.00  0.00     0.236 A 
HETATM    7  N3  UNL     1       0.392   1.094  -2.566  1.00  0.00    -0.224 NA
HETATM    8  C7  UNL     1       0.145   0.211  -1.577  1.00  0.00     0.142 A 
HETATM    9  C14 UNL     1      -1.028   0.348  -0.852  1.00  0.00     0.041 A 
HETATM   10  C15 UNL     1      -1.205  -0.576   0.131  1.00  0.00     0.049 A 
ENDROOT
BRANCH   8  11
HETATM   11  N4  UNL     1       1.138  -0.767  -1.392  1.00  0.00    -0.340 N 
HETATM   12  H6  UNL     1       1.133  -1.645  -1.925  1.00  0.00     0.167 HD
BRANCH  11  13
HETATM   13  C8  UNL     1       2.188  -0.533  -0.433  1.00  0.00     0.035 A 
HETATM   14  C9  UNL     1       3.225  -1.411  -0.268  1.00  0.00     0.029 A 
HETATM   15  C10 UNL     1       4.259  -1.245   0.636  1.00  0.00     0.004 A 
HETATM   16  C11 UNL     1       4.211  -0.115   1.403  1.00  0.00     0.019 A 
HETATM   17  C12 UNL     1       3.180   0.806   1.272  1.00  0.00     0.013 A 
HETATM   18 BR1  UNL     1       3.205   2.360   2.392  1.00  0.00    -0.051 Br
HETATM   19  C13 UNL     1       2.161   0.609   0.357  1.00  0.00     0.048 A 
ENDBRANCH  11  13
ENDBRANCH   8  11
BRANCH   1  20
HETATM   20  N1  UNL     1      -2.744  -1.334   1.962  1.00  0.00    -0.272 NA
HETATM   21  C1  UNL     1      -3.940  -1.844   1.917  1.00  0.00     0.149 C 
ENDBRANCH   1  20
TORSDOF 3
