REMARK  7 active torsions:
REMARK  status: ('A' for Active; 'I' for Inactive)
REMARK    1  A    between atoms: C2_2  and  N1_3 
REMARK    2  A    between atoms: C3_4  and  C4_5 
REMARK    3  A    between atoms: C5_6  and  C6_7 
REMARK       I    between atoms: C6_7  and  N2_9 
REMARK    4  A    between atoms: N2_9  and  C7_10 
REMARK    5  A    between atoms: C12_16  and  C13_17 
REMARK    6  A    between atoms: C13_17  and  N4_18 
REMARK    7  A    between atoms: C14_19  and  C15_20 
ROOT
HETATM    1  C7  UNL     1       0.518   1.198   0.390  1.00  0.00     0.035 C 
HETATM    2  C8  UNL     1      -0.147   2.135   1.040  1.00  0.00     0.031 C 
HETATM    3  C9  UNL     1      -1.551   2.524   1.044  1.00  0.00     0.031 C 
HETATM    4  C10 UNL     1      -2.516   1.762   0.564  1.00  0.00     0.051 C 
HETATM    5  N3  UNL     1      -3.856   2.280   0.637  1.00  0.00    -0.268 NA
HETATM    6  C11 UNL     1      -4.599   1.722  -0.282  1.00  0.00     0.098 C 
HETATM    7  C12 UNL     1      -3.754   0.740  -1.072  1.00  0.00     0.077 C 
HETATM    8  C14 UNL     1      -2.643   0.425  -0.082  1.00  0.00     0.059 C 
HETATM    9  C21 UNL     1      -1.416  -0.037  -0.741  1.00  0.00    -0.003 C 
HETATM   10  C22 UNL     1      -0.126   0.272  -0.556  1.00  0.00     0.027 C 
ENDROOT
BRANCH   1  11
HETATM   11  N2  UNL     1       1.917   1.001   0.550  1.00  0.00    -0.316 N 
HETATM   12  C6  UNL     1       2.659   1.153  -0.644  1.00  0.00     0.301 C 
HETATM   13  O1  UNL     1       2.149   1.437  -1.758  1.00  0.00    -0.258 OA
HETATM   14  H7  UNL     1       2.401   0.761   1.463  1.00  0.00     0.170 HD
BRANCH  12  15
HETATM   15  C5  UNL     1       4.091   0.977  -0.605  1.00  0.00     0.001 C 
HETATM   16  C4  UNL     1       5.308   0.841  -0.582  1.00  0.00    -0.050 C 
BRANCH  16  17
HETATM   17  C3  UNL     1       6.736   0.701  -0.540  1.00  0.00     0.175 C 
HETATM   18  N1  UNL     1       7.287  -0.412  -0.217  1.00  0.00    -0.293 NA
BRANCH  18  19
HETATM   19  C2  UNL     1       6.431  -1.528   0.106  1.00  0.00     0.144 C 
HETATM   20  C1  UNL     1       7.193  -2.683   0.717  1.00  0.00     0.028 C 
ENDBRANCH  18  19
ENDBRANCH  16  17
ENDBRANCH  12  15
ENDBRANCH   1  11
BRANCH   8  21
HETATM   21  C15 UNL     1      -3.158  -0.589   0.874  1.00  0.00    -0.038 A 
HETATM   22  C16 UNL     1      -4.435  -1.051   1.111  1.00  0.00     0.009 A 
HETATM   23  C17 UNL     1      -4.656  -2.017   2.065  1.00  0.00     0.002 A 
HETATM   24  C18 UNL     1      -3.662  -2.582   2.835  1.00  0.00     0.019 A 
HETATM   25  C19 UNL     1      -2.375  -2.110   2.590  1.00  0.00     0.011 A 
HETATM   26 BR1  UNL     1      -1.005  -2.905   3.669  1.00  0.00    -0.051 Br
HETATM   27  C20 UNL     1      -2.118  -1.133   1.632  1.00  0.00     0.027 A 
ENDBRANCH   8  21
BRANCH   7  28
HETATM   28  C13 UNL     1      -3.274   1.435  -2.310  1.00  0.00     0.278 C 
BRANCH  28  29
HETATM   29  N4  UNL     1      -2.458   0.639  -3.175  1.00  0.00     0.079 N 
HETATM   30  H14 UNL     1      -2.992   0.026  -3.818  1.00  0.00     0.312 HD
HETATM   31  H15 UNL     1      -1.831   1.266  -3.727  1.00  0.00     0.312 HD
ENDBRANCH  28  29
ENDBRANCH   7  28
TORSDOF 7
