REMARK  3 active torsions:
REMARK  status: ('A' for Active; 'I' for Inactive)
REMARK    1  A    between atoms: C2_2  and  C3_3 
REMARK       I    between atoms: C3_3  and  N1_5 
REMARK    2  A    between atoms: N1_5  and  C4_6 
REMARK    3  A    between atoms: C9_12  and  C10_13 
ROOT
HETATM    1  C10 UNL     1      -4.725   0.706  -0.302  1.00  0.00     0.166 C 
HETATM    2  C11 UNL     1      -5.712   1.730   0.116  1.00  0.00     0.063 C 
HETATM    3  N3  UNL     1      -6.477   2.544   0.430  1.00  0.00    -0.197 NA
ENDROOT
BRANCH   1   4
HETATM    4  C9  UNL     1      -3.350   1.137   0.119  1.00  0.00    -0.000 A 
HETATM    5  C8  UNL     1      -3.204   2.386   0.673  1.00  0.00     0.127 A 
HETATM    6  N2  UNL     1      -1.966   2.739   1.027  1.00  0.00    -0.260 NA
HETATM    7  C7  UNL     1      -0.891   1.951   0.871  1.00  0.00     0.070 A 
HETATM    8  C6  UNL     1       0.296   2.500   1.304  1.00  0.00     0.035 A 
HETATM    9  C13 UNL     1      -0.960   0.680   0.319  1.00  0.00     0.033 A 
HETATM   10  C5  UNL     1       1.440   1.702   1.158  1.00  0.00     0.033 A 
HETATM   11  C4  UNL     1       1.367   0.412   0.596  1.00  0.00     0.046 A 
HETATM   12  C14 UNL     1       0.169  -0.098   0.177  1.00  0.00     0.011 A 
HETATM   13  C15 UNL     1       0.466  -1.436  -0.344  1.00  0.00    -0.051 C 
HETATM   14  C16 UNL     1       1.814  -1.865  -0.677  1.00  0.00     0.049 C 
HETATM   15  C17 UNL     1      -0.592  -2.254  -0.520  1.00  0.00     0.000 C 
HETATM   16  C18 UNL     1      -2.049  -2.214  -0.341  1.00  0.00     0.147 C 
HETATM   17  N4  UNL     1      -2.691  -0.954  -0.619  1.00  0.00    -0.385 N 
HETATM   18  C12 UNL     1      -2.256   0.306  -0.052  1.00  0.00     0.050 A 
HETATM   19  H16 UNL     1      -3.537  -0.870  -1.262  1.00  0.00     0.160 HD
BRANCH  11  20
HETATM   20  N1  UNL     1       2.686  -0.106   0.621  1.00  0.00    -0.323 N 
HETATM   21  C3  UNL     1       3.921  -0.025  -0.139  1.00  0.00     0.242 C 
HETATM   22  O1  UNL     1       4.089   0.658  -1.177  1.00  0.00    -0.269 OA
HETATM   23  H4  UNL     1       2.600  -0.666   1.510  1.00  0.00     0.169 HD
BRANCH  21  24
HETATM   24  C2  UNL     1       5.057  -0.796   0.336  1.00  0.00     0.048 C 
HETATM   25  C1  UNL     1       6.023  -0.536  -0.530  1.00  0.00     0.037 C 
ENDBRANCH  21  24
ENDBRANCH  11  20
ENDBRANCH   1   4
TORSDOF 3
