REMARK  6 active torsions:
REMARK  status: ('A' for Active; 'I' for Inactive)
REMARK    1  A    between atoms: N2_5  and  C4_6 
REMARK    2  A    between atoms: C9_12  and  N3_13 
REMARK    3  A    between atoms: N3_13  and  C10_14 
REMARK    4  A    between atoms: C10_14  and  C11_15 
REMARK    5  A    between atoms: C11_15  and  C12_16 
REMARK    6  A    between atoms: C12_16  and  C13_17 
ROOT
HETATM    1  N1  UNL     1      -1.777   1.185   2.475  1.00  0.00    -0.196 NA
HETATM    2  C1  UNL     1      -1.999   1.151   1.317  1.00  0.00     0.079 C 
HETATM    3  C2  UNL     1      -2.275   1.101  -0.108  1.00  0.00     0.106 A 
HETATM    4  C3  UNL     1      -1.468   0.242  -0.499  1.00  0.00     0.016 A 
HETATM    5  N2  UNL     1      -0.516  -0.665  -0.539  1.00  0.00    -0.359 N 
HETATM    6  C14 UNL     1      -2.730   0.005  -1.424  1.00  0.00     0.092 A 
HETATM    7  C15 UNL     1      -3.819   0.297  -0.380  1.00  0.00     0.047 A 
HETATM    8  C16 UNL     1      -4.802   0.394   0.516  1.00  0.00    -0.018 C 
HETATM    9  C17 UNL     1      -5.105   1.701   1.155  1.00  0.00     0.016 C 
HETATM   10  C18 UNL     1      -4.792   2.969   1.165  1.00  0.00     0.115 C 
HETATM   11  N4  UNL     1      -3.913   2.849   0.171  1.00  0.00    -0.275 NA
HETATM   12  C19 UNL     1      -3.036   2.255  -0.335  1.00  0.00     0.118 C 
HETATM   13  H1  UNL     1      -1.066  -1.138   0.248  1.00  0.00     0.165 HD
ENDROOT
BRANCH   5  14
HETATM   14  C4  UNL     1       0.471  -1.584  -0.601  1.00  0.00     0.060 A 
HETATM   15  C5  UNL     1       0.168  -2.409  -1.709  1.00  0.00     0.032 A 
HETATM   16  C6  UNL     1       0.991  -3.483  -2.074  1.00  0.00     0.004 A 
HETATM   17  C7  UNL     1       2.081  -3.633  -1.252  1.00  0.00     0.021 A 
HETATM   18  C8  UNL     1       2.386  -2.837  -0.171  1.00  0.00     0.039 A 
HETATM   19 BR1  UNL     1       3.921  -3.277   0.865  1.00  0.00    -0.049 Br
HETATM   20  C9  UNL     1       1.590  -1.796   0.175  1.00  0.00     0.072 A 
BRANCH  20  21
HETATM   21  N3  UNL     1       1.785  -0.911   1.266  1.00  0.00    -0.387 N 
HETATM   22  H5  UNL     1       1.458  -1.056   2.253  1.00  0.00     0.159 HD
BRANCH  21  23
HETATM   23  C10 UNL     1       2.510   0.283   0.840  1.00  0.00     0.120 C 
BRANCH  23  24
HETATM   24  C11 UNL     1       3.832   0.025   0.209  1.00  0.00     0.026 C 
BRANCH  24  25
HETATM   25  C12 UNL     1       4.560   1.308  -0.235  1.00  0.00     0.071 C 
BRANCH  25  26
HETATM   26  C13 UNL     1       4.871   2.196   0.903  1.00  0.00     0.231 C 
HETATM   27  O1  UNL     1       4.650   2.146   2.095  1.00  0.00    -0.307 OA
ENDBRANCH  25  26
ENDBRANCH  24  25
ENDBRANCH  23  24
ENDBRANCH  21  23
ENDBRANCH  20  21
ENDBRANCH   5  14
TORSDOF 6
