REMARK  6 active torsions:
REMARK  status: ('A' for Active; 'I' for Inactive)
REMARK    1  A    between atoms: C2_2  and  C3_3 
REMARK    2  A    between atoms: C2_2  and  N1_6 
REMARK    3  A    between atoms: N1_6  and  C6_7 
REMARK    4  A    between atoms: C11_13  and  O1_14 
REMARK    5  A    between atoms: C13_16  and  N3_17 
REMARK    6  A    between atoms: N3_17  and  C14_18 
ROOT
HETATM    1  C6  UNL     1       2.537  -0.275  -0.898  1.00  0.00     0.033 A 
HETATM    2  C7  UNL     1       3.013  -1.567  -0.822  1.00  0.00     0.032 A 
HETATM    3  C8  UNL     1       2.038  -2.504  -0.474  1.00  0.00     0.035 A 
HETATM    4  C9  UNL     1       0.696  -2.215  -0.217  1.00  0.00     0.069 A 
HETATM    5  N2  UNL     1      -0.168  -3.163   0.107  1.00  0.00    -0.257 NA
HETATM    6  C10 UNL     1      -1.468  -2.830   0.348  1.00  0.00     0.156 A 
HETATM    7  C11 UNL     1      -1.953  -1.521   0.272  1.00  0.00     0.113 A 
HETATM    8  C13 UNL     1      -1.006  -0.579  -0.070  1.00  0.00     0.081 A 
HETATM    9  C20 UNL     1       0.314  -0.893  -0.319  1.00  0.00     0.024 A 
HETATM   10  C21 UNL     1       1.228   0.083  -0.658  1.00  0.00     0.045 A 
ENDROOT
BRANCH   8  11
HETATM   11  N3  UNL     1      -1.479   0.759  -0.153  1.00  0.00    -0.339 N 
HETATM   12  H15 UNL     1      -1.004   1.657  -0.384  1.00  0.00     0.167 HD
BRANCH  11  13
HETATM   13  C14 UNL     1      -2.839   1.060   0.107  1.00  0.00     0.106 A 
HETATM   14  C15 UNL     1      -3.269   1.387   1.336  1.00  0.00     0.060 A 
HETATM   15  C16 UNL     1      -4.690   1.684   1.521  1.00  0.00    -0.023 A 
HETATM   16  C17 UNL     1      -5.150   2.010   2.719  1.00  0.00     0.025 C 
HETATM   17  C18 UNL     1      -5.564   1.608   0.359  1.00  0.00     0.035 A 
HETATM   18 BR1  UNL     1      -7.423   1.993   0.580  1.00  0.00    -0.049 Br
HETATM   19  C19 UNL     1      -5.136   1.287  -0.843  1.00  0.00     0.109 A 
HETATM   20  N4  UNL     1      -3.753   1.006  -0.982  1.00  0.00    -0.351 N 
HETATM   21  H20 UNL     1      -3.407   0.749  -1.942  1.00  0.00     0.166 HD
ENDBRANCH  11  13
ENDBRANCH   8  11
BRANCH   7  22
HETATM   22  O1  UNL     1      -3.282  -1.253   0.528  1.00  0.00    -0.352 OA
HETATM   23  C12 UNL     1      -4.229  -2.229   0.874  1.00  0.00     0.210 C 
ENDBRANCH   7  22
BRANCH   1  24
HETATM   24  N1  UNL     1       3.455   0.752  -1.247  1.00  0.00    -0.360 N 
HETATM   25  H8  UNL     1       3.156   1.766  -1.324  1.00  0.00     0.166 HD
BRANCH  24  26
HETATM   26  C2  UNL     1       4.830   0.533  -1.521  1.00  0.00     0.009 C 
HETATM   27  C1  UNL     1       4.572   0.114  -2.771  1.00  0.00     0.063 C 
BRANCH  26  28
HETATM   28  C3  UNL     1       6.112   0.659  -0.844  1.00  0.00     0.020 C 
HETATM   29  C4  UNL     1       6.330   1.069   0.371  1.00  0.00    -0.029 C 
HETATM   30  C5  UNL     1       5.259   1.492   1.304  1.00  0.00     0.036 C 
ENDBRANCH  26  28
ENDBRANCH  24  26
ENDBRANCH   1  24
TORSDOF 6
