REMARK  5 active torsions:
REMARK  status: ('A' for Active; 'I' for Inactive)
REMARK    1  A    between atoms: C2_2  and  C3_3 
REMARK    2  A    between atoms: C3_3  and  C4_4 
REMARK    3  A    between atoms: C12_14  and  N3_15 
REMARK       I    between atoms: N3_15  and  C13_16 
REMARK    4  A    between atoms: C13_16  and  C14_18 
REMARK    5  A    between atoms: C15_19  and  N4_21 
ROOT
HETATM    1  C4  UNL     1      -1.873  -0.508   0.002  1.00  0.00    -0.009 C 
HETATM    2  C5  UNL     1      -2.859  -1.373   0.154  1.00  0.00     0.018 C 
HETATM    3  C6  UNL     1      -2.490  -2.530   1.180  1.00  0.00     0.097 C 
HETATM    4  C7  UNL     1      -2.981  -1.383   2.132  1.00  0.00    -0.032 C 
HETATM    5  C8  UNL     1      -4.300  -1.403   2.229  1.00  0.00     0.046 C 
HETATM    6  C9  UNL     1      -4.617  -0.836   3.540  1.00  0.00     0.097 C 
HETATM    7  N1  UNL     1      -4.884  -0.392   4.558  1.00  0.00    -0.192 NA
HETATM    8  C10 UNL     1      -5.059  -1.919   1.001  1.00  0.00     0.170 C 
HETATM    9  N2  UNL     1      -4.231  -1.445  -0.186  1.00  0.00    -0.387 N 
HETATM   10  C11 UNL     1      -1.941  -0.424   2.484  1.00  0.00     0.039 C 
HETATM   11  C12 UNL     1      -1.333   0.033   1.312  1.00  0.00     0.043 C 
HETATM   12  H12 UNL     1      -4.145  -1.100  -1.212  1.00  0.00     0.159 HD
ENDROOT
BRANCH  11  13
HETATM   13  N3  UNL     1      -0.299   0.945   1.281  1.00  0.00    -0.323 N 
HETATM   14  C13 UNL     1       0.965   0.615   0.733  1.00  0.00     0.247 C 
HETATM   15  O1  UNL     1       1.408  -0.423   0.216  1.00  0.00    -0.268 OA
HETATM   16  H14 UNL     1      -0.476   1.891   1.675  1.00  0.00     0.169 HD
BRANCH  14  17
HETATM   17  C14 UNL     1       1.983   1.677   0.759  1.00  0.00     0.098 C 
HETATM   18  C15 UNL     1       3.230   1.630   0.317  1.00  0.00     0.010 C 
HETATM   19  C16 UNL     1       4.287   2.676   0.324  1.00  0.00     0.068 C 
BRANCH  18  20
HETATM   20  N4  UNL     1       3.897   0.510  -0.305  1.00  0.00    -0.361 N 
HETATM   21  C17 UNL     1       4.416  -0.750   0.199  1.00  0.00     0.151 C 
HETATM   22  C18 UNL     1       4.215  -1.642  -1.008  1.00  0.00     0.189 C 
HETATM   23  O2  UNL     1       4.081  -0.850  -2.120  1.00  0.00    -0.370 OA
HETATM   24  C19 UNL     1       4.196   0.464  -1.746  1.00  0.00     0.292 C 
ENDBRANCH  18  20
ENDBRANCH  14  17
ENDBRANCH  11  13
BRANCH   1  25
HETATM   25  C3  UNL     1      -1.655  -0.164  -1.385  1.00  0.00     0.042 C 
BRANCH  25  26
HETATM   26  C2  UNL     1      -1.737   1.329  -1.671  1.00  0.00     0.000 C 
HETATM   27  C1  UNL     1      -1.493   1.553  -3.147  1.00  0.00     0.005 C 
ENDBRANCH  25  26
ENDBRANCH   1  25
TORSDOF 5
