REMARK  5 active torsions:
REMARK  status: ('A' for Active; 'I' for Inactive)
REMARK    1  A    between atoms: C3_3  and  C4_4 
REMARK    2  A    between atoms: C4_4  and  C5_6 
REMARK    3  A    between atoms: C11_14  and  N3_15 
REMARK    4  A    between atoms: N3_15  and  C12_16 
REMARK    5  A    between atoms: C17_22  and  N4_23 
ROOT
HETATM    1  C5  UNL     1       2.033  -0.066  -0.794  1.00  0.00     0.028 A 
HETATM    2  C6  UNL     1       2.198  -1.357  -0.854  1.00  0.00     0.021 A 
HETATM    3  C7  UNL     1       1.340  -2.053  -0.145  1.00  0.00     0.081 A 
HETATM    4  N1  UNL     1       1.108  -3.375   0.108  1.00  0.00    -0.258 NA
HETATM    5  C8  UNL     1       0.101  -3.765   0.917  1.00  0.00     0.142 A 
HETATM    6  C9  UNL     1      -0.720  -2.826   1.508  1.00  0.00     0.089 A 
HETATM    7  C10 UNL     1      -1.818  -3.195   2.386  1.00  0.00     0.103 C 
HETATM    8  N2  UNL     1      -2.679  -3.489   3.100  1.00  0.00    -0.191 NA
HETATM    9  C11 UNL     1      -0.558  -1.469   1.308  1.00  0.00     0.067 A 
HETATM   10  C18 UNL     1       0.495  -1.120   0.466  1.00  0.00     0.023 A 
HETATM   11  C19 UNL     1       0.878   0.107   0.100  1.00  0.00     0.032 A 
ENDROOT
BRANCH   9  12
HETATM   12  N3  UNL     1      -1.382  -0.479   1.899  1.00  0.00    -0.353 N 
HETATM   13  H7  UNL     1      -0.897  -0.268   2.799  1.00  0.00     0.166 HD
BRANCH  12  14
HETATM   14  C12 UNL     1      -2.568   0.101   1.424  1.00  0.00     0.055 A 
HETATM   15  C13 UNL     1      -3.065  -0.292   0.223  1.00  0.00     0.031 A 
HETATM   16  C14 UNL     1      -4.251   0.324  -0.194  1.00  0.00     0.004 A 
HETATM   17  C15 UNL     1      -4.862   1.290   0.608  1.00  0.00     0.021 A 
HETATM   18  C16 UNL     1      -4.316   1.656   1.823  1.00  0.00     0.034 A 
HETATM   19 BR1  UNL     1      -5.176   2.973   2.888  1.00  0.00    -0.049 Br
HETATM   20  C17 UNL     1      -3.131   1.049   2.254  1.00  0.00     0.050 A 
BRANCH  20  21
HETATM   21  N4  UNL     1      -2.536   1.410   3.518  1.00  0.00    -0.300 NA
HETATM   22  H11 UNL     1      -1.774   2.041   3.130  1.00  0.00     0.124 HD
HETATM   23  H12 UNL     1      -1.782   2.033   3.144  1.00  0.00     0.124 HD
ENDBRANCH  20  21
ENDBRANCH  12  14
ENDBRANCH   9  12
BRANCH   1  24
HETATM   24  C4  UNL     1       2.794   0.976  -1.445  1.00  0.00     0.182 C 
HETATM   25  O1  UNL     1       2.473   2.177  -1.259  1.00  0.00    -0.288 OA
BRANCH  24  26
HETATM   26  C3  UNL     1       3.920   0.711  -2.311  1.00  0.00     0.051 C 
HETATM   27  C2  UNL     1       4.565   1.723  -2.870  1.00  0.00    -0.027 C 
HETATM   28  C1  UNL     1       5.729   1.468  -3.767  1.00  0.00     0.036 C 
ENDBRANCH  24  26
ENDBRANCH   1  24
TORSDOF 5
