REMARK  9 active torsions:
REMARK  status: ('A' for Active; 'I' for Inactive)
REMARK    1  A    between atoms: C2_2  and  O1_3 
REMARK    2  A    between atoms: O1_3  and  C3_4 
REMARK    3  A    between atoms: C3_4  and  C4_5 
REMARK       I    between atoms: C4_5  and  N1_7 
REMARK    4  A    between atoms: N1_7  and  C5_8 
REMARK    5  A    between atoms: C5_8  and  C6_9 
REMARK    6  A    between atoms: C6_9  and  C7_10 
REMARK    7  A    between atoms: C11_15  and  N3_16 
REMARK    8  A    between atoms: C12_17  and  N4_18 
REMARK    9  A    between atoms: N4_18  and  C13_19 
ROOT
HETATM    1  C7  UNL     1      -0.513  -0.826  -0.543  1.00  0.00    -0.014 C 
HETATM    2  C8  UNL     1      -1.315  -1.466   0.338  1.00  0.00    -0.013 A 
HETATM    3  C9  UNL     1      -0.732  -2.120   1.529  1.00  0.00     0.189 A 
HETATM    4  N2  UNL     1      -1.755  -2.728   2.312  1.00  0.00    -0.295 NA
HETATM    5  C10 UNL     1      -2.980  -2.677   1.978  1.00  0.00     0.142 A 
HETATM    6  C11 UNL     1      -3.573  -2.042   0.820  1.00  0.00     0.070 A 
HETATM    7  C12 UNL     1      -2.756  -1.434  -0.007  1.00  0.00     0.068 A 
ENDROOT
BRANCH   1   8
HETATM    8  C6  UNL     1       0.870  -0.454  -0.862  1.00  0.00     0.047 C 
BRANCH   8   9
HETATM    9  C5  UNL     1       1.913  -0.914   0.131  1.00  0.00     0.126 C 
BRANCH   9  10
HETATM   10  N1  UNL     1       3.254  -0.483  -0.283  1.00  0.00    -0.359 N 
HETATM   11  C4  UNL     1       3.703   0.841  -0.462  1.00  0.00     0.241 C 
HETATM   12  O2  UNL     1       2.830   1.759  -0.238  1.00  0.00    -0.271 OA
HETATM   13  H8  UNL     1       4.028  -1.140  -0.505  1.00  0.00     0.162 HD
BRANCH  11  14
HETATM   14  C3  UNL     1       4.916   1.569  -0.848  1.00  0.00     0.270 C 
BRANCH  14  15
HETATM   15  O1  UNL     1       6.035   0.850  -1.136  1.00  0.00    -0.382 OA
BRANCH  15  16
HETATM   16  C2  UNL     1       6.634   0.149  -0.138  1.00  0.00     0.163 C 
HETATM   17  C1  UNL     1       7.120   1.064   0.993  1.00  0.00     0.033 C 
ENDBRANCH  15  16
ENDBRANCH  14  15
ENDBRANCH  11  14
ENDBRANCH   9  10
ENDBRANCH   8   9
ENDBRANCH   1   8
BRANCH   7  18
HETATM   18  N4  UNL     1      -3.255  -0.772  -1.167  1.00  0.00    -0.354 N 
HETATM   19  H19 UNL     1      -3.060  -1.143  -2.131  1.00  0.00     0.166 HD
BRANCH  18  20
HETATM   20  C13 UNL     1      -4.028   0.409  -0.999  1.00  0.00     0.033 A 
HETATM   21  C14 UNL     1      -5.395   0.576  -1.045  1.00  0.00     0.029 A 
HETATM   22  C15 UNL     1      -5.984   1.797  -0.841  1.00  0.00     0.004 A 
HETATM   23  C16 UNL     1      -5.233   2.920  -0.579  1.00  0.00     0.019 A 
HETATM   24  C17 UNL     1      -3.844   2.821  -0.519  1.00  0.00     0.013 A 
HETATM   25 BR1  UNL     1      -2.768   4.351  -0.158  1.00  0.00    -0.051 Br
HETATM   26  C18 UNL     1      -3.314   1.570  -0.733  1.00  0.00     0.048 A 
ENDBRANCH  18  20
ENDBRANCH   7  18
BRANCH   6  27
HETATM   27  N3  UNL     1      -4.974  -2.097   0.620  1.00  0.00    -0.396 N 
HETATM   28  H17 UNL     1      -5.668  -1.551   1.208  1.00  0.00     0.156 HD
HETATM   29  H18 UNL     1      -5.428  -2.683  -0.131  1.00  0.00     0.156 HD
ENDBRANCH   6  27
TORSDOF 9
