REMARK  4 active torsions:
REMARK  status: ('A' for Active; 'I' for Inactive)
REMARK    1  A    between atoms: C2_2  and  C3_3 
REMARK       I    between atoms: C3_3  and  N1_5 
REMARK    2  A    between atoms: C7_9  and  N2_10 
REMARK    3  A    between atoms: N2_10  and  C8_11 
REMARK    4  A    between atoms: C15_18  and  N3_19 
ROOT
HETATM    1  C3  UNL     1      -4.441  -0.719  -1.628  1.00  0.00     0.220 C 
HETATM    2  O1  UNL     1      -3.764  -1.097  -2.646  1.00  0.00    -0.273 OA
HETATM    3  N1  UNL     1      -3.335  -0.331  -0.822  1.00  0.00    -0.342 N 
HETATM    4  C4  UNL     1      -2.159  -0.586  -1.629  1.00  0.00     0.154 C 
HETATM    5  C5  UNL     1      -0.896  -0.133  -0.965  1.00  0.00     0.005 C 
HETATM    6  C6  UNL     1      -0.665  -0.090   0.337  1.00  0.00    -0.005 A 
HETATM    7  C7  UNL     1       0.561   0.349   0.991  1.00  0.00     0.063 A 
HETATM    8  C15 UNL     1       0.521   0.338   2.314  1.00  0.00     0.046 A 
HETATM    9  C17 UNL     1      -0.667  -0.102   3.036  1.00  0.00     0.136 A 
HETATM   10  N4  UNL     1      -1.758  -0.512   2.482  1.00  0.00    -0.288 NA
HETATM   11  C18 UNL     1      -1.898  -0.573   1.059  1.00  0.00     0.165 A 
HETATM   12  C19 UNL     1      -3.068   0.220   0.515  1.00  0.00     0.112 C 
HETATM   13  C20 UNL     1      -2.801   1.703   0.469  1.00  0.00     0.035 C 
ENDROOT
BRANCH   7  14
HETATM   14  N2  UNL     1       1.635   0.730   0.144  1.00  0.00    -0.354 N 
HETATM   15  H7  UNL     1       1.438   1.631  -0.345  1.00  0.00     0.166 HD
BRANCH  14  16
HETATM   16  C8  UNL     1       2.832  -0.019  -0.022  1.00  0.00     0.033 A 
HETATM   17  C9  UNL     1       2.951  -1.193   0.691  1.00  0.00     0.029 A 
HETATM   18  C10 UNL     1       4.125  -1.898   0.508  1.00  0.00     0.003 A 
HETATM   19  C11 UNL     1       5.101  -1.403  -0.360  1.00  0.00     0.007 A 
HETATM   20  C12 UNL     1       4.957  -0.217  -1.067  1.00  0.00    -0.060 A 
HETATM   21  C13 UNL     1       6.064   0.187  -1.949  1.00  0.00     0.048 C 
HETATM   22  C14 UNL     1       3.772   0.498  -0.886  1.00  0.00     0.036 A 
ENDBRANCH  14  16
ENDBRANCH   7  14
BRANCH   8  23
HETATM   23  N3  UNL     1       1.715   0.769   2.950  1.00  0.00    -0.306 NA
HETATM   24  C16 UNL     1       2.188   1.960   2.912  1.00  0.00     0.260 C 
ENDBRANCH   8  23
BRANCH   1  25
HETATM   25  C2  UNL     1      -5.888  -0.759  -1.533  1.00  0.00     0.061 C 
HETATM   26  C1  UNL     1      -6.663  -0.381  -0.506  1.00  0.00     0.051 C 
ENDBRANCH   1  25
TORSDOF 4
