REMARK  6 active torsions:
REMARK  status: ('A' for Active; 'I' for Inactive)
REMARK    1  A    between atoms: C3_3  and  C4_4 
REMARK       I    between atoms: C4_4  and  N1_6 
REMARK    2  A    between atoms: N1_6  and  C5_7 
REMARK    3  A    between atoms: C8_10  and  N2_11 
REMARK    4  A    between atoms: C11_15  and  C12_16 
REMARK    5  A    between atoms: C12_16  and  N4_17 
REMARK    6  A    between atoms: N4_17  and  C13_18 
ROOT
HETATM    1  N2  UNL     1       1.445   2.788   0.668  1.00  0.00    -0.250 NA
HETATM    2  C9  UNL     1       1.994   3.759   0.022  1.00  0.00     0.210 C 
HETATM    3  C10 UNL     1       3.190   4.347   0.565  1.00  0.00     0.107 C 
HETATM    4  N3  UNL     1       4.169   4.838   0.993  1.00  0.00    -0.191 NA
ENDROOT
BRANCH   1   5
HETATM    5  C8  UNL     1       0.262   2.152   0.200  1.00  0.00     0.065 A 
HETATM    6  C7  UNL     1      -0.803   2.935  -0.252  1.00  0.00     0.034 A 
HETATM    7  C6  UNL     1      -1.960   2.342  -0.709  1.00  0.00     0.032 A 
HETATM    8  C5  UNL     1      -2.047   0.977  -0.713  1.00  0.00     0.035 A 
HETATM    9  C19 UNL     1      -0.992   0.194  -0.265  1.00  0.00     0.040 A 
HETATM   10  C11 UNL     1       0.193   0.773   0.204  1.00  0.00    -0.010 A 
BRANCH   8  11
HETATM   11  N1  UNL     1      -3.137   0.132  -1.136  1.00  0.00    -0.324 N 
HETATM   12  C4  UNL     1      -3.956  -0.074   0.027  1.00  0.00     0.245 C 
HETATM   13  O1  UNL     1      -3.487   0.530   1.029  1.00  0.00    -0.268 OA
HETATM   14  H6  UNL     1      -3.451  -0.337  -2.036  1.00  0.00     0.169 HD
BRANCH  12  15
HETATM   15  C3  UNL     1      -5.187  -0.892   0.036  1.00  0.00     0.070 C 
HETATM   16  C2  UNL     1      -5.771  -1.565  -0.932  1.00  0.00    -0.026 C 
HETATM   17  C1  UNL     1      -7.022  -2.340  -0.733  1.00  0.00     0.036 C 
ENDBRANCH  12  15
ENDBRANCH   8  11
BRANCH  10  18
HETATM   18  C12 UNL     1       1.335  -0.053   0.685  1.00  0.00     0.161 C 
BRANCH  18  19
HETATM   19  N4  UNL     1       2.396  -0.107  -0.301  1.00  0.00    -0.386 N 
HETATM   20  H12 UNL     1       2.462   0.342  -1.243  1.00  0.00     0.160 HD
BRANCH  19  21
HETATM   21  C13 UNL     1       3.499  -0.902   0.113  1.00  0.00     0.029 A 
HETATM   22  C14 UNL     1       3.533  -1.544   1.338  1.00  0.00     0.029 A 
HETATM   23  C15 UNL     1       4.620  -2.329   1.738  1.00  0.00     0.004 A 
HETATM   24  C16 UNL     1       5.702  -2.464   0.868  1.00  0.00     0.019 A 
HETATM   25  C17 UNL     1       5.730  -1.842  -0.384  1.00  0.00     0.013 A 
HETATM   26 BR1  UNL     1       7.192  -2.015  -1.580  1.00  0.00    -0.051 Br
HETATM   27  C18 UNL     1       4.611  -1.094  -0.678  1.00  0.00     0.048 A 
ENDBRANCH  19  21
ENDBRANCH  18  19
ENDBRANCH  10  18
ENDBRANCH   1   5
TORSDOF 6
