REMARK  6 active torsions:
REMARK  status: ('A' for Active; 'I' for Inactive)
REMARK    1  A    between atoms: C5_6  and  N1_7 
REMARK    2  A    between atoms: N1_7  and  C6_8 
REMARK       I    between atoms: N2_11  and  C9_12 
REMARK    3  A    between atoms: C9_12  and  C10_14 
REMARK    4  A    between atoms: C11_15  and  C12_16 
REMARK    5  A    between atoms: C12_16  and  C13_17 
REMARK    6  A    between atoms: C16_22  and  O3_23 
ROOT
HETATM    1  C6  UNL     1       3.081   0.017   1.350  1.00  0.00     0.031 C 
HETATM    2  C7  UNL     1       2.411   1.115   1.506  1.00  0.00     0.022 C 
HETATM    3  C8  UNL     1       1.382   2.088   1.112  1.00  0.00     0.155 C 
HETATM    4  N2  UNL     1       0.496   1.501   0.125  1.00  0.00    -0.342 N 
HETATM    5  C9  UNL     1      -0.552   0.848   0.929  1.00  0.00     0.243 C 
HETATM    6  O1  UNL     1      -0.288   1.064   2.164  1.00  0.00    -0.268 OA
HETATM    7  C17 UNL     1       0.173   1.328  -1.245  1.00  0.00     0.156 C 
HETATM    8  C18 UNL     1       0.505   0.127  -1.969  1.00  0.00     0.027 C 
HETATM    9  C19 UNL     1       1.214   0.337  -3.091  1.00  0.00     0.082 C 
HETATM   10  N4  UNL     1       2.331   0.931  -2.681  1.00  0.00    -0.259 NA
HETATM   11  C20 UNL     1       2.650   0.508  -1.307  1.00  0.00     0.119 C 
HETATM   12  C21 UNL     1       3.029  -0.055  -0.136  1.00  0.00     0.048 C 
ENDROOT
BRANCH   5  13
HETATM   13  C10 UNL     1      -1.727   0.068   0.514  1.00  0.00     0.070 C 
HETATM   14  C11 UNL     1      -2.470  -0.459  -0.481  1.00  0.00    -0.019 C 
BRANCH  14  15
HETATM   15  C12 UNL     1      -3.711  -1.257  -0.371  1.00  0.00     0.068 C 
BRANCH  15  16
HETATM   16  C13 UNL     1      -4.877  -0.618  -1.059  1.00  0.00     0.278 C 
HETATM   17  N3  UNL     1      -6.012  -1.477  -0.883  1.00  0.00     0.095 N 
HETATM   18  C14 UNL     1      -7.218  -0.816  -0.492  1.00  0.00     0.296 C 
HETATM   19  H13 UNL     1      -6.164  -2.140  -1.649  1.00  0.00     0.316 HD
HETATM   20  C15 UNL     1      -7.007   0.153   0.624  1.00  0.00     0.201 C 
HETATM   21  O2  UNL     1      -5.708   0.636   0.730  1.00  0.00    -0.358 OA
HETATM   22  C16 UNL     1      -5.193   0.751  -0.557  1.00  0.00     0.290 C 
BRANCH  22  23
HETATM   23  O3  UNL     1      -6.185   1.305  -1.362  1.00  0.00    -0.369 OA
HETATM   24  H19 UNL     1      -6.621   2.094  -0.963  1.00  0.00     0.212 HD
ENDBRANCH  22  23
ENDBRANCH  15  16
ENDBRANCH  14  15
ENDBRANCH   5  13
BRANCH   1  25
HETATM   25  N1  UNL     1       3.938  -1.095   1.424  1.00  0.00    -0.354 N 
HETATM   26  H4  UNL     1       3.476  -2.034   1.613  1.00  0.00     0.166 HD
BRANCH  25  27
HETATM   27  C5  UNL     1       5.361  -0.918   1.250  1.00  0.00     0.074 A 
HETATM   28  C4  UNL     1       6.037   0.231   1.843  1.00  0.00     0.057 A 
HETATM   29  C3  UNL     1       7.322   0.174   1.548  1.00  0.00     0.048 A 
HETATM   30  C2  UNL     1       7.565  -1.020   0.741  1.00  0.00     0.017 A 
HETATM   31 CL1  UNL     1       8.643   1.258   1.970  1.00  0.00    -0.083 Cl
HETATM   32  C1  UNL     1       8.674  -1.522   0.199  1.00  0.00     0.028 C 
HETATM   33  C22 UNL     1       6.270  -1.658   0.597  1.00  0.00     0.154 A 
HETATM   34  F1  UNL     1       5.865  -2.784  -0.036  1.00  0.00    -0.203 F 
ENDBRANCH  25  27
ENDBRANCH   1  25
TORSDOF 6
