REMARK  6 active torsions:
REMARK  status: ('A' for Active; 'I' for Inactive)
REMARK    1  A    between atoms: C2_2  and  B1_3 
REMARK    2  A    between atoms: C2_2  and  O1_22 
REMARK    3  A    between atoms: B1_3  and  C3_4 
REMARK    4  A    between atoms: C4_5  and  C5_6 
REMARK    5  A    between atoms: C8_10  and  N2_11 
REMARK    6  A    between atoms: N3_13  and  C10_14 
ROOT
HETATM    1  C5  UNL     1      -0.106  -0.683   0.128  1.00  0.00     0.147 C 
HETATM    2  C6  UNL     1       0.684  -0.335  -1.108  1.00  0.00     0.118 C 
HETATM    3  N1  UNL     1       0.593  -1.073  -2.189  1.00  0.00    -0.273 NA
HETATM    4  C7  UNL     1      -0.178  -2.246  -2.443  1.00  0.00     0.142 C 
HETATM    5  C8  UNL     1      -1.330  -2.423  -1.790  1.00  0.00     0.038 C 
HETATM    6  C9  UNL     1      -2.212  -1.776  -0.783  1.00  0.00     0.182 C 
HETATM    7  N3  UNL     1      -1.512  -0.653  -0.133  1.00  0.00    -0.362 N 
ENDROOT
BRANCH   1   8
HETATM    8  C4  UNL     1       0.345   0.069   1.304  1.00  0.00    -0.012 C 
HETATM    9  C3  UNL     1       1.646   0.268   1.487  1.00  0.00    -0.081 C 
BRANCH   9  10
HETATM   10  B1  UNL     1       2.869  -0.178   0.628  1.00  0.00     0.216 B 
HETATM   11  H3  UNL     1       2.889  -1.251   0.088  1.00  0.00    -0.019 HD
BRANCH  10  12
HETATM   12  C2  UNL     1       3.911   0.858   0.058  1.00  0.00     0.016 C 
HETATM   13  C1  UNL     1       4.408   0.744  -1.180  1.00  0.00     0.083 C 
BRANCH  12  14
HETATM   14  O1  UNL     1       4.315   1.920   0.883  1.00  0.00    -0.400 OA
HETATM   15  C16 UNL     1       5.030   1.627   2.057  1.00  0.00     0.200 C 
ENDBRANCH  12  14
ENDBRANCH  10  12
ENDBRANCH   9  10
ENDBRANCH   1   8
BRANCH   7  16
HETATM   16  C10 UNL     1      -2.340   0.448   0.216  1.00  0.00     0.033 A 
HETATM   17  C11 UNL     1      -3.701   0.301   0.370  1.00  0.00     0.032 A 
HETATM   18  C12 UNL     1      -4.544   1.321   0.688  1.00  0.00     0.046 A 
HETATM   19  C13 UNL     1      -4.056   2.602   0.879  1.00  0.00     0.138 A 
HETATM   20  F1  UNL     1      -4.856   3.643   1.196  1.00  0.00    -0.204 F 
HETATM   21  C14 UNL     1      -2.701   2.798   0.736  1.00  0.00     0.074 A 
HETATM   22 CL1  UNL     1      -2.059   4.417   0.975  1.00  0.00    -0.081 Cl
HETATM   23  C15 UNL     1      -1.884   1.732   0.412  1.00  0.00     0.056 A 
ENDBRANCH   7  16
BRANCH   5  24
HETATM   24  N2  UNL     1      -1.937  -3.645  -2.184  1.00  0.00    -0.400 N 
HETATM   25  H9  UNL     1      -2.374  -4.518  -2.462  1.00  0.00     0.156 HD
HETATM   26  H10 UNL     1      -1.644  -4.233  -3.012  1.00  0.00     0.156 HD
ENDBRANCH   5  24
TORSDOF 6
