REMARK  9 active torsions:
REMARK  status: ('A' for Active; 'I' for Inactive)
REMARK    1  A    between atoms: C2_2  and  C3_3 
REMARK    2  A    between atoms: C3_3  and  N1_4 
REMARK    3  A    between atoms: C3_3  and  C9_12 
REMARK       I    between atoms: N1_4  and  C4_5 
REMARK    4  A    between atoms: C4_5  and  C5_7 
REMARK    5  A    between atoms: C6_8  and  C7_9 
REMARK    6  A    between atoms: C7_9  and  O2_10 
REMARK    7  A    between atoms: C14_19  and  N4_20 
REMARK    8  A    between atoms: N4_20  and  C15_21 
REMARK    9  A    between atoms: C18_24  and  C19_25 
ROOT
HETATM    1  C9  UNL     1      -1.414   0.109  -1.588  1.00  0.00     0.106 A 
HETATM    2  C10 UNL     1      -2.049   0.212  -2.908  1.00  0.00     0.165 A 
HETATM    3  N2  UNL     1      -2.977  -0.812  -3.207  1.00  0.00    -0.299 NA
HETATM    4  C11 UNL     1      -3.307  -1.746  -2.433  1.00  0.00     0.135 A 
HETATM    5  C12 UNL     1      -2.774  -1.926  -1.093  1.00  0.00     0.084 A 
HETATM    6  C13 UNL     1      -3.251  -3.029  -0.318  1.00  0.00     0.103 C 
HETATM    7  N3  UNL     1      -3.623  -3.909   0.320  1.00  0.00    -0.191 NA
HETATM    8  C14 UNL     1      -1.885  -1.011  -0.754  1.00  0.00     0.040 A 
ENDROOT
BRANCH   8   9
HETATM    9  N4  UNL     1      -1.449  -1.307   0.598  1.00  0.00    -0.374 N 
HETATM   10  H15 UNL     1      -0.591  -1.577   1.168  1.00  0.00     0.160 HD
BRANCH   9  11
HETATM   11  C15 UNL     1      -2.482  -1.252   1.610  1.00  0.00     0.096 A 
HETATM   12  C16 UNL     1      -2.267   0.596   1.754  1.00  0.00     0.072 A 
HETATM   13  C17 UNL     1      -3.749   0.844   3.237  1.00  0.00     0.050 A 
HETATM   14  C19 UNL     1      -2.942  -0.535   2.192  1.00  0.00    -0.035 A 
HETATM   15  C18 UNL     1      -3.288   0.035   2.636  1.00  0.00    -0.063 A 
ENDBRANCH   9  11
ENDBRANCH   8   9
BRANCH   1  16
HETATM   16  C3  UNL     1       0.086   0.035  -1.765  1.00  0.00     0.020 C 
BRANCH  16  17
HETATM   17  C2  UNL     1       0.589  -0.176  -2.980  1.00  0.00    -0.005 C 
HETATM   18  C1  UNL     1       0.825  -0.425  -4.401  1.00  0.00     0.038 C 
ENDBRANCH  16  17
BRANCH  16  19
HETATM   19  N1  UNL     1       0.771   0.256  -0.531  1.00  0.00    -0.319 N 
HETATM   20  C4  UNL     1       2.137   0.288  -0.182  1.00  0.00     0.300 C 
HETATM   21  O1  UNL     1       3.003   0.095  -1.066  1.00  0.00    -0.258 OA
HETATM   22  H5  UNL     1       0.226   0.443   0.304  1.00  0.00     0.169 HD
BRANCH  20  23
HETATM   23  C5  UNL     1       2.657   0.526   1.121  1.00  0.00    -0.003 C 
HETATM   24  C6  UNL     1       3.079   0.729   2.234  1.00  0.00    -0.070 C 
BRANCH  24  25
HETATM   25  C7  UNL     1       3.577   0.963   3.582  1.00  0.00     0.261 C 
BRANCH  25  26
HETATM   26  O2  UNL     1       4.759   1.704   3.579  1.00  0.00    -0.384 OA
HETATM   27  C8  UNL     1       5.719   1.004   2.866  1.00  0.00     0.202 C 
ENDBRANCH  25  26
ENDBRANCH  24  25
ENDBRANCH  20  23
ENDBRANCH  16  19
ENDBRANCH   1  16
TORSDOF 9
