REMARK  6 active torsions:
REMARK  status: ('A' for Active; 'I' for Inactive)
REMARK    1  A    between atoms: O1_2  and  C2_3 
REMARK    2  A    between atoms: C8_11  and  N3_12 
REMARK    3  A    between atoms: N3_12  and  C9_13 
REMARK    4  A    between atoms: C9_13  and  C10_14 
REMARK    5  A    between atoms: C18_24  and  C19_25 
REMARK    6  A    between atoms: C19_25  and  N4_26 
ROOT
HETATM    1  C2  UNL     1      -3.798   0.055   0.263  1.00  0.00     0.078 A 
HETATM    2  C3  UNL     1      -3.462  -1.284   0.249  1.00  0.00     0.069 A 
HETATM    3  C4  UNL     1      -2.208  -1.780   0.002  1.00  0.00     0.071 A 
HETATM    4  N1  UNL     1      -2.012  -3.122   0.011  1.00  0.00    -0.259 NA
HETATM    5  C5  UNL     1      -0.770  -3.627  -0.241  1.00  0.00     0.142 A 
HETATM    6  C6  UNL     1       0.286  -2.785  -0.505  1.00  0.00     0.089 A 
HETATM    7  C7  UNL     1       1.614  -3.205  -0.779  1.00  0.00     0.103 C 
HETATM    8  N2  UNL     1       2.707  -3.571  -1.012  1.00  0.00    -0.191 NA
HETATM    9  C8  UNL     1       0.091  -1.402  -0.515  1.00  0.00     0.067 A 
HETATM   10  C16 UNL     1      -1.165  -0.903  -0.258  1.00  0.00     0.022 A 
HETATM   11  C17 UNL     1      -1.464   0.437  -0.253  1.00  0.00     0.027 A 
HETATM   12  C18 UNL     1      -2.744   0.935  -0.002  1.00  0.00     0.004 A 
ENDROOT
BRANCH   9  13
HETATM   13  N3  UNL     1       1.105  -0.461  -0.782  1.00  0.00    -0.363 N 
HETATM   14  H6  UNL     1       1.355   0.156  -1.611  1.00  0.00     0.165 HD
BRANCH  13  15
HETATM   15  C9  UNL     1       2.144  -0.045   0.017  1.00  0.00     0.100 C 
BRANCH  15  16
HETATM   16  C10 UNL     1       3.407   0.291   0.101  1.00  0.00    -0.017 A 
HETATM   17  C11 UNL     1       4.074   0.209  -1.194  1.00  0.00     0.050 A 
HETATM   18  C12 UNL     1       5.368   0.503  -1.348  1.00  0.00     0.099 A 
HETATM   19  F1  UNL     1       6.175   0.490  -2.461  1.00  0.00    -0.210 F 
HETATM   20  C13 UNL     1       6.165   0.926  -0.176  1.00  0.00     0.121 A 
HETATM   21  C14 UNL     1       5.404   0.977   1.063  1.00  0.00     0.019 A 
HETATM   22 CL1  UNL     1       6.356   1.479   2.432  1.00  0.00    -0.089 Cl
HETATM   23  C15 UNL     1       4.146   0.703   1.272  1.00  0.00     0.032 A 
ENDBRANCH  15  16
ENDBRANCH  13  15
ENDBRANCH   9  13
BRANCH  12  24
HETATM   24  C19 UNL     1      -2.926   2.431  -0.044  1.00  0.00     0.308 C 
BRANCH  24  25
HETATM   25  N4  UNL     1      -3.581   2.763  -1.285  1.00  0.00     0.082 N 
HETATM   26  H15 UNL     1      -4.427   3.336  -1.070  1.00  0.00     0.313 HD
HETATM   27  H16 UNL     1      -2.885   3.221  -1.901  1.00  0.00     0.313 HD
ENDBRANCH  24  25
ENDBRANCH  12  24
BRANCH   1  28
HETATM   28  O1  UNL     1      -4.971   0.711   0.489  1.00  0.00    -0.355 OA
HETATM   29  C1  UNL     1      -6.171   0.047   0.776  1.00  0.00     0.210 C 
ENDBRANCH   1  28
TORSDOF 6
