REMARK  8 active torsions:
REMARK  status: ('A' for Active; 'I' for Inactive)
REMARK    1  A    between atoms: O1_2  and  C2_3 
REMARK    2  A    between atoms: C7_9  and  C8_10 
REMARK    3  A    between atoms: C8_10  and  C10_13 
REMARK    4  A    between atoms: C11_14  and  C12_15 
REMARK    5  A    between atoms: C15_19  and  N3_20 
REMARK       I    between atoms: N3_20  and  C16_21 
REMARK    6  A    between atoms: C16_21  and  C17_23 
REMARK    7  A    between atoms: C18_24  and  C19_25 
REMARK    8  A    between atoms: C19_25  and  N4_27 
ROOT
HETATM    1  C8  UNL     1       4.651  -1.350   1.472  1.00  0.00     0.149 C 
HETATM    2  C9  UNL     1       3.721  -0.619   2.384  1.00  0.00     0.072 C 
HETATM    3  N2  UNL     1       3.006  -0.041   3.113  1.00  0.00    -0.196 NA
ENDROOT
BRANCH   1   4
HETATM    4  C7  UNL     1       4.567  -0.960   0.071  1.00  0.00    -0.023 A 
HETATM    5  C6  UNL     1       5.796  -0.963  -0.636  1.00  0.00     0.029 A 
HETATM    6  C5  UNL     1       5.965  -0.566  -1.961  1.00  0.00     0.118 A 
HETATM    7  N1  UNL     1       4.924  -0.144  -2.664  1.00  0.00    -0.260 NA
HETATM    8  C4  UNL     1       3.714  -0.104  -2.092  1.00  0.00     0.070 A 
HETATM    9  C3  UNL     1       2.578   0.292  -2.763  1.00  0.00     0.071 A 
HETATM   10  C13 UNL     1       3.600  -0.505  -0.788  1.00  0.00     0.003 A 
HETATM   11  C2  UNL     1       1.302   0.309  -2.193  1.00  0.00     0.097 A 
HETATM   12  C15 UNL     1       1.214  -0.110  -0.856  1.00  0.00     0.069 A 
HETATM   13  C14 UNL     1       2.351  -0.493  -0.222  1.00  0.00     0.046 A 
BRANCH  11  14
HETATM   14  O1  UNL     1       0.190   0.719  -2.918  1.00  0.00    -0.354 OA
HETATM   15  C1  UNL     1       0.378   1.126  -4.267  1.00  0.00     0.210 C 
ENDBRANCH  11  14
BRANCH  12  16
HETATM   16  N3  UNL     1      -0.083  -0.077  -0.323  1.00  0.00    -0.321 N 
HETATM   17  C16 UNL     1      -0.796   0.933   0.330  1.00  0.00     0.245 C 
HETATM   18  O2  UNL     1      -0.533   2.106   0.648  1.00  0.00    -0.268 OA
HETATM   19  H13 UNL     1      -0.470  -1.025  -0.509  1.00  0.00     0.169 HD
BRANCH  17  20
HETATM   20  C17 UNL     1      -2.142   0.570   0.742  1.00  0.00     0.072 C 
HETATM   21  C18 UNL     1      -3.039  -0.402   0.756  1.00  0.00     0.013 C 
BRANCH  21  22
HETATM   22  C19 UNL     1      -4.371  -0.955   1.094  1.00  0.00     0.242 C 
HETATM   23  C20 UNL     1      -4.777  -1.924   0.001  1.00  0.00     0.047 C 
BRANCH  22  24
HETATM   24  N4  UNL     1      -5.298   0.140   1.219  1.00  0.00     0.100 N 
HETATM   25  C21 UNL     1      -6.617  -0.309   1.646  1.00  0.00     0.299 C 
HETATM   26  C22 UNL     1      -7.685   0.557   1.006  1.00  0.00     0.198 C 
HETATM   27  O3  UNL     1      -7.262   1.886   1.063  1.00  0.00    -0.388 OA
HETATM   28  C23 UNL     1      -6.212   2.114   0.163  1.00  0.00     0.198 C 
HETATM   29  C24 UNL     1      -5.437   0.815  -0.063  1.00  0.00     0.299 C 
ENDBRANCH  22  24
ENDBRANCH  21  22
ENDBRANCH  17  20
ENDBRANCH  12  16
ENDBRANCH   1   4
BRANCH   1  30
HETATM   30  C10 UNL     1       6.029  -0.845   1.956  1.00  0.00    -0.005 C 
HETATM   31  C11 UNL     1       6.733   0.243   1.693  1.00  0.00     0.002 C 
BRANCH  31  32
HETATM   32  C12 UNL     1       8.073   0.643   2.220  1.00  0.00     0.249 C 
HETATM   33  F1  UNL     1       8.952   0.782   1.176  1.00  0.00    -0.251 F 
ENDBRANCH  31  32
ENDBRANCH   1  30
TORSDOF 8
