REMARK  6 active torsions:
REMARK  status: ('A' for Active; 'I' for Inactive)
REMARK    1  A    between atoms: O1_2  and  C2_3 
REMARK    2  A    between atoms: C2_3  and  C3_4 
REMARK    3  A    between atoms: C4_5  and  C5_6 
REMARK       I    between atoms: C5_6  and  N1_8 
REMARK    4  A    between atoms: N1_8  and  C6_9 
REMARK    5  A    between atoms: C12_15  and  N2_16 
REMARK    6  A    between atoms: N2_16  and  C13_17 
ROOT
HETATM    1  C6  UNL     1       0.479   1.527  -0.335  1.00  0.00     0.036 A 
HETATM    2  C7  UNL     1      -0.060   2.278  -1.352  1.00  0.00     0.030 A 
HETATM    3  C8  UNL     1      -1.356   2.688  -1.316  1.00  0.00     0.012 A 
HETATM    4  C9  UNL     1      -2.104   2.316  -0.216  1.00  0.00    -0.022 A 
HETATM    5  C10 UNL     1      -1.665   1.557   0.873  1.00  0.00    -0.020 A 
HETATM    6  C11 UNL     1      -0.332   1.207   0.711  1.00  0.00     0.039 A 
HETATM    7  C12 UNL     1      -3.067   2.022   0.874  1.00  0.00     0.149 A 
ENDROOT
BRANCH   1   8
HETATM    8  N1  UNL     1       1.838   1.112  -0.396  1.00  0.00    -0.316 N 
HETATM    9  C5  UNL     1       2.484  -0.035  -0.923  1.00  0.00     0.301 C 
HETATM   10  O2  UNL     1       1.834  -0.965  -1.486  1.00  0.00    -0.258 OA
HETATM   11  H6  UNL     1       2.363   1.885   0.070  1.00  0.00     0.170 HD
BRANCH   9  12
HETATM   12  C4  UNL     1       3.931  -0.075  -0.777  1.00  0.00    -0.003 C 
HETATM   13  C3  UNL     1       5.128  -0.095  -0.668  1.00  0.00    -0.070 C 
BRANCH  13  14
HETATM   14  C2  UNL     1       6.565  -0.141  -0.528  1.00  0.00     0.261 C 
BRANCH  14  15
HETATM   15  O1  UNL     1       7.051  -1.369  -0.088  1.00  0.00    -0.384 OA
HETATM   16  C1  UNL     1       6.561  -1.735   1.140  1.00  0.00     0.202 C 
ENDBRANCH  14  15
ENDBRANCH  13  14
ENDBRANCH   9  12
ENDBRANCH   1   8
BRANCH   7  17
HETATM   17  N2  UNL     1      -4.162   1.158   0.539  1.00  0.00    -0.377 N 
HETATM   18  H11 UNL     1      -5.089   1.684   0.648  1.00  0.00     0.160 HD
BRANCH  17  19
HETATM   19  C13 UNL     1      -4.318  -0.163   0.113  1.00  0.00     0.030 A 
HETATM   20  C14 UNL     1      -5.572  -0.709  -0.131  1.00  0.00     0.029 A 
HETATM   21  C15 UNL     1      -5.752  -2.002  -0.547  1.00  0.00     0.004 A 
HETATM   22  C16 UNL     1      -4.669  -2.810  -0.737  1.00  0.00     0.019 A 
HETATM   23  C17 UNL     1      -3.402  -2.358  -0.521  1.00  0.00     0.013 A 
HETATM   24 BR1  UNL     1      -1.906  -3.494  -0.790  1.00  0.00    -0.051 Br
HETATM   25  C18 UNL     1      -3.294  -1.054  -0.106  1.00  0.00     0.048 A 
ENDBRANCH  17  19
ENDBRANCH   7  17
TORSDOF 6
