REMARK  5 active torsions:
REMARK  status: ('A' for Active; 'I' for Inactive)
REMARK    1  A    between atoms: C5_5  and  N1_6 
REMARK    2  A    between atoms: N1_6  and  C6_7 
REMARK    3  A    between atoms: C11_14  and  N4_15 
REMARK       I    between atoms: N4_15  and  C12_16 
REMARK       I    between atoms: C12_16  and  N5_18 
REMARK    4  A    between atoms: N5_18  and  C14_20 
REMARK    5  A    between atoms: C14_20  and  C15_21 
ROOT
HETATM    1  C6  UNL     1       2.107  -0.975   0.686  1.00  0.00     0.142 A 
HETATM    2  N2  UNL     1       3.213  -1.514   1.205  1.00  0.00    -0.224 NA
HETATM    3  C7  UNL     1       3.164  -2.758   1.765  1.00  0.00     0.236 A 
HETATM    4  N3  UNL     1       1.977  -3.421   1.780  1.00  0.00    -0.241 NA
HETATM    5  C8  UNL     1       0.877  -2.859   1.252  1.00  0.00     0.072 A 
HETATM    6  C9  UNL     1      -0.324  -3.549   1.276  1.00  0.00     0.035 A 
HETATM    7  C10 UNL     1      -1.451  -2.959   0.728  1.00  0.00     0.032 A 
HETATM    8  C11 UNL     1      -1.421  -1.703   0.158  1.00  0.00     0.037 A 
HETATM    9  C16 UNL     1      -0.220  -1.026   0.140  1.00  0.00     0.047 A 
HETATM   10  C17 UNL     1       0.902  -1.604   0.680  1.00  0.00     0.041 A 
ENDROOT
BRANCH   8  11
HETATM   11  N4  UNL     1      -2.548  -1.052  -0.418  1.00  0.00    -0.309 N 
HETATM   12  C12 UNL     1      -3.542  -0.187   0.097  1.00  0.00     0.322 C 
HETATM   13  O1  UNL     1      -3.406   0.063   1.330  1.00  0.00    -0.247 OA
HETATM   14  N5  UNL     1      -4.534   0.272  -0.814  1.00  0.00    -0.337 N 
HETATM   15  C13 UNL     1      -4.600  -0.077  -2.218  1.00  0.00     0.154 C 
HETATM   16  H9  UNL     1      -2.450  -1.400  -1.397  1.00  0.00     0.170 HD
BRANCH  14  17
HETATM   17  C14 UNL     1      -5.518   1.160  -0.192  1.00  0.00     0.142 C 
BRANCH  17  18
HETATM   18  C15 UNL     1      -5.079   2.594  -0.278  1.00  0.00     0.134 C 
HETATM   19 CL1  UNL     1      -3.540   2.799   0.550  1.00  0.00    -0.129 Cl
ENDBRANCH  17  18
ENDBRANCH  14  17
ENDBRANCH   8  11
BRANCH   1  20
HETATM   20  N1  UNL     1       2.281   0.322   0.132  1.00  0.00    -0.340 N 
HETATM   21  H5  UNL     1       1.616   0.977  -0.332  1.00  0.00     0.167 HD
BRANCH  20  22
HETATM   22  C5  UNL     1       3.554   0.958   0.150  1.00  0.00     0.035 C 
HETATM   23  C4  UNL     1       4.428   1.087   1.336  1.00  0.00     0.042 C 
HETATM   24  C3  UNL     1       5.413   1.893   0.978  1.00  0.00    -0.017 C 
HETATM   25  C2  UNL     1       5.509   2.064  -0.313  1.00  0.00    -0.049 C 
HETATM   26  C1  UNL     1       6.579   2.620  -1.172  1.00  0.00     0.049 C 
HETATM   27  C18 UNL     1       4.237   1.555  -0.815  1.00  0.00     0.037 C 
ENDBRANCH  20  22
ENDBRANCH   1  20
TORSDOF 5
