REMARK  7 active torsions:
REMARK  status: ('A' for Active; 'I' for Inactive)
REMARK    1  A    between atoms: O1_2  and  C2_3 
REMARK    2  A    between atoms: C2_3  and  C3_4 
REMARK    3  A    between atoms: C4_5  and  C5_6 
REMARK       I    between atoms: C5_6  and  N1_8 
REMARK    4  A    between atoms: N1_8  and  C6_9 
REMARK    5  A    between atoms: C7_10  and  C8_11 
REMARK    6  A    between atoms: C11_14  and  N2_15 
REMARK    7  A    between atoms: N2_15  and  C12_16 
ROOT
HETATM    1  C8  UNL     1       0.339  -0.119  -0.643  1.00  0.00     0.029 C 
HETATM    2  C9  UNL     1      -0.828  -0.691  -0.449  1.00  0.00     0.040 A 
HETATM    3  C10 UNL     1      -2.039  -0.097  -1.097  1.00  0.00     0.118 A 
HETATM    4  C11 UNL     1      -3.248  -0.855  -0.769  1.00  0.00     0.037 A 
HETATM    5  C18 UNL     1      -3.258  -1.921  -0.002  1.00  0.00     0.085 A 
HETATM    6  C19 UNL     1      -4.506  -2.556   0.230  1.00  0.00     0.103 C 
HETATM    7  N3  UNL     1      -5.497  -3.081   0.421  1.00  0.00    -0.191 NA
HETATM    8  C20 UNL     1      -2.043  -2.457   0.604  1.00  0.00     0.141 A 
HETATM    9  N4  UNL     1      -0.919  -1.863   0.379  1.00  0.00    -0.264 NA
ENDROOT
BRANCH   4  10
HETATM   10  N2  UNL     1      -4.357  -0.230  -1.405  1.00  0.00    -0.358 N 
HETATM   11  H12 UNL     1      -4.539  -0.102  -2.446  1.00  0.00     0.166 HD
BRANCH  10  12
HETATM   12  C12 UNL     1      -5.460   0.355  -0.750  1.00  0.00     0.033 A 
HETATM   13  C13 UNL     1      -6.718  -0.141  -0.556  1.00  0.00     0.029 A 
HETATM   14  C14 UNL     1      -7.730   0.500   0.115  1.00  0.00     0.004 A 
HETATM   15  C15 UNL     1      -7.486   1.762   0.654  1.00  0.00     0.019 A 
HETATM   16  C16 UNL     1      -6.230   2.284   0.472  1.00  0.00     0.013 A 
HETATM   17 BR1  UNL     1      -5.931   4.013   1.228  1.00  0.00    -0.051 Br
HETATM   18  C17 UNL     1      -5.219   1.625  -0.207  1.00  0.00     0.048 A 
ENDBRANCH  10  12
ENDBRANCH   4  10
BRANCH   1  19
HETATM   19  C7  UNL     1       1.611  -0.559  -0.096  1.00  0.00     0.019 C 
HETATM   20  C6  UNL     1       2.658   0.161  -0.426  1.00  0.00     0.092 C 
BRANCH  20  21
HETATM   21  N1  UNL     1       4.038   0.377  -0.332  1.00  0.00    -0.326 N 
HETATM   22  C5  UNL     1       5.157   0.431  -1.170  1.00  0.00     0.300 C 
HETATM   23  O2  UNL     1       5.002   0.245  -2.388  1.00  0.00    -0.258 OA
HETATM   24  H6  UNL     1       4.135   0.525   0.720  1.00  0.00     0.169 HD
BRANCH  22  25
HETATM   25  C4  UNL     1       6.423   0.704  -0.544  1.00  0.00    -0.003 C 
HETATM   26  C3  UNL     1       7.482   0.954  -0.019  1.00  0.00    -0.070 C 
BRANCH  26  27
HETATM   27  C2  UNL     1       8.778   1.272   0.626  1.00  0.00     0.261 C 
BRANCH  27  28
HETATM   28  O1  UNL     1       8.680   1.067   2.003  1.00  0.00    -0.384 OA
HETATM   29  C1  UNL     1       8.335  -0.286   2.170  1.00  0.00     0.202 C 
ENDBRANCH  27  28
ENDBRANCH  26  27
ENDBRANCH  22  25
ENDBRANCH  20  21
ENDBRANCH   1  19
TORSDOF 7
