REMARK  7 active torsions:
REMARK  status: ('A' for Active; 'I' for Inactive)
REMARK    1  A    between atoms: N1_2  and  C3_4 
REMARK    2  A    between atoms: C3_4  and  C4_5 
REMARK    3  A    between atoms: C5_6  and  C6_7 
REMARK       I    between atoms: C6_7  and  N2_9 
REMARK    4  A    between atoms: N2_9  and  C7_10 
REMARK    5  A    between atoms: C12_16  and  N4_17 
REMARK    6  A    between atoms: C13_18  and  N5_19 
REMARK    7  A    between atoms: N5_19  and  C14_20 
ROOT
HETATM    1  C7  UNL     1       0.491  -0.250  -0.980  1.00  0.00     0.019 A 
HETATM    2  C8  UNL     1      -0.661  -0.528  -0.376  1.00  0.00     0.041 A 
HETATM    3  C9  UNL     1      -1.628  -1.125  -1.294  1.00  0.00     0.020 A 
HETATM    4  C10 UNL     1      -0.960  -1.185  -2.511  1.00  0.00     0.052 A 
HETATM    5  N3  UNL     1      -1.560  -1.687  -3.593  1.00  0.00    -0.262 NA
HETATM    6  C11 UNL     1      -2.841  -2.144  -3.496  1.00  0.00     0.148 A 
HETATM    7  C12 UNL     1      -3.544  -2.103  -2.302  1.00  0.00     0.071 A 
HETATM    8  C13 UNL     1      -2.922  -1.583  -1.182  1.00  0.00     0.073 A 
HETATM    9  C20 UNL     1       0.424  -0.635  -2.398  1.00  0.00     0.117 A 
ENDROOT
BRANCH   1  10
HETATM   10  N2  UNL     1       1.648   0.334  -0.392  1.00  0.00    -0.327 N 
HETATM   11  C6  UNL     1       2.227   1.561  -0.820  1.00  0.00     0.245 C 
HETATM   12  O1  UNL     1       1.496   1.934  -1.765  1.00  0.00    -0.268 OA
HETATM   13  H11 UNL     1       1.951  -0.322   0.387  1.00  0.00     0.169 HD
BRANCH  11  14
HETATM   14  C5  UNL     1       3.408   2.017  -0.114  1.00  0.00     0.072 C 
HETATM   15  C4  UNL     1       4.267   1.767   0.849  1.00  0.00     0.008 C 
BRANCH  15  16
HETATM   16  C3  UNL     1       4.563   0.760   1.890  1.00  0.00     0.299 C 
BRANCH  16  17
HETATM   17  N1  UNL     1       5.886   0.162   1.733  1.00  0.00     0.083 N 
HETATM   18  C1  UNL     1       5.847  -0.636   0.522  1.00  0.00     0.309 C 
HETATM   19  C2  UNL     1       6.907   1.159   1.709  1.00  0.00     0.309 C 
ENDBRANCH  16  17
ENDBRANCH  15  16
ENDBRANCH  11  14
ENDBRANCH   1  10
BRANCH   8  20
HETATM   20  N5  UNL     1      -3.518  -1.480   0.104  1.00  0.00    -0.354 N 
HETATM   21  H16 UNL     1      -3.386  -2.315   0.706  1.00  0.00     0.166 HD
BRANCH  20  22
HETATM   22  C14 UNL     1      -4.241  -0.344   0.555  1.00  0.00     0.033 A 
HETATM   23  C15 UNL     1      -4.393   0.767  -0.247  1.00  0.00     0.029 A 
HETATM   24  C16 UNL     1      -5.103   1.874   0.202  1.00  0.00     0.004 A 
HETATM   25  C17 UNL     1      -5.642   1.799   1.486  1.00  0.00     0.019 A 
HETATM   26  C18 UNL     1      -5.498   0.696   2.300  1.00  0.00     0.013 A 
HETATM   27 BR1  UNL     1      -6.285   0.728   4.028  1.00  0.00    -0.051 Br
HETATM   28  C19 UNL     1      -4.792  -0.372   1.818  1.00  0.00     0.048 A 
ENDBRANCH  20  22
ENDBRANCH   8  20
BRANCH   7  29
HETATM   29  N4  UNL     1      -4.871  -2.568  -2.165  1.00  0.00    -0.396 N 
HETATM   30  H14 UNL     1      -4.955  -3.454  -1.626  1.00  0.00     0.156 HD
HETATM   31  H15 UNL     1      -5.767  -2.168  -2.513  1.00  0.00     0.156 HD
ENDBRANCH   7  29
TORSDOF 7
