REMARK  6 active torsions:
REMARK  status: ('A' for Active; 'I' for Inactive)
REMARK    1  A    between atoms: C2_2  and  O1_3 
REMARK    2  A    between atoms: O1_3  and  C3_4 
REMARK    3  A    between atoms: C17_21  and  N4_22 
REMARK       I    between atoms: N4_22  and  C18_23 
REMARK    4  A    between atoms: C18_23  and  C19_25 
REMARK    5  A    between atoms: C20_26  and  C21_27 
REMARK    6  A    between atoms: C21_27  and  N5_28 
ROOT
HETATM    1  C3  UNL     1      -0.543   0.831  -0.164  1.00  0.00     0.097 C 
HETATM    2  C4  UNL     1      -1.672   1.455   0.178  1.00  0.00     0.069 C 
HETATM    3  C5  UNL     1      -3.049   1.069   0.473  1.00  0.00     0.074 C 
HETATM    4  N1  UNL     1      -3.955   1.977   0.439  1.00  0.00    -0.295 NA
HETATM    5  C6  UNL     1      -3.610   3.322   0.119  1.00  0.00     0.178 C 
HETATM    6  C7  UNL     1      -3.547  -0.307   0.821  1.00  0.00     0.175 C 
HETATM    7  C8  UNL     1      -4.922  -0.113   1.289  1.00  0.00     0.099 C 
HETATM    8  N2  UNL     1      -6.032   0.038   1.645  1.00  0.00    -0.194 NA
HETATM    9  N3  UNL     1      -2.842  -0.872   1.964  1.00  0.00    -0.372 N 
HETATM   10  C9  UNL     1      -3.254  -2.132   2.488  1.00  0.00     0.085 C 
HETATM   11  C10 UNL     1      -4.155  -3.051   2.099  1.00  0.00     0.016 C 
HETATM   12  C11 UNL     1      -4.977  -2.870   0.890  1.00  0.00    -0.002 C 
HETATM   13  C12 UNL     1      -4.782  -2.101  -0.195  1.00  0.00    -0.013 C 
HETATM   14  C13 UNL     1      -3.556  -1.225  -0.334  1.00  0.00     0.022 C 
HETATM   15  C14 UNL     1      -3.872  -0.367  -1.568  1.00  0.00     0.024 C 
HETATM   16  C15 UNL     1      -2.437  -2.103  -0.615  1.00  0.00     0.046 C 
HETATM   17  C16 UNL     1      -1.059  -1.655  -0.542  1.00  0.00     0.007 C 
HETATM   18  C17 UNL     1      -0.282  -0.590  -0.378  1.00  0.00     0.065 C 
HETATM   19  H10 UNL     1      -2.038  -0.452   2.469  1.00  0.00     0.161 HD
ENDROOT
BRANCH   1  20
HETATM   20  O1  UNL     1       0.527   1.695  -0.333  1.00  0.00    -0.349 OA
BRANCH  20  21
HETATM   21  C2  UNL     1       0.782   2.398  -1.525  1.00  0.00     0.171 C 
HETATM   22  C1  UNL     1       2.016   3.268  -1.412  1.00  0.00     0.034 C 
ENDBRANCH  20  21
ENDBRANCH   1  20
BRANCH  18  23
HETATM   23  N4  UNL     1       1.125  -0.805  -0.405  1.00  0.00    -0.321 N 
HETATM   24  C18 UNL     1       1.727  -0.410   0.818  1.00  0.00     0.245 C 
HETATM   25  O2  UNL     1       0.934   0.047   1.680  1.00  0.00    -0.268 OA
HETATM   26  H21 UNL     1       1.715  -1.194  -1.172  1.00  0.00     0.169 HD
BRANCH  24  27
HETATM   27  C19 UNL     1       3.159  -0.515   1.076  1.00  0.00     0.072 C 
HETATM   28  C20 UNL     1       3.972  -0.989   0.175  1.00  0.00     0.008 C 
BRANCH  28  29
HETATM   29  C21 UNL     1       5.439  -1.091   0.455  1.00  0.00     0.299 C 
BRANCH  29  30
HETATM   30  N5  UNL     1       6.242  -0.329  -0.456  1.00  0.00     0.083 N 
HETATM   31  C22 UNL     1       7.660  -0.426  -0.184  1.00  0.00     0.309 C 
HETATM   32  C23 UNL     1       5.760   1.015  -0.573  1.00  0.00     0.309 C 
ENDBRANCH  29  30
ENDBRANCH  28  29
ENDBRANCH  24  27
ENDBRANCH  18  23
TORSDOF 6
