REMARK  5 active torsions:
REMARK  status: ('A' for Active; 'I' for Inactive)
REMARK    1  A    between atoms: C2_2  and  O1_3 
REMARK    2  A    between atoms: O1_3  and  C3_4 
REMARK    3  A    between atoms: C5_6  and  C6_7 
REMARK    4  A    between atoms: C18_23  and  C19_24 
REMARK    5  A    between atoms: C19_24  and  N4_25 
ROOT
HETATM    1  C6  UNL     1       2.434   2.440  -2.146  1.00  0.00    -0.003 C 
HETATM    2  C7  UNL     1       2.905   2.759  -3.332  1.00  0.00     0.090 C 
HETATM    3  C8  UNL     1       3.106   4.112  -3.767  1.00  0.00     0.087 C 
HETATM    4  N1  UNL     1       3.270   5.225  -4.112  1.00  0.00    -0.192 NA
ENDROOT
BRANCH   1   5
HETATM    5  C5  UNL     1       2.272   1.000  -1.815  1.00  0.00     0.063 C 
HETATM    6  C4  UNL     1       3.160   0.730  -0.624  1.00  0.00     0.024 C 
HETATM    7  C3  UNL     1       2.774   0.092   0.514  1.00  0.00     0.080 C 
HETATM    8  C12 UNL     1       1.561  -0.716   0.835  1.00  0.00     0.047 C 
HETATM    9  C11 UNL     1       1.018  -1.385  -0.211  1.00  0.00     0.018 C 
HETATM   10  C13 UNL     1       1.254  -0.530   2.233  1.00  0.00     0.184 C 
HETATM   11  C10 UNL     1       0.517  -0.671  -1.439  1.00  0.00     0.005 C 
HETATM   12  C9  UNL     1       0.878   0.641  -1.502  1.00  0.00    -0.064 C 
HETATM   13  C22 UNL     1      -0.298   1.458  -1.159  1.00  0.00     0.077 C 
HETATM   14  C21 UNL     1      -1.514   1.156  -1.948  1.00  0.00    -0.025 A 
HETATM   15  C20 UNL     1      -2.588   0.562  -1.392  1.00  0.00     0.095 A 
HETATM   16 BR1  UNL     1      -2.883   0.933  -3.238  1.00  0.00    -0.126 Br
HETATM   17  C18 UNL     1      -3.914  -0.050  -1.145  1.00  0.00     0.053 C 
HETATM   18  C17 UNL     1      -3.828  -1.529  -0.935  1.00  0.00     0.181 C 
HETATM   19  N3  UNL     1      -3.087  -1.982   0.159  1.00  0.00    -0.197 NA
HETATM   20  N2  UNL     1      -3.269  -1.726   1.328  1.00  0.00    -0.194 NA
HETATM   21  C16 UNL     1      -2.384  -2.294   2.344  1.00  0.00     0.200 C 
HETATM   22  C15 UNL     1      -1.077  -1.635   2.402  1.00  0.00     0.001 C 
HETATM   23  C14 UNL     1       0.002  -0.994   2.789  1.00  0.00     0.053 C 
HETATM   24  O2  UNL     1       1.946   0.006   3.084  1.00  0.00    -0.287 OA
BRANCH   7  25
HETATM   25  O1  UNL     1       3.612   0.154   1.647  1.00  0.00    -0.351 OA
BRANCH  25  26
HETATM   26  C2  UNL     1       4.563  -0.863   1.803  1.00  0.00     0.171 C 
HETATM   27  C1  UNL     1       5.408  -0.660   3.039  1.00  0.00     0.034 C 
ENDBRANCH  25  26
ENDBRANCH   7  25
BRANCH  17  28
HETATM   28  C19 UNL     1      -4.698   0.624  -0.042  1.00  0.00     0.274 C 
BRANCH  28  29
HETATM   29  N4  UNL     1      -6.026   0.046  -0.068  1.00  0.00     0.078 N 
HETATM   30  H21 UNL     1      -6.539   0.588  -0.828  1.00  0.00     0.312 HD
HETATM   31  H22 UNL     1      -6.550   0.312   0.806  1.00  0.00     0.312 HD
ENDBRANCH  28  29
ENDBRANCH  17  28
ENDBRANCH   1   5
TORSDOF 5
