REMARK  7 active torsions:
REMARK  status: ('A' for Active; 'I' for Inactive)
REMARK    1  A    between atoms: N1_2  and  C3_4 
REMARK    2  A    between atoms: C3_4  and  C4_5 
REMARK    3  A    between atoms: C5_6  and  C6_7 
REMARK       I    between atoms: C6_7  and  N2_9 
REMARK    4  A    between atoms: N2_9  and  C7_10 
REMARK    5  A    between atoms: C7_10  and  C8_11 
REMARK    6  A    between atoms: C11_14  and  N3_15 
REMARK    7  A    between atoms: N3_15  and  C12_16 
ROOT
HETATM    1  C8  UNL     1      -0.101  -0.533  -2.117  1.00  0.00    -0.040 A 
HETATM    2  C9  UNL     1      -0.991  -1.466  -1.804  1.00  0.00     0.024 A 
HETATM    3  C10 UNL     1      -1.897  -0.364  -1.483  1.00  0.00    -0.012 A 
HETATM    4  C11 UNL     1      -3.110  -0.653  -1.058  1.00  0.00     0.038 A 
HETATM    5  C18 UNL     1      -3.746  -1.941  -0.841  1.00  0.00     0.214 A 
HETATM    6  N4  UNL     1      -2.990  -3.097  -1.106  1.00  0.00    -0.259 NA
HETATM    7  S1  UNL     1      -1.510  -3.154  -1.624  1.00  0.00    -0.076 SA
HETATM    8  C19 UNL     1      -1.329  -4.079  -3.140  1.00  0.00     0.109 C 
HETATM    9  C20 UNL     1      -0.905   0.686  -1.828  1.00  0.00     0.079 A 
ENDROOT
BRANCH   1  10
HETATM   10  C7  UNL     1       1.295  -0.668  -2.611  1.00  0.00     0.158 C 
BRANCH  10  11
HETATM   11  N2  UNL     1       2.271  -0.048  -1.723  1.00  0.00    -0.354 N 
HETATM   12  C6  UNL     1       3.650  -0.133  -2.122  1.00  0.00     0.241 C 
HETATM   13  O1  UNL     1       3.585  -0.781  -3.223  1.00  0.00    -0.269 OA
HETATM   14  H11 UNL     1       1.903   0.423  -0.845  1.00  0.00     0.163 HD
BRANCH  12  15
HETATM   15  C5  UNL     1       4.668   0.466  -1.279  1.00  0.00     0.072 C 
HETATM   16  C4  UNL     1       4.867   1.135  -0.167  1.00  0.00     0.008 C 
BRANCH  16  17
HETATM   17  C3  UNL     1       4.140   1.713   0.958  1.00  0.00     0.299 C 
BRANCH  17  18
HETATM   18  N1  UNL     1       4.545   1.158   2.238  1.00  0.00     0.083 N 
HETATM   19  C1  UNL     1       4.139  -0.215   2.338  1.00  0.00     0.309 C 
HETATM   20  C2  UNL     1       5.953   1.258   2.477  1.00  0.00     0.309 C 
ENDBRANCH  17  18
ENDBRANCH  16  17
ENDBRANCH  12  15
ENDBRANCH  10  11
ENDBRANCH   1  10
BRANCH   4  21
HETATM   21  N3  UNL     1      -4.020   0.394  -0.735  1.00  0.00    -0.358 N 
HETATM   22  H14 UNL     1      -4.344   0.715  -1.678  1.00  0.00     0.166 HD
BRANCH  21  23
HETATM   23  C12 UNL     1      -4.483   0.979   0.464  1.00  0.00     0.033 A 
HETATM   24  C13 UNL     1      -5.395   2.010   0.404  1.00  0.00     0.029 A 
HETATM   25  C14 UNL     1      -5.784   2.511   1.627  1.00  0.00     0.004 A 
HETATM   26  C15 UNL     1      -5.333   2.061   2.850  1.00  0.00     0.019 A 
HETATM   27  C16 UNL     1      -4.426   1.032   2.862  1.00  0.00     0.013 A 
HETATM   28 BR1  UNL     1      -3.784   0.387   4.548  1.00  0.00    -0.051 Br
HETATM   29  C17 UNL     1      -4.007   0.498   1.668  1.00  0.00     0.048 A 
ENDBRANCH  21  23
ENDBRANCH   4  21
TORSDOF 7
