REMARK  7 active torsions:
REMARK  status: ('A' for Active; 'I' for Inactive)
REMARK    1  A    between atoms: O1_2  and  C2_3 
REMARK    2  A    between atoms: C4_5  and  N1_6 
REMARK       I    between atoms: N1_6  and  C5_7 
REMARK    3  A    between atoms: C5_7  and  C6_9 
REMARK    4  A    between atoms: C7_10  and  C8_11 
REMARK    5  A    between atoms: C8_11  and  N2_12 
REMARK    6  A    between atoms: C16_21  and  N4_22 
REMARK    7  A    between atoms: N4_22  and  C17_23 
ROOT
HETATM    1  C2  UNL     1       2.868   2.666  -0.547  1.00  0.00     0.053 C 
HETATM    2  C3  UNL     1       1.535   2.785  -0.829  1.00  0.00     0.062 C 
HETATM    3  C4  UNL     1       0.780   1.539  -0.428  1.00  0.00     0.041 C 
HETATM    4  C11 UNL     1       1.715   0.752   0.055  1.00  0.00    -0.029 C 
HETATM    5  C12 UNL     1       2.965   0.317  -0.734  1.00  0.00     0.051 C 
HETATM    6  C13 UNL     1       3.702   1.513  -0.019  1.00  0.00     0.066 C 
HETATM    7  C14 UNL     1       3.374   1.136   1.424  1.00  0.00     0.130 C 
HETATM    8  C15 UNL     1       3.008   2.249   2.250  1.00  0.00     0.067 C 
HETATM    9  N3  UNL     1       2.707   3.131   2.898  1.00  0.00    -0.197 NA
HETATM   10  C16 UNL     1       2.151   0.114   1.322  1.00  0.00     0.131 C 
ENDROOT
BRANCH  10  11
HETATM   11  N4  UNL     1       2.669  -1.201   1.187  1.00  0.00    -0.380 N 
HETATM   12  H21 UNL     1       3.669  -1.280   1.550  1.00  0.00     0.160 HD
BRANCH  11  13
HETATM   13  C17 UNL     1       2.317  -2.482   0.734  1.00  0.00     0.029 A 
HETATM   14  C18 UNL     1       3.066  -3.646   0.724  1.00  0.00     0.029 A 
HETATM   15  C19 UNL     1       2.508  -4.795   0.223  1.00  0.00     0.004 A 
HETATM   16  C20 UNL     1       1.229  -4.877  -0.284  1.00  0.00     0.019 A 
HETATM   17  C21 UNL     1       0.466  -3.730  -0.284  1.00  0.00     0.013 A 
HETATM   18 BR1  UNL     1      -1.291  -3.827  -0.976  1.00  0.00    -0.051 Br
HETATM   19  C22 UNL     1       1.024  -2.575   0.219  1.00  0.00     0.048 A 
ENDBRANCH  11  13
ENDBRANCH  10  11
BRANCH   1  20
HETATM   20  O1  UNL     1       3.507   3.877  -0.824  1.00  0.00    -0.360 OA
HETATM   21  C1  UNL     1       3.138   4.783  -1.813  1.00  0.00     0.209 C 
ENDBRANCH   1  20
BRANCH   3  22
HETATM   22  N1  UNL     1      -0.543   1.136  -0.390  1.00  0.00    -0.323 N 
HETATM   23  C5  UNL     1      -1.509   2.010  -0.915  1.00  0.00     0.245 C 
HETATM   24  O2  UNL     1      -1.351   3.142  -1.436  1.00  0.00    -0.268 OA
HETATM   25  H5  UNL     1      -0.849   0.259   0.001  1.00  0.00     0.169 HD
BRANCH  23  26
HETATM   26  C6  UNL     1      -2.879   1.549  -0.844  1.00  0.00     0.072 C 
HETATM   27  C7  UNL     1      -3.474   0.470  -0.391  1.00  0.00     0.008 C 
BRANCH  27  28
HETATM   28  C8  UNL     1      -4.832  -0.070  -0.281  1.00  0.00     0.299 C 
BRANCH  28  29
HETATM   29  N2  UNL     1      -5.249  -0.334   1.081  1.00  0.00     0.083 N 
HETATM   30  C9  UNL     1      -6.614  -0.849   0.982  1.00  0.00     0.309 C 
HETATM   31  C10 UNL     1      -4.437  -1.362   1.704  1.00  0.00     0.309 C 
ENDBRANCH  28  29
ENDBRANCH  27  28
ENDBRANCH  23  26
ENDBRANCH   3  22
TORSDOF 7
