REMARK  4 active torsions:
REMARK  status: ('A' for Active; 'I' for Inactive)
REMARK    1  A    between atoms: C2_2  and  C3_3 
REMARK    2  A    between atoms: C16_20  and  N4_21 
REMARK    3  A    between atoms: C17_22  and  N5_23 
REMARK    4  A    between atoms: N5_23  and  C18_24 
ROOT
HETATM    1  C3  UNL     1      -2.036  -1.333   1.053  1.00  0.00     0.028 C 
HETATM    2  C4  UNL     1      -2.274  -1.551   2.540  1.00  0.00     0.024 C 
HETATM    3  C5  UNL     1      -2.952  -0.293   0.491  1.00  0.00     0.287 C 
HETATM    4  N1  UNL     1      -4.256  -0.420  -0.000  1.00  0.00     0.085 N 
HETATM    5  C6  UNL     1      -4.576  -1.017  -1.209  1.00  0.00     0.309 C 
HETATM    6  C7  UNL     1      -4.697   1.140  -0.261  1.00  0.00     0.281 C 
HETATM    7  C8  UNL     1      -3.465   1.462  -1.052  1.00  0.00     0.079 A 
HETATM    8  C9  UNL     1      -3.071   2.247  -0.057  1.00  0.00     0.061 A 
HETATM    9  C10 UNL     1      -1.924   2.315  -0.931  1.00  0.00     0.146 A 
HETATM   10  O1  UNL     1      -1.277   2.744   0.025  1.00  0.00    -0.333 OA
HETATM   11  N2  UNL     1      -0.623   2.498  -1.459  1.00  0.00    -0.362 N 
HETATM   12  C11 UNL     1       0.220   2.828  -0.246  1.00  0.00     0.247 C 
HETATM   13  C12 UNL     1       0.522   1.723   0.601  1.00  0.00     0.041 C 
HETATM   14  C13 UNL     1       0.252   0.262   0.658  1.00  0.00     0.019 A 
HETATM   15  C14 UNL     1      -0.579  -0.896   0.819  1.00  0.00     0.056 A 
HETATM   16  N3  UNL     1       0.195  -1.865   0.755  1.00  0.00    -0.261 NA
HETATM   17  C15 UNL     1       1.370  -2.399   0.624  1.00  0.00     0.148 A 
HETATM   18  C16 UNL     1       2.264  -1.383   0.467  1.00  0.00     0.071 A 
HETATM   19  C17 UNL     1       1.593  -0.153   0.502  1.00  0.00     0.072 A 
HETATM   20  H16 UNL     1       0.301   2.630  -1.813  1.00  0.00     0.159 HD
ENDROOT
BRANCH  19  21
HETATM   21  N5  UNL     1       2.804   0.675   0.358  1.00  0.00    -0.354 N 
HETATM   22  H22 UNL     1       2.730   1.177   1.255  1.00  0.00     0.166 HD
BRANCH  21  23
HETATM   23  C18 UNL     1       3.777   0.847  -0.617  1.00  0.00     0.033 A 
HETATM   24  C19 UNL     1       3.995   0.855  -1.935  1.00  0.00     0.029 A 
HETATM   25  C20 UNL     1       5.159   0.946  -2.674  1.00  0.00     0.004 A 
HETATM   26  C21 UNL     1       6.280   1.049  -1.823  1.00  0.00     0.019 A 
HETATM   27  C22 UNL     1       6.188   1.060  -0.498  1.00  0.00     0.013 A 
HETATM   28 BR1  UNL     1       7.875   1.219   0.443  1.00  0.00    -0.051 Br
HETATM   29  C23 UNL     1       4.965   0.959   0.176  1.00  0.00     0.048 A 
ENDBRANCH  21  23
ENDBRANCH  19  21
BRANCH  18  30
HETATM   30  N4  UNL     1       3.624  -1.799   0.317  1.00  0.00    -0.396 N 
HETATM   31  H20 UNL     1       4.086  -2.043   1.222  1.00  0.00     0.156 HD
HETATM   32  H21 UNL     1       3.812  -1.758  -0.685  1.00  0.00     0.156 HD
ENDBRANCH  18  30
BRANCH   1  33
HETATM   33  C2  UNL     1      -2.325  -2.624   0.418  1.00  0.00    -0.012 C 
HETATM   34  C1  UNL     1      -1.905  -3.880   0.077  1.00  0.00     0.030 C 
ENDBRANCH   1  33
TORSDOF 4
