REMARK  6 active torsions:
REMARK  status: ('A' for Active; 'I' for Inactive)
REMARK    1  A    between atoms: O1_2  and  C2_3 
REMARK    2  A    between atoms: C5_7  and  N2_8 
REMARK    3  A    between atoms: C13_17  and  N3_18 
REMARK       I    between atoms: N3_18  and  C14_19 
REMARK    4  A    between atoms: C14_19  and  C15_21 
REMARK    5  A    between atoms: C16_22  and  C17_23 
REMARK    6  A    between atoms: C17_23  and  N4_24 
ROOT
HETATM    1  C2  UNL     1       1.867   2.333  -2.578  1.00  0.00     0.078 C 
HETATM    2  C3  UNL     1       1.015   1.412  -2.036  1.00  0.00     0.085 C 
HETATM    3  N1  UNL     1       1.682   0.005  -2.457  1.00  0.00    -0.380 N 
HETATM    4  C4  UNL     1       2.830  -0.463  -1.557  1.00  0.00     0.177 C 
HETATM    5  C5  UNL     1       2.859   0.361  -0.241  1.00  0.00     0.036 C 
HETATM    6  C11 UNL     1       2.152   1.546  -0.404  1.00  0.00    -0.025 C 
HETATM    7  C12 UNL     1       0.698   2.170  -0.017  1.00  0.00     0.041 C 
HETATM    8  C13 UNL     1       0.213   1.104  -0.771  1.00  0.00     0.064 C 
HETATM    9  C20 UNL     1       2.890   2.444  -1.423  1.00  0.00     0.107 C 
HETATM   10  H4  UNL     1       1.815  -0.914  -3.075  1.00  0.00     0.160 HD
ENDROOT
BRANCH   8  11
HETATM   11  N3  UNL     1      -0.942   0.392  -0.130  1.00  0.00    -0.322 N 
HETATM   12  C14 UNL     1      -0.966  -0.940   0.235  1.00  0.00     0.245 C 
HETATM   13  O2  UNL     1      -0.002  -1.721   0.076  1.00  0.00    -0.268 OA
HETATM   14  H13 UNL     1      -1.716   1.125  -0.029  1.00  0.00     0.169 HD
BRANCH  12  15
HETATM   15  C15 UNL     1      -2.245  -1.259   0.807  1.00  0.00     0.072 C 
HETATM   16  C16 UNL     1      -3.282  -0.475   0.989  1.00  0.00     0.008 C 
BRANCH  16  17
HETATM   17  C17 UNL     1      -4.535  -0.965   1.597  1.00  0.00     0.299 C 
BRANCH  17  18
HETATM   18  N4  UNL     1      -5.662  -0.820   0.693  1.00  0.00     0.083 N 
HETATM   19  C18 UNL     1      -6.013   0.552   0.460  1.00  0.00     0.309 C 
HETATM   20  C19 UNL     1      -6.827  -1.518   1.161  1.00  0.00     0.309 C 
ENDBRANCH  17  18
ENDBRANCH  16  17
ENDBRANCH  12  15
ENDBRANCH   8  11
BRANCH   1  21
HETATM   21  O1  UNL     1       1.823   3.001  -3.802  1.00  0.00    -0.358 OA
HETATM   22  C1  UNL     1       0.743   3.751  -4.260  1.00  0.00     0.209 C 
ENDBRANCH   1  21
BRANCH   5  23
HETATM   23  N2  UNL     1       3.568  -0.291   0.859  1.00  0.00    -0.354 N 
HETATM   24  C6  UNL     1       4.890  -0.624   0.467  1.00  0.00     0.091 A 
HETATM   25  C7  UNL     1       5.629  -1.223   1.405  1.00  0.00     0.018 A 
HETATM   26  C8  UNL     1       5.102  -1.512   2.751  1.00  0.00     0.018 A 
HETATM   27  C9  UNL     1       3.844  -1.184   3.094  1.00  0.00     0.007 A 
HETATM   28 BR1  UNL     1       3.180  -1.564   4.832  1.00  0.00    -0.054 Br
HETATM   29  C10 UNL     1       2.945  -0.525   2.147  1.00  0.00     0.174 A 
ENDBRANCH   5  23
TORSDOF 6
