REMARK  5 active torsions:
REMARK  status: ('A' for Active; 'I' for Inactive)
REMARK    1  A    between atoms: C6_8  and  N3_9 
REMARK    2  A    between atoms: N3_9  and  C7_10 
REMARK    3  A    between atoms: C14_18  and  C15_19 
REMARK    4  A    between atoms: C16_20  and  C17_21 
REMARK    5  A    between atoms: C17_21  and  C18_22 
ROOT
HETATM    1  N1  UNL     1      -5.016  -0.085  -2.202  1.00  0.00    -0.191 NA
HETATM    2  C1  UNL     1      -4.054  -0.677  -2.011  1.00  0.00     0.103 C 
HETATM    3  C2  UNL     1      -2.849  -1.430  -1.747  1.00  0.00     0.089 A 
HETATM    4  C3  UNL     1      -2.489  -2.346  -2.739  1.00  0.00     0.142 A 
HETATM    5  N2  UNL     1      -1.374  -3.101  -2.586  1.00  0.00    -0.259 NA
HETATM    6  C4  UNL     1      -0.635  -2.955  -1.482  1.00  0.00     0.070 A 
HETATM    7  C5  UNL     1      -0.955  -2.069  -0.489  1.00  0.00     0.020 A 
HETATM    8  C6  UNL     1      -2.080  -1.276  -0.596  1.00  0.00     0.067 A 
HETATM    9  C13 UNL     1      -0.361  -1.794   0.642  1.00  0.00     0.029 A 
HETATM   10  C14 UNL     1       0.848  -2.310   1.277  1.00  0.00     0.210 A 
HETATM   11  N4  UNL     1       1.567  -3.321   0.564  1.00  0.00    -0.280 NA
HETATM   12  C21 UNL     1       1.461  -3.950  -0.536  1.00  0.00     0.114 A 
HETATM   13  C22 UNL     1       0.405  -3.774  -1.517  1.00  0.00     0.051 A 
ENDROOT
BRANCH   8  14
HETATM   14  N3  UNL     1      -2.525  -0.334   0.336  1.00  0.00    -0.354 N 
HETATM   15  H2  UNL     1      -3.163  -0.827   0.999  1.00  0.00     0.166 HD
BRANCH  14  16
HETATM   16  C7  UNL     1      -2.201   1.047   0.413  1.00  0.00     0.033 A 
HETATM   17  C8  UNL     1      -1.339   1.546  -0.543  1.00  0.00     0.029 A 
HETATM   18  C9  UNL     1      -1.064   2.904  -0.410  1.00  0.00     0.004 A 
HETATM   19  C10 UNL     1      -1.593   3.687   0.575  1.00  0.00     0.019 A 
HETATM   20  C11 UNL     1      -2.450   3.112   1.497  1.00  0.00     0.013 A 
HETATM   21 BR1  UNL     1      -3.239   4.129   2.911  1.00  0.00    -0.051 Br
HETATM   22  C12 UNL     1      -2.785   1.757   1.444  1.00  0.00     0.048 A 
ENDBRANCH  14  16
ENDBRANCH   8  14
BRANCH  10  23
HETATM   23  C15 UNL     1       1.798  -1.189   1.476  1.00  0.00    -0.075 C 
HETATM   24  C16 UNL     1       2.590  -0.284   1.646  1.00  0.00    -0.100 C 
BRANCH  24  25
HETATM   25  C17 UNL     1       3.558   0.792   1.864  1.00  0.00     0.132 C 
BRANCH  25  26
HETATM   26  C18 UNL     1       3.616   1.600   0.620  1.00  0.00    -0.023 A 
HETATM   27  C19 UNL     1       3.066   1.616  -0.563  1.00  0.00     0.140 A 
HETATM   28  O1  UNL     1       3.771   2.723  -0.951  1.00  0.00    -0.358 OA
HETATM   29  C20 UNL     1       4.420   2.796   0.289  1.00  0.00     0.211 A 
ENDBRANCH  25  26
ENDBRANCH  24  25
ENDBRANCH  10  23
TORSDOF 5
