REMARK  8 active torsions:
REMARK  status: ('A' for Active; 'I' for Inactive)
REMARK    1  A    between atoms: C2_2  and  C3_3 
REMARK    2  A    between atoms: C7_9  and  N3_10 
REMARK    3  A    between atoms: C13_17  and  C14_18 
REMARK    4  A    between atoms: C14_18  and  C15_19 
REMARK    5  A    between atoms: C15_19  and  N4_20 
REMARK       I    between atoms: N4_20  and  C16_21 
REMARK    6  A    between atoms: C16_21  and  C17_23 
REMARK    7  A    between atoms: C18_24  and  C19_25 
REMARK    8  A    between atoms: C19_25  and  N5_26 
ROOT
HETATM    1  C3  UNL     1      -1.976   0.416  -2.431  1.00  0.00     0.109 A 
HETATM    2  N1  UNL     1      -2.507   1.396  -3.132  1.00  0.00    -0.250 NA
HETATM    3  C4  UNL     1      -3.559   2.043  -2.602  1.00  0.00     0.143 A 
HETATM    4  C5  UNL     1      -4.050   1.681  -1.371  1.00  0.00     0.089 A 
HETATM    5  C6  UNL     1      -5.173   2.388  -0.831  1.00  0.00     0.103 C 
HETATM    6  N2  UNL     1      -6.069   2.970  -0.390  1.00  0.00    -0.191 NA
HETATM    7  C7  UNL     1      -3.434   0.646  -0.711  1.00  0.00     0.070 A 
HETATM    8  C13 UNL     1      -2.332  -0.059  -1.224  1.00  0.00     0.027 A 
ENDROOT
BRANCH   7   9
HETATM    9  N3  UNL     1      -4.020   0.344   0.563  1.00  0.00    -0.350 N 
HETATM   10  C8  UNL     1      -5.081  -0.613   0.638  1.00  0.00     0.110 A 
HETATM   11  C9  UNL     1      -5.706  -0.972   1.734  1.00  0.00     0.026 A 
HETATM   12 BR1  UNL     1      -7.106  -2.259   1.705  1.00  0.00    -0.050 Br
HETATM   13  C10 UNL     1      -5.308  -0.368   2.987  1.00  0.00     0.018 A 
HETATM   14  C11 UNL     1      -4.338   0.504   2.925  1.00  0.00    -0.005 A 
HETATM   15  C12 UNL     1      -3.576   0.974   1.766  1.00  0.00     0.156 A 
ENDBRANCH   7   9
BRANCH   8  16
HETATM   16  C14 UNL     1      -1.846  -1.019  -0.482  1.00  0.00     0.009 C 
BRANCH  16  17
HETATM   17  C15 UNL     1      -0.760  -1.981  -0.581  1.00  0.00     0.151 C 
BRANCH  17  18
HETATM   18  N4  UNL     1       0.577  -1.387  -0.569  1.00  0.00    -0.347 N 
HETATM   19  C16 UNL     1       1.039  -0.605   0.528  1.00  0.00     0.296 C 
HETATM   20  O1  UNL     1       0.270  -0.416   1.525  1.00  0.00    -0.258 OA
HETATM   21  H12 UNL     1       1.321  -1.456  -1.311  1.00  0.00     0.163 HD
BRANCH  19  22
HETATM   22  C17 UNL     1       2.345   0.000   0.590  1.00  0.00    -0.004 C 
HETATM   23  C18 UNL     1       3.446   0.498   0.624  1.00  0.00    -0.066 C 
BRANCH  23  24
HETATM   24  C19 UNL     1       4.784   1.088   0.654  1.00  0.00     0.369 C 
BRANCH  24  25
HETATM   25  N5  UNL     1       5.720   0.258   1.380  1.00  0.00     0.124 N 
HETATM   26  C20 UNL     1       5.980  -0.977   0.670  1.00  0.00     0.302 C 
HETATM   27  C21 UNL     1       6.949  -0.562  -0.394  1.00  0.00     0.200 C 
HETATM   28  O2  UNL     1       7.299   0.765  -0.088  1.00  0.00    -0.361 OA
HETATM   29  C22 UNL     1       7.024   0.910   1.273  1.00  0.00     0.441 C 
ENDBRANCH  24  25
ENDBRANCH  23  24
ENDBRANCH  19  22
ENDBRANCH  17  18
ENDBRANCH  16  17
ENDBRANCH   8  16
BRANCH   1  30
HETATM   30  C2  UNL     1      -0.939  -0.209  -2.975  1.00  0.00    -0.123 C 
HETATM   31  C1  UNL     1      -0.139  -0.924  -3.727  1.00  0.00     0.099 C 
ENDBRANCH   1  30
TORSDOF 8
