REMARK  2 active torsions:
REMARK  status: ('A' for Active; 'I' for Inactive)
REMARK    1  A    between atoms: C2_2  and  O1_3 
REMARK    2  A    between atoms: O1_3  and  C3_4 
ROOT
HETATM    1  C3  UNL     1       3.248  -1.404   1.678  1.00  0.00     0.094 A 
HETATM    2  C4  UNL     1       2.837  -2.643   2.202  1.00  0.00     0.053 A 
HETATM    3  C5  UNL     1       1.460  -3.094   1.957  1.00  0.00     0.134 A 
HETATM    4  N1  UNL     1       1.360  -4.324   2.577  1.00  0.00    -0.277 NA
HETATM    5  C6  UNL     1       0.234  -5.099   2.586  1.00  0.00     0.133 A 
HETATM    6  C7  UNL     1      -0.839  -4.437   1.846  1.00  0.00     0.075 A 
HETATM    7  C8  UNL     1      -2.034  -5.144   1.773  1.00  0.00     0.099 C 
HETATM    8  N2  UNL     1      -2.986  -5.732   1.715  1.00  0.00    -0.192 NA
HETATM    9  C9  UNL     1      -0.183  -3.487   1.576  1.00  0.00     0.131 A 
HETATM   10  C10 UNL     1       0.417  -2.357   1.189  1.00  0.00    -0.004 A 
HETATM   11  C11 UNL     1       1.140  -1.313   0.884  1.00  0.00     0.041 A 
HETATM   12  C12 UNL     1       2.318  -0.693   0.967  1.00  0.00     0.068 A 
HETATM   13  N3  UNL     1       2.412   0.509   0.275  1.00  0.00    -0.321 N 
HETATM   14  C13 UNL     1       1.383   1.424   0.019  1.00  0.00     0.245 C 
HETATM   15  O2  UNL     1       0.476   0.917   0.597  1.00  0.00    -0.268 OA
HETATM   16  C14 UNL     1       1.018   2.658  -0.612  1.00  0.00     0.072 C 
HETATM   17  C15 UNL     1      -0.066   3.349  -0.746  1.00  0.00    -0.002 C 
HETATM   18  C16 UNL     1      -1.504   3.567  -0.518  1.00  0.00     0.144 C 
HETATM   19  N4  UNL     1      -2.242   3.665  -1.761  1.00  0.00    -0.413 N 
HETATM   20  C17 UNL     1      -1.956   4.823  -2.545  1.00  0.00     0.143 C 
HETATM   21  C18 UNL     1      -2.395   2.438  -2.464  1.00  0.00     0.120 C 
HETATM   22  C19 UNL     1      -3.341   1.486  -1.808  1.00  0.00     0.000 C 
HETATM   23  C20 UNL     1      -4.755   1.910  -1.801  1.00  0.00     0.011 C 
HETATM   24  C21 UNL     1      -3.086   0.118  -2.444  1.00  0.00    -0.014 C 
HETATM   25  C22 UNL     1      -2.694  -1.202  -2.496  1.00  0.00     0.045 C 
HETATM   26  C23 UNL     1      -2.203  -1.767  -1.191  1.00  0.00    -0.004 C 
HETATM   27  C24 UNL     1      -1.714  -2.810  -0.477  1.00  0.00     0.080 C 
HETATM   28  N5  UNL     1      -1.356  -2.854   0.923  1.00  0.00    -0.379 N 
HETATM   29  H9  UNL     1       3.339   0.732  -0.068  1.00  0.00     0.169 HD
HETATM   30  H27 UNL     1      -2.186  -2.367   1.308  1.00  0.00     0.160 HD
ENDROOT
BRANCH   1  31
HETATM   31  O1  UNL     1       4.418  -0.747   1.735  1.00  0.00    -0.349 OA
BRANCH  31  32
HETATM   32  C2  UNL     1       5.648  -0.995   2.263  1.00  0.00     0.171 C 
HETATM   33  C1  UNL     1       6.545   0.202   1.989  1.00  0.00     0.034 C 
ENDBRANCH  31  32
ENDBRANCH   1  31
TORSDOF 2
