REMARK  5 active torsions:
REMARK  status: ('A' for Active; 'I' for Inactive)
REMARK    1  A    between atoms: N1_2  and  C2_3 
REMARK    2  A    between atoms: C2_3  and  C3_4 
REMARK       I    between atoms: C3_4  and  N2_6 
REMARK    3  A    between atoms: N2_6  and  C4_7 
REMARK    4  A    between atoms: C11_16  and  N5_17 
REMARK    5  A    between atoms: N5_17  and  C12_18 
ROOT
HETATM    1  C4  UNL     1       1.374  -0.925  -0.475  1.00  0.00     0.035 A 
HETATM    2  C5  UNL     1       1.666  -2.161  -1.062  1.00  0.00     0.032 A 
HETATM    3  C6  UNL     1       0.741  -3.208  -1.029  1.00  0.00     0.035 A 
HETATM    4  C7  UNL     1      -0.480  -2.984  -0.393  1.00  0.00     0.069 A 
HETATM    5  N3  UNL     1      -1.434  -3.930  -0.309  1.00  0.00    -0.259 NA
HETATM    6  C8  UNL     1      -2.614  -3.712   0.306  1.00  0.00     0.142 A 
HETATM    7  C9  UNL     1      -2.898  -2.473   0.891  1.00  0.00     0.089 A 
HETATM    8  C10 UNL     1      -4.162  -2.269   1.539  1.00  0.00     0.103 C 
HETATM    9  N4  UNL     1      -5.197  -2.088   2.064  1.00  0.00    -0.191 NA
HETATM   10  C11 UNL     1      -1.940  -1.466   0.828  1.00  0.00     0.067 A 
HETATM   11  C18 UNL     1      -0.757  -1.768   0.180  1.00  0.00     0.023 A 
HETATM   12  C19 UNL     1       0.156  -0.741   0.145  1.00  0.00     0.045 A 
ENDROOT
BRANCH  10  13
HETATM   13  N5  UNL     1      -2.256  -0.237   1.423  1.00  0.00    -0.354 N 
HETATM   14  H11 UNL     1      -2.022  -0.055   2.433  1.00  0.00     0.166 HD
BRANCH  13  15
HETATM   15  C12 UNL     1      -2.904   0.805   0.680  1.00  0.00     0.033 A 
HETATM   16  C13 UNL     1      -3.212   2.021   1.286  1.00  0.00     0.029 A 
HETATM   17  C14 UNL     1      -3.843   3.040   0.567  1.00  0.00     0.004 A 
HETATM   18  C15 UNL     1      -4.145   2.789  -0.762  1.00  0.00     0.019 A 
HETATM   19  C16 UNL     1      -3.840   1.579  -1.368  1.00  0.00     0.013 A 
HETATM   20 BR1  UNL     1      -4.267   1.250  -3.210  1.00  0.00    -0.051 Br
HETATM   21  C17 UNL     1      -3.216   0.578  -0.647  1.00  0.00     0.048 A 
ENDBRANCH  13  15
ENDBRANCH  10  13
BRANCH   1  22
HETATM   22  N2  UNL     1       2.453  -0.009  -0.627  1.00  0.00    -0.326 N 
HETATM   23  C3  UNL     1       3.465   0.032   0.387  1.00  0.00     0.250 C 
HETATM   24  O1  UNL     1       3.333  -0.759   1.365  1.00  0.00    -0.271 OA
HETATM   25  H7  UNL     1       2.633   0.678  -1.406  1.00  0.00     0.169 HD
BRANCH  23  26
HETATM   26  C2  UNL     1       4.676   0.893   0.456  1.00  0.00     0.371 C 
BRANCH  26  27
HETATM   27  N1  UNL     1       4.693   1.732  -0.710  1.00  0.00     0.087 N 
HETATM   28  C1  UNL     1       5.877   2.562  -0.629  1.00  0.00     0.307 C 
HETATM   29  H4  UNL     1       3.805   2.258  -0.735  1.00  0.00     0.315 HD
ENDBRANCH  26  27
ENDBRANCH  23  26
ENDBRANCH   1  22
TORSDOF 5
