REMARK  9 active torsions:
REMARK  status: ('A' for Active; 'I' for Inactive)
REMARK    1  A    between atoms: C2_2  and  C3_3 
REMARK    2  A    between atoms: C2_2  and  N2_14 
REMARK    3  A    between atoms: C3_3  and  C4_4 
REMARK    4  A    between atoms: C4_4  and  C5_5 
REMARK    5  A    between atoms: C5_5  and  N1_6 
REMARK    6  A    between atoms: N1_6  and  C6_7 
REMARK       I    between atoms: N2_14  and  C12_15 
REMARK    7  A    between atoms: C12_15  and  C13_17 
REMARK    8  A    between atoms: C14_18  and  C15_19 
REMARK    9  A    between atoms: C15_19  and  N3_20 
ROOT
HETATM    1  C1  UNL     1      -0.081   1.425   2.302  1.00  0.00     0.063 C 
HETATM    2  C2  UNL     1      -0.144   0.403   1.464  1.00  0.00     0.012 C 
ENDROOT
BRANCH   2   3
HETATM    3  C3  UNL     1      -1.412  -0.209   1.717  1.00  0.00     0.022 C 
BRANCH   3   4
HETATM    4  C4  UNL     1      -2.332  -1.100   1.516  1.00  0.00    -0.005 C 
BRANCH   4   5
HETATM    5  C5  UNL     1      -3.581  -1.869   1.625  1.00  0.00     0.147 C 
BRANCH   5   6
HETATM    6  N1  UNL     1      -4.256  -1.828   0.346  1.00  0.00    -0.386 N 
HETATM    7  H7  UNL     1      -4.427  -2.724  -0.191  1.00  0.00     0.160 HD
BRANCH   6   8
HETATM    8  C6  UNL     1      -4.732  -0.650  -0.285  1.00  0.00     0.029 A 
HETATM    9  C7  UNL     1      -5.360  -0.639  -1.508  1.00  0.00     0.029 A 
HETATM   10  C8  UNL     1      -5.831   0.482  -2.135  1.00  0.00     0.004 A 
HETATM   11  C9  UNL     1      -5.687   1.705  -1.535  1.00  0.00     0.019 A 
HETATM   12  C10 UNL     1      -5.065   1.764  -0.309  1.00  0.00     0.013 A 
HETATM   13 BR1  UNL     1      -4.875   3.488   0.510  1.00  0.00    -0.051 Br
HETATM   14  C11 UNL     1      -4.609   0.608   0.281  1.00  0.00     0.048 A 
ENDBRANCH   6   8
ENDBRANCH   5   6
ENDBRANCH   4   5
ENDBRANCH   3   4
ENDBRANCH   2   3
BRANCH   2  15
HETATM   15  N2  UNL     1       0.928   0.139   0.593  1.00  0.00    -0.327 N 
HETATM   16  C12 UNL     1       1.323  -0.765  -0.421  1.00  0.00     0.245 C 
HETATM   17  O1  UNL     1       0.444  -1.629  -0.635  1.00  0.00    -0.268 OA
HETATM   18  H12 UNL     1       1.715   0.839   0.717  1.00  0.00     0.169 HD
BRANCH  16  19
HETATM   19  C13 UNL     1       2.578  -0.732  -1.148  1.00  0.00     0.072 C 
HETATM   20  C14 UNL     1       3.530   0.157  -0.958  1.00  0.00     0.008 C 
BRANCH  20  21
HETATM   21  C15 UNL     1       4.799   0.191  -1.692  1.00  0.00     0.299 C 
BRANCH  21  22
HETATM   22  N3  UNL     1       5.908   0.057  -0.762  1.00  0.00     0.083 N 
HETATM   23  C16 UNL     1       6.022   1.238   0.086  1.00  0.00     0.309 C 
HETATM   24  C17 UNL     1       5.775  -1.134   0.067  1.00  0.00     0.309 C 
ENDBRANCH  21  22
ENDBRANCH  20  21
ENDBRANCH  16  19
ENDBRANCH   2  15
TORSDOF 9
