REMARK  5 active torsions:
REMARK  status: ('A' for Active; 'I' for Inactive)
REMARK    1  A    between atoms: N1_2  and  C3_4 
REMARK    2  A    between atoms: C3_4  and  C4_5 
REMARK    3  A    between atoms: C4_5  and  C5_6 
REMARK    4  A    between atoms: C5_6  and  C6_7 
REMARK       I    between atoms: C6_7  and  N2_9 
REMARK    5  A    between atoms: N2_9  and  C7_10 
ROOT
HETATM    1  C7  UNL     1       0.250   0.932  -0.733  1.00  0.00     0.100 C 
HETATM    2  C8  UNL     1      -0.798   0.249  -0.363  1.00  0.00    -0.015 C 
HETATM    3  C9  UNL     1      -0.541  -1.074   0.023  1.00  0.00     0.117 A 
HETATM    4  C10 UNL     1      -0.585  -2.314   0.409  1.00  0.00     0.106 A 
HETATM    5  N3  UNL     1      -1.908  -1.847   0.350  1.00  0.00    -0.271 NA
HETATM    6  C11 UNL     1      -2.813  -2.465  -0.377  1.00  0.00     0.103 C 
HETATM    7  C12 UNL     1      -4.210  -2.380  -0.749  1.00  0.00     0.144 C 
HETATM    8  C13 UNL     1      -4.865  -3.336  -1.565  1.00  0.00     0.120 C 
HETATM    9  N4  UNL     1      -5.398  -4.131  -2.217  1.00  0.00    -0.190 NA
HETATM   10  N5  UNL     1      -4.910  -1.400  -0.321  1.00  0.00    -0.248 NA
HETATM   11  C14 UNL     1      -4.423  -0.346   0.516  1.00  0.00     0.231 C 
HETATM   12  C15 UNL     1      -3.166   0.272   0.094  1.00  0.00     0.030 C 
HETATM   13  C16 UNL     1      -2.094   0.988  -0.319  1.00  0.00    -0.031 C 
HETATM   14  C17 UNL     1      -1.988   2.436  -0.737  1.00  0.00     0.113 C 
HETATM   15 BR1  UNL     1      -1.747   2.503  -2.648  1.00  0.00    -0.082 Br
HETATM   16  C18 UNL     1      -3.241   3.182  -0.413  1.00  0.00    -0.006 C 
HETATM   17  C19 UNL     1      -4.497   3.473  -0.011  1.00  0.00    -0.001 C 
HETATM   18  C20 UNL     1      -5.709   2.815   0.532  1.00  0.00     0.017 C 
HETATM   19  C21 UNL     1      -6.363   1.727   0.936  1.00  0.00     0.085 C 
HETATM   20  N6  UNL     1      -5.420   0.724   0.731  1.00  0.00    -0.374 N 
HETATM   21  H23 UNL     1      -6.203   0.040   0.957  1.00  0.00     0.161 HD
ENDROOT
BRANCH   1  22
HETATM   22  N2  UNL     1       1.589   0.454  -0.771  1.00  0.00    -0.333 N 
HETATM   23  C6  UNL     1       2.703   1.224  -1.186  1.00  0.00     0.244 C 
HETATM   24  O1  UNL     1       2.546   2.416  -1.556  1.00  0.00    -0.268 OA
HETATM   25  H11 UNL     1       2.007  -0.483  -0.523  1.00  0.00     0.168 HD
BRANCH  23  26
HETATM   26  C5  UNL     1       4.086   0.789  -1.249  1.00  0.00     0.072 C 
BRANCH  26  27
HETATM   27  C4  UNL     1       4.937  -0.178  -1.045  1.00  0.00    -0.002 C 
BRANCH  27  28
HETATM   28  C3  UNL     1       6.178  -0.950  -0.970  1.00  0.00     0.143 C 
BRANCH  28  29
HETATM   29  N1  UNL     1       6.529  -1.424   0.313  1.00  0.00    -0.418 N 
HETATM   30  C1  UNL     1       6.906  -0.444   1.290  1.00  0.00     0.142 C 
HETATM   31  C2  UNL     1       5.728  -2.452   0.876  1.00  0.00     0.142 C 
ENDBRANCH  28  29
ENDBRANCH  27  28
ENDBRANCH  26  27
ENDBRANCH  23  26
ENDBRANCH   1  22
TORSDOF 5
