REMARK  5 active torsions:
REMARK  status: ('A' for Active; 'I' for Inactive)
REMARK    1  A    between atoms: C6_6  and  N1_7 
REMARK    2  A    between atoms: N1_7  and  C7_8 
REMARK    3  A    between atoms: C12_15  and  N4_16 
REMARK       I    between atoms: N4_16  and  C13_17 
REMARK       I    between atoms: C13_17  and  N5_19 
REMARK    4  A    between atoms: N5_19  and  C15_21 
REMARK    5  A    between atoms: C15_21  and  C16_22 
ROOT
HETATM    1  C7  UNL     1       1.805   1.100   0.837  1.00  0.00     0.142 A 
HETATM    2  N2  UNL     1       2.646   1.813   1.570  1.00  0.00    -0.224 NA
HETATM    3  C8  UNL     1       2.299   2.791   2.410  1.00  0.00     0.236 A 
HETATM    4  N3  UNL     1       0.996   3.096   2.541  1.00  0.00    -0.241 NA
HETATM    5  C9  UNL     1       0.075   2.419   1.832  1.00  0.00     0.072 A 
HETATM    6  C10 UNL     1      -1.236   2.795   2.024  1.00  0.00     0.035 A 
HETATM    7  C11 UNL     1      -2.240   2.151   1.333  1.00  0.00     0.032 A 
HETATM    8  C12 UNL     1      -1.902   1.137   0.460  1.00  0.00     0.037 A 
HETATM    9  C17 UNL     1      -0.570   0.814   0.318  1.00  0.00     0.047 A 
HETATM   10  C18 UNL     1       0.476   1.418   0.976  1.00  0.00     0.041 A 
ENDROOT
BRANCH   1  11
HETATM   11  N1  UNL     1       2.151   0.060  -0.059  1.00  0.00    -0.340 N 
HETATM   12  H7  UNL     1       1.450  -0.466  -0.593  1.00  0.00     0.167 HD
BRANCH  11  13
HETATM   13  C6  UNL     1       3.432  -0.445  -0.393  1.00  0.00     0.034 A 
HETATM   14  C5  UNL     1       3.689  -1.518  -1.233  1.00  0.00     0.029 A 
HETATM   15  C4  UNL     1       4.935  -1.984  -1.541  1.00  0.00     0.003 A 
HETATM   16  C3  UNL     1       6.052  -1.382  -1.008  1.00  0.00     0.007 A 
HETATM   17  C2  UNL     1       5.861  -0.312  -0.167  1.00  0.00    -0.060 A 
HETATM   18  C1  UNL     1       7.095   0.301   0.381  1.00  0.00     0.048 C 
HETATM   19  C19 UNL     1       4.586   0.111   0.107  1.00  0.00     0.036 A 
ENDBRANCH  11  13
ENDBRANCH   1  11
BRANCH   8  20
HETATM   20  N4  UNL     1      -2.923   0.457  -0.265  1.00  0.00    -0.309 N 
HETATM   21  C13 UNL     1      -3.662  -0.705   0.091  1.00  0.00     0.322 C 
HETATM   22  O1  UNL     1      -3.432  -1.267   1.196  1.00  0.00    -0.247 OA
HETATM   23  N5  UNL     1      -4.631  -1.161  -0.845  1.00  0.00    -0.337 N 
HETATM   24  C14 UNL     1      -4.900  -0.515  -2.124  1.00  0.00     0.154 C 
HETATM   25  H11 UNL     1      -3.006   1.021  -1.139  1.00  0.00     0.170 HD
BRANCH  23  26
HETATM   26  C15 UNL     1      -5.411  -2.330  -0.543  1.00  0.00     0.142 C 
BRANCH  26  27
HETATM   27  C16 UNL     1      -6.691  -1.997   0.188  1.00  0.00     0.134 C 
HETATM   28 CL1  UNL     1      -7.729  -0.933  -0.747  1.00  0.00    -0.129 Cl
ENDBRANCH  26  27
ENDBRANCH  23  26
ENDBRANCH   8  20
TORSDOF 5
