REMARK  4 active torsions:
REMARK  status: ('A' for Active; 'I' for Inactive)
REMARK    1  A    between atoms: C2_2  and  C3_3 
REMARK       I    between atoms: C3_3  and  N1_5 
REMARK    2  A    between atoms: N1_5  and  C4_6 
REMARK    3  A    between atoms: C11_15  and  N4_16 
REMARK    4  A    between atoms: N4_16  and  C12_17 
ROOT
HETATM    1  C4  UNL     1       1.901  -0.532   0.468  1.00  0.00     0.035 A 
HETATM    2  C5  UNL     1       2.164  -0.518   1.846  1.00  0.00     0.032 A 
HETATM    3  C6  UNL     1       1.111  -0.671   2.759  1.00  0.00     0.035 A 
HETATM    4  C7  UNL     1      -0.166  -0.833   2.269  1.00  0.00     0.069 A 
HETATM    5  N2  UNL     1      -1.145  -0.987   3.189  1.00  0.00    -0.259 NA
HETATM    6  C8  UNL     1      -2.437  -1.164   2.769  1.00  0.00     0.142 A 
HETATM    7  C9  UNL     1      -2.659  -1.173   1.399  1.00  0.00     0.089 A 
HETATM    8  C10 UNL     1      -4.029  -1.366   1.016  1.00  0.00     0.103 C 
HETATM    9  N3  UNL     1      -5.158  -1.531   0.719  1.00  0.00    -0.191 NA
HETATM   10  C11 UNL     1      -1.685  -1.019   0.448  1.00  0.00     0.067 A 
HETATM   11  C17 UNL     1      -0.382  -0.841   0.906  1.00  0.00     0.023 A 
HETATM   12  C18 UNL     1       0.617  -0.694  -0.009  1.00  0.00     0.045 A 
ENDROOT
BRANCH  10  13
HETATM   13  N4  UNL     1      -1.987  -1.049  -0.943  1.00  0.00    -0.353 N 
HETATM   14  H8  UNL     1      -1.699  -1.758  -1.646  1.00  0.00     0.166 HD
BRANCH  13  15
HETATM   15  C12 UNL     1      -2.785   0.070  -1.385  1.00  0.00     0.045 C 
HETATM   16  C13 UNL     1      -3.975  -0.021  -1.968  1.00  0.00     0.004 C 
HETATM   17  C14 UNL     1      -4.792   0.949  -1.576  1.00  0.00     0.033 C 
HETATM   18  C15 UNL     1      -3.827   2.061  -1.467  1.00  0.00     0.014 C 
HETATM   19 BR1  UNL     1      -4.039   3.967  -1.468  1.00  0.00    -0.051 Br
HETATM   20  C16 UNL     1      -2.595   1.526  -1.350  1.00  0.00     0.049 C 
ENDBRANCH  13  15
ENDBRANCH  10  13
BRANCH   1  21
HETATM   21  N1  UNL     1       3.108  -0.376  -0.257  1.00  0.00    -0.324 N 
HETATM   22  C3  UNL     1       3.945   0.608  -0.814  1.00  0.00     0.244 C 
HETATM   23  O1  UNL     1       3.776   1.847  -0.794  1.00  0.00    -0.268 OA
HETATM   24  H4  UNL     1       3.384  -1.395  -0.359  1.00  0.00     0.169 HD
BRANCH  22  25
HETATM   25  C2  UNL     1       5.147   0.165  -1.496  1.00  0.00     0.064 C 
HETATM   26  C1  UNL     1       5.743   1.272  -1.927  1.00  0.00     0.017 C 
ENDBRANCH  22  25
ENDBRANCH   1  21
TORSDOF 4
