REMARK  8 active torsions:
REMARK  status: ('A' for Active; 'I' for Inactive)
REMARK    1  A    between atoms: C2_2  and  C3_3 
REMARK    2  A    between atoms: C7_8  and  N2_9 
REMARK    3  A    between atoms: N2_9  and  N3_10 
REMARK    4  A    between atoms: N3_10  and  C8_11 
REMARK    5  A    between atoms: C14_18  and  C15_19 
REMARK    6  A    between atoms: C15_19  and  C16_20 
REMARK    7  A    between atoms: C16_20  and  N4_21 
REMARK       I    between atoms: N4_21  and  C17_22 
REMARK    8  A    between atoms: C17_22  and  C18_24 
ROOT
HETATM    1  C3  UNL     1       0.699  -2.922  -0.799  1.00  0.00     0.109 A 
HETATM    2  N1  UNL     1      -0.330  -3.761  -0.789  1.00  0.00    -0.251 NA
HETATM    3  C4  UNL     1      -1.417  -3.422  -0.072  1.00  0.00     0.127 A 
HETATM    4  C5  UNL     1      -1.465  -2.240   0.633  1.00  0.00    -0.015 A 
HETATM    5  C6  UNL     1      -2.665  -1.885   1.413  1.00  0.00     0.052 C 
HETATM    6  C7  UNL     1      -0.355  -1.430   0.568  1.00  0.00     0.068 A 
HETATM    7  C14 UNL     1       0.806  -1.734  -0.164  1.00  0.00     0.027 A 
ENDROOT
BRANCH   6   8
HETATM    8  N2  UNL     1      -0.456  -0.214   1.319  1.00  0.00    -0.299 N 
HETATM    9  H7  UNL     1      -0.211   0.014   2.290  1.00  0.00     0.187 HD
BRANCH   8  10
HETATM   10  N3  UNL     1      -0.998   0.785   0.492  1.00  0.00    -0.300 N 
HETATM   11  H8  UNL     1      -0.306   1.317  -0.111  1.00  0.00     0.187 HD
BRANCH  10  12
HETATM   12  C8  UNL     1      -2.289   1.309   0.224  1.00  0.00     0.049 A 
HETATM   13  C9  UNL     1      -3.051   0.740  -0.797  1.00  0.00     0.031 A 
HETATM   14  C10 UNL     1      -4.297   1.271  -1.032  1.00  0.00     0.004 A 
HETATM   15  C11 UNL     1      -4.757   2.332  -0.271  1.00  0.00     0.019 A 
HETATM   16  C12 UNL     1      -3.998   2.887   0.734  1.00  0.00     0.013 A 
HETATM   17 BR1  UNL     1      -4.576   4.344   1.813  1.00  0.00    -0.051 Br
HETATM   18  C13 UNL     1      -2.741   2.358   0.978  1.00  0.00     0.050 A 
ENDBRANCH  10  12
ENDBRANCH   8  10
ENDBRANCH   6   8
BRANCH   7  19
HETATM   19  C15 UNL     1       1.774  -0.877  -0.119  1.00  0.00     0.009 C 
BRANCH  19  20
HETATM   20  C16 UNL     1       3.098  -0.910  -0.752  1.00  0.00     0.151 C 
BRANCH  20  21
HETATM   21  N4  UNL     1       3.990   0.156  -0.262  1.00  0.00    -0.354 N 
HETATM   22  C17 UNL     1       3.506   1.464  -0.483  1.00  0.00     0.240 C 
HETATM   23  O1  UNL     1       2.419   1.758  -1.043  1.00  0.00    -0.269 OA
HETATM   24  H16 UNL     1       4.913   0.025   0.216  1.00  0.00     0.163 HD
BRANCH  22  25
HETATM   25  C18 UNL     1       4.315   2.592  -0.035  1.00  0.00     0.064 C 
HETATM   26  C19 UNL     1       3.969   3.866  -0.185  1.00  0.00     0.017 C 
ENDBRANCH  22  25
ENDBRANCH  20  21
ENDBRANCH  19  20
ENDBRANCH   7  19
BRANCH   1  27
HETATM   27  C2  UNL     1       1.765  -3.265  -1.517  1.00  0.00    -0.123 C 
HETATM   28  C1  UNL     1       2.543  -3.483  -2.548  1.00  0.00     0.099 C 
ENDBRANCH   1  27
TORSDOF 8
