REMARK  5 active torsions:
REMARK  status: ('A' for Active; 'I' for Inactive)
REMARK    1  A    between atoms: C7_9  and  N3_10 
REMARK    2  A    between atoms: N3_10  and  C8_11 
REMARK    3  A    between atoms: C8_11  and  C9_12 
REMARK    4  A    between atoms: C10_13  and  C11_14 
REMARK    5  A    between atoms: C11_14  and  N4_15 
ROOT
HETATM    1  N1  UNL     1       3.039  -2.683   1.585  1.00  0.00    -0.191 NA
HETATM    2  C1  UNL     1       3.705  -2.032   0.976  1.00  0.00     0.101 C 
HETATM    3  C2  UNL     1       4.573  -1.215   0.210  1.00  0.00     0.071 C 
HETATM    4  C3  UNL     1       5.927  -1.145  -0.136  1.00  0.00     0.140 C 
HETATM    5  N2  UNL     1       6.451   0.191  -0.715  1.00  0.00    -0.264 NA
HETATM    6  C4  UNL     1       5.487   1.090  -0.789  1.00  0.00     0.038 C 
HETATM    7  C5  UNL     1       4.860   2.321  -0.295  1.00  0.00     0.029 C 
HETATM    8  C6  UNL     1       3.561   2.204   0.179  1.00  0.00     0.032 C 
HETATM    9  C7  UNL     1       2.998   0.784   0.149  1.00  0.00     0.036 C 
HETATM   10  C16 UNL     1       3.876  -0.053  -0.352  1.00  0.00    -0.004 C 
HETATM   11  C17 UNL     1       4.490   0.370  -1.749  1.00  0.00     0.101 C 
ENDROOT
BRANCH   9  12
HETATM   12  N3  UNL     1       1.890   0.093   0.597  1.00  0.00    -0.386 N 
HETATM   13  H4  UNL     1       2.142  -0.054   1.599  1.00  0.00     0.160 HD
BRANCH  12  14
HETATM   14  C8  UNL     1       0.693  -0.303  -0.163  1.00  0.00     0.147 C 
BRANCH  14  15
HETATM   15  C9  UNL     1      -0.271  -0.996   0.686  1.00  0.00    -0.010 C 
HETATM   16  C10 UNL     1      -1.522  -0.753   1.026  1.00  0.00     0.001 C 
BRANCH  16  17
HETATM   17  C11 UNL     1      -2.296   0.405   0.564  1.00  0.00     0.299 C 
BRANCH  17  18
HETATM   18  N4  UNL     1      -3.484   0.085  -0.173  1.00  0.00     0.096 N 
HETATM   19  C12 UNL     1      -4.232   1.219  -0.618  1.00  0.00     0.299 C 
HETATM   20  C13 UNL     1      -5.531   0.767  -1.216  1.00  0.00     0.198 C 
HETATM   21  O1  UNL     1      -5.505  -0.583  -1.561  1.00  0.00    -0.388 OA
HETATM   22  C14 UNL     1      -5.434  -1.339  -0.388  1.00  0.00     0.198 C 
HETATM   23  C15 UNL     1      -4.242  -0.967   0.426  1.00  0.00     0.299 C 
ENDBRANCH  17  18
ENDBRANCH  16  17
ENDBRANCH  14  15
ENDBRANCH  12  14
ENDBRANCH   9  12
TORSDOF 5
