REMARK  6 active torsions:
REMARK  status: ('A' for Active; 'I' for Inactive)
REMARK    1  A    between atoms: O1_1  and  C1_2 
REMARK    2  A    between atoms: C2_3  and  C3_4 
REMARK    3  A    between atoms: C4_5  and  C5_6 
REMARK    4  A    between atoms: C5_6  and  N1_7 
REMARK    5  A    between atoms: C15_19  and  N3_20 
REMARK    6  A    between atoms: N3_20  and  C16_21 
ROOT
HETATM    1  C1  UNL     1      -0.863  -1.200   0.596  1.00  0.00     0.167 C 
HETATM    2  C2  UNL     1      -1.594  -0.925  -0.449  1.00  0.00     0.079 C 
HETATM    3  N2  UNL     1      -0.622  -0.877  -1.466  1.00  0.00    -0.383 N 
HETATM    4  C10 UNL     1      -0.058  -2.155  -1.846  1.00  0.00     0.147 C 
HETATM    5  C11 UNL     1       1.216  -1.862  -2.612  1.00  0.00    -0.011 C 
HETATM    6  C12 UNL     1       2.365  -2.300  -2.030  1.00  0.00    -0.025 C 
HETATM    7  C13 UNL     1       3.880  -2.358  -2.198  1.00  0.00     0.056 C 
HETATM    8  C14 UNL     1       4.341  -1.589  -0.973  1.00  0.00     0.006 C 
HETATM    9  C15 UNL     1       4.141  -0.960   0.206  1.00  0.00     0.030 C 
HETATM   10  C22 UNL     1       2.852  -0.901   0.864  1.00  0.00     0.046 C 
HETATM   11  C23 UNL     1       1.676  -0.880   1.409  1.00  0.00     0.092 C 
HETATM   12  N4  UNL     1       0.449  -1.443   1.010  1.00  0.00    -0.345 N 
HETATM   13  H14 UNL     1      -0.696   0.153  -1.598  1.00  0.00     0.160 HD
HETATM   14  H28 UNL     1       0.767  -2.462   1.112  1.00  0.00     0.167 HD
ENDROOT
BRANCH   9  15
HETATM   15  N3  UNL     1       5.337  -0.397   0.823  1.00  0.00    -0.356 N 
HETATM   16  H22 UNL     1       5.895  -0.812   1.589  1.00  0.00     0.166 HD
BRANCH  15  17
HETATM   17  C16 UNL     1       6.113   0.792   0.642  1.00  0.00     0.034 A 
HETATM   18  C17 UNL     1       5.831   1.932   1.366  1.00  0.00     0.032 A 
HETATM   19  C18 UNL     1       6.606   3.052   1.154  1.00  0.00     0.046 A 
HETATM   20  C19 UNL     1       7.628   2.993   0.232  1.00  0.00     0.138 A 
HETATM   21  F1  UNL     1       8.360   4.123   0.063  1.00  0.00    -0.204 F 
HETATM   22  C20 UNL     1       7.931   1.862  -0.507  1.00  0.00     0.074 A 
HETATM   23 CL1  UNL     1       9.253   1.835  -1.681  1.00  0.00    -0.081 Cl
HETATM   24  C21 UNL     1       7.147   0.728  -0.293  1.00  0.00     0.056 A 
ENDBRANCH  15  17
ENDBRANCH   9  15
BRANCH   1  25
HETATM   25  O1  UNL     1      -1.445  -1.341   1.865  1.00  0.00    -0.344 OA
HETATM   26  H1  UNL     1      -1.749  -2.248   2.201  1.00  0.00     0.219 HD
ENDBRANCH   1  25
BRANCH   2  27
HETATM   27  C3  UNL     1      -2.997  -0.743  -0.444  1.00  0.00     0.031 C 
HETATM   28  C4  UNL     1      -3.843  -0.805   0.539  1.00  0.00     0.005 C 
BRANCH  28  29
HETATM   29  C5  UNL     1      -5.283  -0.584   0.339  1.00  0.00     0.300 C 
BRANCH  29  30
HETATM   30  N1  UNL     1      -5.828   0.525   1.090  1.00  0.00     0.096 N 
HETATM   31  C6  UNL     1      -5.378   1.803   0.670  1.00  0.00     0.299 C 
HETATM   32  C7  UNL     1      -6.412   2.704   0.064  1.00  0.00     0.198 C 
HETATM   33  O2  UNL     1      -7.681   2.520   0.610  1.00  0.00    -0.388 OA
HETATM   34  C8  UNL     1      -8.050   1.204   0.317  1.00  0.00     0.198 C 
HETATM   35  C9  UNL     1      -7.230   0.342   1.245  1.00  0.00     0.299 C 
ENDBRANCH  29  30
ENDBRANCH  28  29
ENDBRANCH   2  27
TORSDOF 6
