REMARK  4 active torsions:
REMARK  status: ('A' for Active; 'I' for Inactive)
REMARK    1  A    between atoms: C2_2  and  C3_3 
REMARK       I    between atoms: C3_3  and  N1_5 
REMARK    2  A    between atoms: N1_5  and  C4_6 
REMARK    3  A    between atoms: C11_15  and  N4_16 
REMARK    4  A    between atoms: N4_16  and  C12_17 
ROOT
HETATM    1  C4  UNL     1      -1.911  -1.302  -0.090  1.00  0.00     0.035 A 
HETATM    2  C5  UNL     1      -2.122  -2.604   0.304  1.00  0.00     0.032 A 
HETATM    3  C6  UNL     1      -1.088  -3.518   0.326  1.00  0.00     0.035 A 
HETATM    4  C7  UNL     1       0.179  -3.121  -0.054  1.00  0.00     0.069 A 
HETATM    5  N2  UNL     1       1.192  -4.016  -0.033  1.00  0.00    -0.259 NA
HETATM    6  C8  UNL     1       2.445  -3.653  -0.401  1.00  0.00     0.142 A 
HETATM    7  C9  UNL     1       2.684  -2.336  -0.806  1.00  0.00     0.089 A 
HETATM    8  C10 UNL     1       4.036  -1.973  -1.196  1.00  0.00     0.103 C 
HETATM    9  N3  UNL     1       5.121  -1.689  -1.508  1.00  0.00    -0.191 NA
HETATM   10  C11 UNL     1       1.654  -1.407  -0.833  1.00  0.00     0.067 A 
HETATM   11  C18 UNL     1       0.389  -1.809  -0.452  1.00  0.00     0.023 A 
HETATM   12  C19 UNL     1      -0.644  -0.906  -0.471  1.00  0.00     0.045 A 
ENDROOT
BRANCH  10  13
HETATM   13  N4  UNL     1       1.963  -0.101  -1.250  1.00  0.00    -0.354 N 
HETATM   14  H10 UNL     1       1.818  -0.102  -2.284  1.00  0.00     0.166 HD
BRANCH  13  15
HETATM   15  C12 UNL     1       2.388   1.053  -0.546  1.00  0.00     0.033 A 
HETATM   16  C13 UNL     1       2.614   2.205  -1.245  1.00  0.00     0.029 A 
HETATM   17  C14 UNL     1       3.026   3.313  -0.539  1.00  0.00     0.004 A 
HETATM   18  C15 UNL     1       3.197   3.238   0.828  1.00  0.00     0.019 A 
HETATM   19  C16 UNL     1       2.970   2.071   1.559  1.00  0.00     0.013 A 
HETATM   20 BR1  UNL     1       3.215   2.001   3.446  1.00  0.00    -0.051 Br
HETATM   21  C17 UNL     1       2.557   0.974   0.818  1.00  0.00     0.048 A 
ENDBRANCH  13  15
ENDBRANCH  10  13
BRANCH   1  22
HETATM   22  N1  UNL     1      -2.945  -0.324  -0.129  1.00  0.00    -0.327 N 
HETATM   23  C3  UNL     1      -3.298   0.528   0.944  1.00  0.00     0.221 C 
HETATM   24  O1  UNL     1      -2.639   0.406   2.021  1.00  0.00    -0.273 OA
HETATM   25  H6  UNL     1      -3.284  -0.463  -1.108  1.00  0.00     0.169 HD
BRANCH  23  26
HETATM   26  C2  UNL     1      -4.421   1.426   0.554  1.00  0.00     0.098 C 
HETATM   27  C1  UNL     1      -4.831   2.345   1.655  1.00  0.00     0.014 C 
ENDBRANCH  23  26
ENDBRANCH   1  22
TORSDOF 4
