REMARK  5 active torsions:
REMARK  status: ('A' for Active; 'I' for Inactive)
REMARK    1  A    between atoms: C2_2  and  N1_3 
REMARK    2  A    between atoms: N1_3  and  O1_4 
REMARK    3  A    between atoms: N1_3  and  C3_5 
REMARK    4  A    between atoms: C8_11  and  N3_12 
REMARK    5  A    between atoms: C10_14  and  N4_15 
ROOT
HETATM    1  C3  UNL     1      -2.422  -0.828  -1.006  1.00  0.00     0.063 A 
HETATM    2  C4  UNL     1      -3.013  -0.024  -1.984  1.00  0.00     0.034 A 
HETATM    3  C5  UNL     1      -2.285   1.078  -2.375  1.00  0.00     0.035 A 
HETATM    4  C6  UNL     1      -1.052   1.323  -1.801  1.00  0.00     0.069 A 
HETATM    5  N2  UNL     1      -0.332   2.404  -2.186  1.00  0.00    -0.258 NA
HETATM    6  C7  UNL     1       0.862   2.630  -1.620  1.00  0.00     0.148 A 
HETATM    7  C8  UNL     1       1.463   1.854  -0.655  1.00  0.00     0.073 A 
HETATM    8  C10 UNL     1       0.736   0.753  -0.262  1.00  0.00     0.075 A 
HETATM    9  C16 UNL     1      -0.496   0.510  -0.837  1.00  0.00     0.024 A 
HETATM   10  C17 UNL     1      -1.199  -0.616  -0.414  1.00  0.00     0.048 A 
ENDROOT
BRANCH   8  11
HETATM   11  N4  UNL     1       1.208  -0.138   0.701  1.00  0.00    -0.349 N 
HETATM   12  C11 UNL     1       1.953  -1.160  -0.005  1.00  0.00     0.110 A 
HETATM   13  C12 UNL     1       2.571  -2.246   0.485  1.00  0.00     0.026 A 
HETATM   14 BR1  UNL     1       3.556  -3.600  -0.440  1.00  0.00    -0.050 Br
HETATM   15  C13 UNL     1       2.516  -2.457   1.948  1.00  0.00     0.018 A 
HETATM   16  C14 UNL     1       1.844  -1.506   2.592  1.00  0.00    -0.005 A 
HETATM   17  C15 UNL     1       1.143  -0.284   2.147  1.00  0.00     0.156 A 
ENDBRANCH   8  11
BRANCH   7  18
HETATM   18  N3  UNL     1       2.717   2.165  -0.118  1.00  0.00    -0.391 N 
HETATM   19  C9  UNL     1       3.602   3.281  -0.432  1.00  0.00     0.146 C 
HETATM   20  H8  UNL     1       3.183   1.588   0.612  1.00  0.00     0.159 HD
ENDBRANCH   7  18
BRANCH   1  21
HETATM   21  N1  UNL     1      -3.093  -1.997  -0.494  1.00  0.00    -0.237 N 
BRANCH  21  22
HETATM   22  C2  UNL     1      -3.743  -1.813   0.756  1.00  0.00     0.113 C 
HETATM   23  C1  UNL     1      -3.884  -0.619   1.281  1.00  0.00     0.032 C 
ENDBRANCH  21  22
BRANCH  21  24
HETATM   24  O1  UNL     1      -3.358  -3.307  -0.793  1.00  0.00    -0.283 OA
HETATM   25  H4  UNL     1      -4.342  -3.406  -0.963  1.00  0.00     0.245 HD
ENDBRANCH  21  24
ENDBRANCH   1  21
TORSDOF 5
