REMARK  5 active torsions:
REMARK  status: ('A' for Active; 'I' for Inactive)
REMARK    1  A    between atoms: C2_2  and  C3_3 
REMARK    2  A    between atoms: C4_4  and  C5_5 
REMARK    3  A    between atoms: C5_5  and  N1_6 
REMARK    4  A    between atoms: C12_15  and  C13_16 
REMARK    5  A    between atoms: C18_22  and  O2_23 
ROOT
HETATM    1  C1  UNL     1       1.259  -1.017  -2.213  1.00  0.00     0.076 C 
HETATM    2  C2  UNL     1       0.687  -0.482  -0.886  1.00  0.00     0.157 C 
HETATM    3  N2  UNL     1      -0.009   0.718  -1.237  1.00  0.00    -0.365 N 
HETATM    4  C9  UNL     1      -1.396   0.904  -1.488  1.00  0.00     0.087 C 
HETATM    5  C10 UNL     1      -2.455   0.296  -0.970  1.00  0.00     0.033 C 
HETATM    6  C11 UNL     1      -2.369  -0.763   0.035  1.00  0.00     0.029 A 
HETATM    7  C12 UNL     1      -3.559  -0.921   0.715  1.00  0.00    -0.007 A 
HETATM    8  C19 UNL     1      -3.655  -1.881   1.722  1.00  0.00     0.032 A 
HETATM    9  C20 UNL     1      -2.530  -2.631   1.984  1.00  0.00     0.120 A 
HETATM   10  N3  UNL     1      -1.353  -2.496   1.333  1.00  0.00    -0.236 NA
HETATM   11  C21 UNL     1      -1.273  -1.554   0.351  1.00  0.00     0.178 A 
HETATM   12  O3  UNL     1      -0.055  -1.475  -0.263  1.00  0.00    -0.298 OA
HETATM   13  H14 UNL     1       0.617   1.575  -1.322  1.00  0.00     0.162 HD
ENDROOT
BRANCH   2  14
HETATM   14  C3  UNL     1       1.886  -0.229  -0.036  1.00  0.00     0.031 C 
HETATM   15  C4  UNL     1       3.101   0.322  -0.077  1.00  0.00     0.004 C 
BRANCH  15  16
HETATM   16  C5  UNL     1       4.203   0.480   0.934  1.00  0.00     0.302 C 
BRANCH  16  17
HETATM   17  N1  UNL     1       5.374  -0.173   0.453  1.00  0.00     0.116 N 
HETATM   18  C6  UNL     1       5.921   0.516  -0.679  1.00  0.00     0.301 C 
HETATM   19  C7  UNL     1       7.348   0.827  -0.232  1.00  0.00     0.200 C 
HETATM   20  O1  UNL     1       7.180   0.922   1.150  1.00  0.00    -0.361 OA
HETATM   21  C8  UNL     1       6.419  -0.225   1.439  1.00  0.00     0.440 C 
ENDBRANCH  16  17
ENDBRANCH  15  16
ENDBRANCH   2  14
BRANCH   7  22
HETATM   22  C13 UNL     1      -4.719  -0.077   0.362  1.00  0.00     0.010 A 
HETATM   23  C14 UNL     1      -5.483  -0.684  -0.645  1.00  0.00     0.015 A 
HETATM   24  C15 UNL     1      -6.620  -0.097  -1.154  1.00  0.00     0.002 A 
HETATM   25  C16 UNL     1      -7.000   1.124  -0.643  1.00  0.00     0.022 A 
HETATM   26  C17 UNL     1      -6.253   1.722   0.344  1.00  0.00     0.044 A 
HETATM   27 BR1  UNL     1      -6.713   3.416   1.107  1.00  0.00    -0.048 Br
HETATM   28  C18 UNL     1      -5.117   1.145   0.859  1.00  0.00     0.094 A 
BRANCH  28  29
HETATM   29  O2  UNL     1      -4.267   1.617   1.845  1.00  0.00    -0.358 OA
HETATM   30  H20 UNL     1      -4.302   2.555   2.234  1.00  0.00     0.217 HD
ENDBRANCH  28  29
ENDBRANCH   7  22
TORSDOF 5
