REMARK  6 active torsions:
REMARK  status: ('A' for Active; 'I' for Inactive)
REMARK    1  A    between atoms: C7_9  and  N3_10 
REMARK       I    between atoms: N3_10  and  C8_11 
REMARK    2  A    between atoms: C8_11  and  C9_13 
REMARK    3  A    between atoms: C10_14  and  C11_15 
REMARK    4  A    between atoms: C11_15  and  N4_16 
REMARK    5  A    between atoms: C18_24  and  C19_25 
REMARK    6  A    between atoms: C19_25  and  C20_27 
ROOT
HETATM    1  N1  UNL     1      -8.413  -0.264  -0.041  1.00  0.00    -0.191 NA
HETATM    2  C1  UNL     1      -7.312  -0.624  -0.134  1.00  0.00     0.101 C 
HETATM    3  C2  UNL     1      -5.967  -1.083  -0.231  1.00  0.00     0.070 A 
HETATM    4  C3  UNL     1      -5.815  -2.462  -0.368  1.00  0.00     0.140 A 
HETATM    5  N2  UNL     1      -4.580  -2.983  -0.460  1.00  0.00    -0.259 NA
HETATM    6  C4  UNL     1      -3.494  -2.158  -0.419  1.00  0.00     0.067 A 
HETATM    7  C5  UNL     1      -2.261  -2.778  -0.517  1.00  0.00     0.035 A 
HETATM    8  C6  UNL     1      -1.135  -1.949  -0.474  1.00  0.00     0.032 A 
HETATM    9  C7  UNL     1      -1.293  -0.567  -0.337  1.00  0.00     0.035 A 
HETATM   10  C16 UNL     1      -2.554  -0.020  -0.245  1.00  0.00     0.044 A 
HETATM   11  C17 UNL     1      -3.683  -0.801  -0.283  1.00  0.00     0.004 A 
HETATM   12  C18 UNL     1      -4.906  -0.187  -0.183  1.00  0.00    -0.003 A 
ENDROOT
BRANCH  12  13
HETATM   13  C19 UNL     1      -5.086   1.263  -0.042  1.00  0.00     0.146 C 
HETATM   14 CL1  UNL     1      -6.620   1.823  -0.789  1.00  0.00    -0.117 Cl
BRANCH  13  15
HETATM   15  C20 UNL     1      -5.100   1.692   1.419  1.00  0.00     0.247 C 
HETATM   16  F1  UNL     1      -6.151   1.041   2.041  1.00  0.00    -0.254 F 
ENDBRANCH  13  15
ENDBRANCH  12  13
BRANCH   9  17
HETATM   17  N3  UNL     1      -0.017   0.057  -0.316  1.00  0.00    -0.324 N 
HETATM   18  C8  UNL     1       0.503   0.195   1.001  1.00  0.00     0.245 C 
HETATM   19  O1  UNL     1      -0.337  -0.282   1.805  1.00  0.00    -0.268 OA
HETATM   20  H4  UNL     1       0.513   0.388  -1.133  1.00  0.00     0.169 HD
BRANCH  18  21
HETATM   21  C9  UNL     1       1.764   0.774   1.354  1.00  0.00     0.072 C 
HETATM   22  C10 UNL     1       2.768   1.313   0.693  1.00  0.00     0.008 C 
BRANCH  22  23
HETATM   23  C11 UNL     1       3.345   1.700  -0.602  1.00  0.00     0.300 C 
BRANCH  23  24
HETATM   24  N4  UNL     1       4.615   1.055  -0.902  1.00  0.00     0.096 N 
HETATM   25  C12 UNL     1       4.436  -0.363  -1.129  1.00  0.00     0.299 C 
HETATM   26  C13 UNL     1       5.741  -1.079  -1.040  1.00  0.00     0.198 C 
HETATM   27  O2  UNL     1       6.838  -0.257  -1.301  1.00  0.00    -0.388 OA
HETATM   28  C14 UNL     1       6.933   0.795  -0.412  1.00  0.00     0.198 C 
HETATM   29  C15 UNL     1       5.594   1.236   0.136  1.00  0.00     0.299 C 
ENDBRANCH  23  24
ENDBRANCH  22  23
ENDBRANCH  18  21
ENDBRANCH   9  17
TORSDOF 6
