REMARK  6 active torsions:
REMARK  status: ('A' for Active; 'I' for Inactive)
REMARK    1  A    between atoms: C3_4  and  N2_5 
REMARK    2  A    between atoms: C6_8  and  C7_9 
REMARK    3  A    between atoms: C7_9  and  C8_10 
REMARK    4  A    between atoms: C9_11  and  N3_12 
REMARK    5  A    between atoms: C16_21  and  N4_22 
REMARK    6  A    between atoms: N4_22  and  C17_23 
ROOT
HETATM    1  N1  UNL     1       2.774   3.646  -2.000  1.00  0.00    -0.192 NA
HETATM    2  C1  UNL     1       2.587   3.942  -0.887  1.00  0.00     0.089 C 
HETATM    3  C2  UNL     1       2.348   4.327   0.476  1.00  0.00     0.112 C 
HETATM    4  C3  UNL     1       2.484   3.406   1.432  1.00  0.00     0.128 C 
ENDROOT
BRANCH   4   5
HETATM    5  N2  UNL     1       2.850   2.304   0.616  1.00  0.00    -0.262 NA
HETATM    6  C4  UNL     1       1.949   1.438   0.313  1.00  0.00     0.064 A 
HETATM    7  C5  UNL     1       0.592   1.718   0.880  1.00  0.00     0.096 A 
HETATM    8  C16 UNL     1       2.329   0.304  -0.528  1.00  0.00     0.057 A 
HETATM    9  C6  UNL     1      -0.370   0.652   0.465  1.00  0.00    -0.071 A 
HETATM   10  C14 UNL     1      -0.003  -0.352  -0.288  1.00  0.00     0.006 A 
HETATM   11  C15 UNL     1       1.348  -0.549  -0.799  1.00  0.00     0.032 A 
BRANCH   9  12
HETATM   12  C7  UNL     1      -1.685   0.930   1.019  1.00  0.00     0.063 C 
BRANCH  12  13
HETATM   13  C8  UNL     1      -2.742  -0.042   0.692  1.00  0.00    -0.005 C 
HETATM   14  C9  UNL     1      -3.853   0.284   0.039  1.00  0.00     0.090 C 
BRANCH  14  15
HETATM   15  N3  UNL     1      -4.935  -0.564  -0.330  1.00  0.00    -0.325 N 
HETATM   16  C10 UNL     1      -4.831  -1.965   0.045  1.00  0.00     0.157 C 
HETATM   17  C11 UNL     1      -6.060  -2.731  -0.392  1.00  0.00     0.188 C 
HETATM   18  O1  UNL     1      -7.186  -1.991  -0.119  1.00  0.00    -0.380 OA
HETATM   19  C12 UNL     1      -7.336  -0.924  -1.002  1.00  0.00     0.270 C 
HETATM   20  C13 UNL     1      -6.090  -0.133  -1.030  1.00  0.00     0.247 C 
HETATM   21  O2  UNL     1      -6.003   0.946  -1.670  1.00  0.00    -0.271 OA
ENDBRANCH  14  15
ENDBRANCH  12  13
ENDBRANCH   9  12
BRANCH   8  22
HETATM   22  N4  UNL     1       3.673   0.194  -0.981  1.00  0.00    -0.355 N 
HETATM   23  H17 UNL     1       3.786   0.866  -1.769  1.00  0.00     0.166 HD
BRANCH  22  24
HETATM   24  C17 UNL     1       4.693  -0.656  -0.479  1.00  0.00     0.034 A 
HETATM   25  C18 UNL     1       4.370  -1.484   0.571  1.00  0.00     0.032 A 
HETATM   26  C19 UNL     1       5.396  -2.292   1.024  1.00  0.00     0.046 A 
HETATM   27  C20 UNL     1       6.643  -2.251   0.447  1.00  0.00     0.138 A 
HETATM   28  F1  UNL     1       7.723  -2.995   0.806  1.00  0.00    -0.204 F 
HETATM   29  C21 UNL     1       6.932  -1.396  -0.619  1.00  0.00     0.074 A 
HETATM   30 CL1  UNL     1       8.492  -1.290  -1.400  1.00  0.00    -0.081 Cl
HETATM   31  C22 UNL     1       5.904  -0.572  -1.087  1.00  0.00     0.056 A 
ENDBRANCH  22  24
ENDBRANCH   8  22
ENDBRANCH   4   5
TORSDOF 6
