REMARK  4 active torsions:
REMARK  status: ('A' for Active; 'I' for Inactive)
REMARK    1  A    between atoms: C2_2  and  C3_3 
REMARK    2  A    between atoms: C3_3  and  C4_4 
REMARK       I    between atoms: C4_4  and  N1_6 
REMARK    3  A    between atoms: N1_6  and  C5_7 
REMARK    4  A    between atoms: N2_9  and  C7_10 
ROOT
HETATM    1  C5  UNL     1       0.434   0.114  -0.730  1.00  0.00     0.107 C 
HETATM    2  C6  UNL     1      -0.189   0.200   0.666  1.00  0.00     0.148 C 
HETATM    3  N2  UNL     1      -1.552   0.299   0.852  1.00  0.00    -0.378 N 
HETATM    4  C13 UNL     1      -2.656  -0.684   1.364  1.00  0.00     0.135 C 
HETATM    5  C14 UNL     1      -2.277  -1.866   0.565  1.00  0.00     0.006 C 
HETATM    6  C15 UNL     1      -1.652  -2.696   1.696  1.00  0.00     0.020 C 
HETATM    7  C16 UNL     1      -2.050  -2.811  -0.136  1.00  0.00     0.127 A 
HETATM    8  N3  UNL     1      -1.499  -4.011  -0.816  1.00  0.00    -0.298 NA
HETATM    9  C17 UNL     1      -0.347  -3.679  -1.460  1.00  0.00     0.091 A 
HETATM   10  C18 UNL     1      -0.580  -2.197  -0.859  1.00  0.00     0.092 A 
HETATM   11  C19 UNL     1       0.513  -1.341  -1.246  1.00  0.00    -0.021 C 
HETATM   12  C20 UNL     1       1.747  -1.336  -2.267  1.00  0.00     0.013 C 
ENDROOT
BRANCH   1  13
HETATM   13  N1  UNL     1       1.782   0.490  -0.312  1.00  0.00    -0.354 N 
HETATM   14  C4  UNL     1       2.813  -0.269   0.270  1.00  0.00     0.221 C 
HETATM   15  O1  UNL     1       2.530  -1.472   0.359  1.00  0.00    -0.273 OA
HETATM   16  H6  UNL     1       1.976   1.509  -0.632  1.00  0.00     0.162 HD
BRANCH  14  17
HETATM   17  C3  UNL     1       3.985   0.445   0.708  1.00  0.00     0.129 C 
BRANCH  17  18
HETATM   18  C2  UNL     1       5.184   0.659  -0.065  1.00  0.00    -0.028 C 
HETATM   19  C1  UNL     1       5.435   1.936   0.141  1.00  0.00     0.007 C 
ENDBRANCH  17  18
ENDBRANCH  14  17
ENDBRANCH   1  13
BRANCH   3  20
HETATM   20  C7  UNL     1      -2.116   1.547   0.508  1.00  0.00     0.031 A 
HETATM   21  C8  UNL     1      -3.311   1.878   1.067  1.00  0.00     0.029 A 
HETATM   22  C9  UNL     1      -4.140   3.057   0.845  1.00  0.00     0.004 A 
HETATM   23  C10 UNL     1      -3.459   3.739  -0.080  1.00  0.00     0.019 A 
HETATM   24  C11 UNL     1      -2.317   3.647  -0.811  1.00  0.00     0.013 A 
HETATM   25 BR1  UNL     1      -1.672   4.746  -2.188  1.00  0.00    -0.051 Br
HETATM   26  C12 UNL     1      -1.580   2.437  -0.455  1.00  0.00     0.048 A 
ENDBRANCH   3  20
TORSDOF 4
