REMARK  5 active torsions:
REMARK  status: ('A' for Active; 'I' for Inactive)
REMARK    1  A    between atoms: O1_2  and  C2_3 
REMARK    2  A    between atoms: C8_11  and  N3_12 
REMARK    3  A    between atoms: N3_12  and  C9_13 
REMARK    4  A    between atoms: C17_22  and  N4_23 
REMARK    5  A    between atoms: N4_23  and  C18_24 
ROOT
HETATM    1  C2  UNL     1      -3.011   0.096  -0.015  1.00  0.00     0.097 A 
HETATM    2  C3  UNL     1      -2.744  -1.067   0.665  1.00  0.00     0.071 A 
HETATM    3  C4  UNL     1      -1.484  -1.354   1.151  1.00  0.00     0.071 A 
HETATM    4  N1  UNL     1      -1.297  -2.506   1.804  1.00  0.00    -0.259 NA
HETATM    5  C5  UNL     1      -0.077  -2.825   2.297  1.00  0.00     0.142 A 
HETATM    6  C6  UNL     1       0.972  -1.938   2.113  1.00  0.00     0.089 A 
HETATM    7  C7  UNL     1       2.277  -2.268   2.634  1.00  0.00     0.103 C 
HETATM    8  N2  UNL     1       3.324  -2.536   3.053  1.00  0.00    -0.191 NA
HETATM    9  C8  UNL     1       0.818  -0.725   1.437  1.00  0.00     0.067 A 
HETATM   10  C15 UNL     1      -0.450  -0.460   0.960  1.00  0.00     0.023 A 
HETATM   11  C16 UNL     1      -0.692   0.732   0.271  1.00  0.00     0.048 A 
HETATM   12  C17 UNL     1      -1.968   1.001  -0.210  1.00  0.00     0.069 A 
ENDROOT
BRANCH   9  13
HETATM   13  N3  UNL     1       1.905   0.176   1.256  1.00  0.00    -0.354 N 
HETATM   14  H6  UNL     1       1.974   0.856   2.045  1.00  0.00     0.166 HD
BRANCH  13  15
HETATM   15  C9  UNL     1       2.786   0.150   0.139  1.00  0.00     0.033 A 
HETATM   16  C10 UNL     1       2.557  -0.816  -0.819  1.00  0.00     0.029 A 
HETATM   17  C11 UNL     1       3.445  -0.804  -1.895  1.00  0.00     0.004 A 
HETATM   18  C12 UNL     1       4.469   0.128  -1.959  1.00  0.00     0.019 A 
HETATM   19  C13 UNL     1       4.652   1.079  -0.964  1.00  0.00     0.013 A 
HETATM   20 BR1  UNL     1       6.038   2.381  -0.997  1.00  0.00    -0.051 Br
HETATM   21  C14 UNL     1       3.787   1.100   0.128  1.00  0.00     0.048 A 
ENDBRANCH  13  15
ENDBRANCH   9  13
BRANCH  12  22
HETATM   22  N4  UNL     1      -2.068   2.242  -0.887  1.00  0.00    -0.332 N 
HETATM   23  H12 UNL     1      -1.838   1.910  -1.869  1.00  0.00     0.168 HD
BRANCH  22  24
HETATM   24  C18 UNL     1      -2.360   3.599  -0.581  1.00  0.00     0.353 C 
HETATM   25  O2  UNL     1      -2.633   3.993   0.582  1.00  0.00    -0.283 OA
ENDBRANCH  22  24
ENDBRANCH  12  22
BRANCH   1  26
HETATM   26  O1  UNL     1      -4.238   0.475  -0.541  1.00  0.00    -0.354 OA
HETATM   27  C1  UNL     1      -5.414  -0.306  -0.446  1.00  0.00     0.210 C 
ENDBRANCH   1  26
TORSDOF 5
