REMARK  5 active torsions:
REMARK  status: ('A' for Active; 'I' for Inactive)
REMARK    1  A    between atoms: C3_3  and  C4_4 
REMARK       I    between atoms: C4_4  and  N1_6 
REMARK    2  A    between atoms: N1_6  and  C5_7 
REMARK    3  A    between atoms: C8_10  and  N2_11 
REMARK    4  A    between atoms: N2_11  and  C9_12 
REMARK    5  A    between atoms: C20_26  and  O2_27 
ROOT
HETATM    1  C1  UNL     1       5.351   2.880   3.424  1.00  0.00     0.112 C 
HETATM    2  C2  UNL     1       4.413   2.395   2.400  1.00  0.00    -0.101 C 
HETATM    3  C3  UNL     1       3.648   1.981   1.544  1.00  0.00    -0.006 C 
ENDROOT
BRANCH   3   4
HETATM    4  C4  UNL     1       2.733   1.483   0.549  1.00  0.00     0.301 C 
HETATM    5  O1  UNL     1       2.211   2.324  -0.237  1.00  0.00    -0.258 OA
HETATM    6  N1  UNL     1       2.491   0.081   0.532  1.00  0.00    -0.314 N 
HETATM    7  H4  UNL     1       2.964  -0.548   1.219  1.00  0.00     0.170 HD
BRANCH   6   8
HETATM    8  C5  UNL     1       1.613  -0.581  -0.386  1.00  0.00     0.070 A 
HETATM    9  C6  UNL     1       0.274  -0.742  -0.040  1.00  0.00     0.048 A 
HETATM   10  C7  UNL     1      -0.531  -1.385  -0.955  1.00  0.00     0.023 A 
HETATM   11  C8  UNL     1      -1.862  -1.552  -0.626  1.00  0.00     0.067 A 
HETATM   12  C18 UNL     1      -0.059  -1.858  -2.163  1.00  0.00     0.071 A 
HETATM   13  C15 UNL     1      -2.665  -2.196  -1.544  1.00  0.00     0.089 A 
HETATM   14  C16 UNL     1      -4.080  -2.422  -1.293  1.00  0.00     0.103 C 
HETATM   15  C17 UNL     1      -2.208  -2.674  -2.756  1.00  0.00     0.142 A 
HETATM   16  N3  UNL     1      -5.217  -2.595  -1.105  1.00  0.00    -0.191 NA
HETATM   17  N4  UNL     1      -0.903  -2.487  -3.029  1.00  0.00    -0.259 NA
HETATM   18  C19 UNL     1       1.283  -1.669  -2.454  1.00  0.00     0.071 A 
HETATM   19  C20 UNL     1       2.147  -1.034  -1.584  1.00  0.00     0.097 A 
BRANCH  11  20
HETATM   20  N2  UNL     1      -2.473  -1.124   0.561  1.00  0.00    -0.354 N 
HETATM   21  H6  UNL     1      -2.409  -1.886   1.272  1.00  0.00     0.166 HD
BRANCH  20  22
HETATM   22  C9  UNL     1      -3.092   0.133   0.804  1.00  0.00     0.033 A 
HETATM   23  C10 UNL     1      -3.102   1.043  -0.230  1.00  0.00     0.029 A 
HETATM   24  C11 UNL     1      -3.715   2.273   0.029  1.00  0.00     0.004 A 
HETATM   25  C12 UNL     1      -4.266   2.506   1.276  1.00  0.00     0.019 A 
HETATM   26  C13 UNL     1      -4.238   1.558   2.302  1.00  0.00     0.013 A 
HETATM   27 BR1  UNL     1      -5.017   1.951   3.993  1.00  0.00    -0.051 Br
HETATM   28  C14 UNL     1      -3.629   0.333   2.053  1.00  0.00     0.048 A 
ENDBRANCH  20  22
ENDBRANCH  11  20
BRANCH  19  29
HETATM   29  O2  UNL     1       3.470  -0.875  -1.925  1.00  0.00    -0.354 OA
HETATM   30  C21 UNL     1       3.998  -1.347  -3.162  1.00  0.00     0.210 C 
ENDBRANCH  19  29
ENDBRANCH   6   8
ENDBRANCH   3   4
TORSDOF 5
