REMARK  7 active torsions:
REMARK  status: ('A' for Active; 'I' for Inactive)
REMARK    1  A    between atoms: N1_2  and  C3_4 
REMARK    2  A    between atoms: C3_4  and  C4_5 
REMARK    3  A    between atoms: C4_5  and  C5_6 
REMARK    4  A    between atoms: C5_6  and  C6_7 
REMARK       I    between atoms: C6_7  and  N2_9 
REMARK    5  A    between atoms: N2_9  and  C7_10 
REMARK    6  A    between atoms: N3_14  and  C11_15 
REMARK    7  A    between atoms: N4_23  and  C18_24 
ROOT
HETATM    1  C18 UNL     1      -4.936   1.110  -0.625  1.00  0.00     0.130 C 
HETATM    2  C19 UNL     1      -5.589   2.025   0.098  1.00  0.00     0.112 C 
HETATM    3  C20 UNL     1      -7.038   2.029   0.244  1.00  0.00     0.089 C 
HETATM    4  N5  UNL     1      -8.194   2.013   0.361  1.00  0.00    -0.192 NA
ENDROOT
BRANCH   1   5
HETATM    5  N4  UNL     1      -3.561   1.285  -0.634  1.00  0.00    -0.242 NA
HETATM    6  C17 UNL     1      -2.587   0.671  -0.184  1.00  0.00     0.134 C 
HETATM    7  N3  UNL     1      -2.579  -0.529   0.562  1.00  0.00    -0.307 N 
HETATM    8  C21 UNL     1      -1.417   1.479  -0.605  1.00  0.00     0.053 C 
HETATM    9  C10 UNL     1      -1.711  -1.314   1.363  1.00  0.00     0.099 C 
HETATM   10  C9  UNL     1      -0.402  -1.325   1.551  1.00  0.00     0.020 C 
HETATM   11  C8  UNL     1       0.686  -0.525   1.005  1.00  0.00     0.031 C 
HETATM   12  C7  UNL     1       0.845   0.558   0.225  1.00  0.00     0.035 C 
HETATM   13  C22 UNL     1      -0.077   1.458  -0.461  1.00  0.00     0.033 C 
BRANCH   7  14
HETATM   14  C11 UNL     1      -3.862  -1.133   0.472  1.00  0.00     0.041 A 
HETATM   15  C12 UNL     1      -4.968  -1.045   1.315  1.00  0.00     0.030 A 
HETATM   16  C13 UNL     1      -6.114  -1.746   1.007  1.00  0.00     0.004 A 
HETATM   17  C14 UNL     1      -6.202  -2.538  -0.118  1.00  0.00     0.019 A 
HETATM   18  C15 UNL     1      -5.114  -2.631  -0.955  1.00  0.00     0.013 A 
HETATM   19 BR1  UNL     1      -5.295  -3.743  -2.494  1.00  0.00    -0.051 Br
HETATM   20  C16 UNL     1      -3.937  -1.935  -0.674  1.00  0.00     0.049 A 
ENDBRANCH   7  14
BRANCH  12  21
HETATM   21  N2  UNL     1       2.216   0.957  -0.023  1.00  0.00    -0.324 N 
HETATM   22  C6  UNL     1       2.774   2.235   0.352  1.00  0.00     0.245 C 
HETATM   23  O1  UNL     1       1.759   2.785   0.899  1.00  0.00    -0.268 OA
HETATM   24  H11 UNL     1       2.524   0.074  -0.495  1.00  0.00     0.169 HD
BRANCH  22  25
HETATM   25  C5  UNL     1       4.160   2.222  -0.078  1.00  0.00     0.072 C 
BRANCH  25  26
HETATM   26  C4  UNL     1       5.334   1.948  -0.554  1.00  0.00     0.008 C 
BRANCH  26  27
HETATM   27  C3  UNL     1       5.667   0.677  -1.195  1.00  0.00     0.299 C 
BRANCH  27  28
HETATM   28  N1  UNL     1       6.747  -0.046  -0.513  1.00  0.00     0.083 N 
HETATM   29  C1  UNL     1       6.334  -0.520   0.780  1.00  0.00     0.309 C 
HETATM   30  C2  UNL     1       7.230  -1.074  -1.383  1.00  0.00     0.309 C 
ENDBRANCH  27  28
ENDBRANCH  26  27
ENDBRANCH  25  26
ENDBRANCH  22  25
ENDBRANCH  12  21
ENDBRANCH   1   5
TORSDOF 7
