REMARK  5 active torsions:
REMARK  status: ('A' for Active; 'I' for Inactive)
REMARK    1  A    between atoms: C3_3  and  C4_4 
REMARK    2  A    between atoms: C4_4  and  C5_6 
REMARK    3  A    between atoms: C7_8  and  N1_9 
REMARK    4  A    between atoms: C19_24  and  C20_25 
REMARK    5  A    between atoms: C20_25  and  N4_26 
ROOT
HETATM    1  C1  UNL     1       5.024   2.930   0.802  1.00  0.00     0.112 C 
HETATM    2  C2  UNL     1       4.192   1.868   0.208  1.00  0.00    -0.102 C 
HETATM    3  C3  UNL     1       3.521   0.996  -0.294  1.00  0.00    -0.024 C 
ENDROOT
BRANCH   3   4
HETATM    4  C4  UNL     1       2.748  -0.032  -0.897  1.00  0.00     0.235 C 
HETATM    5  O1  UNL     1       3.188  -0.545  -1.974  1.00  0.00    -0.278 OA
BRANCH   4   6
HETATM    6  C5  UNL     1       1.485  -0.473  -0.281  1.00  0.00     0.031 A 
HETATM    7  C6  UNL     1       0.971   0.018   0.836  1.00  0.00     0.032 A 
HETATM    8  C7  UNL     1      -0.267  -0.655   1.106  1.00  0.00     0.120 A 
HETATM    9  C14 UNL     1      -0.868  -0.848   2.392  1.00  0.00     0.076 C 
HETATM   10  C18 UNL     1      -0.362  -1.726   0.135  1.00  0.00     0.006 A 
HETATM   11  C15 UNL     1      -0.718  -0.209   3.625  1.00  0.00     0.100 C 
HETATM   12  C16 UNL     1      -1.741  -1.876   2.318  1.00  0.00     0.137 C 
HETATM   13  N2  UNL     1      -0.578   0.317   4.623  1.00  0.00    -0.192 NA
HETATM   14  N3  UNL     1      -2.097  -2.773   1.278  1.00  0.00    -0.271 NA
HETATM   15  C17 UNL     1      -1.450  -2.699   0.163  1.00  0.00     0.127 C 
HETATM   16  C19 UNL     1       0.652  -1.590  -0.741  1.00  0.00    -0.005 A 
BRANCH   8  17
HETATM   17  N1  UNL     1      -1.274   0.440   0.476  1.00  0.00    -0.359 N 
HETATM   18  C8  UNL     1      -1.019   1.634   1.218  1.00  0.00     0.107 A 
HETATM   19  C9  UNL     1      -1.778   2.729   1.039  1.00  0.00     0.026 A 
HETATM   20 BR1  UNL     1      -1.587   4.376   1.929  1.00  0.00    -0.050 Br
HETATM   21  C10 UNL     1      -2.832   2.666   0.037  1.00  0.00     0.018 A 
HETATM   22  C11 UNL     1      -3.017   1.565  -0.665  1.00  0.00    -0.001 A 
HETATM   23  C12 UNL     1      -2.245   0.299  -0.570  1.00  0.00     0.104 A 
HETATM   24  C13 UNL     1      -1.751  -0.001  -1.930  1.00  0.00     0.037 C 
ENDBRANCH   8  17
BRANCH  16  25
HETATM   25  C20 UNL     1       0.976  -2.350  -1.963  1.00  0.00     0.306 C 
BRANCH  25  26
HETATM   26  N4  UNL     1       0.068  -3.405  -2.269  1.00  0.00     0.082 N 
HETATM   27  H16 UNL     1       0.606  -4.237  -2.600  1.00  0.00     0.313 HD
HETATM   28  H17 UNL     1      -0.574  -3.131  -3.017  1.00  0.00     0.313 HD
ENDBRANCH  25  26
ENDBRANCH  16  25
ENDBRANCH   4   6
ENDBRANCH   3   4
TORSDOF 5
