REMARK  6 active torsions:
REMARK  status: ('A' for Active; 'I' for Inactive)
REMARK    1  A    between atoms: C2_2  and  C3_3 
REMARK    2  A    between atoms: C3_3  and  C4_4 
REMARK       I    between atoms: C4_4  and  N1_6 
REMARK    3  A    between atoms: N1_6  and  C5_7 
REMARK    4  A    between atoms: C8_10  and  N2_11 
REMARK    5  A    between atoms: N2_11  and  C9_12 
REMARK    6  A    between atoms: C15_19  and  C16_20 
ROOT
HETATM    1  C5  UNL     1       0.466   0.175   0.892  1.00  0.00     0.016 C 
HETATM    2  C6  UNL     1       0.291  -0.076   2.258  1.00  0.00     0.023 C 
HETATM    3  C7  UNL     1      -1.178  -0.629   2.048  1.00  0.00     0.085 A 
HETATM    4  C8  UNL     1      -2.039  -0.770   0.985  1.00  0.00     0.038 A 
HETATM    5  C15 UNL     1      -1.085  -1.915   1.008  1.00  0.00     0.092 A 
HETATM    6  N3  UNL     1      -1.599  -2.342   2.366  1.00  0.00    -0.288 NA
HETATM    7  C18 UNL     1      -0.774  -1.649   3.175  1.00  0.00     0.107 C 
HETATM    8  C19 UNL     1       0.161  -1.350   0.593  1.00  0.00     0.066 C 
HETATM    9  C20 UNL     1       1.357  -2.216   0.708  1.00  0.00     0.019 C 
ENDROOT
BRANCH   4  10
HETATM   10  N2  UNL     1      -2.983   0.245   0.861  1.00  0.00    -0.359 N 
HETATM   11  H10 UNL     1      -3.859   0.250   1.441  1.00  0.00     0.165 HD
BRANCH  10  12
HETATM   12  C9  UNL     1      -2.976   1.371   0.017  1.00  0.00     0.033 A 
HETATM   13  C10 UNL     1      -2.278   2.548   0.139  1.00  0.00     0.029 A 
HETATM   14  C11 UNL     1      -2.416   3.564  -0.787  1.00  0.00     0.004 A 
HETATM   15  C12 UNL     1      -3.284   3.328  -1.828  1.00  0.00     0.019 A 
HETATM   16  C13 UNL     1      -4.009   2.170  -2.002  1.00  0.00     0.013 A 
HETATM   17 BR1  UNL     1      -5.145   2.119  -3.535  1.00  0.00    -0.051 Br
HETATM   18  C14 UNL     1      -3.855   1.159  -1.056  1.00  0.00     0.048 A 
ENDBRANCH  10  12
ENDBRANCH   4  10
BRANCH   5  19
HETATM   19  C16 UNL     1      -1.621  -3.024   0.108  1.00  0.00     0.034 C 
HETATM   20  C17 UNL     1      -0.751  -4.246   0.048  1.00  0.00     0.008 C 
ENDBRANCH   5  19
BRANCH   1  21
HETATM   21  N1  UNL     1       0.824   1.299   0.086  1.00  0.00    -0.331 N 
HETATM   22  C4  UNL     1       2.025   1.196  -0.624  1.00  0.00     0.221 C 
HETATM   23  O1  UNL     1       2.809   0.177  -0.581  1.00  0.00    -0.273 OA
HETATM   24  H8  UNL     1       0.492   2.223  -0.182  1.00  0.00     0.168 HD
BRANCH  22  25
HETATM   25  C3  UNL     1       2.935   1.869  -1.559  1.00  0.00     0.103 C 
BRANCH  25  26
HETATM   26  C2  UNL     1       4.321   1.241  -1.553  1.00  0.00     0.005 C 
HETATM   27  C1  UNL     1       4.981   1.356  -0.197  1.00  0.00     0.005 C 
ENDBRANCH  25  26
ENDBRANCH  22  25
ENDBRANCH   1  21
TORSDOF 6
