REMARK  5 active torsions:
REMARK  status: ('A' for Active; 'I' for Inactive)
REMARK    1  A    between atoms: C9_12  and  N3_13 
REMARK    2  A    between atoms: N3_13  and  S1_14 
REMARK    3  A    between atoms: S1_14  and  C10_15 
REMARK    4  A    between atoms: C17_22  and  N4_23 
REMARK       I    between atoms: N4_23  and  C18_24 
REMARK    5  A    between atoms: C18_24  and  C19_26 
ROOT
HETATM    1  N1  UNL     1       2.577  -1.889   2.417  1.00  0.00    -0.096 N 
HETATM    2  C1  UNL     1       1.452  -1.947   2.003  1.00  0.00     0.023 C 
HETATM    3  C2  UNL     1       0.040  -2.028   1.508  1.00  0.00     0.076 C 
HETATM    4  C3  UNL     1      -0.570  -2.844   2.354  1.00  0.00     0.142 C 
HETATM    5  N2  UNL     1      -1.644  -2.508   1.524  1.00  0.00    -0.247 NA
HETATM    6  C4  UNL     1      -2.892  -2.212   1.812  1.00  0.00     0.258 C 
HETATM    7  O1  UNL     1      -3.632  -1.906   0.538  1.00  0.00    -0.302 OA
HETATM    8  C5  UNL     1      -2.623  -1.424  -0.347  1.00  0.00     0.100 C 
HETATM    9  C6  UNL     1      -2.795  -2.734  -0.663  1.00  0.00     0.017 C 
HETATM   10  C7  UNL     1      -1.486  -3.133  -1.080  1.00  0.00     0.071 C 
HETATM   11  C8  UNL     1      -0.503  -2.044  -0.779  1.00  0.00    -0.024 C 
HETATM   12  C9  UNL     1       0.251  -1.438   0.164  1.00  0.00     0.066 C 
HETATM   13  C16 UNL     1      -0.899  -1.257  -2.035  1.00  0.00     0.042 C 
HETATM   14  C17 UNL     1      -1.622  -0.600  -1.082  1.00  0.00     0.069 C 
ENDROOT
BRANCH  12  15
HETATM   15  N3  UNL     1       1.081  -0.395  -0.224  1.00  0.00    -0.324 N 
HETATM   16  H6  UNL     1       1.307  -0.336  -1.233  1.00  0.00     0.174 HD
BRANCH  15  17
HETATM   17  S1  UNL     1       1.627   0.664   1.043  1.00  0.00    -0.015 SA
BRANCH  17  18
HETATM   18  C10 UNL     1       2.903   1.719   0.309  1.00  0.00     0.021 A 
HETATM   19  C11 UNL     1       4.224   1.295   0.338  1.00  0.00     0.020 A 
HETATM   20  C12 UNL     1       5.181   2.130  -0.244  1.00  0.00     0.001 A 
HETATM   21  C13 UNL     1       4.785   3.302  -0.804  1.00  0.00     0.000 A 
HETATM   22  C14 UNL     1       3.480   3.764  -0.856  1.00  0.00     0.001 A 
HETATM   23  C15 UNL     1       2.513   2.931  -0.273  1.00  0.00     0.020 A 
ENDBRANCH  17  18
ENDBRANCH  15  17
ENDBRANCH  12  15
BRANCH  14  24
HETATM   24  N4  UNL     1      -1.710   0.710  -0.554  1.00  0.00    -0.324 N 
HETATM   25  C18 UNL     1      -2.939   1.401  -0.682  1.00  0.00     0.232 C 
HETATM   26  O2  UNL     1      -4.077   1.109  -1.192  1.00  0.00    -0.272 OA
HETATM   27  H13 UNL     1      -1.066   1.355  -0.060  1.00  0.00     0.169 HD
BRANCH  25  28
HETATM   28  C19 UNL     1      -3.293   2.770  -0.223  1.00  0.00     0.188 C 
HETATM   29 BR1  UNL     1      -5.125   3.128  -0.734  1.00  0.00    -0.087 Br
ENDBRANCH  25  28
ENDBRANCH  14  24
TORSDOF 5
