REMARK  7 active torsions:
REMARK  status: ('A' for Active; 'I' for Inactive)
REMARK    1  A    between atoms: C5_5  and  C6_6 
REMARK    2  A    between atoms: C5_5  and  O2_17 
REMARK    3  A    between atoms: C6_6  and  C7_7 
REMARK    4  A    between atoms: C7_7  and  C8_8 
REMARK    5  A    between atoms: C9_9  and  C10_10 
REMARK    6  A    between atoms: C10_10  and  N1_11 
REMARK    7  A    between atoms: O2_17  and  C15_18 
ROOT
HETATM    1  C1  UNL     1      -5.487   2.733   0.700  1.00  0.00     0.021 C 
HETATM    2  C2  UNL     1      -5.064   1.520   0.381  1.00  0.00    -0.040 C 
HETATM    3  C3  UNL     1      -3.589   1.351   0.402  1.00  0.00     0.099 C 
HETATM    4  C4  UNL     1      -3.186   0.019  -0.158  1.00  0.00     0.043 C 
HETATM    5  C5  UNL     1      -1.905  -0.258  -0.349  1.00  0.00     0.069 C 
HETATM    6  N2  UNL     1      -4.220  -0.905  -0.458  1.00  0.00    -0.365 N 
HETATM    7  C17 UNL     1      -5.613  -0.674  -0.360  1.00  0.00     0.111 C 
HETATM    8  C18 UNL     1      -6.045   0.503   0.048  1.00  0.00     0.065 C 
HETATM    9  C19 UNL     1      -7.446   0.773   0.161  1.00  0.00     0.101 C 
HETATM   10  N3  UNL     1      -8.592   0.994   0.244  1.00  0.00    -0.191 NA
HETATM   11  H26 UNL     1      -3.990  -1.867  -0.790  1.00  0.00     0.165 HD
ENDROOT
BRANCH   5  12
HETATM   12  C6  UNL     1      -0.841   0.703  -0.028  1.00  0.00     0.070 C 
BRANCH  12  13
HETATM   13  C7  UNL     1       0.170   0.189   0.975  1.00  0.00     0.033 C 
BRANCH  13  14
HETATM   14  C8  UNL     1       1.220   1.187   1.295  1.00  0.00    -0.029 C 
HETATM   15  C9  UNL     1       2.558   1.327   1.222  1.00  0.00    -0.001 C 
BRANCH  15  16
HETATM   16  C10 UNL     1       3.338   0.197   0.664  1.00  0.00     0.299 C 
BRANCH  16  17
HETATM   17  N1  UNL     1       4.090   0.620  -0.494  1.00  0.00     0.096 N 
HETATM   18  C11 UNL     1       4.721  -0.483  -1.159  1.00  0.00     0.299 C 
HETATM   19  C12 UNL     1       5.864  -0.989  -0.319  1.00  0.00     0.198 C 
HETATM   20  O1  UNL     1       6.786   0.022  -0.169  1.00  0.00    -0.388 OA
HETATM   21  C13 UNL     1       6.280   1.138   0.488  1.00  0.00     0.198 C 
HETATM   22  C14 UNL     1       5.038   1.675  -0.178  1.00  0.00     0.299 C 
ENDBRANCH  16  17
ENDBRANCH  15  16
ENDBRANCH  13  14
ENDBRANCH  12  13
ENDBRANCH   5  12
BRANCH   5  23
HETATM   23  O2  UNL     1      -1.665  -1.541  -0.881  1.00  0.00    -0.354 OA
BRANCH  23  24
HETATM   24  C15 UNL     1      -1.546  -2.689  -0.047  1.00  0.00     0.171 C 
HETATM   25  C16 UNL     1      -1.694  -3.979  -0.828  1.00  0.00     0.034 C 
ENDBRANCH  23  24
ENDBRANCH   5  23
TORSDOF 7
