REMARK  1 active torsions:
REMARK  status: ('A' for Active; 'I' for Inactive)
REMARK    1  A    between atoms: C7_9  and  N2_10 
ROOT
HETATM    1  O1  UNL     1       0.569  -2.941  -0.271  1.00  0.00     0.000 OA
HETATM    2  C1  UNL     1       1.519  -3.461  -0.927  1.00  0.00     0.033 A 
HETATM    3  C2  UNL     1       0.100  -3.884  -1.272  1.00  0.00     0.053 A 
HETATM    4  C3  UNL     1      -0.749  -3.195  -0.555  1.00  0.00     0.031 A 
HETATM    5  C4  UNL     1      -1.668  -2.370   0.298  1.00  0.00     0.275 C 
HETATM    6  N1  UNL     1      -2.705  -1.726  -0.543  1.00  0.00     0.087 N 
HETATM    7  C5  UNL     1      -3.349  -0.638   0.217  1.00  0.00     0.299 C 
HETATM    8  C6  UNL     1      -2.357   0.465   0.345  1.00  0.00     0.033 C 
HETATM    9  C7  UNL     1      -2.534   1.707  -0.160  1.00  0.00     0.035 C 
HETATM   10  C8  UNL     1      -2.114   3.127  -0.330  1.00  0.00     0.026 C 
HETATM   11  C9  UNL     1      -1.021   3.434   0.344  1.00  0.00    -0.021 C 
HETATM   12  C10 UNL     1       0.179   3.861   1.052  1.00  0.00     0.055 C 
HETATM   13  C11 UNL     1       1.307   2.903   0.669  1.00  0.00    -0.006 C 
HETATM   14  C12 UNL     1       2.515   2.975   0.017  1.00  0.00     0.087 C 
HETATM   15  N3  UNL     1       2.960   1.660   0.082  1.00  0.00    -0.358 N 
HETATM   16  C13 UNL     1       4.159   1.294   0.269  1.00  0.00     0.090 A 
HETATM   17  C14 UNL     1       3.386   0.061   0.155  1.00  0.00     0.133 A 
HETATM   18  C15 UNL     1       2.614  -1.044   0.038  1.00  0.00     0.039 C 
HETATM   19  C16 UNL     1       3.237  -2.407   0.198  1.00  0.00     0.127 C 
HETATM   20  N4  UNL     1       2.967  -3.310  -0.880  1.00  0.00    -0.391 N 
HETATM   21  H5  UNL     1      -3.472  -2.445  -0.688  1.00  0.00     0.316 HD
HETATM   22  H21 UNL     1       2.653  -3.950  -1.634  1.00  0.00     0.159 HD
ENDROOT
BRANCH   9  23
HETATM   23  N2  UNL     1      -3.808   1.448  -0.732  1.00  0.00    -0.323 N 
HETATM   24 BR1  UNL     1      -5.032   1.903   0.669  1.00  0.00     0.047 Br
HETATM   25  H9  UNL     1      -3.755   1.094  -1.715  1.00  0.00     0.174 HD
ENDBRANCH   9  23
TORSDOF 1
