REMARK  3 active torsions:
REMARK  status: ('A' for Active; 'I' for Inactive)
REMARK    1  A    between atoms: N1_2  and  C2_3 
REMARK       I    between atoms: N1_2  and  C4_6 
REMARK    2  A    between atoms: C2_3  and  C3_4 
REMARK       I    between atoms: C4_6  and  N2_8 
REMARK    3  A    between atoms: N2_8  and  C5_9 
ROOT
HETATM    1  C5  UNL     1      -1.119  -0.417  -0.040  1.00  0.00     0.033 A 
HETATM    2  C6  UNL     1      -0.684  -1.580   0.408  1.00  0.00     0.006 A 
HETATM    3  C7  UNL     1       0.585  -2.089   0.870  1.00  0.00     0.073 A 
HETATM    4  C8  UNL     1       1.795  -1.178   0.787  1.00  0.00     0.197 A 
HETATM    5  N3  UNL     1       2.775  -1.817   0.108  1.00  0.00    -0.433 NA
HETATM    6  C9  UNL     1       3.687  -2.282  -0.515  1.00  0.00     0.268 C 
HETATM    7  N4  UNL     1       4.832  -1.676  -1.219  1.00  0.00    -0.342 N 
HETATM    8  C10 UNL     1       4.924  -0.471  -0.413  1.00  0.00     0.034 A 
HETATM    9  C11 UNL     1       5.904   0.008   0.419  1.00  0.00     0.029 A 
HETATM   10  C12 UNL     1       5.636   1.110   1.196  1.00  0.00     0.003 A 
HETATM   11  C13 UNL     1       4.421   1.747   1.171  1.00  0.00     0.007 A 
HETATM   12  C14 UNL     1       3.468   1.243   0.331  1.00  0.00    -0.052 A 
HETATM   13  C15 UNL     1       3.671   0.158  -0.474  1.00  0.00     0.037 A 
HETATM   14  C16 UNL     1       2.025   1.503   0.090  1.00  0.00     0.076 C 
HETATM   15  C17 UNL     1       1.293   0.177   0.310  1.00  0.00    -0.038 A 
HETATM   16  C18 UNL     1       0.034   0.512  -0.063  1.00  0.00     0.035 A 
HETATM   17  H14 UNL     1       5.618  -1.386  -1.797  1.00  0.00     0.167 HD
ENDROOT
BRANCH   1  18
HETATM   18  N2  UNL     1      -2.452  -0.147  -0.444  1.00  0.00    -0.309 N 
HETATM   19  C4  UNL     1      -3.271   0.849   0.172  1.00  0.00     0.322 C 
HETATM   20  N1  UNL     1      -4.602   1.089  -0.262  1.00  0.00    -0.337 N 
HETATM   21  O1  UNL     1      -2.930   1.602   1.130  1.00  0.00    -0.247 OA
HETATM   22  C1  UNL     1      -5.177   2.147   0.545  1.00  0.00     0.154 C 
HETATM   23  H8  UNL     1      -2.835  -0.716  -1.233  1.00  0.00     0.170 HD
BRANCH  20  24
HETATM   24  C2  UNL     1      -5.305   0.412  -1.332  1.00  0.00     0.142 C 
BRANCH  24  25
HETATM   25  C3  UNL     1      -6.054  -0.807  -0.865  1.00  0.00     0.134 C 
HETATM   26 CL1  UNL     1      -7.280  -0.472   0.350  1.00  0.00    -0.129 Cl
ENDBRANCH  24  25
ENDBRANCH  20  24
ENDBRANCH   1  18
TORSDOF 3
