REMARK  5 active torsions:
REMARK  status: ('A' for Active; 'I' for Inactive)
REMARK    1  A    between atoms: C2_2  and  C4_4 
REMARK    2  A    between atoms: C5_5  and  C6_6 
REMARK    3  A    between atoms: C6_6  and  N1_7 
REMARK    4  A    between atoms: C16_21  and  N5_22 
REMARK    5  A    between atoms: N5_22  and  C17_23 
ROOT
HETATM    1  C6  UNL     1      -1.942   0.806  -0.721  1.00  0.00     0.277 C 
HETATM    2  N2  UNL     1      -0.934   1.552   0.029  1.00  0.00    -0.359 N 
HETATM    3  C7  UNL     1       0.441   1.329  -0.275  1.00  0.00     0.091 C 
HETATM    4  C8  UNL     1       0.882   0.094  -0.585  1.00  0.00    -0.034 C 
HETATM    5  C9  UNL     1      -0.137  -0.879  -1.106  1.00  0.00     0.081 C 
HETATM    6  C10 UNL     1      -1.311  -0.124  -1.711  1.00  0.00     0.126 C 
HETATM    7  C11 UNL     1      -2.301  -1.145  -2.217  1.00  0.00     0.052 C 
HETATM    8  O1  UNL     1      -0.880   0.623  -2.855  1.00  0.00    -0.329 OA
HETATM    9  C12 UNL     1       0.155   0.168  -3.663  1.00  0.00     0.252 C 
HETATM   10  N3  UNL     1       1.029   0.483  -2.810  1.00  0.00    -0.248 NA
HETATM   11  C13 UNL     1       2.408   0.360  -2.822  1.00  0.00     0.139 C 
HETATM   12  C14 UNL     1       3.061   0.003  -1.699  1.00  0.00     0.066 C 
HETATM   13  C15 UNL     1       4.478  -0.075  -1.909  1.00  0.00     0.099 C 
HETATM   14  N4  UNL     1       5.622  -0.141  -2.058  1.00  0.00    -0.192 NA
HETATM   15  C16 UNL     1       2.319  -0.283  -0.411  1.00  0.00     0.158 C 
HETATM   16  H12 UNL     1      -1.212   2.225   0.760  1.00  0.00     0.161 HD
ENDROOT
BRANCH  15  17
HETATM   17  N5  UNL     1       2.971   0.450   0.644  1.00  0.00    -0.377 N 
HETATM   18  H22 UNL     1       2.445   1.294   0.958  1.00  0.00     0.160 HD
BRANCH  17  19
HETATM   19  C17 UNL     1       4.197   0.178   1.293  1.00  0.00     0.030 A 
HETATM   20  C18 UNL     1       4.996  -0.919   1.079  1.00  0.00     0.029 A 
HETATM   21  C19 UNL     1       6.203  -1.185   1.690  1.00  0.00     0.004 A 
HETATM   22  C20 UNL     1       6.624  -0.238   2.603  1.00  0.00     0.019 A 
HETATM   23  C21 UNL     1       5.886   0.891   2.880  1.00  0.00     0.013 A 
HETATM   24 BR1  UNL     1       6.476   2.193   4.144  1.00  0.00    -0.051 Br
HETATM   25  C22 UNL     1       4.693   1.068   2.218  1.00  0.00     0.048 A 
ENDBRANCH  17  19
ENDBRANCH  15  17
BRANCH   1  26
HETATM   26  C5  UNL     1      -2.769   0.092   0.285  1.00  0.00     0.036 C 
HETATM   27  C4  UNL     1      -4.110  -0.023   0.353  1.00  0.00    -0.022 C 
BRANCH  27  28
HETATM   28  C2  UNL     1      -5.190  -0.616   1.158  1.00  0.00    -0.000 C 
HETATM   29  C1  UNL     1      -4.682  -1.438   2.321  1.00  0.00     0.013 C 
HETATM   30  C3  UNL     1      -6.140   0.445   1.705  1.00  0.00     0.013 C 
ENDBRANCH  27  28
ENDBRANCH   1  26
BRANCH   1  31
HETATM   31  N1  UNL     1      -2.835   1.712  -1.426  1.00  0.00     0.114 N 
HETATM   32  H10 UNL     1      -3.464   2.240  -0.802  1.00  0.00     0.316 HD
HETATM   33  H11 UNL     1      -3.409   1.145  -2.080  1.00  0.00     0.316 HD
ENDBRANCH   1  31
TORSDOF 5
