REMARK  7 active torsions:
REMARK  status: ('A' for Active; 'I' for Inactive)
REMARK    1  A    between atoms: C2_2  and  O1_3 
REMARK    2  A    between atoms: O1_3  and  C3_4 
REMARK    3  A    between atoms: C10_11  and  N1_12 
REMARK    4  A    between atoms: N1_12  and  C11_13 
REMARK    5  A    between atoms: C11_13  and  C12_14 
REMARK    6  A    between atoms: C13_15  and  C14_16 
REMARK    7  A    between atoms: C14_16  and  N2_17 
ROOT
HETATM    1  N1  UNL     1      -1.416   0.476  -0.402  1.00  0.00    -0.384 N 
HETATM    2  H12 UNL     1      -0.936   0.132  -1.294  1.00  0.00     0.160 HD
ENDROOT
BRANCH   1   3
HETATM    3  C10 UNL     1      -2.718   0.152  -0.766  1.00  0.00     0.073 A 
HETATM    4  C3  UNL     1      -3.056  -1.152  -0.152  1.00  0.00     0.092 A 
HETATM    5  C4  UNL     1      -4.220  -1.744  -0.340  1.00  0.00     0.017 A 
HETATM    6  C5  UNL     1      -5.300  -1.182  -1.176  1.00  0.00     0.070 A 
HETATM    7  C6  UNL     1      -4.832   0.105  -1.703  1.00  0.00    -0.035 A 
HETATM    8  C7  UNL     1      -4.621   1.342  -2.342  1.00  0.00    -0.041 A 
HETATM    9  C9  UNL     1      -3.571   0.782  -1.529  1.00  0.00     0.007 A 
HETATM   10  C8  UNL     1      -5.032   2.430  -3.231  1.00  0.00     0.049 C 
BRANCH   4  11
HETATM   11  O1  UNL     1      -2.263  -1.936   0.682  1.00  0.00    -0.349 OA
BRANCH  11  12
HETATM   12  C2  UNL     1      -2.331  -1.808   2.073  1.00  0.00     0.171 C 
HETATM   13  C1  UNL     1      -3.208  -0.709   2.568  1.00  0.00     0.034 C 
ENDBRANCH  11  12
ENDBRANCH   4  11
ENDBRANCH   1   3
BRANCH   1  14
HETATM   14  C11 UNL     1      -0.502   1.033   0.577  1.00  0.00     0.147 C 
BRANCH  14  15
HETATM   15  C12 UNL     1       0.928   0.824   0.093  1.00  0.00    -0.010 C 
HETATM   16  C13 UNL     1       1.825   0.095   0.765  1.00  0.00     0.001 C 
BRANCH  16  17
HETATM   17  C14 UNL     1       3.201  -0.442   0.844  1.00  0.00     0.299 C 
BRANCH  17  18
HETATM   18  N2  UNL     1       4.035  -0.025  -0.298  1.00  0.00     0.096 N 
HETATM   19  C15 UNL     1       5.241  -0.843  -0.184  1.00  0.00     0.299 C 
HETATM   20  C16 UNL     1       6.459  -0.143  -0.704  1.00  0.00     0.198 C 
HETATM   21  O2  UNL     1       6.712   1.068  -0.062  1.00  0.00    -0.388 OA
HETATM   22  C17 UNL     1       5.677   1.408   0.799  1.00  0.00     0.198 C 
HETATM   23  C18 UNL     1       4.385   1.377  -0.025  1.00  0.00     0.299 C 
ENDBRANCH  17  18
ENDBRANCH  16  17
ENDBRANCH  14  15
ENDBRANCH   1  14
TORSDOF 7
