REMARK  4 active torsions:
REMARK  status: ('A' for Active; 'I' for Inactive)
REMARK    1  A    between atoms: C2_2  and  O1_3 
REMARK    2  A    between atoms: O1_3  and  C3_4 
REMARK    3  A    between atoms: C3_4  and  C4_5 
REMARK    4  A    between atoms: N4_24  and  O2_25 
ROOT
HETATM    1  C4  UNL     1       2.811  -0.257  -0.715  1.00  0.00     0.037 C 
HETATM    2  C5  UNL     1       2.317   1.108  -0.828  1.00  0.00     0.001 C 
HETATM    3  C6  UNL     1       1.335   1.581  -0.131  1.00  0.00     0.046 C 
HETATM    4  C7  UNL     1       0.945   2.967  -0.345  1.00  0.00     0.097 C 
HETATM    5  N1  UNL     1       0.634   4.065  -0.512  1.00  0.00    -0.192 NA
HETATM    6  C8  UNL     1       0.725   0.638   0.820  1.00  0.00     0.156 C 
HETATM    7  N2  UNL     1      -0.503   1.183   1.416  1.00  0.00    -0.376 N 
HETATM    8  C9  UNL     1      -1.889   0.915   1.611  1.00  0.00     0.035 A 
HETATM    9  C10 UNL     1      -2.302   0.677   2.901  1.00  0.00     0.030 A 
HETATM   10  C11 UNL     1      -3.605   0.370   3.237  1.00  0.00     0.003 A 
HETATM   11  C12 UNL     1      -4.445   0.327   2.147  1.00  0.00     0.013 A 
HETATM   12  C13 UNL     1      -4.087   0.559   0.814  1.00  0.00    -0.011 A 
HETATM   13  C14 UNL     1      -2.739   0.867   0.568  1.00  0.00    -0.024 A 
HETATM   14  C15 UNL     1      -2.445   1.114  -0.853  1.00  0.00     0.051 C 
HETATM   15  C16 UNL     1      -5.138   0.441  -0.229  1.00  0.00     0.122 C 
HETATM   16  N3  UNL     1      -4.512  -0.597  -0.594  1.00  0.00    -0.297 NA
HETATM   17  C17 UNL     1      -4.771  -1.520  -1.651  1.00  0.00     0.177 C 
HETATM   18  C18 UNL     1      -3.611  -2.491  -1.667  1.00  0.00     0.014 C 
HETATM   19  C19 UNL     1      -2.530  -2.608  -0.937  1.00  0.00     0.120 C 
HETATM   20  N4  UNL     1      -1.674  -2.207   0.107  1.00  0.00    -0.247 N 
HETATM   21  C20 UNL     1      -0.421  -1.617   0.139  1.00  0.00     0.127 C 
HETATM   22  C21 UNL     1       0.557  -0.745   0.319  1.00  0.00    -0.034 C 
HETATM   23  C22 UNL     1       1.932  -1.232  -0.049  1.00  0.00     0.049 C 
HETATM   24  H11 UNL     1      -0.361   2.102   1.890  1.00  0.00     0.160 HD
ENDROOT
BRANCH   1  25
HETATM   25  C3  UNL     1       4.123  -0.168   0.092  1.00  0.00     0.176 C 
BRANCH  25  26
HETATM   26  O1  UNL     1       5.070   0.619  -0.517  1.00  0.00    -0.391 OA
BRANCH  26  27
HETATM   27  C2  UNL     1       6.209   0.628   0.302  1.00  0.00     0.163 C 
HETATM   28  C1  UNL     1       7.313   1.467  -0.265  1.00  0.00     0.033 C 
ENDBRANCH  26  27
ENDBRANCH  25  26
ENDBRANCH   1  25
BRANCH  20  29
HETATM   29  O2  UNL     1      -2.326  -2.516   1.264  1.00  0.00    -0.284 OA
HETATM   30  H23 UNL     1      -1.804  -2.181   2.038  1.00  0.00     0.245 HD
ENDBRANCH  20  29
TORSDOF 4
