REMARK  6 active torsions:
REMARK  status: ('A' for Active; 'I' for Inactive)
REMARK    1  A    between atoms: C2_2  and  C3_3 
REMARK       I    between atoms: C3_3  and  N1_5 
REMARK    2  A    between atoms: N1_5  and  C4_6 
REMARK    3  A    between atoms: C7_9  and  N2_10 
REMARK    4  A    between atoms: N2_10  and  S1_11 
REMARK    5  A    between atoms: S1_11  and  C8_12 
REMARK    6  A    between atoms: C12_16  and  O2_17 
ROOT
HETATM    1  C4  UNL     1      -2.323  -0.475   0.330  1.00  0.00     0.138 C 
HETATM    2  C5  UNL     1      -1.448   0.632   0.685  1.00  0.00     0.005 C 
HETATM    3  C6  UNL     1      -0.161   0.721   0.319  1.00  0.00     0.030 C 
HETATM    4  C7  UNL     1       0.751  -0.115  -0.441  1.00  0.00     0.060 C 
HETATM    5  C14 UNL     1       0.730  -1.290  -1.025  1.00  0.00     0.089 C 
HETATM    6  C15 UNL     1       1.888  -1.812  -1.756  1.00  0.00     0.103 C 
HETATM    7  N3  UNL     1       2.833  -2.214  -2.346  1.00  0.00    -0.191 NA
HETATM    8  C16 UNL     1      -0.157  -2.468  -0.869  1.00  0.00     0.141 C 
HETATM    9  N4  UNL     1      -1.128  -3.154  -0.289  1.00  0.00    -0.271 NA
HETATM   10  C17 UNL     1      -1.784  -2.589   0.829  1.00  0.00     0.121 C 
HETATM   11  C18 UNL     1      -2.360  -1.523   1.325  1.00  0.00    -0.040 C 
HETATM   12  C19 UNL     1      -2.866  -1.552   2.698  1.00  0.00     0.047 C 
ENDROOT
BRANCH   4  13
HETATM   13  N2  UNL     1       2.042   0.525  -0.597  1.00  0.00    -0.325 N 
HETATM   14  H10 UNL     1       2.292   0.920  -1.544  1.00  0.00     0.174 HD
BRANCH  13  15
HETATM   15  S1  UNL     1       2.982   0.517   0.893  1.00  0.00    -0.015 SA
BRANCH  15  16
HETATM   16  C8  UNL     1       4.677   0.891   0.452  1.00  0.00     0.024 A 
HETATM   17  C9  UNL     1       5.599  -0.089   0.127  1.00  0.00     0.020 A 
HETATM   18  C10 UNL     1       6.903   0.265  -0.208  1.00  0.00     0.004 A 
HETATM   19  C11 UNL     1       7.238   1.612  -0.204  1.00  0.00     0.036 A 
HETATM   20  C12 UNL     1       6.320   2.597   0.121  1.00  0.00     0.067 A 
HETATM   21  C13 UNL     1       5.035   2.227   0.449  1.00  0.00     0.056 A 
BRANCH  20  22
HETATM   22  O2  UNL     1       6.759   3.918   0.095  1.00  0.00    -0.361 OA
HETATM   23  H14 UNL     1       6.145   4.547  -0.421  1.00  0.00     0.217 HD
ENDBRANCH  20  22
ENDBRANCH  15  16
ENDBRANCH  13  15
ENDBRANCH   4  13
BRANCH   1  24
HETATM   24  N1  UNL     1      -3.715   0.004   0.160  1.00  0.00    -0.349 N 
HETATM   25  C3  UNL     1      -4.467   0.002  -1.049  1.00  0.00     0.217 C 
HETATM   26  O1  UNL     1      -3.961  -0.437  -2.124  1.00  0.00    -0.274 OA
HETATM   27  H6  UNL     1      -4.038   0.343   1.097  1.00  0.00     0.163 HD
BRANCH  25  28
HETATM   28  C2  UNL     1      -5.837   0.560  -0.845  1.00  0.00     0.098 C 
HETATM   29  C1  UNL     1      -6.535   0.506  -2.189  1.00  0.00     0.014 C 
ENDBRANCH  25  28
ENDBRANCH   1  24
TORSDOF 6
