REMARK  6 active torsions:
REMARK  status: ('A' for Active; 'I' for Inactive)
REMARK    1  A    between atoms: O1_2  and  C2_3 
REMARK    2  A    between atoms: C4_5  and  N1_6 
REMARK    3  A    between atoms: N1_6  and  C5_7 
REMARK    4  A    between atoms: C5_7  and  C6_10 
REMARK    5  A    between atoms: C7_11  and  C8_12 
REMARK    6  A    between atoms: C8_12  and  N2_13 
ROOT
HETATM    1  C5  UNL     1       0.653  -0.595   0.857  1.00  0.00     0.231 C 
HETATM    2  B1  UNL     1       0.141  -2.175   1.575  1.00  0.00     0.411 B 
HETATM    3  O2  UNL     1      -0.510  -3.531   2.323  1.00  0.00    -0.340 OA
ENDROOT
BRANCH   1   4
HETATM    4  N1  UNL     1       1.935  -0.854   0.288  1.00  0.00     0.093 N 
HETATM    5  H6  UNL     1       2.570  -1.225   1.000  1.00  0.00     0.316 HD
BRANCH   4   6
HETATM    6  C4  UNL     1       2.491   0.250  -0.462  1.00  0.00     0.249 A 
HETATM    7  C3  UNL     1       3.808  -0.213  -0.958  1.00  0.00     0.045 A 
HETATM    8  C2  UNL     1       5.106   0.113  -0.853  1.00  0.00     0.066 A 
HETATM    9  C15 UNL     1       5.274   1.274   0.010  1.00  0.00     0.032 A 
HETATM   10  C14 UNL     1       4.149   1.757   0.501  1.00  0.00    -0.022 A 
HETATM   11  C13 UNL     1       2.709   1.449   0.425  1.00  0.00     0.067 A 
BRANCH   8  12
HETATM   12  O1  UNL     1       6.201  -0.495  -1.435  1.00  0.00    -0.356 OA
HETATM   13  C1  UNL     1       7.326  -0.740  -0.610  1.00  0.00     0.210 C 
ENDBRANCH   8  12
ENDBRANCH   4   6
ENDBRANCH   1   4
BRANCH   1  14
HETATM   14  C6  UNL     1      -0.385  -0.264  -0.153  1.00  0.00    -0.002 C 
HETATM   15  C7  UNL     1      -1.589  -0.829  -0.122  1.00  0.00    -0.010 C 
BRANCH  15  16
HETATM   16  C8  UNL     1      -2.868  -0.829  -0.848  1.00  0.00     0.144 C 
BRANCH  16  17
HETATM   17  N2  UNL     1      -3.958  -0.424  -0.024  1.00  0.00    -0.405 N 
HETATM   18  C9  UNL     1      -3.987   0.928   0.393  1.00  0.00     0.143 C 
HETATM   19  C10 UNL     1      -5.287   1.657   0.148  1.00  0.00     0.187 C 
HETATM   20  O3  UNL     1      -6.403   0.840   0.396  1.00  0.00    -0.388 OA
HETATM   21  C11 UNL     1      -6.342  -0.151  -0.606  1.00  0.00     0.187 C 
HETATM   22  C12 UNL     1      -5.206  -1.061  -0.241  1.00  0.00     0.143 C 
ENDBRANCH  16  17
ENDBRANCH  15  16
ENDBRANCH   1  14
TORSDOF 6
