REMARK  6 active torsions:
REMARK  status: ('A' for Active; 'I' for Inactive)
REMARK    1  A    between atoms: O1_2  and  C2_3 
REMARK    2  A    between atoms: C4_5  and  N1_6 
REMARK    3  A    between atoms: N1_6  and  C5_7 
REMARK    4  A    between atoms: C15_19  and  N4_21 
REMARK    5  A    between atoms: N4_21  and  C17_22 
REMARK    6  A    between atoms: C17_22  and  C18_23 
ROOT
HETATM    1  C2  UNL     1      -1.261  -0.575  -0.430  1.00  0.00     0.093 A 
HETATM    2  C3  UNL     1      -0.572   0.511  -0.101  1.00  0.00     0.070 A 
HETATM    3  C4  UNL     1       0.767   0.778   0.079  1.00  0.00     0.144 A 
HETATM    4  N2  UNL     1       1.121   2.025   0.416  1.00  0.00    -0.223 NA
HETATM    5  C12 UNL     1       0.288   3.054   0.598  1.00  0.00     0.236 A 
HETATM    6  N3  UNL     1      -1.013   2.802   0.425  1.00  0.00    -0.241 NA
HETATM    7  C13 UNL     1      -1.454   1.554   0.081  1.00  0.00     0.073 A 
HETATM    8  C14 UNL     1      -2.718   1.155  -0.127  1.00  0.00     0.043 A 
HETATM    9  C15 UNL     1      -2.751  -0.275  -0.483  1.00  0.00     0.093 A 
HETATM   10  C16 UNL     1      -3.252  -0.506  -1.885  1.00  0.00     0.050 C 
ENDROOT
BRANCH   3  11
HETATM   11  N1  UNL     1       1.730  -0.254  -0.075  1.00  0.00    -0.340 N 
HETATM   12  H4  UNL     1       1.412  -1.209  -0.266  1.00  0.00     0.167 HD
BRANCH  11  13
HETATM   13  C5  UNL     1       3.142  -0.153  -0.002  1.00  0.00     0.034 A 
HETATM   14  C6  UNL     1       3.965  -1.278   0.144  1.00  0.00     0.029 A 
HETATM   15  C7  UNL     1       5.322  -1.222   0.207  1.00  0.00     0.003 A 
HETATM   16  C8  UNL     1       5.966  -0.010   0.127  1.00  0.00     0.007 A 
HETATM   17  C9  UNL     1       5.227   1.141  -0.017  1.00  0.00    -0.060 A 
HETATM   18  C10 UNL     1       5.903   2.484  -0.113  1.00  0.00     0.048 C 
HETATM   19  C11 UNL     1       3.858   1.022  -0.075  1.00  0.00     0.036 A 
ENDBRANCH  11  13
ENDBRANCH   3  11
BRANCH   1  20
HETATM   20  O1  UNL     1      -0.742  -1.827  -0.697  1.00  0.00    -0.356 OA
HETATM   21  C1  UNL     1      -1.448  -3.035  -0.577  1.00  0.00     0.209 C 
ENDBRANCH   1  20
BRANCH   9  22
HETATM   22  N4  UNL     1      -3.358  -1.150   0.438  1.00  0.00    -0.403 N 
HETATM   23  H17 UNL     1      -2.822  -1.296   1.326  1.00  0.00     0.154 HD
BRANCH  22  24
HETATM   24  C17 UNL     1      -4.752  -1.193   0.592  1.00  0.00     0.130 C 
BRANCH  24  25
HETATM   25  C18 UNL     1      -5.450  -0.029   1.198  1.00  0.00     0.134 C 
HETATM   26 CL1  UNL     1      -4.879   0.340   2.836  1.00  0.00    -0.129 Cl
ENDBRANCH  24  25
ENDBRANCH  22  24
ENDBRANCH   9  22
TORSDOF 6
