REMARK  2 active torsions:
REMARK  status: ('A' for Active; 'I' for Inactive)
REMARK    1  A    between atoms: N1_2  and  C2_3 
REMARK    2  A    between atoms: C16_22  and  O2_23 
ROOT
HETATM    1  C2  UNL     1       1.755   1.739  -0.746  1.00  0.00     0.034 C 
HETATM    2  C3  UNL     1       1.643   2.371   0.408  1.00  0.00     0.141 C 
HETATM    3  N2  UNL     1       1.057   2.033   1.647  1.00  0.00    -0.270 N 
HETATM    4  C4  UNL     1       1.427   2.390   2.802  1.00  0.00     0.135 A 
HETATM    5  O1  UNL     1       0.314   1.575   2.862  1.00  0.00     0.000 OA
HETATM    6  C5  UNL     1      -0.497   1.398   4.016  1.00  0.00     0.032 C 
HETATM    7  C6  UNL     1      -1.131   0.016   3.872  1.00  0.00     0.269 C 
HETATM    8  N3  UNL     1      -1.945  -0.094   2.668  1.00  0.00     0.083 N 
HETATM    9  C7  UNL     1      -2.431  -1.475   2.562  1.00  0.00     0.271 C 
HETATM   10  C8  UNL     1      -3.238  -1.542   1.255  1.00  0.00     0.049 C 
HETATM   11  C9  UNL     1      -2.316  -1.066   0.172  1.00  0.00     0.121 C 
HETATM   12  N4  UNL     1      -1.102  -1.831   0.088  1.00  0.00    -0.388 N 
HETATM   13  C10 UNL     1      -0.249  -1.283  -0.943  1.00  0.00     0.059 C 
HETATM   14  C11 UNL     1      -0.072   0.055  -0.934  1.00  0.00     0.020 C 
HETATM   15  C12 UNL     1       1.339   0.418  -1.107  1.00  0.00     0.091 C 
HETATM   16  C13 UNL     1       1.697  -0.034  -2.474  1.00  0.00    -0.048 C 
HETATM   17  C14 UNL     1       2.396   0.661  -3.310  1.00  0.00     0.214 C 
HETATM   18 BR1  UNL     1       2.965   0.286  -5.093  1.00  0.00    -0.193 Br
HETATM   19  C15 UNL     1       1.191  -1.348  -2.823  1.00  0.00     0.044 C 
HETATM   20  C16 UNL     1       0.460  -2.071  -2.005  1.00  0.00     0.094 C 
HETATM   21  H11 UNL     1      -2.775   0.549   2.827  1.00  0.00     0.315 HD
HETATM   22  H18 UNL     1      -0.539  -2.616   0.433  1.00  0.00     0.159 HD
ENDROOT
BRANCH   1  23
HETATM   23  N1  UNL     1       2.462   2.521  -1.761  1.00  0.00    -0.396 N 
HETATM   24  C1  UNL     1       1.639   3.729  -1.965  1.00  0.00     0.146 C 
HETATM   25  H4  UNL     1       3.128   2.846  -2.465  1.00  0.00     0.159 HD
ENDBRANCH   1  23
BRANCH  20  26
HETATM   26  O2  UNL     1       0.148  -3.399  -1.839  1.00  0.00    -0.354 OA
HETATM   27  C17 UNL     1      -0.178  -4.343  -2.806  1.00  0.00     0.210 C 
ENDBRANCH  20  26
TORSDOF 2
