REMARK  2 active torsions:
REMARK  status: ('A' for Active; 'I' for Inactive)
REMARK    1  A    between atoms: C3_3  and  C4_4 
REMARK       I    between atoms: C4_4  and  N1_6 
REMARK    2  A    between atoms: N1_6  and  C5_7 
ROOT
HETATM    1  C1  UNL     1       2.384   6.514   0.481  1.00  0.00     0.112 C 
HETATM    2  C2  UNL     1       1.965   5.111   0.384  1.00  0.00    -0.101 C 
HETATM    3  C3  UNL     1       1.604   3.959   0.311  1.00  0.00    -0.006 C 
ENDROOT
BRANCH   3   4
HETATM    4  C4  UNL     1       1.176   2.589   0.200  1.00  0.00     0.300 C 
HETATM    5  O1  UNL     1       0.447   2.187   1.159  1.00  0.00    -0.258 OA
HETATM    6  N1  UNL     1       1.529   1.741  -0.882  1.00  0.00    -0.323 N 
HETATM    7  H4  UNL     1       2.124   2.108  -1.642  1.00  0.00     0.169 HD
BRANCH   6   8
HETATM    8  C5  UNL     1       0.981   0.422  -0.766  1.00  0.00     0.001 C 
HETATM    9  C6  UNL     1       0.140   0.050  -1.802  1.00  0.00     0.071 C 
HETATM   10  C7  UNL     1      -0.738  -1.035  -2.360  1.00  0.00     0.132 C 
HETATM   11  C8  UNL     1      -0.104  -2.377  -2.350  1.00  0.00     0.109 C 
HETATM   12  N3  UNL     1      -1.953  -1.035  -1.507  1.00  0.00    -0.379 N 
HETATM   13  N2  UNL     1       0.248  -3.536  -1.841  1.00  0.00    -0.299 NA
HETATM   14  C9  UNL     1       0.411  -3.906  -0.417  1.00  0.00     0.187 C 
HETATM   15  C10 UNL     1       0.139  -2.575   0.256  1.00  0.00    -0.029 C 
HETATM   16  C11 UNL     1       1.205  -1.821   0.048  1.00  0.00    -0.011 C 
HETATM   17  C13 UNL     1      -1.003  -1.964   0.915  1.00  0.00    -0.002 A 
HETATM   18  C12 UNL     1       1.488  -0.403   0.482  1.00  0.00     0.081 C 
HETATM   19  C14 UNL     1      -1.248  -1.999   2.235  1.00  0.00     0.015 A 
HETATM   20  C18 UNL     1      -1.804  -1.330  -0.081  1.00  0.00     0.040 A 
HETATM   21  C15 UNL     1      -2.364  -1.376   2.696  1.00  0.00     0.020 A 
HETATM   22  C16 UNL     1      -3.209  -0.736   1.845  1.00  0.00     0.013 A 
HETATM   23 BR1  UNL     1      -4.733   0.095   2.614  1.00  0.00    -0.051 Br
HETATM   24  C17 UNL     1      -2.915  -0.729   0.515  1.00  0.00     0.049 A 
HETATM   25  H16 UNL     1      -2.956  -0.868  -1.674  1.00  0.00     0.160 HD
ENDBRANCH   6   8
ENDBRANCH   3   4
TORSDOF 2
