REMARK  6 active torsions:
REMARK  status: ('A' for Active; 'I' for Inactive)
REMARK    1  A    between atoms: O1_2  and  C2_3 
REMARK    2  A    between atoms: C8_11  and  N3_12 
REMARK    3  A    between atoms: N3_12  and  C9_13 
REMARK    4  A    between atoms: C17_22  and  N4_23 
REMARK    5  A    between atoms: N4_23  and  C18_24 
REMARK    6  A    between atoms: C18_24  and  C19_25 
ROOT
HETATM    1  C2  UNL     1       2.692   0.931  -0.474  1.00  0.00     0.096 A 
HETATM    2  C3  UNL     1       2.255   1.891   0.415  1.00  0.00     0.071 A 
HETATM    3  C4  UNL     1       1.088   1.700   1.127  1.00  0.00     0.071 A 
HETATM    4  N1  UNL     1       0.676   2.647   1.989  1.00  0.00    -0.259 NA
HETATM    5  C5  UNL     1      -0.457   2.499   2.703  1.00  0.00     0.142 A 
HETATM    6  C6  UNL     1      -1.195   1.346   2.532  1.00  0.00     0.089 A 
HETATM    7  C7  UNL     1      -2.425   1.096   3.254  1.00  0.00     0.103 C 
HETATM    8  N2  UNL     1      -3.415   0.891   3.828  1.00  0.00    -0.191 NA
HETATM    9  C8  UNL     1      -0.806   0.352   1.658  1.00  0.00     0.067 A 
HETATM   10  C15 UNL     1       0.364   0.539   0.942  1.00  0.00     0.023 A 
HETATM   11  C16 UNL     1       0.839  -0.393   0.044  1.00  0.00     0.048 A 
HETATM   12  C17 UNL     1       1.995  -0.262  -0.696  1.00  0.00     0.062 A 
ENDROOT
BRANCH   9  13
HETATM   13  N3  UNL     1      -1.517  -0.867   1.427  1.00  0.00    -0.354 N 
HETATM   14  H6  UNL     1      -1.405  -1.774   1.941  1.00  0.00     0.166 HD
BRANCH  13  15
HETATM   15  C9  UNL     1      -2.497  -0.908   0.394  1.00  0.00     0.033 A 
HETATM   16  C10 UNL     1      -3.258  -2.037   0.067  1.00  0.00     0.029 A 
HETATM   17  C11 UNL     1      -4.175  -1.942  -0.958  1.00  0.00     0.004 A 
HETATM   18  C12 UNL     1      -4.403  -0.803  -1.696  1.00  0.00     0.019 A 
HETATM   19  C13 UNL     1      -3.672   0.330  -1.402  1.00  0.00     0.013 A 
HETATM   20 BR1  UNL     1      -3.861   1.994  -2.325  1.00  0.00    -0.051 Br
HETATM   21  C14 UNL     1      -2.755   0.232  -0.376  1.00  0.00     0.048 A 
ENDBRANCH  13  15
ENDBRANCH   9  13
BRANCH  12  22
HETATM   22  N4  UNL     1       2.450  -1.242  -1.619  1.00  0.00    -0.385 N 
HETATM   23  H12 UNL     1       3.332  -1.032  -2.132  1.00  0.00     0.159 HD
BRANCH  22  24
HETATM   24  C18 UNL     1       1.705  -2.468  -1.819  1.00  0.00     0.156 C 
BRANCH  24  25
HETATM   25  C19 UNL     1       1.676  -3.255  -0.531  1.00  0.00     0.410 C 
HETATM   26  O2  UNL     1       2.126  -3.126   0.617  1.00  0.00    -0.428 OA
ENDBRANCH  24  25
ENDBRANCH  22  24
ENDBRANCH  12  22
BRANCH   1  27
HETATM   27  O1  UNL     1       3.862   1.098  -1.203  1.00  0.00    -0.354 OA
HETATM   28  C1  UNL     1       4.673   2.250  -1.086  1.00  0.00     0.210 C 
ENDBRANCH   1  27
TORSDOF 6
