REMARK  2 active torsions:
REMARK  status: ('A' for Active; 'I' for Inactive)
REMARK    1  A    between atoms: C5_5  and  N1_6 
REMARK    2  A    between atoms: N1_6  and  C6_7 
ROOT
HETATM    1  C1  UNL     1      -0.300  -3.092  -0.306  1.00  0.00     0.024 C 
HETATM    2  C2  UNL     1      -1.370  -2.026  -0.266  1.00  0.00     0.097 C 
HETATM    3  C3  UNL     1      -0.914  -0.721   0.212  1.00  0.00     0.003 C 
HETATM    4  C4  UNL     1      -0.976   0.556  -0.013  1.00  0.00     0.018 A 
HETATM    5  C5  UNL     1      -0.225   1.227   0.926  1.00  0.00     0.067 A 
HETATM    6  C12 UNL     1      -0.023   2.579   1.004  1.00  0.00     0.089 A 
HETATM    7  C13 UNL     1       0.756   3.261   1.988  1.00  0.00     0.103 C 
HETATM    8  N2  UNL     1       1.403   3.801   2.795  1.00  0.00    -0.191 NA
HETATM    9  C14 UNL     1      -0.593   3.404   0.093  1.00  0.00     0.142 A 
HETATM   10  N3  UNL     1      -1.329   2.770  -0.830  1.00  0.00    -0.259 NA
HETATM   11  C15 UNL     1      -1.525   1.442  -0.900  1.00  0.00     0.065 A 
HETATM   12  C16 UNL     1      -2.349   1.162  -1.848  1.00  0.00     0.044 C 
HETATM   13  C17 UNL     1      -3.251   0.976  -2.915  1.00  0.00     0.039 C 
HETATM   14  C18 UNL     1      -3.621  -0.338  -2.968  1.00  0.00     0.068 C 
HETATM   15  N4  UNL     1      -2.889  -0.868  -1.876  1.00  0.00    -0.340 N 
HETATM   16  C19 UNL     1      -1.825  -1.761  -1.665  1.00  0.00     0.228 C 
HETATM   17  O1  UNL     1      -1.895  -1.811  -2.886  1.00  0.00    -0.273 OA
HETATM   18  H15 UNL     1      -3.301  -0.479  -0.972  1.00  0.00     0.167 HD
ENDROOT
BRANCH   5  19
HETATM   19  N1  UNL     1       0.485   0.581   2.013  1.00  0.00    -0.354 N 
HETATM   20  H6  UNL     1       0.100   0.396   2.952  1.00  0.00     0.166 HD
BRANCH  19  21
HETATM   21  C6  UNL     1       1.807   0.192   1.711  1.00  0.00     0.033 A 
HETATM   22  C7  UNL     1       2.407   0.431   0.474  1.00  0.00     0.029 A 
HETATM   23  C8  UNL     1       3.707   0.032   0.218  1.00  0.00     0.004 A 
HETATM   24  C9  UNL     1       4.470  -0.617   1.166  1.00  0.00     0.019 A 
HETATM   25  C10 UNL     1       3.914  -0.880   2.422  1.00  0.00     0.013 A 
HETATM   26 BR1  UNL     1       4.925  -1.774   3.767  1.00  0.00    -0.051 Br
HETATM   27  C11 UNL     1       2.619  -0.467   2.638  1.00  0.00     0.048 A 
ENDBRANCH  19  21
ENDBRANCH   5  19
TORSDOF 2
