REMARK  2 active torsions:
REMARK  status: ('A' for Active; 'I' for Inactive)
REMARK    1  A    between atoms: C3_3  and  C4_4 
REMARK       I    between atoms: C4_4  and  N1_6 
REMARK    2  A    between atoms: C12_16  and  C13_17 
ROOT
HETATM    1  C1  UNL     1       3.406   5.767  -1.456  1.00  0.00     0.112 C 
HETATM    2  C2  UNL     1       2.567   4.664  -0.949  1.00  0.00    -0.101 C 
HETATM    3  C3  UNL     1       1.883   3.758  -0.512  1.00  0.00    -0.005 C 
ENDROOT
BRANCH   3   4
HETATM    4  C4  UNL     1       1.096   2.688   0.017  1.00  0.00     0.306 C 
HETATM    5  O1  UNL     1       0.455   2.901   1.087  1.00  0.00    -0.257 OA
HETATM    6  N1  UNL     1       1.029   1.425  -0.631  1.00  0.00    -0.292 N 
HETATM    7  C5  UNL     1       1.759   1.195  -1.845  1.00  0.00     0.101 A 
HETATM    8  C20 UNL     1       0.247   0.369  -0.097  1.00  0.00     0.113 A 
HETATM    9  C6  UNL     1       1.735   0.024  -2.502  1.00  0.00     0.031 A 
HETATM   10  C7  UNL     1       0.928  -1.030  -1.931  1.00  0.00    -0.005 A 
HETATM   11  C8  UNL     1       0.949  -2.127  -2.664  1.00  0.00     0.128 A 
HETATM   12  C19 UNL     1       0.197  -0.792  -0.705  1.00  0.00     0.004 A 
HETATM   13  N2  UNL     1       0.272  -3.331  -2.395  1.00  0.00    -0.271 NA
HETATM   14  C9  UNL     1      -0.516  -3.690  -1.441  1.00  0.00     0.139 A 
HETATM   15  C10 UNL     1      -0.963  -2.901  -0.285  1.00  0.00     0.074 A 
HETATM   16  C11 UNL     1      -1.840  -3.681   0.534  1.00  0.00     0.102 C 
HETATM   17  C12 UNL     1      -0.676  -1.640   0.092  1.00  0.00     0.009 A 
HETATM   18  N3  UNL     1      -2.550  -4.316   1.224  1.00  0.00    -0.191 NA
BRANCH  17  19
HETATM   19  C13 UNL     1      -1.346  -1.287   1.303  1.00  0.00    -0.022 A 
HETATM   20  C14 UNL     1      -2.731  -1.467   1.182  1.00  0.00     0.012 A 
HETATM   21  C15 UNL     1      -3.594  -1.224   2.251  1.00  0.00     0.002 A 
HETATM   22  C16 UNL     1      -3.099  -0.793   3.479  1.00  0.00     0.019 A 
HETATM   23  C17 UNL     1      -1.739  -0.609   3.622  1.00  0.00     0.011 A 
HETATM   24 BR1  UNL     1      -0.880  -0.022   5.226  1.00  0.00    -0.051 Br
HETATM   25  C18 UNL     1      -0.918  -0.857   2.548  1.00  0.00     0.031 A 
ENDBRANCH  17  19
ENDBRANCH   3   4
TORSDOF 2
