REMARK  7 active torsions:
REMARK  status: ('A' for Active; 'I' for Inactive)
REMARK    1  A    between atoms: O1_2  and  C2_3 
REMARK    2  A    between atoms: C2_3  and  N1_5 
REMARK    3  A    between atoms: C6_8  and  N2_9 
REMARK    4  A    between atoms: N2_9  and  C7_10 
REMARK    5  A    between atoms: C7_10  and  C8_11 
REMARK    6  A    between atoms: C8_11  and  C9_12 
REMARK    7  A    between atoms: C9_12  and  C10_13 
ROOT
HETATM    1  N1  UNL     1      -1.991   0.127  -0.640  1.00  0.00    -0.360 N 
HETATM    2  C4  UNL     1      -0.578  -0.020  -0.562  1.00  0.00     0.104 A 
HETATM    3  C5  UNL     1      -0.108  -1.154  -1.053  1.00  0.00     0.036 A 
HETATM    4  C6  UNL     1       1.260  -1.330  -0.994  1.00  0.00     0.069 A 
HETATM    5  C11 UNL     1       1.792  -2.503  -1.498  1.00  0.00     0.089 A 
HETATM    6  C12 UNL     1       3.209  -2.758  -1.471  1.00  0.00     0.103 C 
HETATM    7  N3  UNL     1       4.364  -2.956  -1.466  1.00  0.00    -0.191 NA
HETATM    8  C13 UNL     1       1.021  -3.512  -2.061  1.00  0.00     0.142 A 
HETATM    9  N4  UNL     1      -0.316  -3.289  -2.096  1.00  0.00    -0.259 NA
HETATM   10  C14 UNL     1      -0.863  -2.161  -1.614  1.00  0.00     0.068 A 
HETATM   11  C15 UNL     1      -2.164  -2.009  -1.678  1.00  0.00     0.025 A 
HETATM   12  C16 UNL     1      -2.917  -0.831  -1.195  1.00  0.00     0.154 A 
ENDROOT
BRANCH   4  13
HETATM   13  N2  UNL     1       2.206  -0.411  -0.455  1.00  0.00    -0.357 N 
HETATM   14  H9  UNL     1       2.654   0.315  -1.019  1.00  0.00     0.166 HD
BRANCH  13  15
HETATM   15  C7  UNL     1       2.463  -0.596   0.909  1.00  0.00     0.140 C 
BRANCH  15  16
HETATM   16  C8  UNL     1       2.852   0.444   1.615  1.00  0.00    -0.130 C 
BRANCH  16  17
HETATM   17  C9  UNL     1       3.429   1.513   2.107  1.00  0.00     0.104 C 
BRANCH  17  18
HETATM   18  C10 UNL     1       4.892   1.639   1.991  1.00  0.00     0.170 C 
HETATM   19 CL1  UNL     1       5.402   3.052   2.949  1.00  0.00    -0.112 Cl
HETATM   20 BR1  UNL     1       5.882   0.098   2.530  1.00  0.00    -0.073 Br
ENDBRANCH  17  18
ENDBRANCH  16  17
ENDBRANCH  15  16
ENDBRANCH  13  15
ENDBRANCH   4  13
BRANCH   1  21
HETATM   21  C2  UNL     1      -2.563   1.364  -0.109  1.00  0.00     0.217 C 
HETATM   22  C3  UNL     1      -2.171   1.395   1.360  1.00  0.00     0.063 C 
BRANCH  21  23
HETATM   23  O1  UNL     1      -3.926   1.424  -0.257  1.00  0.00    -0.372 OA
HETATM   24  C1  UNL     1      -4.243   2.553  -0.999  1.00  0.00     0.204 C 
ENDBRANCH  21  23
ENDBRANCH   1  21
TORSDOF 7
