REMARK  5 active torsions:
REMARK  status: ('A' for Active; 'I' for Inactive)
REMARK    1  A    between atoms: C3_3  and  C4_4 
REMARK       I    between atoms: C4_4  and  N1_6 
REMARK    2  A    between atoms: N1_6  and  C5_7 
REMARK    3  A    between atoms: C11_15  and  N3_16 
REMARK    4  A    between atoms: N3_16  and  C12_17 
REMARK    5  A    between atoms: C12_17  and  C13_18 
ROOT
HETATM    1  C1  UNL     1      -7.136   1.866  -3.089  1.00  0.00     0.112 C 
HETATM    2  C2  UNL     1      -6.243   1.526  -1.976  1.00  0.00    -0.101 C 
HETATM    3  C3  UNL     1      -5.513   1.236  -1.059  1.00  0.00    -0.006 C 
ENDROOT
BRANCH   3   4
HETATM    4  C4  UNL     1      -4.647   0.892   0.060  1.00  0.00     0.300 C 
HETATM    5  O1  UNL     1      -4.766   1.410   1.200  1.00  0.00    -0.258 OA
HETATM    6  N1  UNL     1      -3.647  -0.085  -0.245  1.00  0.00    -0.316 N 
HETATM    7  H4  UNL     1      -3.540  -0.520  -1.188  1.00  0.00     0.170 HD
BRANCH   6   8
HETATM    8  C5  UNL     1      -2.600  -0.732   0.469  1.00  0.00     0.036 A 
HETATM    9  C6  UNL     1      -2.920  -1.913   1.107  1.00  0.00     0.032 A 
HETATM   10  C7  UNL     1      -1.921  -2.544   1.796  1.00  0.00     0.035 A 
HETATM   11  C8  UNL     1      -0.648  -2.023   1.851  1.00  0.00     0.069 A 
HETATM   12  N2  UNL     1       0.234  -2.746   2.562  1.00  0.00    -0.259 NA
HETATM   13  C18 UNL     1      -0.281  -0.850   1.232  1.00  0.00     0.023 A 
HETATM   14  C9  UNL     1       1.503  -2.297   2.661  1.00  0.00     0.138 A 
HETATM   15  C10 UNL     1       1.833  -1.118   2.027  1.00  0.00     0.055 A 
HETATM   16 BR1  UNL     1       3.639  -0.611   2.305  1.00  0.00    -0.047 Br
HETATM   17  C11 UNL     1       0.978  -0.332   1.284  1.00  0.00     0.060 A 
HETATM   18  C19 UNL     1      -1.320  -0.252   0.552  1.00  0.00     0.045 A 
BRANCH  17  19
HETATM   19  N3  UNL     1       1.322   0.846   0.620  1.00  0.00    -0.384 N 
HETATM   20  H8  UNL     1       0.578   1.359   0.153  1.00  0.00     0.160 HD
BRANCH  19  21
HETATM   21  C12 UNL     1       2.602   1.495   0.471  1.00  0.00     0.155 C 
BRANCH  21  22
HETATM   22  C13 UNL     1       3.495   0.753  -0.466  1.00  0.00    -0.052 C 
HETATM   23  C14 UNL     1       3.260  -0.378  -1.169  1.00  0.00     0.054 C 
HETATM   24  S1  UNL     1       4.769  -0.736  -2.109  1.00  0.00    -0.114 SA
HETATM   25  C15 UNL     1       6.085  -0.687  -0.864  1.00  0.00     0.046 C 
HETATM   26  C16 UNL     1       5.952   0.484  -0.215  1.00  0.00    -0.015 C 
HETATM   27  C17 UNL     1       4.846   1.367  -0.653  1.00  0.00     0.064 C 
ENDBRANCH  21  22
ENDBRANCH  19  21
ENDBRANCH  17  19
ENDBRANCH   6   8
ENDBRANCH   3   4
TORSDOF 5
