REMARK  7 active torsions:
REMARK  status: ('A' for Active; 'I' for Inactive)
REMARK    1  A    between atoms: C2_2  and  N1_4 
REMARK    2  A    between atoms: N1_4  and  C5_6 
REMARK    3  A    between atoms: C5_6  and  C6_7 
REMARK    4  A    between atoms: C7_8  and  C8_9 
REMARK       I    between atoms: C8_9  and  N2_11 
REMARK    5  A    between atoms: C11_14  and  N3_15 
REMARK    6  A    between atoms: C12_16  and  C13_17 
REMARK    7  A    between atoms: C13_17  and  C14_18 
ROOT
HETATM    1  C8  UNL     1      -1.896  -1.225   0.571  1.00  0.00     0.298 C 
HETATM    2  O1  UNL     1      -1.988  -2.344   1.180  1.00  0.00    -0.258 OA
HETATM    3  N2  UNL     1      -0.802  -0.354   0.687  1.00  0.00    -0.338 N 
HETATM    4  C9  UNL     1      -0.585   0.943   0.042  1.00  0.00     0.156 C 
HETATM    5  C10 UNL     1       0.868   1.204  -0.126  1.00  0.00     0.020 C 
HETATM    6  C11 UNL     1       1.868   0.360   0.154  1.00  0.00     0.033 C 
HETATM    7  C20 UNL     1       1.495  -0.982   0.688  1.00  0.00     0.079 C 
HETATM    8  C21 UNL     1       0.274  -0.776   1.562  1.00  0.00     0.133 C 
ENDROOT
BRANCH   1   9
HETATM    9  C7  UNL     1      -3.024  -0.918  -0.264  1.00  0.00    -0.004 C 
HETATM   10  C6  UNL     1      -3.972  -0.641  -0.958  1.00  0.00    -0.077 C 
BRANCH  10  11
HETATM   11  C5  UNL     1      -5.134  -0.325  -1.788  1.00  0.00     0.212 C 
BRANCH  11  12
HETATM   12  N1  UNL     1      -5.962   0.707  -1.287  1.00  0.00    -0.403 N 
HETATM   13  C4  UNL     1      -5.492   2.004  -1.574  1.00  0.00     0.144 C 
BRANCH  12  14
HETATM   14  C2  UNL     1      -6.701   0.485  -0.115  1.00  0.00     0.071 C 
HETATM   15  C1  UNL     1      -6.023   0.825   1.185  1.00  0.00     0.031 C 
HETATM   16  C3  UNL     1      -7.243  -0.910   0.032  1.00  0.00     0.031 C 
ENDBRANCH  12  14
ENDBRANCH  11  12
ENDBRANCH  10  11
ENDBRANCH   1   9
BRANCH   6  17
HETATM   17  N3  UNL     1       3.114   0.941  -0.127  1.00  0.00    -0.270 NA
HETATM   18  C12 UNL     1       4.246   0.355  -0.177  1.00  0.00     0.094 C 
BRANCH  18  19
HETATM   19  C13 UNL     1       4.987  -0.904  -0.048  1.00  0.00     0.085 C 
BRANCH  19  20
HETATM   20  C14 UNL     1       6.450  -0.696   0.024  1.00  0.00    -0.052 A 
HETATM   21  C15 UNL     1       7.076  -0.513   1.235  1.00  0.00     0.007 A 
HETATM   22  C16 UNL     1       8.446  -0.312   1.390  1.00  0.00     0.002 A 
HETATM   23  C17 UNL     1       9.239  -0.291   0.267  1.00  0.00     0.019 A 
HETATM   24  C18 UNL     1       8.655  -0.470  -0.985  1.00  0.00     0.011 A 
HETATM   25 BR1  UNL     1       9.768  -0.444  -2.545  1.00  0.00    -0.051 Br
HETATM   26  C19 UNL     1       7.287  -0.668  -1.085  1.00  0.00     0.026 A 
ENDBRANCH  19  20
ENDBRANCH  18  19
ENDBRANCH   6  17
TORSDOF 7
