REMARK  4 active torsions:
REMARK  status: ('A' for Active; 'I' for Inactive)
REMARK    1  A    between atoms: C2_2  and  N1_3 
REMARK    2  A    between atoms: N1_3  and  C3_4 
REMARK    3  A    between atoms: C6_7  and  N2_8 
REMARK    4  A    between atoms: N2_8  and  C7_9 
ROOT
HETATM    1  C3  UNL     1      -2.728   0.123  -0.578  1.00  0.00     0.258 C 
HETATM    2  C4  UNL     1      -1.299   0.045  -0.679  1.00  0.00     0.058 C 
HETATM    3  C5  UNL     1      -0.046  -0.481  -0.858  1.00  0.00     0.012 C 
HETATM    4  C6  UNL     1       1.186   0.379  -0.774  1.00  0.00     0.046 C 
HETATM    5  C13 UNL     1       1.617   1.636  -0.533  1.00  0.00     0.053 C 
HETATM    6  C14 UNL     1       3.037   1.991  -0.583  1.00  0.00     0.098 C 
HETATM    7  N3  UNL     1       4.182   2.289  -0.607  1.00  0.00    -0.192 NA
HETATM    8  C15 UNL     1       0.971   2.921  -0.116  1.00  0.00     0.099 C 
HETATM    9  C16 UNL     1      -0.446   2.811   0.203  1.00  0.00     0.094 C 
HETATM   10  N4  UNL     1      -1.412   2.814  -0.646  1.00  0.00    -0.277 NA
HETATM   11  C17 UNL     1      -2.756   2.702  -0.200  1.00  0.00     0.120 C 
HETATM   12  C18 UNL     1      -3.220   1.489  -0.218  1.00  0.00    -0.033 C 
HETATM   13  C19 UNL     1      -4.672   1.392   0.175  1.00  0.00     0.047 C 
ENDROOT
BRANCH   4  14
HETATM   14  N2  UNL     1       2.298  -0.445  -1.138  1.00  0.00    -0.355 N 
HETATM   15  H10 UNL     1       2.262  -1.092  -2.010  1.00  0.00     0.166 HD
BRANCH  14  16
HETATM   16  C7  UNL     1       3.599  -0.735  -0.668  1.00  0.00     0.033 A 
HETATM   17  C8  UNL     1       4.727  -0.682  -1.482  1.00  0.00     0.029 A 
HETATM   18  C9  UNL     1       5.977  -0.954  -0.975  1.00  0.00     0.004 A 
HETATM   19  C10 UNL     1       6.118  -1.285   0.354  1.00  0.00     0.019 A 
HETATM   20  C11 UNL     1       4.992  -1.342   1.178  1.00  0.00     0.013 A 
HETATM   21 BR1  UNL     1       5.391  -1.812   2.991  1.00  0.00    -0.051 Br
HETATM   22  C12 UNL     1       3.729  -1.066   0.667  1.00  0.00     0.048 A 
ENDBRANCH  14  16
ENDBRANCH   4  14
BRANCH   1  23
HETATM   23  N1  UNL     1      -3.427  -0.847   0.237  1.00  0.00     0.092 N 
HETATM   24  H6  UNL     1      -2.968  -0.854   1.200  1.00  0.00     0.316 HD
BRANCH  23  25
HETATM   25  C2  UNL     1      -3.445  -2.177  -0.282  1.00  0.00     0.266 C 
HETATM   26  C1  UNL     1      -4.294  -3.032   0.674  1.00  0.00     0.037 C 
ENDBRANCH  23  25
ENDBRANCH   1  23
TORSDOF 4
