REMARK  6 active torsions:
REMARK  status: ('A' for Active; 'I' for Inactive)
REMARK    1  A    between atoms: O1_2  and  C2_3 
REMARK    2  A    between atoms: C2_3  and  C3_4 
REMARK    3  A    between atoms: C3_4  and  C4_5 
REMARK    4  A    between atoms: C3_4  and  N2_8 
REMARK       I    between atoms: C4_5  and  N1_6 
REMARK    5  A    between atoms: N2_8  and  C6_10 
REMARK    6  A    between atoms: C6_10  and  C7_11 
ROOT
HETATM    1  C7  UNL     1       0.914  -0.802   0.370  1.00  0.00     0.031 A 
HETATM    2  C8  UNL     1       0.996  -2.016  -0.325  1.00  0.00     0.030 A 
HETATM    3  C9  UNL     1       2.041  -2.016  -1.193  1.00  0.00     0.051 A 
HETATM    4  C10 UNL     1       2.621  -0.754  -1.022  1.00  0.00     0.110 A 
HETATM    5  N3  UNL     1       1.939  -0.064  -0.099  1.00  0.00    -0.332 N 
HETATM    6  C11 UNL     1       2.095   1.246   0.445  1.00  0.00     0.158 C 
HETATM    7  C12 UNL     1       3.467   1.514   0.950  1.00  0.00    -0.007 C 
HETATM    8  C13 UNL     1       4.729   1.491   0.548  1.00  0.00     0.002 C 
HETATM    9  C14 UNL     1       5.353   1.140  -0.744  1.00  0.00     0.061 C 
HETATM   10  C15 UNL     1       4.930   0.302  -1.708  1.00  0.00     0.189 C 
HETATM   11  F1  UNL     1       5.806   0.265  -2.740  1.00  0.00    -0.186 F 
HETATM   12  N4  UNL     1       3.771  -0.544  -1.867  1.00  0.00    -0.319 N 
HETATM   13  H21 UNL     1       3.795  -1.087  -2.758  1.00  0.00     0.169 HD
ENDROOT
BRANCH   1  14
HETATM   14  C6  UNL     1      -0.099  -0.459   1.389  1.00  0.00     0.174 C 
BRANCH  14  15
HETATM   15  N2  UNL     1      -1.263   0.159   0.840  1.00  0.00    -0.397 N 
HETATM   16  C5  UNL     1      -2.051   0.890   1.770  1.00  0.00     0.144 C 
BRANCH  15  17
HETATM   17  C3  UNL     1      -1.993  -0.600  -0.113  1.00  0.00     0.195 C 
BRANCH  17  18
HETATM   18  C2  UNL     1      -2.885   0.244  -0.961  1.00  0.00     0.201 C 
BRANCH  18  19
HETATM   19  O1  UNL     1      -3.792   0.900  -0.162  1.00  0.00    -0.393 OA
HETATM   20  C1  UNL     1      -4.668   1.715  -0.876  1.00  0.00     0.201 C 
ENDBRANCH  18  19
ENDBRANCH  17  18
BRANCH  17  21
HETATM   21  C4  UNL     1      -2.900  -1.618   0.528  1.00  0.00     0.240 C 
HETATM   22  N1  UNL     1      -3.669  -2.422  -0.365  1.00  0.00    -0.368 N 
HETATM   23  H7  UNL     1      -3.861  -2.975  -1.236  1.00  0.00     0.159 HD
HETATM   24  H8  UNL     1      -4.653  -2.738  -0.192  1.00  0.00     0.159 HD
HETATM   25  O2  UNL     1      -3.136  -1.925   1.742  1.00  0.00    -0.271 OA
ENDBRANCH  17  21
ENDBRANCH  15  17
ENDBRANCH  14  15
ENDBRANCH   1  14
TORSDOF 6
