REMARK  7 active torsions:
REMARK  status: ('A' for Active; 'I' for Inactive)
REMARK    1  A    between atoms: C2_2  and  N3_14 
REMARK    2  A    between atoms: C3_3  and  C4_4 
REMARK    3  A    between atoms: C4_4  and  C5_5 
REMARK    4  A    between atoms: N1_6  and  C6_7 
REMARK       I    between atoms: N3_14  and  C11_15 
REMARK    5  A    between atoms: C11_15  and  C12_17 
REMARK    6  A    between atoms: C13_18  and  C14_19 
REMARK    7  A    between atoms: C14_19  and  N4_20 
ROOT
HETATM    1  C6  UNL     1      -5.719  -0.445  -0.138  1.00  0.00     0.051 A 
HETATM    2  C7  UNL     1      -6.204   0.605  -0.748  1.00  0.00     0.050 A 
HETATM    3  C8  UNL     1      -6.001   1.296  -2.008  1.00  0.00     0.097 C 
HETATM    4  N2  UNL     1      -5.834   1.871  -3.023  1.00  0.00    -0.192 NA
HETATM    5  C9  UNL     1      -7.117   0.926   0.336  1.00  0.00     0.095 A 
HETATM    6  C10 UNL     1      -6.581  -0.268   1.033  1.00  0.00     0.225 A 
HETATM    7  F1  UNL     1      -5.873   0.016   2.204  1.00  0.00    -0.242 F 
ENDROOT
BRANCH   1   8
HETATM    8  N1  UNL     1      -4.725  -1.321  -0.595  1.00  0.00    -0.391 NA
HETATM    9  C5  UNL     1      -3.527  -1.428  -0.182  1.00  0.00     0.260 C 
BRANCH   9  10
HETATM   10  C4  UNL     1      -2.897  -0.630   0.907  1.00  0.00     0.075 C 
BRANCH  10  11
HETATM   11  C3  UNL     1      -1.443  -0.477   0.728  1.00  0.00     0.003 C 
HETATM   12  C2  UNL     1      -0.507  -0.845  -0.124  1.00  0.00     0.005 C 
HETATM   13  C1  UNL     1      -0.784  -1.659  -1.331  1.00  0.00     0.068 C 
BRANCH  12  14
HETATM   14  N3  UNL     1       0.836  -0.450   0.112  1.00  0.00    -0.328 N 
HETATM   15  C11 UNL     1       1.446   0.341  -0.892  1.00  0.00     0.245 C 
HETATM   16  O1  UNL     1       0.695   0.585  -1.870  1.00  0.00    -0.268 OA
HETATM   17  H11 UNL     1       1.420  -0.685   0.957  1.00  0.00     0.169 HD
BRANCH  15  18
HETATM   18  C12 UNL     1       2.807   0.860  -0.867  1.00  0.00     0.072 C 
HETATM   19  C13 UNL     1       3.709   0.689   0.085  1.00  0.00     0.008 C 
BRANCH  19  20
HETATM   20  C14 UNL     1       5.092   1.271   0.010  1.00  0.00     0.299 C 
BRANCH  20  21
HETATM   21  N4  UNL     1       6.057   0.214   0.055  1.00  0.00     0.083 N 
HETATM   22  C15 UNL     1       6.066  -0.412   1.341  1.00  0.00     0.309 C 
HETATM   23  C16 UNL     1       7.368   0.660  -0.374  1.00  0.00     0.309 C 
ENDBRANCH  20  21
ENDBRANCH  19  20
ENDBRANCH  15  18
ENDBRANCH  12  14
ENDBRANCH  10  11
ENDBRANCH   9  10
ENDBRANCH   1   8
TORSDOF 7
