REMARK  7 active torsions:
REMARK  status: ('A' for Active; 'I' for Inactive)
REMARK    1  A    between atoms: O1_2  and  C2_3 
REMARK    2  A    between atoms: C8_11  and  C9_12 
REMARK    3  A    between atoms: C9_12  and  C10_13 
REMARK    4  A    between atoms: C18_23  and  N3_24 
REMARK       I    between atoms: N3_24  and  C19_25 
REMARK    5  A    between atoms: C19_25  and  C20_27 
REMARK    6  A    between atoms: C21_28  and  C22_29 
REMARK    7  A    between atoms: C22_29  and  N4_30 
ROOT
HETATM    1  C2  UNL     1       0.333  -2.297   0.774  1.00  0.00     0.097 A 
HETATM    2  C3  UNL     1      -0.808  -3.063   0.884  1.00  0.00     0.071 A 
HETATM    3  C4  UNL     1      -1.989  -2.562   0.394  1.00  0.00     0.070 A 
HETATM    4  N1  UNL     1      -3.047  -3.377   0.543  1.00  0.00    -0.259 NA
HETATM    5  C5  UNL     1      -4.246  -2.972   0.092  1.00  0.00     0.140 A 
HETATM    6  C6  UNL     1      -4.380  -1.739  -0.512  1.00  0.00     0.069 A 
HETATM    7  C7  UNL     1      -5.689  -1.385  -0.978  1.00  0.00     0.101 C 
HETATM    8  N2  UNL     1      -6.733  -1.122  -1.355  1.00  0.00    -0.191 NA
HETATM    9  C8  UNL     1      -3.350  -0.859  -0.698  1.00  0.00    -0.019 A 
HETATM   10  C16 UNL     1      -2.140  -1.332  -0.212  1.00  0.00     0.003 A 
HETATM   11  C17 UNL     1      -0.980  -0.609  -0.299  1.00  0.00     0.046 A 
HETATM   12  C18 UNL     1       0.239  -1.058   0.175  1.00  0.00     0.069 A 
ENDROOT
BRANCH   9  13
HETATM   13  C9  UNL     1      -3.446   0.476  -1.328  1.00  0.00     0.079 C 
BRANCH  13  14
HETATM   14  C10 UNL     1      -4.022   1.518  -0.455  1.00  0.00    -0.052 A 
HETATM   15  C11 UNL     1      -5.321   1.975  -0.414  1.00  0.00     0.010 A 
HETATM   16  C12 UNL     1      -5.816   2.938   0.419  1.00  0.00     0.044 A 
HETATM   17  C13 UNL     1      -4.940   3.532   1.324  1.00  0.00     0.138 A 
HETATM   18  F1  UNL     1      -5.453   4.482   2.136  1.00  0.00    -0.204 F 
HETATM   19  C14 UNL     1      -3.626   3.118   1.331  1.00  0.00     0.073 A 
HETATM   20 CL1  UNL     1      -2.622   3.931   2.504  1.00  0.00    -0.081 Cl
HETATM   21  C15 UNL     1      -3.168   2.136   0.467  1.00  0.00     0.034 A 
ENDBRANCH  13  14
ENDBRANCH   9  13
BRANCH  12  22
HETATM   22  N3  UNL     1       1.407  -0.222   0.036  1.00  0.00    -0.321 N 
HETATM   23  C19 UNL     1       1.985  -0.574  -1.235  1.00  0.00     0.245 C 
HETATM   24  O2  UNL     1       1.219  -1.481  -1.709  1.00  0.00    -0.268 OA
HETATM   25  H12 UNL     1       1.942   0.533   0.558  1.00  0.00     0.169 HD
BRANCH  23  26
HETATM   26  C20 UNL     1       3.162  -0.073  -1.913  1.00  0.00     0.072 C 
HETATM   27  C21 UNL     1       4.079   0.815  -1.656  1.00  0.00     0.008 C 
BRANCH  27  28
HETATM   28  C22 UNL     1       4.522   1.803  -0.650  1.00  0.00     0.299 C 
BRANCH  28  29
HETATM   29  N4  UNL     1       5.867   1.465  -0.193  1.00  0.00     0.083 N 
HETATM   30  C23 UNL     1       6.347   2.395   0.785  1.00  0.00     0.309 C 
HETATM   31  C24 UNL     1       5.931   0.089   0.198  1.00  0.00     0.309 C 
ENDBRANCH  28  29
ENDBRANCH  27  28
ENDBRANCH  23  26
ENDBRANCH  12  22
BRANCH   1  32
HETATM   32  O1  UNL     1       1.584  -2.675   1.222  1.00  0.00    -0.354 OA
HETATM   33  C1  UNL     1       1.916  -3.871   1.853  1.00  0.00     0.210 C 
ENDBRANCH   1  32
TORSDOF 7
