REMARK  5 active torsions:
REMARK  status: ('A' for Active; 'I' for Inactive)
REMARK    1  A    between atoms: N1_2  and  C3_4 
REMARK    2  A    between atoms: C3_4  and  C4_5 
REMARK    3  A    between atoms: C5_6  and  N2_8 
REMARK    4  A    between atoms: C9_12  and  N3_13 
REMARK    5  A    between atoms: N3_13  and  C10_14 
ROOT
HETATM    1  N2  UNL     1       0.823  -0.654  -1.218  1.00  0.00     0.001 N 
HETATM    2  C6  UNL     1       0.430  -2.254  -0.784  1.00  0.00     0.202 A 
HETATM    3  C7  UNL     1      -0.659  -0.961  -0.278  1.00  0.00     0.111 A 
HETATM    4  C8  UNL     1      -2.044  -1.012   0.568  1.00  0.00    -0.030 A 
HETATM    5  C9  UNL     1      -3.067  -0.614   1.118  1.00  0.00     0.058 C 
HETATM    6  C16 UNL     1      -3.976  -1.497   1.779  1.00  0.00     0.082 C 
HETATM    7  C17 UNL     1      -4.528  -0.868   2.929  1.00  0.00     0.102 C 
HETATM    8  N4  UNL     1      -4.996  -0.365   3.860  1.00  0.00    -0.191 NA
HETATM    9  C18 UNL     1      -4.092  -2.620   1.192  1.00  0.00    -0.005 C 
HETATM   10  C19 UNL     1      -3.259  -3.160   0.441  1.00  0.00    -0.003 C 
HETATM   11  C20 UNL     1      -1.988  -2.780   0.979  1.00  0.00     0.059 A 
HETATM   12  C21 UNL     1      -0.984  -2.585   0.252  1.00  0.00     0.065 A 
HETATM   13  P1  UNL     1      -0.029  -2.371  -0.447  1.00  0.00     0.074 P 
HETATM   14  H11 UNL     1       0.797   0.372  -1.709  1.00  0.00     0.294 HD
HETATM   15  H20 UNL     1       1.831  -2.018  -1.811  1.00  0.00     0.081 HD
ENDROOT
BRANCH   5  16
HETATM   16  N3  UNL     1      -2.922   0.739   0.809  1.00  0.00    -0.355 N 
HETATM   17  H13 UNL     1      -2.470   1.430   1.477  1.00  0.00     0.166 HD
BRANCH  16  18
HETATM   18  C10 UNL     1      -3.369   1.310  -0.431  1.00  0.00     0.033 A 
HETATM   19  C11 UNL     1      -3.229   2.653  -0.748  1.00  0.00     0.029 A 
HETATM   20  C12 UNL     1      -3.699   3.078  -1.970  1.00  0.00     0.004 A 
HETATM   21  C13 UNL     1      -4.297   2.286  -2.906  1.00  0.00     0.019 A 
HETATM   22  C14 UNL     1      -4.434   0.941  -2.581  1.00  0.00     0.013 A 
HETATM   23 BR1  UNL     1      -5.265  -0.213  -3.856  1.00  0.00    -0.051 Br
HETATM   24  C15 UNL     1      -3.974   0.486  -1.366  1.00  0.00     0.048 A 
ENDBRANCH  16  18
ENDBRANCH   5  16
BRANCH   1  25
HETATM   25  C5  UNL     1       2.009   0.031  -0.698  1.00  0.00     0.246 A 
HETATM   26  C4  UNL     1       3.166   0.711  -0.195  1.00  0.00     0.268 A 
HETATM   27  O1  UNL     1       2.627  -0.803   0.098  1.00  0.00    -0.324 OA
BRANCH  26  28
HETATM   28  C3  UNL     1       4.057  -0.046   0.740  1.00  0.00     0.303 C 
BRANCH  28  29
HETATM   29  N1  UNL     1       5.183   0.773   1.159  1.00  0.00     0.082 N 
HETATM   30  C1  UNL     1       6.051   0.048   2.066  1.00  0.00     0.309 C 
HETATM   31  C2  UNL     1       5.923   1.289   0.035  1.00  0.00     0.309 C 
ENDBRANCH  28  29
ENDBRANCH  26  28
ENDBRANCH   1  25
TORSDOF 5
