REMARK  7 active torsions:
REMARK  status: ('A' for Active; 'I' for Inactive)
REMARK    1  A    between atoms: O1_2  and  N1_3 
REMARK    2  A    between atoms: C7_9  and  C8_10 
REMARK    3  A    between atoms: C8_10  and  N2_11 
REMARK    4  A    between atoms: C15_20  and  N5_21 
REMARK    5  A    between atoms: N5_21  and  C16_22 
REMARK    6  A    between atoms: C16_22  and  C17_23 
REMARK    7  A    between atoms: C18_24  and  C19_26 
ROOT
HETATM    1  N2  UNL     1      -0.372   0.558   0.893  1.00  0.00    -0.288 NA
HETATM    2  C9  UNL     1       0.162   0.606  -0.274  1.00  0.00     0.061 C 
HETATM    3  C10 UNL     1      -0.648   0.739  -1.478  1.00  0.00     0.065 C 
HETATM    4  C11 UNL     1      -0.466   0.455  -2.735  1.00  0.00     0.087 C 
HETATM    5  N3  UNL     1       0.307  -0.470  -3.125  1.00  0.00    -0.257 NA
HETATM    6  C12 UNL     1       1.744  -0.604  -3.173  1.00  0.00     0.142 C 
HETATM    7  C13 UNL     1       2.715  -0.373  -2.271  1.00  0.00     0.089 C 
HETATM    8  C14 UNL     1       4.040  -0.636  -2.722  1.00  0.00     0.103 C 
HETATM    9  N4  UNL     1       5.111  -0.859  -3.105  1.00  0.00    -0.191 NA
HETATM   10  C15 UNL     1       2.643   0.114  -0.874  1.00  0.00     0.059 C 
HETATM   11  C20 UNL     1       1.629   0.503  -0.080  1.00  0.00    -0.006 C 
HETATM   12  C21 UNL     1       2.130   0.903   1.256  1.00  0.00     0.053 C 
ENDROOT
BRANCH  10  13
HETATM   13  N5  UNL     1       3.926   0.176  -0.260  1.00  0.00    -0.385 N 
HETATM   14  H13 UNL     1       4.086   1.135  -0.668  1.00  0.00     0.160 HD
BRANCH  13  15
HETATM   15  C16 UNL     1       4.808  -0.576   0.567  1.00  0.00     0.148 C 
BRANCH  15  16
HETATM   16  C17 UNL     1       6.037   0.240   0.769  1.00  0.00     0.014 C 
HETATM   17  C18 UNL     1       7.233  -0.152   0.408  1.00  0.00     0.038 C 
HETATM   18 CL1  UNL     1       7.480  -1.709  -0.362  1.00  0.00    -0.087 Cl
BRANCH  17  19
HETATM   19  C19 UNL     1       8.404   0.712   0.642  1.00  0.00     0.273 C 
HETATM   20  F1  UNL     1       8.110   1.894   1.242  1.00  0.00    -0.250 F 
ENDBRANCH  17  19
ENDBRANCH  15  16
ENDBRANCH  13  15
ENDBRANCH  10  13
BRANCH   1  21
HETATM   21  C8  UNL     1      -1.804   0.631   1.070  1.00  0.00     0.162 C 
BRANCH  21  22
HETATM   22  C7  UNL     1      -2.526  -0.640   0.677  1.00  0.00     0.077 C 
HETATM   23  C6  UNL     1      -3.998  -0.552   0.862  1.00  0.00     0.069 A 
HETATM   24  N1  UNL     1      -4.932   0.452   0.479  1.00  0.00    -0.257 N 
HETATM   25  C5  UNL     1      -4.481  -1.609   1.495  1.00  0.00     0.053 A 
HETATM   26  C2  UNL     1      -6.359   0.446   0.706  1.00  0.00     0.183 A 
HETATM   27  C3  UNL     1      -6.723  -0.800   1.421  1.00  0.00    -0.003 A 
HETATM   28  C4  UNL     1      -5.896  -1.773   1.804  1.00  0.00     0.029 A 
HETATM   29  N6  UNL     1      -3.435  -2.508   1.806  1.00  0.00    -0.388 N 
HETATM   30  C22 UNL     1      -2.178  -1.775   1.620  1.00  0.00     0.132 C 
HETATM   31  H24 UNL     1      -3.453  -3.513   2.115  1.00  0.00     0.159 HD
BRANCH  24  32
HETATM   32  O1  UNL     1      -4.457   1.540  -0.170  1.00  0.00    -0.283 OA
HETATM   33  C1  UNL     1      -5.375   2.039  -1.077  1.00  0.00     0.238 C 
ENDBRANCH  24  32
ENDBRANCH  21  22
ENDBRANCH   1  21
TORSDOF 7
