REMARK  2 active torsions:
REMARK  status: ('A' for Active; 'I' for Inactive)
REMARK    1  A    between atoms: C6_6  and  N1_7 
REMARK    2  A    between atoms: N1_7  and  C7_8 
ROOT
HETATM    1  C1  UNL     1      -3.616  -1.523  -1.736  1.00  0.00     0.053 C 
HETATM    2  C2  UNL     1      -2.506  -1.103  -0.859  1.00  0.00    -0.007 A 
HETATM    3  C3  UNL     1      -1.165  -1.455  -1.081  1.00  0.00     0.037 A 
HETATM    4  C4  UNL     1      -0.073  -1.266  -0.285  1.00  0.00     0.046 A 
HETATM    5  C5  UNL     1      -0.230  -0.621   0.949  1.00  0.00     0.025 A 
HETATM    6  C6  UNL     1       0.784  -0.406   1.820  1.00  0.00     0.068 A 
HETATM    7  C13 UNL     1       0.431   0.230   2.989  1.00  0.00     0.089 A 
HETATM    8  C14 UNL     1       1.504   0.457   3.914  1.00  0.00     0.103 C 
HETATM    9  N2  UNL     1       2.360   0.655   4.670  1.00  0.00    -0.191 NA
HETATM   10  C15 UNL     1      -0.867   0.626   3.266  1.00  0.00     0.142 A 
HETATM   11  N3  UNL     1      -1.893   0.413   2.394  1.00  0.00    -0.256 NA
HETATM   12  C16 UNL     1      -1.535  -0.208   1.259  1.00  0.00     0.096 A 
HETATM   13  C17 UNL     1      -2.557  -0.451   0.381  1.00  0.00     0.067 A 
HETATM   14  N4  UNL     1      -3.801   0.305   0.621  1.00  0.00    -0.377 N 
HETATM   15  C18 UNL     1      -3.275   1.463  -0.265  1.00  0.00     0.214 C 
HETATM   16  C19 UNL     1      -2.391   0.860  -1.199  1.00  0.00    -0.085 C 
HETATM   17  C20 UNL     1      -1.679   0.350  -1.949  1.00  0.00    -0.085 C 
HETATM   18  C21 UNL     1      -0.803  -0.305  -2.864  1.00  0.00     0.214 C 
HETATM   19  N5  UNL     1      -0.900  -1.816  -2.474  1.00  0.00    -0.379 N 
HETATM   20  H11 UNL     1      -4.071  -0.516   1.196  1.00  0.00     0.160 HD
HETATM   21  H16 UNL     1      -0.974  -2.785  -2.162  1.00  0.00     0.160 HD
ENDROOT
BRANCH   6  22
HETATM   22  N1  UNL     1       2.047  -0.867   1.393  1.00  0.00    -0.354 N 
HETATM   23  H5  UNL     1       2.404  -1.828   1.589  1.00  0.00     0.166 HD
BRANCH  22  24
HETATM   24  C7  UNL     1       2.903   0.012   0.648  1.00  0.00     0.033 A 
HETATM   25  C8  UNL     1       4.145  -0.387   0.203  1.00  0.00     0.029 A 
HETATM   26  C9  UNL     1       4.996   0.419  -0.511  1.00  0.00     0.004 A 
HETATM   27  C10 UNL     1       4.602   1.710  -0.811  1.00  0.00     0.019 A 
HETATM   28  C11 UNL     1       3.356   2.100  -0.360  1.00  0.00     0.013 A 
HETATM   29 BR1  UNL     1       2.757   3.885  -0.749  1.00  0.00    -0.051 Br
HETATM   30  C12 UNL     1       2.482   1.309   0.359  1.00  0.00     0.048 A 
ENDBRANCH  22  24
ENDBRANCH   6  22
TORSDOF 2
