REMARK  6 active torsions:
REMARK  status: ('A' for Active; 'I' for Inactive)
REMARK    1  A    between atoms: C6_6  and  N1_7 
REMARK    2  A    between atoms: N1_7  and  C7_8 
REMARK    3  A    between atoms: C15_19  and  N4_20 
REMARK       I    between atoms: N4_20  and  C16_21 
REMARK    4  A    between atoms: C16_21  and  C17_23 
REMARK    5  A    between atoms: C18_24  and  C19_25 
REMARK    6  A    between atoms: C19_25  and  N5_26 
ROOT
HETATM    1  C1  UNL     1      -0.697  -2.569  -2.911  1.00  0.00     0.048 C 
HETATM    2  C2  UNL     1      -0.840  -2.046  -1.512  1.00  0.00    -0.034 C 
HETATM    3  C3  UNL     1      -1.712  -2.825  -0.755  1.00  0.00     0.014 C 
HETATM    4  C4  UNL     1      -1.017  -2.570   0.639  1.00  0.00     0.096 C 
HETATM    5  C5  UNL     1      -1.510  -1.123   0.379  1.00  0.00    -0.019 C 
HETATM    6  C6  UNL     1      -2.596  -0.466   0.713  1.00  0.00     0.055 C 
HETATM    7  C13 UNL     1      -3.924  -1.127   0.789  1.00  0.00     0.142 C 
HETATM    8  N2  UNL     1      -4.444  -2.249   0.407  1.00  0.00    -0.280 NA
HETATM    9  C14 UNL     1      -4.126  -3.478  -0.236  1.00  0.00     0.269 C 
HETATM   10  N3  UNL     1      -2.924  -3.493  -1.092  1.00  0.00    -0.375 N 
HETATM   11  C15 UNL     1      -0.381  -0.842  -0.601  1.00  0.00     0.148 C 
HETATM   12  H14 UNL     1      -2.608  -3.872  -2.008  1.00  0.00     0.161 HD
ENDROOT
BRANCH  11  13
HETATM   13  N4  UNL     1       0.899  -1.036  -0.077  1.00  0.00    -0.338 N 
HETATM   14  C16 UNL     1       1.718   0.121  -0.310  1.00  0.00     0.297 C 
HETATM   15  O1  UNL     1       1.331   1.178  -0.917  1.00  0.00    -0.258 OA
HETATM   16  H16 UNL     1       1.543  -1.660   0.418  1.00  0.00     0.164 HD
BRANCH  14  17
HETATM   17  C17 UNL     1       3.112   0.294   0.097  1.00  0.00    -0.004 C 
HETATM   18  C18 UNL     1       4.263   0.427   0.452  1.00  0.00    -0.066 C 
BRANCH  18  19
HETATM   19  C19 UNL     1       5.641   0.570   0.897  1.00  0.00     0.365 C 
BRANCH  19  20
HETATM   20  N5  UNL     1       6.322   1.572   0.093  1.00  0.00     0.090 N 
HETATM   21  C20 UNL     1       7.669   1.668   0.660  1.00  0.00     0.310 C 
HETATM   22  C21 UNL     1       6.384   1.057  -1.268  1.00  0.00     0.310 C 
ENDBRANCH  19  20
ENDBRANCH  18  19
ENDBRANCH  14  17
ENDBRANCH  11  13
BRANCH   6  23
HETATM   23  N1  UNL     1      -2.202   0.852   0.870  1.00  0.00    -0.355 N 
HETATM   24  H6  UNL     1      -1.283   1.151   1.218  1.00  0.00     0.166 HD
BRANCH  23  25
HETATM   25  C7  UNL     1      -3.104   1.903   0.551  1.00  0.00     0.033 A 
HETATM   26  C8  UNL     1      -3.471   2.553  -0.607  1.00  0.00     0.029 A 
HETATM   27  C9  UNL     1      -4.383   3.560  -0.582  1.00  0.00     0.004 A 
HETATM   28  C10 UNL     1      -4.960   3.945   0.632  1.00  0.00     0.019 A 
HETATM   29  C11 UNL     1      -4.609   3.308   1.804  1.00  0.00     0.013 A 
HETATM   30 BR1  UNL     1      -5.453   3.908   3.427  1.00  0.00    -0.051 Br
HETATM   31  C12 UNL     1      -3.667   2.271   1.760  1.00  0.00     0.048 A 
ENDBRANCH  23  25
ENDBRANCH   6  23
TORSDOF 6
