REMARK  5 active torsions:
REMARK  status: ('A' for Active; 'I' for Inactive)
REMARK    1  A    between atoms: C2_2  and  C3_3 
REMARK       I    between atoms: C3_3  and  N1_5 
REMARK    2  A    between atoms: N1_5  and  C4_6 
REMARK    3  A    between atoms: C7_9  and  N2_10 
REMARK    4  A    between atoms: N2_10  and  C8_11 
REMARK    5  A    between atoms: C18_24  and  O2_25 
ROOT
HETATM    1  C4  UNL     1      -1.925  -0.178  -0.201  1.00  0.00     0.069 A 
HETATM    2  C5  UNL     1      -0.572   0.085  -0.174  1.00  0.00     0.048 A 
HETATM    3  C6  UNL     1       0.387  -0.902  -0.133  1.00  0.00     0.023 A 
HETATM    4  C7  UNL     1       1.712  -0.522  -0.109  1.00  0.00     0.064 A 
HETATM    5  C13 UNL     1       2.607  -1.569  -0.069  1.00  0.00     0.089 A 
HETATM    6  C14 UNL     1       4.034  -1.447  -0.033  1.00  0.00     0.103 C 
HETATM    7  N3  UNL     1       5.186  -1.368   0.003  1.00  0.00    -0.191 NA
HETATM    8  C15 UNL     1       2.202  -2.905  -0.053  1.00  0.00     0.142 A 
HETATM    9  N4  UNL     1       0.888  -3.147  -0.079  1.00  0.00    -0.259 NA
HETATM   10  C16 UNL     1      -0.041  -2.197  -0.118  1.00  0.00     0.071 A 
HETATM   11  C17 UNL     1      -1.391  -2.461  -0.145  1.00  0.00     0.071 A 
HETATM   12  C18 UNL     1      -2.383  -1.502  -0.187  1.00  0.00     0.097 A 
ENDROOT
BRANCH   4  13
HETATM   13  N2  UNL     1       2.215   0.796  -0.118  1.00  0.00    -0.377 N 
HETATM   14  H6  UNL     1       1.376   1.391  -0.121  1.00  0.00     0.160 HD
BRANCH  13  15
HETATM   15  C8  UNL     1       3.147   1.823  -0.119  1.00  0.00     0.129 A 
HETATM   16  C9  UNL     1       4.089   1.862   1.050  1.00  0.00     0.003 A 
HETATM   17  C10 UNL     1       5.331   1.803   0.569  1.00  0.00     0.017 A 
HETATM   18  C11 UNL     1       5.366   1.718  -0.894  1.00  0.00     0.009 A 
HETATM   19 BR1  UNL     1       6.899   1.615  -2.000  1.00  0.00    -0.051 Br
HETATM   20  C12 UNL     1       4.090   1.727  -1.280  1.00  0.00     0.021 A 
ENDBRANCH  13  15
ENDBRANCH   4  13
BRANCH   1  21
HETATM   21  N1  UNL     1      -2.968   0.795  -0.244  1.00  0.00    -0.321 N 
HETATM   22  C3  UNL     1      -3.722   1.497   0.727  1.00  0.00     0.245 C 
HETATM   23  O1  UNL     1      -3.631   1.408   1.964  1.00  0.00    -0.268 OA
HETATM   24  H4  UNL     1      -3.095   0.917  -1.261  1.00  0.00     0.169 HD
BRANCH  22  25
HETATM   25  C2  UNL     1      -4.719   2.429   0.212  1.00  0.00     0.064 C 
HETATM   26  C1  UNL     1      -5.379   3.042   1.195  1.00  0.00     0.017 C 
ENDBRANCH  22  25
ENDBRANCH   1  21
BRANCH  12  27
HETATM   27  O2  UNL     1      -3.709  -1.909  -0.210  1.00  0.00    -0.354 OA
HETATM   28  C19 UNL     1      -4.149  -3.233  -0.195  1.00  0.00     0.210 C 
ENDBRANCH  12  27
TORSDOF 5
