REMARK  8 active torsions:
REMARK  status: ('A' for Active; 'I' for Inactive)
REMARK    1  A    between atoms: O1_2  and  C2_3 
REMARK    2  A    between atoms: C2_3  and  C3_4 
REMARK    3  A    between atoms: C3_4  and  C4_5 
REMARK    4  A    between atoms: C3_4  and  N2_8 
REMARK       I    between atoms: C4_5  and  N1_6 
REMARK    5  A    between atoms: N2_8  and  C6_10 
REMARK    6  A    between atoms: C6_10  and  C7_11 
REMARK    7  A    between atoms: C12_17  and  N4_18 
REMARK    8  A    between atoms: N4_18  and  C13_19 
ROOT
HETATM    1  C7  UNL     1       0.160  -1.066   0.944  1.00  0.00     0.010 C 
HETATM    2  C8  UNL     1      -0.825  -1.627   0.188  1.00  0.00    -0.038 C 
HETATM    3  C9  UNL     1      -1.249  -3.054   0.490  1.00  0.00     0.043 C 
HETATM    4  C10 UNL     1      -2.408  -3.396  -0.449  1.00  0.00     0.051 C 
HETATM    5  C11 UNL     1      -2.158  -2.759  -1.775  1.00  0.00     0.086 C 
HETATM    6  N3  UNL     1      -1.732  -1.586  -2.001  1.00  0.00    -0.276 NA
HETATM    7  C12 UNL     1      -1.442  -0.723  -0.872  1.00  0.00     0.234 C 
ENDROOT
BRANCH   1   8
HETATM    8  C6  UNL     1       0.775   0.254   0.896  1.00  0.00     0.301 C 
BRANCH   8   9
HETATM    9  N2  UNL     1       2.178   0.367   0.750  1.00  0.00     0.103 N 
HETATM   10  C5  UNL     1       2.807  -0.123   1.937  1.00  0.00     0.311 C 
BRANCH   9  11
HETATM   11  C3  UNL     1       2.704  -0.060  -0.464  1.00  0.00     0.337 C 
BRANCH  11  12
HETATM   12  C2  UNL     1       4.220   0.156  -0.562  1.00  0.00     0.212 C 
BRANCH  12  13
HETATM   13  O1  UNL     1       4.964  -0.494   0.375  1.00  0.00    -0.393 OA
HETATM   14  C1  UNL     1       6.326  -0.199   0.183  1.00  0.00     0.201 C 
ENDBRANCH  12  13
ENDBRANCH  11  12
BRANCH  11  15
HETATM   15  C4  UNL     1       2.169   0.662  -1.656  1.00  0.00     0.251 C 
HETATM   16  N1  UNL     1       1.333   1.809  -1.673  1.00  0.00    -0.368 N 
HETATM   17  H7  UNL     1       0.704   2.594  -1.681  1.00  0.00     0.159 HD
HETATM   18  H8  UNL     1       1.327   2.877  -1.745  1.00  0.00     0.159 HD
HETATM   19  O2  UNL     1       2.126   0.707  -2.889  1.00  0.00    -0.271 OA
ENDBRANCH  11  15
ENDBRANCH   9  11
ENDBRANCH   8   9
ENDBRANCH   1   8
BRANCH   7  20
HETATM   20  N4  UNL     1      -2.434   0.120  -0.448  1.00  0.00    -0.361 N 
HETATM   21  H21 UNL     1      -2.976  -0.781  -0.367  1.00  0.00     0.162 HD
BRANCH  20  22
HETATM   22  C13 UNL     1      -3.487   1.006   0.002  1.00  0.00     0.070 A 
HETATM   23  C14 UNL     1      -4.770   0.754   0.417  1.00  0.00     0.032 A 
HETATM   24  C15 UNL     1      -5.519   1.818   0.824  1.00  0.00     0.004 A 
HETATM   25  C16 UNL     1      -4.954   3.078   0.796  1.00  0.00     0.027 A 
HETATM   26  C17 UNL     1      -3.682   3.386   0.392  1.00  0.00     0.074 A 
HETATM   27 CL1  UNL     1      -3.228   5.061   0.466  1.00  0.00    -0.081 Cl
HETATM   28  C18 UNL     1      -2.942   2.275  -0.018  1.00  0.00     0.164 A 
HETATM   29  F1  UNL     1      -1.705   2.693  -0.389  1.00  0.00    -0.202 F 
ENDBRANCH  20  22
ENDBRANCH   7  20
TORSDOF 8
