REMARK  6 active torsions:
REMARK  status: ('A' for Active; 'I' for Inactive)
REMARK    1  A    between atoms: C2_2  and  C3_3 
REMARK       I    between atoms: C3_3  and  N1_5 
REMARK    2  A    between atoms: N1_5  and  C4_6 
REMARK    3  A    between atoms: C7_9  and  N2_10 
REMARK    4  A    between atoms: N2_10  and  C8_11 
REMARK    5  A    between atoms: C14_18  and  N3_19 
REMARK    6  A    between atoms: C18_24  and  O2_25 
ROOT
HETATM    1  C4  UNL     1      -1.997  -0.142  -0.580  1.00  0.00     0.069 A 
HETATM    2  C5  UNL     1      -0.629  -0.061  -0.575  1.00  0.00     0.048 A 
HETATM    3  C6  UNL     1       0.215  -1.076  -0.970  1.00  0.00     0.024 A 
HETATM    4  C7  UNL     1       1.579  -0.894  -0.927  1.00  0.00     0.073 A 
HETATM    5  C14 UNL     1       2.380  -1.956  -1.339  1.00  0.00     0.071 A 
HETATM    6  C15 UNL     1       1.816  -3.146  -1.774  1.00  0.00     0.148 A 
HETATM    7  N4  UNL     1       0.471  -3.270  -1.796  1.00  0.00    -0.258 NA
HETATM    8  C16 UNL     1      -0.332  -2.265  -1.405  1.00  0.00     0.071 A 
HETATM    9  C17 UNL     1      -1.685  -2.370  -1.419  1.00  0.00     0.071 A 
HETATM   10  C18 UNL     1      -2.497  -1.345  -1.021  1.00  0.00     0.097 A 
ENDROOT
BRANCH   4  11
HETATM   11  N2  UNL     1       2.180   0.317  -0.486  1.00  0.00    -0.354 N 
HETATM   12  H6  UNL     1       2.247   0.838  -1.362  1.00  0.00     0.166 HD
BRANCH  11  13
HETATM   13  C8  UNL     1       2.589   0.729   0.804  1.00  0.00     0.033 A 
HETATM   14  C9  UNL     1       2.414  -0.116   1.863  1.00  0.00     0.029 A 
HETATM   15  C10 UNL     1       2.858   0.409   3.079  1.00  0.00     0.004 A 
HETATM   16  C11 UNL     1       3.423   1.662   3.217  1.00  0.00     0.019 A 
HETATM   17  C12 UNL     1       3.565   2.458   2.097  1.00  0.00     0.013 A 
HETATM   18 BR1  UNL     1       4.334   4.184   2.237  1.00  0.00    -0.051 Br
HETATM   19  C13 UNL     1       3.136   1.977   0.859  1.00  0.00     0.048 A 
ENDBRANCH  11  13
ENDBRANCH   4  11
BRANCH   5  20
HETATM   20  N3  UNL     1       3.795  -1.873  -1.334  1.00  0.00    -0.396 N 
HETATM   21  H11 UNL     1       4.015  -1.342  -2.220  1.00  0.00     0.156 HD
HETATM   22  H12 UNL     1       4.388  -2.287  -0.563  1.00  0.00     0.156 HD
ENDBRANCH   5  20
BRANCH   1  23
HETATM   23  N1  UNL     1      -2.922   0.853  -0.191  1.00  0.00    -0.321 N 
HETATM   24  C3  UNL     1      -2.681   2.158   0.293  1.00  0.00     0.242 C 
HETATM   25  O1  UNL     1      -1.504   2.560   0.423  1.00  0.00    -0.269 OA
HETATM   26  H4  UNL     1      -3.946   0.667  -0.242  1.00  0.00     0.169 HD
BRANCH  24  27
HETATM   27  C2  UNL     1      -3.705   3.116   0.671  1.00  0.00     0.048 C 
HETATM   28  C1  UNL     1      -3.325   4.294   1.105  1.00  0.00     0.037 C 
ENDBRANCH  24  27
ENDBRANCH   1  23
BRANCH  10  29
HETATM   29  O2  UNL     1      -3.866  -1.545  -1.071  1.00  0.00    -0.354 OA
HETATM   30  C19 UNL     1      -4.494  -2.716  -1.497  1.00  0.00     0.210 C 
ENDBRANCH  10  29
TORSDOF 6
