REMARK  5 active torsions:
REMARK  status: ('A' for Active; 'I' for Inactive)
REMARK    1  A    between atoms: C2_2  and  C3_3 
REMARK       I    between atoms: C3_3  and  N1_5 
REMARK    2  A    between atoms: N1_5  and  C4_6 
REMARK    3  A    between atoms: C6_8  and  N2_9 
REMARK    4  A    between atoms: N2_9  and  C7_10 
REMARK    5  A    between atoms: C18_23  and  O2_24 
ROOT
HETATM    1  C4  UNL     1      -1.073  -0.031   1.093  1.00  0.00     0.063 C 
HETATM    2  C5  UNL     1       0.114   0.278   0.564  1.00  0.00     0.030 C 
HETATM    3  C6  UNL     1       0.699  -0.031  -0.734  1.00  0.00     0.110 C 
HETATM    4  C13 UNL     1      -0.210  -0.786  -1.679  1.00  0.00     0.057 C 
HETATM    5  C14 UNL     1      -1.394  -0.069  -2.117  1.00  0.00    -0.014 C 
HETATM    6  C15 UNL     1      -2.743  -0.180  -2.054  1.00  0.00     0.045 C 
HETATM    7  N3  UNL     1      -4.022  -0.673  -1.769  1.00  0.00    -0.319 NA
HETATM    8  C16 UNL     1      -4.209  -0.900  -0.463  1.00  0.00     0.203 C 
HETATM    9  C17 UNL     1      -2.915  -0.536   0.069  1.00  0.00     0.122 C 
HETATM   10  C18 UNL     1      -2.447  -0.412   1.332  1.00  0.00     0.079 C 
ENDROOT
BRANCH   3  11
HETATM   11  N2  UNL     1       1.291   1.054  -1.448  1.00  0.00    -0.382 N 
HETATM   12  H7  UNL     1       1.072   2.063  -1.338  1.00  0.00     0.160 HD
BRANCH  11  13
HETATM   13  C7  UNL     1       2.309   0.780  -2.410  1.00  0.00     0.029 A 
HETATM   14  C8  UNL     1       2.857   1.795  -3.190  1.00  0.00     0.029 A 
HETATM   15  C9  UNL     1       3.878   1.481  -4.084  1.00  0.00     0.004 A 
HETATM   16  C10 UNL     1       4.393   0.223  -4.259  1.00  0.00     0.019 A 
HETATM   17  C11 UNL     1       3.864  -0.816  -3.490  1.00  0.00     0.013 A 
HETATM   18 BR1  UNL     1       4.497  -2.621  -3.648  1.00  0.00    -0.051 Br
HETATM   19  C12 UNL     1       2.849  -0.500  -2.598  1.00  0.00     0.048 A 
ENDBRANCH  11  13
ENDBRANCH   3  11
BRANCH   1  20
HETATM   20  N1  UNL     1      -0.888   0.605   2.372  1.00  0.00    -0.322 N 
HETATM   21  C3  UNL     1      -0.753   1.249   3.575  1.00  0.00     0.244 C 
HETATM   22  O1  UNL     1      -1.547   2.266   3.658  1.00  0.00    -0.268 OA
HETATM   23  H4  UNL     1      -0.190  -0.178   2.731  1.00  0.00     0.169 HD
BRANCH  21  24
HETATM   24  C2  UNL     1      -0.076   1.251   4.779  1.00  0.00     0.064 C 
HETATM   25  C1  UNL     1       0.886   0.590   5.484  1.00  0.00     0.017 C 
ENDBRANCH  21  24
ENDBRANCH   1  20
BRANCH  10  26
HETATM   26  O2  UNL     1      -3.005  -0.581   2.628  1.00  0.00    -0.357 OA
HETATM   27  C19 UNL     1      -2.517  -1.652   3.402  1.00  0.00     0.209 C 
ENDBRANCH  10  26
TORSDOF 5
