REMARK  9 active torsions:
REMARK  status: ('A' for Active; 'I' for Inactive)
REMARK    1  A    between atoms: C2_2  and  C3_3 
REMARK    2  A    between atoms: C7_9  and  N3_10 
REMARK    3  A    between atoms: N3_10  and  C8_11 
REMARK    4  A    between atoms: C14_18  and  C15_19 
REMARK    5  A    between atoms: C15_19  and  C16_20 
REMARK    6  A    between atoms: C16_20  and  N4_21 
REMARK       I    between atoms: N4_21  and  C17_22 
REMARK    7  A    between atoms: C17_22  and  C18_24 
REMARK    8  A    between atoms: C19_25  and  C20_26 
REMARK    9  A    between atoms: C20_26  and  N5_27 
ROOT
HETATM    1  C3  UNL     1       2.653  -3.207  -0.401  1.00  0.00     0.068 A 
HETATM    2  N1  UNL     1       3.946  -3.519  -0.501  1.00  0.00    -0.259 NA
HETATM    3  C4  UNL     1       4.901  -2.633  -0.792  1.00  0.00     0.142 A 
HETATM    4  C5  UNL     1       4.629  -1.312  -1.016  1.00  0.00     0.089 A 
HETATM    5  C6  UNL     1       5.715  -0.451  -1.317  1.00  0.00     0.103 C 
HETATM    6  N2  UNL     1       6.599   0.245  -1.544  1.00  0.00    -0.191 NA
HETATM    7  C7  UNL     1       3.296  -0.928  -0.926  1.00  0.00     0.067 A 
HETATM    8  C14 UNL     1       2.384  -1.890  -0.624  1.00  0.00     0.022 A 
ENDROOT
BRANCH   7   9
HETATM    9  N3  UNL     1       3.090   0.451  -1.174  1.00  0.00    -0.354 N 
HETATM   10  H5  UNL     1       2.826   0.614  -2.172  1.00  0.00     0.166 HD
BRANCH   9  11
HETATM   11  C8  UNL     1       3.203   1.549  -0.241  1.00  0.00     0.033 A 
HETATM   12  C9  UNL     1       2.939   2.819  -0.706  1.00  0.00     0.029 A 
HETATM   13  C10 UNL     1       3.054   3.863   0.197  1.00  0.00     0.004 A 
HETATM   14  C11 UNL     1       3.418   3.605   1.496  1.00  0.00     0.019 A 
HETATM   15  C12 UNL     1       3.673   2.307   1.915  1.00  0.00     0.013 A 
HETATM   16 BR1  UNL     1       4.183   1.891   3.711  1.00  0.00    -0.051 Br
HETATM   17  C13 UNL     1       3.570   1.232   1.044  1.00  0.00     0.048 A 
ENDBRANCH   9  11
ENDBRANCH   7   9
BRANCH   8  18
HETATM   18  C15 UNL     1       1.082  -1.336  -0.560  1.00  0.00     0.033 C 
BRANCH  18  19
HETATM   19  C16 UNL     1       0.121  -0.468  -0.611  1.00  0.00     0.093 C 
BRANCH  19  20
HETATM   20  N4  UNL     1      -1.247  -0.179  -0.480  1.00  0.00    -0.326 N 
HETATM   21  C17 UNL     1      -1.981   0.319  -1.583  1.00  0.00     0.300 C 
HETATM   22  O1  UNL     1      -1.477   0.532  -2.719  1.00  0.00    -0.258 OA
HETATM   23  H12 UNL     1      -1.570  -0.385   0.472  1.00  0.00     0.169 HD
BRANCH  21  24
HETATM   24  C18 UNL     1      -3.370   0.560  -1.282  1.00  0.00    -0.004 C 
HETATM   25  C19 UNL     1      -4.521   0.769  -1.012  1.00  0.00    -0.077 C 
BRANCH  25  26
HETATM   26  C20 UNL     1      -5.944   1.035  -0.652  1.00  0.00     0.211 C 
BRANCH  26  27
HETATM   27  N5  UNL     1      -6.083   0.580   0.698  1.00  0.00    -0.411 N 
HETATM   28  C21 UNL     1      -7.358   0.767   1.302  1.00  0.00     0.143 C 
HETATM   29  C22 UNL     1      -4.947   0.814   1.529  1.00  0.00     0.143 C 
ENDBRANCH  26  27
ENDBRANCH  25  26
ENDBRANCH  21  24
ENDBRANCH  19  20
ENDBRANCH  18  19
ENDBRANCH   8  18
BRANCH   1  30
HETATM   30  C2  UNL     1       1.733  -4.250  -0.087  1.00  0.00     0.022 C 
HETATM   31  C1  UNL     1       0.449  -4.295   0.080  1.00  0.00     0.013 C 
ENDBRANCH   1  30
TORSDOF 9
