REMARK  5 active torsions:
REMARK  status: ('A' for Active; 'I' for Inactive)
REMARK    1  A    between atoms: C2_2  and  C3_3 
REMARK       I    between atoms: C3_3  and  N1_5 
REMARK    2  A    between atoms: N1_5  and  C4_6 
REMARK    3  A    between atoms: C7_9  and  N2_10 
REMARK    4  A    between atoms: N2_10  and  C8_11 
REMARK    5  A    between atoms: C17_24  and  O2_25 
ROOT
HETATM    1  C4  UNL     1       1.816   0.558  -0.859  1.00  0.00     0.069 A 
HETATM    2  C5  UNL     1       0.513   0.151  -0.678  1.00  0.00     0.048 A 
HETATM    3  C6  UNL     1      -0.396   0.825   0.107  1.00  0.00     0.023 A 
HETATM    4  C7  UNL     1      -1.705   0.444   0.308  1.00  0.00     0.067 A 
HETATM    5  C12 UNL     1      -2.491   1.222   1.121  1.00  0.00     0.089 A 
HETATM    6  C13 UNL     1      -3.858   0.904   1.385  1.00  0.00     0.103 C 
HETATM    7  N3  UNL     1      -4.960   0.657   1.616  1.00  0.00    -0.191 NA
HETATM    8  C14 UNL     1      -2.005   2.373   1.741  1.00  0.00     0.142 A 
HETATM    9  N4  UNL     1      -0.712   2.708   1.514  1.00  0.00    -0.259 NA
HETATM   10  C15 UNL     1       0.081   1.963   0.721  1.00  0.00     0.071 A 
HETATM   11  C16 UNL     1       1.383   2.381   0.548  1.00  0.00     0.071 A 
HETATM   12  C17 UNL     1       2.273   1.699  -0.236  1.00  0.00     0.097 A 
ENDROOT
BRANCH   4  13
HETATM   13  N2  UNL     1      -2.182  -0.720  -0.325  1.00  0.00    -0.357 N 
HETATM   14  H6  UNL     1      -1.676  -1.360  -0.948  1.00  0.00     0.166 HD
BRANCH  13  15
HETATM   15  C8  UNL     1      -3.449  -1.329  -0.291  1.00  0.00     0.023 A 
HETATM   16  C9  UNL     1      -4.537  -1.254  -1.007  1.00  0.00     0.017 A 
HETATM   17  C10 UNL     1      -5.276  -2.223  -0.217  1.00  0.00     0.102 A 
HETATM   18 BR1  UNL     1      -5.747  -3.856  -1.148  1.00  0.00    -0.085 Br
HETATM   19  C11 UNL     1      -4.038  -2.317   0.593  1.00  0.00     0.125 A 
HETATM   20 BR2  UNL     1      -3.239  -4.094   0.399  1.00  0.00    -0.083 Br
ENDBRANCH  13  15
ENDBRANCH   4  13
BRANCH   1  21
HETATM   21  N1  UNL     1       2.735  -0.151  -1.672  1.00  0.00    -0.321 N 
HETATM   22  C3  UNL     1       3.404  -1.104  -0.877  1.00  0.00     0.245 C 
HETATM   23  O1  UNL     1       3.170  -1.252   0.370  1.00  0.00    -0.268 OA
HETATM   24  H4  UNL     1       3.074  -0.195  -2.658  1.00  0.00     0.169 HD
BRANCH  22  25
HETATM   25  C2  UNL     1       4.441  -2.091  -1.196  1.00  0.00     0.064 C 
HETATM   26  C1  UNL     1       4.477  -2.524   0.055  1.00  0.00     0.017 C 
ENDBRANCH  22  25
ENDBRANCH   1  21
BRANCH  12  27
HETATM   27  O2  UNL     1       3.581   2.123  -0.407  1.00  0.00    -0.354 OA
HETATM   28  C18 UNL     1       4.082   3.283   0.214  1.00  0.00     0.210 C 
ENDBRANCH  12  27
TORSDOF 5
