REMARK  7 active torsions:
REMARK  status: ('A' for Active; 'I' for Inactive)
REMARK    1  A    between atoms: O1_2  and  C2_3 
REMARK    2  A    between atoms: C5_6  and  C6_7 
REMARK    3  A    between atoms: C7_8  and  C8_9 
REMARK    4  A    between atoms: C8_9  and  N1_12 
REMARK    5  A    between atoms: C12_14  and  C13_15 
REMARK    6  A    between atoms: C13_15  and  C14_17 
REMARK    7  A    between atoms: C17_20  and  N2_21 
ROOT
HETATM    1  C2  UNL     1       1.127  -1.263   2.215  1.00  0.00     0.082 A 
HETATM    2  C3  UNL     1       2.273  -0.957   2.906  1.00  0.00     0.039 A 
HETATM    3  C4  UNL     1       3.364  -0.483   2.217  1.00  0.00     0.023 A 
HETATM    4  C5  UNL     1       3.339  -0.307   0.854  1.00  0.00     0.018 A 
HETATM    5  C11 UNL     1       2.146  -0.641   0.248  1.00  0.00     0.039 A 
HETATM    6  C12 UNL     1       0.973  -1.131   0.853  1.00  0.00     0.050 A 
ENDROOT
BRANCH   6   7
HETATM    7  C13 UNL     1      -0.163  -1.351  -0.001  1.00  0.00     0.195 C 
HETATM    8  O2  UNL     1       0.215  -2.129  -0.948  1.00  0.00    -0.287 OA
BRANCH   7   9
HETATM    9  C14 UNL     1      -1.547  -0.926  -0.044  1.00  0.00     0.015 A 
HETATM   10  C15 UNL     1      -2.127  -1.043  -1.312  1.00  0.00     0.018 A 
HETATM   11  C16 UNL     1      -3.453  -0.649  -1.505  1.00  0.00     0.030 A 
HETATM   12  C17 UNL     1      -4.203  -0.145  -0.467  1.00  0.00     0.034 A 
HETATM   13  C23 UNL     1      -3.660  -0.021   0.781  1.00  0.00     0.030 A 
HETATM   14  C24 UNL     1      -2.358  -0.417   0.935  1.00  0.00     0.018 A 
BRANCH  12  15
HETATM   15  N2  UNL     1      -5.546   0.243  -0.713  1.00  0.00    -0.350 N 
HETATM   16  C18 UNL     1      -6.382   0.806   0.286  1.00  0.00     0.133 A 
HETATM   17  C19 UNL     1      -7.640   1.184   0.124  1.00  0.00     0.131 A 
HETATM   18  F1  UNL     1      -8.418   1.719   1.092  1.00  0.00    -0.205 F 
HETATM   19  C20 UNL     1      -8.249   1.019  -1.190  1.00  0.00     0.041 A 
HETATM   20  C21 UNL     1      -7.503   0.499  -2.148  1.00  0.00    -0.004 A 
HETATM   21  C22 UNL     1      -6.105   0.058  -2.046  1.00  0.00     0.156 A 
ENDBRANCH  12  15
ENDBRANCH   7   9
ENDBRANCH   6   7
BRANCH   1  22
HETATM   22  O1  UNL     1       0.016  -1.746   2.881  1.00  0.00    -0.355 OA
HETATM   23  C1  UNL     1       0.087  -1.912   4.278  1.00  0.00     0.210 C 
ENDBRANCH   1  22
BRANCH   4  24
HETATM   24  C6  UNL     1       4.452   0.183   0.094  1.00  0.00    -0.064 C 
HETATM   25  C7  UNL     1       5.381   0.613  -0.551  1.00  0.00    -0.060 C 
BRANCH  25  26
HETATM   26  C8  UNL     1       6.493   1.139  -1.346  1.00  0.00     0.210 C 
HETATM   27  C9  UNL     1       6.210   0.863  -2.807  1.00  0.00     0.063 C 
HETATM   28  C10 UNL     1       6.608   2.617  -1.065  1.00  0.00     0.063 C 
BRANCH  26  29
HETATM   29  N1  UNL     1       7.751   0.525  -0.989  1.00  0.00     0.099 N 
HETATM   30  H12 UNL     1       7.844   0.300   0.021  1.00  0.00     0.315 HD
HETATM   31  H13 UNL     1       8.040  -0.259  -1.612  1.00  0.00     0.315 HD
ENDBRANCH  26  29
ENDBRANCH  25  26
ENDBRANCH   4  24
TORSDOF 7
