REMARK  10 active torsions:
REMARK  status: ('A' for Active; 'I' for Inactive)
REMARK    1  A    between atoms: C2_2  and  N1_4 
REMARK    2  A    between atoms: C2_2  and  C4_5 
REMARK    3  A    between atoms: C5_6  and  C6_7 
REMARK    4  A    between atoms: C10_11  and  C11_12 
REMARK    5  A    between atoms: C11_12  and  C12_14 
REMARK    6  A    between atoms: C12_14  and  C13_15 
REMARK    7  A    between atoms: C14_16  and  C15_18 
REMARK    8  A    between atoms: C15_18  and  C16_19 
REMARK    9  A    between atoms: C16_19  and  N2_20 
REMARK   10  A    between atoms: N2_20  and  C17_21 
ROOT
HETATM    1  C11 UNL     1       0.446   1.075  -1.007  1.00  0.00     0.163 C 
HETATM    2  O1  UNL     1       1.442   1.236  -1.784  1.00  0.00    -0.292 OA
ENDROOT
BRANCH   1   3
HETATM    3  C10 UNL     1      -0.830   0.809  -1.660  1.00  0.00     0.011 A 
HETATM    4  C9  UNL     1      -0.876   0.750  -3.040  1.00  0.00     0.015 A 
HETATM    5  C8  UNL     1      -2.076   0.497  -3.708  1.00  0.00     0.002 A 
HETATM    6  C7  UNL     1      -3.251   0.300  -3.006  1.00  0.00     0.020 A 
HETATM    7  C6  UNL     1      -3.197   0.361  -1.624  1.00  0.00     0.018 A 
HETATM    8  C23 UNL     1      -2.005   0.611  -0.976  1.00  0.00     0.035 A 
BRANCH   7   9
HETATM    9  C5  UNL     1      -4.373   0.167  -0.821  1.00  0.00    -0.064 C 
HETATM   10  C4  UNL     1      -5.367   0.022  -0.134  1.00  0.00    -0.060 C 
BRANCH  10  11
HETATM   11  C2  UNL     1      -6.563  -0.127   0.696  1.00  0.00     0.210 C 
HETATM   12  C1  UNL     1      -7.803  -0.011  -0.168  1.00  0.00     0.063 C 
HETATM   13  C3  UNL     1      -6.608  -1.479   1.376  1.00  0.00     0.063 C 
BRANCH  11  14
HETATM   14  N1  UNL     1      -6.499   0.951   1.682  1.00  0.00     0.099 N 
HETATM   15  H7  UNL     1      -6.792   1.849   1.236  1.00  0.00     0.315 HD
HETATM   16  H8  UNL     1      -7.175   0.743   2.451  1.00  0.00     0.315 HD
ENDBRANCH  11  14
ENDBRANCH  10  11
ENDBRANCH   7   9
ENDBRANCH   1   3
BRANCH   1  17
HETATM   17  C12 UNL     1       0.538   1.147   0.475  1.00  0.00     0.114 C 
BRANCH  17  18
HETATM   18  C13 UNL     1       1.930   1.427   0.881  1.00  0.00     0.018 C 
HETATM   19  C14 UNL     1       2.884   0.842   1.614  1.00  0.00     0.092 C 
HETATM   20  F1  UNL     1       4.083   1.499   1.719  1.00  0.00    -0.211 F 
BRANCH  19  21
HETATM   21  C15 UNL     1       2.668  -0.414   2.309  1.00  0.00     0.089 C 
BRANCH  21  22
HETATM   22  C16 UNL     1       3.440  -1.596   1.852  1.00  0.00     0.126 C 
BRANCH  22  23
HETATM   23  N2  UNL     1       4.864  -1.510   1.870  1.00  0.00    -0.390 N 
HETATM   24  H19 UNL     1       5.344  -1.917   2.722  1.00  0.00     0.159 HD
BRANCH  23  25
HETATM   25  C17 UNL     1       5.754  -0.957   0.919  1.00  0.00     0.028 A 
HETATM   26  C18 UNL     1       5.404  -0.406  -0.307  1.00  0.00     0.032 A 
HETATM   27  C19 UNL     1       6.225   0.137  -1.247  1.00  0.00     0.044 A 
HETATM   28  C20 UNL     1       7.573   0.149  -0.961  1.00  0.00     0.116 A 
HETATM   29  F2  UNL     1       8.425   0.677  -1.864  1.00  0.00    -0.206 F 
HETATM   30  C21 UNL     1       8.004  -0.379   0.236  1.00  0.00     0.044 A 
HETATM   31  C22 UNL     1       7.110  -0.910   1.135  1.00  0.00     0.032 A 
ENDBRANCH  23  25
ENDBRANCH  22  23
ENDBRANCH  21  22
ENDBRANCH  19  21
ENDBRANCH  17  18
ENDBRANCH   1  17
TORSDOF 10
