REMARK  7 active torsions:
REMARK  status: ('A' for Active; 'I' for Inactive)
REMARK    1  A    between atoms: C2_2  and  N1_4 
REMARK    2  A    between atoms: C2_2  and  C4_5 
REMARK    3  A    between atoms: C5_6  and  C6_7 
REMARK    4  A    between atoms: C16_17  and  N2_18 
REMARK    5  A    between atoms: N2_18  and  C17_19 
REMARK    6  A    between atoms: C17_19  and  C18_20 
REMARK    7  A    between atoms: C18_20  and  C19_21 
ROOT
HETATM    1  C6  UNL     1       2.140   0.267   0.446  1.00  0.00     0.018 A 
HETATM    2  C7  UNL     1       1.604  -0.923   0.874  1.00  0.00     0.023 A 
HETATM    3  C8  UNL     1       0.259  -0.856   1.167  1.00  0.00     0.039 A 
HETATM    4  C9  UNL     1      -0.636   0.225   1.096  1.00  0.00     0.081 A 
HETATM    5  C10 UNL     1       0.047   1.363   0.648  1.00  0.00    -0.023 A 
HETATM    6  C11 UNL     1       1.369   1.395   0.335  1.00  0.00     0.030 A 
HETATM    7  C12 UNL     1      -0.604   2.742   0.474  1.00  0.00     0.045 C 
HETATM    8  C13 UNL     1      -2.039   2.379   0.904  1.00  0.00     0.032 C 
HETATM    9  C14 UNL     1      -2.531   1.392  -0.112  1.00  0.00    -0.024 C 
HETATM   10  C15 UNL     1      -2.843   0.119  -0.411  1.00  0.00     0.027 C 
HETATM   11  C16 UNL     1      -2.819  -1.186   0.262  1.00  0.00     0.050 C 
HETATM   12  C20 UNL     1      -2.313  -1.385   1.512  1.00  0.00     0.171 C 
HETATM   13  O1  UNL     1      -2.001  -0.006   1.469  1.00  0.00    -0.320 OA
ENDROOT
BRANCH   1  14
HETATM   14  C5  UNL     1       3.531   0.312   0.113  1.00  0.00    -0.064 C 
HETATM   15  C4  UNL     1       4.702   0.333  -0.154  1.00  0.00    -0.060 C 
BRANCH  15  16
HETATM   16  C2  UNL     1       6.129   0.337  -0.482  1.00  0.00     0.210 C 
HETATM   17  C1  UNL     1       6.287  -0.494  -1.733  1.00  0.00     0.063 C 
HETATM   18  C3  UNL     1       6.656   1.742  -0.625  1.00  0.00     0.063 C 
BRANCH  16  19
HETATM   19  N1  UNL     1       6.898  -0.365   0.556  1.00  0.00     0.099 N 
HETATM   20  H7  UNL     1       7.251   0.394   1.195  1.00  0.00     0.315 HD
HETATM   21  H8  UNL     1       6.256  -0.986   1.100  1.00  0.00     0.315 HD
ENDBRANCH  16  19
ENDBRANCH  15  16
ENDBRANCH   1  14
BRANCH  11  22
HETATM   22  N2  UNL     1      -3.410  -2.224  -0.572  1.00  0.00    -0.388 N 
HETATM   23  H18 UNL     1      -2.798  -2.717  -1.242  1.00  0.00     0.159 HD
BRANCH  22  24
HETATM   24  C17 UNL     1      -4.832  -2.399  -0.304  1.00  0.00     0.122 C 
BRANCH  24  25
HETATM   25  C18 UNL     1      -5.578  -1.175  -0.773  1.00  0.00     0.051 C 
BRANCH  25  26
HETATM   26  C19 UNL     1      -7.076  -1.313  -0.513  1.00  0.00     0.224 C 
HETATM   27  F1  UNL     1      -7.321  -1.476   0.829  1.00  0.00    -0.255 F 
ENDBRANCH  25  26
ENDBRANCH  24  25
ENDBRANCH  22  24
ENDBRANCH  11  22
TORSDOF 7
