REMARK  5 active torsions:
REMARK  status: ('A' for Active; 'I' for Inactive)
REMARK    1  A    between atoms: O1_2  and  C2_3 
REMARK    2  A    between atoms: C6_7  and  N1_8 
REMARK    3  A    between atoms: C8_10  and  C9_11 
REMARK    4  A    between atoms: C9_11  and  C10_13 
REMARK    5  A    between atoms: C13_16  and  N2_17 
ROOT
HETATM    1  C9  UNL     1      -1.366   1.107  -0.664  1.00  0.00     0.170 C 
HETATM    2  O2  UNL     1      -1.615   1.720  -1.734  1.00  0.00    -0.291 OA
ENDROOT
BRANCH   1   3
HETATM    3  C8  UNL     1      -2.458   1.107   0.306  1.00  0.00     0.119 C 
HETATM    4  C2  UNL     1      -2.984  -0.272   0.612  1.00  0.00     0.057 C 
HETATM    5  C3  UNL     1      -3.728  -0.978  -0.263  1.00  0.00     0.033 C 
HETATM    6  C4  UNL     1      -4.165  -0.586  -1.623  1.00  0.00     0.001 C 
HETATM    7  C5  UNL     1      -4.317   0.692  -1.968  1.00  0.00     0.008 C 
HETATM    8  C6  UNL     1      -4.168   2.002  -1.345  1.00  0.00     0.241 C 
HETATM    9  C7  UNL     1      -3.563   2.047   0.005  1.00  0.00     0.058 C 
BRANCH   4  10
HETATM   10  O1  UNL     1      -2.844  -1.078   1.761  1.00  0.00    -0.359 OA
HETATM   11  C1  UNL     1      -3.123  -0.414   2.997  1.00  0.00     0.209 C 
ENDBRANCH   4  10
BRANCH   8  12
HETATM   12  N1  UNL     1      -5.539   2.526  -1.190  1.00  0.00     0.086 N 
HETATM   13  H8  UNL     1      -6.109   1.820  -0.657  1.00  0.00     0.313 HD
HETATM   14  H9  UNL     1      -5.525   3.379  -0.560  1.00  0.00     0.313 HD
ENDBRANCH   8  12
ENDBRANCH   1   3
BRANCH   1  15
HETATM   15  C10 UNL     1      -0.051   0.498  -0.546  1.00  0.00     0.011 A 
HETATM   16  C11 UNL     1       0.807   0.629  -1.625  1.00  0.00     0.017 A 
HETATM   17  C12 UNL     1       2.085   0.063  -1.559  1.00  0.00     0.030 A 
HETATM   18  C13 UNL     1       2.521  -0.624  -0.450  1.00  0.00     0.032 A 
HETATM   19  C19 UNL     1       1.677  -0.757   0.618  1.00  0.00     0.030 A 
HETATM   20  C20 UNL     1       0.417  -0.196   0.548  1.00  0.00     0.017 A 
BRANCH  18  21
HETATM   21  N2  UNL     1       3.822  -1.214  -0.363  1.00  0.00    -0.347 N 
HETATM   22  C14 UNL     1       4.294  -1.877   0.853  1.00  0.00     0.153 C 
HETATM   23  C15 UNL     1       5.788  -1.810   0.956  1.00  0.00    -0.011 C 
HETATM   24  C16 UNL     1       6.606  -1.115   0.144  1.00  0.00    -0.025 C 
HETATM   25  C17 UNL     1       5.948  -0.336  -0.967  1.00  0.00     0.086 C 
HETATM   26  C18 UNL     1       4.797  -1.231  -1.433  1.00  0.00     0.275 C 
HETATM   27  F1  UNL     1       5.361  -2.514  -1.469  1.00  0.00    -0.227 F 
ENDBRANCH  18  21
ENDBRANCH   1  15
TORSDOF 5
