REMARK  7 active torsions:
REMARK  status: ('A' for Active; 'I' for Inactive)
REMARK    1  A    between atoms: O1_2  and  C2_3 
REMARK    2  A    between atoms: C4_5  and  C5_6 
REMARK    3  A    between atoms: C8_10  and  C9_11 
REMARK    4  A    between atoms: C9_11  and  C10_12 
REMARK    5  A    between atoms: C10_12  and  C11_13 
REMARK    6  A    between atoms: C13_15  and  N1_16 
REMARK    7  A    between atoms: N1_16  and  C14_17 
ROOT
HETATM    1  C5  UNL     1      -1.860  -2.536   0.119  1.00  0.00    -0.050 C 
HETATM    2  C6  UNL     1      -1.309  -3.605   0.067  1.00  0.00     0.010 C 
HETATM    3 CL1  UNL     1      -0.507  -5.134  -0.018  1.00  0.00    -0.023 Cl
ENDROOT
BRANCH   1   4
HETATM    4  C4  UNL     1      -2.529  -1.271   0.162  1.00  0.00     0.022 A 
HETATM    5  C3  UNL     1      -3.823  -1.067   0.002  1.00  0.00     0.054 A 
HETATM    6  C2  UNL     1      -4.449   0.271   0.060  1.00  0.00     0.291 A 
HETATM    7  O2  UNL     1      -3.522   1.284   0.297  1.00  0.00    -0.321 OA
HETATM    8  C8  UNL     1      -2.152   1.134   0.474  1.00  0.00     0.051 A 
HETATM    9  C7  UNL     1      -1.703  -0.099   0.405  1.00  0.00     0.052 A 
BRANCH   6  10
HETATM   10  O1  UNL     1      -5.383   0.199   1.119  1.00  0.00    -0.362 OA
HETATM   11  C1  UNL     1      -6.640   0.410   0.555  1.00  0.00     0.205 C 
ENDBRANCH   6  10
BRANCH   8  12
HETATM   12  C9  UNL     1      -1.560   2.447   0.698  1.00  0.00     0.069 C 
BRANCH  12  13
HETATM   13  C10 UNL     1      -0.098   2.539   0.858  1.00  0.00     0.040 C 
BRANCH  13  14
HETATM   14  C11 UNL     1       0.726   2.102  -0.283  1.00  0.00    -0.076 A 
HETATM   15  C12 UNL     1       1.649   1.164  -0.376  1.00  0.00     0.039 A 
HETATM   16  C13 UNL     1       2.518   0.638  -1.408  1.00  0.00     0.070 A 
HETATM   17  S1  UNL     1       2.249   1.450  -2.799  1.00  0.00    -0.106 SA
HETATM   18  C20 UNL     1       1.102   2.608  -2.658  1.00  0.00     0.072 A 
HETATM   19  C21 UNL     1       0.325   2.958  -1.438  1.00  0.00     0.051 A 
BRANCH  16  20
HETATM   20  N1  UNL     1       3.444  -0.401  -1.270  1.00  0.00    -0.348 N 
HETATM   21  H12 UNL     1       3.891  -0.506  -2.225  1.00  0.00     0.166 HD
BRANCH  20  22
HETATM   22  C14 UNL     1       3.991  -1.340  -0.377  1.00  0.00     0.072 A 
HETATM   23  C15 UNL     1       3.543  -1.584   0.897  1.00  0.00     0.036 A 
HETATM   24  C16 UNL     1       4.072  -2.480   1.799  1.00  0.00     0.044 A 
HETATM   25  C17 UNL     1       5.156  -3.170   1.315  1.00  0.00     0.119 A 
HETATM   26  F1  UNL     1       5.768  -4.082   2.109  1.00  0.00    -0.206 F 
HETATM   27  C18 UNL     1       5.695  -3.014   0.062  1.00  0.00     0.086 A 
HETATM   28  C19 UNL     1       5.091  -2.096  -0.754  1.00  0.00     0.145 A 
HETATM   29  F2  UNL     1       5.655  -1.961  -2.002  1.00  0.00    -0.204 F 
ENDBRANCH  20  22
ENDBRANCH  16  20
ENDBRANCH  13  14
ENDBRANCH  12  13
ENDBRANCH   8  12
ENDBRANCH   1   4
TORSDOF 7
