REMARK  8 active torsions:
REMARK  status: ('A' for Active; 'I' for Inactive)
REMARK    1  A    between atoms: C2_2  and  N1_3 
REMARK    2  A    between atoms: N1_3  and  C3_4 
REMARK    3  A    between atoms: C3_4  and  C4_5 
REMARK    4  A    between atoms: C4_5  and  C5_6 
REMARK       I    between atoms: C5_6  and  N2_8 
REMARK    5  A    between atoms: N2_8  and  C6_9 
REMARK    6  A    between atoms: C6_9  and  C8_11 
REMARK    7  A    between atoms: C8_11  and  N3_13 
REMARK       I    between atoms: N3_13  and  C10_14 
REMARK    8  A    between atoms: C10_14  and  C11_16 
ROOT
HETATM    1  C8  UNL     1       1.703  -2.288  -0.013  1.00  0.00     0.103 C 
HETATM    2  C9  UNL     1       1.899  -3.728  -0.515  1.00  0.00     0.034 C 
ENDROOT
BRANCH   1   3
HETATM    3  C6  UNL     1       0.753  -2.364   1.142  1.00  0.00     0.102 C 
HETATM    4  C7  UNL     1       1.387  -3.195   2.268  1.00  0.00     0.034 C 
BRANCH   3   5
HETATM    5  N2  UNL     1       0.445  -1.082   1.747  1.00  0.00    -0.355 N 
HETATM    6  C5  UNL     1      -0.948  -0.829   1.867  1.00  0.00     0.219 C 
HETATM    7  O1  UNL     1      -1.974  -1.506   1.547  1.00  0.00    -0.274 OA
HETATM    8  H11 UNL     1       1.081  -0.339   2.098  1.00  0.00     0.162 HD
BRANCH   6   9
HETATM    9  C4  UNL     1      -1.533   0.437   2.469  1.00  0.00     0.132 C 
BRANCH   9  10
HETATM   10  C3  UNL     1      -3.013   0.301   2.385  1.00  0.00     0.278 C 
BRANCH  10  11
HETATM   11  N1  UNL     1      -3.836   1.303   2.902  1.00  0.00     0.083 N 
HETATM   12  H6  UNL     1      -3.605   1.454   3.908  1.00  0.00     0.315 HD
BRANCH  11  13
HETATM   13  C2  UNL     1      -3.819   2.542   2.217  1.00  0.00     0.265 C 
HETATM   14  C1  UNL     1      -2.537   3.274   2.423  1.00  0.00     0.037 C 
ENDBRANCH  11  13
ENDBRANCH  10  11
ENDBRANCH   9  10
ENDBRANCH   6   9
ENDBRANCH   3   5
ENDBRANCH   1   3
BRANCH   1  15
HETATM   15  N3  UNL     1       1.337  -1.407  -1.068  1.00  0.00    -0.351 N 
HETATM   16  C10 UNL     1       2.157  -0.357  -1.567  1.00  0.00     0.251 C 
HETATM   17  O2  UNL     1       3.256  -0.298  -0.956  1.00  0.00    -0.268 OA
HETATM   18  H20 UNL     1       0.382  -1.560  -1.502  1.00  0.00     0.163 HD
BRANCH  16  19
HETATM   19  C11 UNL     1       1.768   0.543  -2.660  1.00  0.00     0.028 A 
HETATM   20  C12 UNL     1       2.656   1.455  -2.985  1.00  0.00    -0.002 A 
HETATM   21  C13 UNL     1       2.427   2.450  -4.070  1.00  0.00     0.111 A 
HETATM   22  C14 UNL     1       1.090   2.202  -4.655  1.00  0.00     0.152 A 
HETATM   23  O3  UNL     1       0.863   3.024  -5.581  1.00  0.00    -0.293 OA
HETATM   24  C15 UNL     1       0.124   1.186  -4.276  1.00  0.00     0.051 A 
HETATM   25  C16 UNL     1       0.487   0.382  -3.289  1.00  0.00     0.020 A 
ENDBRANCH  16  19
ENDBRANCH   1  15
TORSDOF 8
