REMARK  11 active torsions:
REMARK  status: ('A' for Active; 'I' for Inactive)
REMARK    1  A    between atoms: C2_2  and  C3_3 
REMARK    2  A    between atoms: C4_5  and  C5_7 
REMARK    3  A    between atoms: C5_7  and  N1_8 
REMARK    4  A    between atoms: N1_8  and  C6_9 
REMARK    5  A    between atoms: C10_15  and  O1_16 
REMARK    6  A    between atoms: C12_18  and  C13_19 
REMARK    7  A    between atoms: C13_19  and  N4_20 
REMARK    8  A    between atoms: N4_20  and  C15_22 
REMARK    9  A    between atoms: C15_22  and  C16_23 
REMARK   10  A    between atoms: C15_22  and  C18_26 
REMARK   11  A    between atoms: C16_23  and  O2_24 
REMARK       I    between atoms: C18_26  and  N5_27 
ROOT
HETATM    1  C6  UNL     1       2.532  -0.706   0.625  1.00  0.00     0.137 A 
HETATM    2  N2  UNL     1       3.650  -0.955   1.381  1.00  0.00    -0.224 NA
HETATM    3  C7  UNL     1       3.797  -0.264   2.538  1.00  0.00     0.235 A 
HETATM    4  N3  UNL     1       2.861   0.655   2.952  1.00  0.00    -0.241 NA
HETATM    5  C8  UNL     1       1.796   0.844   2.169  1.00  0.00     0.074 A 
HETATM    6  C9  UNL     1       0.826   1.717   2.451  1.00  0.00     0.070 A 
HETATM    7  C10 UNL     1      -0.352   2.249   2.028  1.00  0.00     0.078 A 
HETATM    8  C12 UNL     1      -0.484   1.460   0.734  1.00  0.00     0.004 A 
HETATM    9  C19 UNL     1       0.455   0.467   0.238  1.00  0.00     0.029 A 
HETATM   10  C20 UNL     1       1.576   0.203   1.003  1.00  0.00     0.039 A 
ENDROOT
BRANCH   8  11
HETATM   11  C13 UNL     1      -1.592   1.668  -0.314  1.00  0.00     0.314 C 
BRANCH  11  12
HETATM   12  N4  UNL     1      -2.871   1.370   0.223  1.00  0.00     0.104 N 
HETATM   13  C14 UNL     1      -3.920   1.780  -0.758  1.00  0.00     0.311 C 
BRANCH  12  14
HETATM   14  C15 UNL     1      -3.173  -0.015   0.491  1.00  0.00     0.337 C 
BRANCH  14  15
HETATM   15  C16 UNL     1      -3.647  -0.780  -0.718  1.00  0.00     0.212 C 
BRANCH  15  16
HETATM   16  O2  UNL     1      -2.749  -0.835  -1.770  1.00  0.00    -0.393 OA
HETATM   17  C17 UNL     1      -3.379  -1.547  -2.822  1.00  0.00     0.201 C 
ENDBRANCH  15  16
ENDBRANCH  14  15
BRANCH  14  18
HETATM   18  C18 UNL     1      -4.257  -0.098   1.529  1.00  0.00     0.251 C 
HETATM   19  N5  UNL     1      -4.903  -1.205   2.110  1.00  0.00    -0.368 N 
HETATM   20  H23 UNL     1      -4.757  -1.897   2.885  1.00  0.00     0.159 HD
HETATM   21  H24 UNL     1      -5.840  -1.505   1.673  1.00  0.00     0.159 HD
HETATM   22  O3  UNL     1      -4.842   0.876   2.121  1.00  0.00    -0.271 OA
ENDBRANCH  14  18
ENDBRANCH  12  14
ENDBRANCH  11  12
ENDBRANCH   8  11
BRANCH   7  23
HETATM   23  O1  UNL     1      -1.488   2.773   1.636  1.00  0.00    -0.355 OA
HETATM   24  C11 UNL     1      -2.186   3.735   2.376  1.00  0.00     0.210 C 
ENDBRANCH   7  23
BRANCH   1  25
HETATM   25  N1  UNL     1       2.430  -1.453  -0.560  1.00  0.00    -0.368 N 
HETATM   26  H6  UNL     1       1.599  -1.260  -1.136  1.00  0.00     0.161 HD
BRANCH  25  27
HETATM   27  C5  UNL     1       3.057  -2.452  -1.349  1.00  0.00     0.188 C 
BRANCH  27  28
HETATM   28  C4  UNL     1       4.473  -2.088  -1.621  1.00  0.00     0.102 A 
HETATM   29  C3  UNL     1       5.795  -1.978  -1.773  1.00  0.00     0.199 A 
HETATM   30 CL1  UNL     1       7.041  -3.229  -1.727  1.00  0.00    -0.078 Cl
HETATM   31  F1  UNL     1       5.257  -1.017  -1.850  1.00  0.00    -0.340 F 
BRANCH  29  32
HETATM   32  C2  UNL     1       6.048  -0.561  -1.986  1.00  0.00     0.072 C 
HETATM   33  C1  UNL     1       7.327  -0.317  -2.158  1.00  0.00    -0.008 C 
ENDBRANCH  29  32
ENDBRANCH  27  28
ENDBRANCH  25  27
ENDBRANCH   1  25
TORSDOF 11
