REMARK  5 active torsions:
REMARK  status: ('A' for Active; 'I' for Inactive)
REMARK    1  A    between atoms: O1_2  and  C2_3 
REMARK    2  A    between atoms: C5_6  and  O2_7 
REMARK    3  A    between atoms: O2_7  and  S1_8 
REMARK    4  A    between atoms: S1_8  and  C6_11 
REMARK    5  A    between atoms: C9_14  and  C10_15 
ROOT
HETATM    1  S1  UNL     1       0.821  -0.847   0.357  1.00  0.00     0.303 S 
HETATM    2  O3  UNL     1       0.283  -1.149   1.720  1.00  0.00    -0.193 OA
HETATM    3  O4  UNL     1       0.752  -2.035  -0.553  1.00  0.00    -0.193 OA
ENDROOT
BRANCH   1   4
HETATM    4  O2  UNL     1      -0.074   0.450  -0.296  1.00  0.00    -0.229 OA
BRANCH   4   5
HETATM    5  C5  UNL     1      -1.435   0.316  -0.543  1.00  0.00     0.089 A 
HETATM    6  C4  UNL     1      -2.386   0.630   0.413  1.00  0.00     0.041 A 
HETATM    7  C3  UNL     1      -3.727   0.502   0.180  1.00  0.00     0.039 A 
HETATM    8  C2  UNL     1      -4.168   0.046  -1.041  1.00  0.00     0.068 A 
HETATM    9  C14 UNL     1      -3.208  -0.268  -1.998  1.00  0.00     0.039 A 
HETATM   10  C13 UNL     1      -1.851  -0.148  -1.790  1.00  0.00     0.041 A 
BRANCH   8  11
HETATM   11  O1  UNL     1      -5.478  -0.149  -1.462  1.00  0.00    -0.356 OA
HETATM   12  C1  UNL     1      -6.591   0.109  -0.647  1.00  0.00     0.210 C 
ENDBRANCH   8  11
ENDBRANCH   4   5
ENDBRANCH   1   4
BRANCH   1  13
HETATM   13  C6  UNL     1       2.487  -0.387   0.521  1.00  0.00     0.086 A 
HETATM   14  C7  UNL     1       2.904   0.202   1.710  1.00  0.00     0.027 A 
HETATM   15  C8  UNL     1       4.233   0.558   1.814  1.00  0.00     0.016 A 
HETATM   16  C9  UNL     1       5.187   0.377   0.830  1.00  0.00     0.002 A 
HETATM   17  C11 UNL     1       4.752  -0.215  -0.356  1.00  0.00     0.016 A 
HETATM   18  C12 UNL     1       3.427  -0.580  -0.485  1.00  0.00     0.027 A 
BRANCH  16  19
HETATM   19  C10 UNL     1       6.576   0.789   1.033  1.00  0.00     0.269 C 
HETATM   20  O5  UNL     1       6.804   1.306   2.155  1.00  0.00    -0.301 OA
ENDBRANCH  16  19
ENDBRANCH   1  13
TORSDOF 5
