REMARK  4 active torsions:
REMARK  status: ('A' for Active; 'I' for Inactive)
REMARK    1  A    between atoms: C3_3  and  N1_5 
REMARK    2  A    between atoms: N1_5  and  C4_6 
REMARK    3  A    between atoms: C11_15  and  C12_16 
REMARK    4  A    between atoms: C16_22  and  C17_23 
ROOT
HETATM    1  C4  UNL     1      -2.080  -1.001   1.209  1.00  0.00     0.038 C 
HETATM    2  C5  UNL     1      -1.379  -2.041   1.636  1.00  0.00     0.046 C 
HETATM    3  C6  UNL     1      -0.076  -2.679   1.355  1.00  0.00     0.204 C 
HETATM    4  N2  UNL     1      -0.061  -3.406   0.113  1.00  0.00    -0.397 N 
HETATM    5  C7  UNL     1      -1.254  -3.269  -0.674  1.00  0.00     0.135 C 
HETATM    6  C8  UNL     1      -1.123  -2.041  -1.525  1.00  0.00     0.136 C 
HETATM    7  N3  UNL     1      -2.041  -1.006  -1.257  1.00  0.00    -0.402 N 
HETATM    8  C9  UNL     1      -3.334  -1.162  -1.875  1.00  0.00     0.144 C 
HETATM    9  C10 UNL     1      -2.005  -0.254  -0.092  1.00  0.00     0.159 C 
HETATM   10  C11 UNL     1      -0.835   0.697   0.059  1.00  0.00    -0.036 C 
HETATM   11  C14 UNL     1       0.470   0.453   0.105  1.00  0.00     0.045 A 
HETATM   12  C15 UNL     1       1.315  -0.546   0.624  1.00  0.00     0.159 A 
HETATM   13  N4  UNL     1       2.591  -0.166   0.310  1.00  0.00    -0.148 NA
HETATM   14  N5  UNL     1       2.540   0.976  -0.351  1.00  0.00    -0.230 N 
HETATM   15  C16 UNL     1       3.302   1.908  -0.953  1.00  0.00     0.072 A 
HETATM   16  C21 UNL     1       2.512   2.928  -1.493  1.00  0.00     0.035 A 
HETATM   17  C22 UNL     1       1.208   2.594  -1.200  1.00  0.00     0.035 A 
HETATM   18  C23 UNL     1       1.259   1.429  -0.521  1.00  0.00     0.073 A 
HETATM   19  N8  UNL     1       1.040  -1.766   1.349  1.00  0.00    -0.348 N 
HETATM   20  H7  UNL     1       0.312  -4.366   0.161  1.00  0.00     0.155 HD
HETATM   21  H28 UNL     1       1.895  -1.921   1.964  1.00  0.00     0.163 HD
ENDROOT
BRANCH   1  22
HETATM   22  N1  UNL     1      -3.060  -0.521   2.125  1.00  0.00    -0.339 N 
HETATM   23  H4  UNL     1      -3.101  -0.146   3.107  1.00  0.00     0.168 HD
BRANCH  22  24
HETATM   24  C3  UNL     1      -4.442  -0.444   1.836  1.00  0.00     0.140 A 
HETATM   25  C2  UNL     1      -5.803  -0.114   2.217  1.00  0.00     0.056 A 
HETATM   26  C1  UNL     1      -6.127  -0.532   1.020  1.00  0.00     0.209 A 
HETATM   27  O1  UNL     1      -5.129  -0.745   0.798  1.00  0.00    -0.332 OA
ENDBRANCH  22  24
ENDBRANCH   1  22
BRANCH  10  28
HETATM   28  C12 UNL     1      -1.152   2.134   0.170  1.00  0.00     0.033 C 
HETATM   29  C13 UNL     1      -2.153   2.373   1.339  1.00  0.00     0.010 C 
ENDBRANCH  10  28
BRANCH  15  30
HETATM   30  C17 UNL     1       4.760   1.878  -1.045  1.00  0.00     0.029 A 
HETATM   31  C18 UNL     1       5.565   2.819  -1.656  1.00  0.00     0.154 A 
HETATM   32  N6  UNL     1       6.846   2.382  -1.493  1.00  0.00    -0.185 NA
HETATM   33  N7  UNL     1       6.867   1.241  -0.823  1.00  0.00    -0.285 N 
HETATM   34  C19 UNL     1       8.032   0.447  -0.443  1.00  0.00     0.179 C 
HETATM   35  C20 UNL     1       5.603   0.914  -0.539  1.00  0.00     0.127 A 
ENDBRANCH  15  30
TORSDOF 4
