REMARK  9 active torsions:
REMARK  status: ('A' for Active; 'I' for Inactive)
REMARK    1  A    between atoms: C3_3  and  O1_4 
REMARK    2  A    between atoms: C3_3  and  C4_5 
REMARK    3  A    between atoms: C4_5  and  C6_7 
REMARK    4  A    between atoms: C6_7  and  S1_8 
REMARK    5  A    between atoms: S1_8  and  C7_10 
REMARK    6  A    between atoms: C10_13  and  C11_14 
REMARK       I    between atoms: C11_14  and  N1_16 
REMARK    7  A    between atoms: N1_16  and  C12_17 
REMARK    8  A    between atoms: C12_17  and  C13_18 
REMARK    9  A    between atoms: C13_18  and  C14_19 
ROOT
HETATM    1  C7  UNL     1      -1.167   0.244   1.285  1.00  0.00     0.031 A 
HETATM    2  C8  UNL     1      -0.327   1.369   1.286  1.00  0.00     0.022 A 
HETATM    3  C9  UNL     1       0.979   1.355   0.784  1.00  0.00     0.018 A 
HETATM    4  C10 UNL     1       1.491   0.188   0.257  1.00  0.00     0.032 A 
HETATM    5  C16 UNL     1       0.679  -0.930   0.248  1.00  0.00     0.018 A 
HETATM    6  C17 UNL     1      -0.592  -0.884   0.745  1.00  0.00     0.022 A 
ENDROOT
BRANCH   1   7
HETATM    7  S1  UNL     1      -2.699   0.612   1.981  1.00  0.00     0.050 S 
HETATM    8  O2  UNL     1      -3.169  -0.395   2.965  1.00  0.00    -0.253 OA
BRANCH   7   9
HETATM    9  C6  UNL     1      -3.936   1.313   0.981  1.00  0.00     0.125 C 
BRANCH   9  10
HETATM   10  C4  UNL     1      -4.354   0.483  -0.192  1.00  0.00     0.050 C 
HETATM   11  C5  UNL     1      -5.367   1.305  -0.972  1.00  0.00     0.018 C 
BRANCH  10  12
HETATM   12  C3  UNL     1      -4.931  -0.830   0.148  1.00  0.00     0.043 C 
HETATM   13  C2  UNL     1      -6.134  -1.373  -0.080  1.00  0.00     0.001 C 
HETATM   14  C1  UNL     1      -7.492  -1.199  -0.672  1.00  0.00     0.038 C 
BRANCH  12  15
HETATM   15  O1  UNL     1      -3.943  -1.525   0.820  1.00  0.00    -0.365 OA
HETATM   16  H5  UNL     1      -3.561  -2.346   0.369  1.00  0.00     0.217 HD
ENDBRANCH  12  15
ENDBRANCH  10  12
ENDBRANCH   9  10
ENDBRANCH   7   9
ENDBRANCH   1   7
BRANCH   4  17
HETATM   17  C11 UNL     1       2.819  -0.020  -0.308  1.00  0.00     0.251 C 
HETATM   18  O3  UNL     1       3.236  -1.132  -0.784  1.00  0.00    -0.268 OA
HETATM   19  N1  UNL     1       3.808   1.000  -0.394  1.00  0.00    -0.357 N 
HETATM   20  H14 UNL     1       3.508   1.947  -0.010  1.00  0.00     0.162 HD
BRANCH  19  21
HETATM   21  C12 UNL     1       5.129   0.829  -0.945  1.00  0.00     0.123 C 
BRANCH  21  22
HETATM   22  C13 UNL     1       5.960  -0.207  -0.232  1.00  0.00     0.019 C 
BRANCH  22  23
HETATM   23  C14 UNL     1       7.339  -0.316  -0.886  1.00  0.00    -0.003 C 
HETATM   24  C15 UNL     1       8.121  -1.362  -0.134  1.00  0.00     0.005 C 
ENDBRANCH  22  23
ENDBRANCH  21  22
ENDBRANCH  19  21
ENDBRANCH   4  17
TORSDOF 9
