REMARK  5 active torsions:
REMARK  status: ('A' for Active; 'I' for Inactive)
REMARK    1  A    between atoms: C1_2  and  C2_3 
REMARK    2  A    between atoms: C5_6  and  O2_7 
REMARK    3  A    between atoms: O2_7  and  S1_8 
REMARK    4  A    between atoms: S1_8  and  C6_11 
REMARK    5  A    between atoms: C9_14  and  C10_15 
ROOT
HETATM    1  S1  UNL     1       0.403  -0.629  -0.628  1.00  0.00     0.303 S 
HETATM    2  O3  UNL     1       0.051  -0.258  -2.036  1.00  0.00    -0.193 OA
HETATM    3  O4  UNL     1       0.220  -2.111  -0.512  1.00  0.00    -0.193 OA
ENDROOT
BRANCH   1   4
HETATM    4  O2  UNL     1      -0.596   0.231   0.456  1.00  0.00    -0.229 OA
BRANCH   4   5
HETATM    5  C5  UNL     1      -1.963   0.123   0.450  1.00  0.00     0.089 A 
HETATM    6  C4  UNL     1      -2.635  -0.813   1.204  1.00  0.00     0.039 A 
HETATM    7  C3  UNL     1      -4.007  -0.981   1.250  1.00  0.00     0.017 A 
HETATM    8  C2  UNL     1      -4.702  -0.099   0.444  1.00  0.00     0.002 A 
HETATM    9  C14 UNL     1      -4.125   0.879  -0.353  1.00  0.00     0.017 A 
HETATM   10  C13 UNL     1      -2.735   0.973  -0.333  1.00  0.00     0.039 A 
BRANCH   8  11
HETATM   11  C1  UNL     1      -6.158  -0.187   0.415  1.00  0.00     0.269 C 
HETATM   12  O1  UNL     1      -7.088   0.421  -0.173  1.00  0.00    -0.301 OA
ENDBRANCH   8  11
ENDBRANCH   4   5
ENDBRANCH   1   4
BRANCH   1  13
HETATM   13  C6  UNL     1       2.076  -0.236  -0.256  1.00  0.00     0.086 A 
HETATM   14  C7  UNL     1       2.820  -0.969   0.653  1.00  0.00     0.027 A 
HETATM   15  C8  UNL     1       4.114  -0.690   0.961  1.00  0.00     0.016 A 
HETATM   16  C9  UNL     1       4.726   0.380   0.341  1.00  0.00     0.002 A 
HETATM   17  C11 UNL     1       4.025   1.150  -0.580  1.00  0.00     0.016 A 
HETATM   18  C12 UNL     1       2.702   0.824  -0.863  1.00  0.00     0.027 A 
BRANCH  16  19
HETATM   19  C10 UNL     1       6.129   0.729   0.637  1.00  0.00     0.269 C 
HETATM   20  O5  UNL     1       6.670   1.713   0.057  1.00  0.00    -0.301 OA
ENDBRANCH  16  19
ENDBRANCH   1  13
TORSDOF 5
