REMARK  11 active torsions:
REMARK  status: ('A' for Active; 'I' for Inactive)
REMARK    1  A    between atoms: C2_2  and  C3_3 
REMARK       I    between atoms: C3_3  and  N1_5 
REMARK    2  A    between atoms: N1_5  and  C4_6 
REMARK    3  A    between atoms: C4_6  and  C14_19 
REMARK    4  A    between atoms: C5_7  and  C6_8 
REMARK    5  A    between atoms: C6_8  and  C7_9 
REMARK    6  A    between atoms: C8_10  and  C9_11 
REMARK    7  A    between atoms: C9_11  and  C10_12 
REMARK    8  A    between atoms: C10_12  and  N2_13 
REMARK    9  A    between atoms: C14_19  and  N4_20 
REMARK   10  A    between atoms: N4_20  and  C15_21 
REMARK   11  A    between atoms: C18_25  and  N5_26 
ROOT
HETATM    1  C4  UNL     1      -0.336   0.031  -0.108  1.00  0.00     0.026 C 
HETATM    2  C5  UNL     1      -1.536   0.618  -0.263  1.00  0.00     0.006 C 
ENDROOT
BRANCH   1   3
HETATM    3  N1  UNL     1      -0.322   0.045   1.307  1.00  0.00    -0.326 N 
HETATM    4  C3  UNL     1      -0.271  -1.274   1.837  1.00  0.00     0.244 C 
HETATM    5  O1  UNL     1      -0.244  -2.267   1.088  1.00  0.00    -0.268 OA
HETATM    6  H4  UNL     1      -0.332   0.847   1.970  1.00  0.00     0.169 HD
BRANCH   4   7
HETATM    7  C2  UNL     1      -0.246  -1.566   3.266  1.00  0.00     0.064 C 
HETATM    8  C1  UNL     1      -0.206  -2.842   2.921  1.00  0.00     0.017 C 
ENDBRANCH   4   7
ENDBRANCH   1   3
BRANCH   1   9
HETATM    9  C14 UNL     1       0.407  -0.366  -1.299  1.00  0.00     0.171 C 
BRANCH   9  10
HETATM   10  N4  UNL     1       1.664   0.195  -1.562  1.00  0.00    -0.412 N 
HETATM   11  H19 UNL     1       1.891   0.349  -2.556  1.00  0.00     0.153 HD
BRANCH  10  12
HETATM   12  C15 UNL     1       2.784  -0.117  -0.745  1.00  0.00     0.083 C 
HETATM   13  C16 UNL     1       2.678   0.476   0.600  1.00  0.00     0.051 C 
HETATM   14  C17 UNL     1       4.044   1.038   1.013  1.00  0.00     0.172 C 
HETATM   15  O2  UNL     1       4.945   0.013   0.815  1.00  0.00    -0.357 OA
HETATM   16  C18 UNL     1       5.287   0.039  -0.531  1.00  0.00     0.359 C 
HETATM   17  C21 UNL     1       4.102   0.118  -1.440  1.00  0.00     0.089 C 
BRANCH  16  18
HETATM   18  N5  UNL     1       6.044  -1.170  -0.797  1.00  0.00     0.108 N 
HETATM   19  C19 UNL     1       7.158  -1.162   0.118  1.00  0.00     0.312 C 
HETATM   20  C20 UNL     1       6.519  -1.248  -2.140  1.00  0.00     0.312 C 
ENDBRANCH  16  18
ENDBRANCH  10  12
ENDBRANCH   9  10
ENDBRANCH   1   9
BRANCH   2  21
HETATM   21  C6  UNL     1      -2.591   1.147   0.607  1.00  0.00     0.088 C 
BRANCH  21  22
HETATM   22  C7  UNL     1      -3.893   0.481   0.408  1.00  0.00     0.039 A 
HETATM   23  C8  UNL     1      -5.067   0.941   0.010  1.00  0.00    -0.053 A 
HETATM   24  C11 UNL     1      -6.316   0.163  -0.155  1.00  0.00     0.041 A 
HETATM   25  C12 UNL     1      -6.181  -1.275   0.216  1.00  0.00     0.051 A 
HETATM   26  C13 UNL     1      -4.818  -1.666   0.644  1.00  0.00     0.090 A 
HETATM   27  N3  UNL     1      -3.776  -0.913   0.741  1.00  0.00    -0.269 NA
BRANCH  23  28
HETATM   28  C9  UNL     1      -5.210   2.367  -0.319  1.00  0.00     0.058 C 
BRANCH  28  29
HETATM   29  C10 UNL     1      -5.614   2.640  -1.752  1.00  0.00     0.163 C 
BRANCH  29  30
HETATM   30  N2  UNL     1      -5.714   4.061  -1.970  1.00  0.00    -0.245 NA
HETATM   31  S1  UNL     1      -5.847   4.993  -0.957  1.00  0.00     0.062 SA
ENDBRANCH  29  30
ENDBRANCH  28  29
ENDBRANCH  23  28
ENDBRANCH  21  22
ENDBRANCH   2  21
TORSDOF 11
