REMARK  4 active torsions:
REMARK  status: ('A' for Active; 'I' for Inactive)
REMARK    1  A    between atoms: O1_2  and  C2_3 
REMARK    2  A    between atoms: C3_4  and  N1_5 
REMARK    3  A    between atoms: N1_5  and  C4_6 
REMARK    4  A    between atoms: C9_12  and  C10_13 
ROOT
HETATM    1  C4  UNL     1      -0.979   0.606  -0.093  1.00  0.00     0.743 A 
HETATM    2  N2  UNL     1      -1.568   0.895  -1.267  1.00  0.00    -0.071 NA
HETATM    3  C5  UNL     1      -0.839   0.941  -2.421  1.00  0.00     0.168 A 
HETATM    4  C6  UNL     1       0.505   0.670  -2.262  1.00  0.00     0.077 A 
HETATM    5  C7  UNL     1       1.503   0.632  -3.194  1.00  0.00     0.035 A 
HETATM    6  C8  UNL     1       2.699   0.316  -2.567  1.00  0.00     0.035 A 
HETATM    7  C9  UNL     1       2.390   0.165  -1.224  1.00  0.00     0.072 A 
HETATM    8  N5  UNL     1       1.076   0.379  -1.058  1.00  0.00    -0.216 N 
HETATM    9  N6  UNL     1       0.322   0.351   0.016  1.00  0.00     0.027 NA
ENDROOT
BRANCH   1  10
HETATM   10  N1  UNL     1      -1.781   0.570   1.081  1.00  0.00    -0.187 N 
HETATM   11  H4  UNL     1      -1.383   0.352   2.018  1.00  0.00     0.184 HD
BRANCH  10  12
HETATM   12  C3  UNL     1      -3.185   0.831   1.059  1.00  0.00     0.063 A 
HETATM   13  C2  UNL     1      -4.017  -0.129   0.679  1.00  0.00     0.091 A 
HETATM   14  C16 UNL     1      -5.394   0.351   0.731  1.00  0.00     0.035 A 
HETATM   15  C15 UNL     1      -5.357   1.607   1.147  1.00  0.00    -0.018 A 
HETATM   16  C14 UNL     1      -3.962   2.051   1.401  1.00  0.00     0.087 A 
BRANCH  13  17
HETATM   17  O1  UNL     1      -3.409  -1.325   0.331  1.00  0.00    -0.354 OA
HETATM   18  C1  UNL     1      -3.905  -2.604   0.575  1.00  0.00     0.210 C 
ENDBRANCH  13  17
ENDBRANCH  10  12
ENDBRANCH   1  10
BRANCH   7  19
HETATM   19  C10 UNL     1       3.322  -0.172  -0.152  1.00  0.00     0.029 A 
HETATM   20  C11 UNL     1       3.123  -0.348   1.220  1.00  0.00     0.154 A 
HETATM   21  N3  UNL     1       4.296  -0.653   1.804  1.00  0.00    -0.185 NA
HETATM   22  N4  UNL     1       5.239  -0.682   0.879  1.00  0.00    -0.285 N 
HETATM   23  C12 UNL     1       6.635  -0.982   1.166  1.00  0.00     0.179 C 
HETATM   24  C13 UNL     1       4.672  -0.394  -0.311  1.00  0.00     0.127 A 
ENDBRANCH   7  19
TORSDOF 4
