REMARK  10 active torsions:
REMARK  status: ('A' for Active; 'I' for Inactive)
REMARK    1  A    between atoms: C2_2  and  C3_3 
REMARK       I    between atoms: C3_3  and  N1_5 
REMARK    2  A    between atoms: N1_5  and  C4_6 
REMARK    3  A    between atoms: C6_8  and  N2_9 
REMARK    4  A    between atoms: N2_9  and  C7_10 
REMARK    5  A    between atoms: C10_15  and  O2_16 
REMARK    6  A    between atoms: C13_19  and  O3_20 
REMARK    7  A    between atoms: O3_20  and  C14_21 
REMARK    8  A    between atoms: C14_21  and  C15_22 
REMARK    9  A    between atoms: C15_22  and  N5_23 
REMARK   10  A    between atoms: N5_23  and  P1_25 
ROOT
HETATM    1  C4  UNL     1      -0.553   0.844  -0.336  1.00  0.00     0.071 A 
HETATM    2  C5  UNL     1      -1.859   0.407  -0.174  1.00  0.00     0.065 A 
HETATM    3  C6  UNL     1      -2.191  -0.904  -0.420  1.00  0.00     0.085 A 
HETATM    4  C10 UNL     1      -1.167  -1.746  -0.831  1.00  0.00     0.098 A 
HETATM    5  C12 UNL     1       0.110  -1.270  -0.978  1.00  0.00     0.078 A 
HETATM    6  C13 UNL     1       0.490   0.021  -0.745  1.00  0.00     0.098 A 
ENDROOT
BRANCH   6   7
HETATM    7  O3  UNL     1       1.621   0.754  -0.802  1.00  0.00    -0.348 OA
BRANCH   7   8
HETATM    8  C14 UNL     1       2.890   0.367  -1.136  1.00  0.00     0.190 C 
BRANCH   8   9
HETATM    9  C15 UNL     1       3.436  -0.639  -0.165  1.00  0.00     0.120 C 
BRANCH   9  10
HETATM   10  N5  UNL     1       4.780  -0.970  -0.620  1.00  0.00    -0.297 NA
HETATM   11  C16 UNL     1       5.429  -1.932   0.225  1.00  0.00     0.115 C 
BRANCH  10  12
HETATM   12  P1  UNL     1       5.769   0.507  -0.855  1.00  0.00    -0.067 P 
HETATM   13  H21 UNL     1       7.157   0.152  -0.952  1.00  0.00     0.071 HD
HETATM   14  H22 UNL     1       5.520   1.517   0.157  1.00  0.00     0.071 HD
ENDBRANCH  10  12
ENDBRANCH   9  10
ENDBRANCH   8   9
ENDBRANCH   7   8
ENDBRANCH   6   7
BRANCH   1  15
HETATM   15  N1  UNL     1      -0.465   2.247  -0.018  1.00  0.00    -0.321 N 
HETATM   16  C3  UNL     1      -0.187   2.680   1.295  1.00  0.00     0.245 C 
HETATM   17  O1  UNL     1      -0.045   1.683   2.051  1.00  0.00    -0.268 OA
HETATM   18  H4  UNL     1      -0.640   2.772  -0.898  1.00  0.00     0.169 HD
BRANCH  16  19
HETATM   19  C2  UNL     1      -0.133   4.130   1.447  1.00  0.00     0.064 C 
HETATM   20  C1  UNL     1      -0.305   5.057   0.549  1.00  0.00     0.017 C 
ENDBRANCH  16  19
ENDBRANCH   1  15
BRANCH   4  21
HETATM   21  O2  UNL     1      -1.374  -3.076  -1.107  1.00  0.00    -0.354 OA
HETATM   22  C11 UNL     1      -0.372  -3.979  -1.528  1.00  0.00     0.210 C 
ENDBRANCH   4  21
BRANCH   3  23
HETATM   23  N2  UNL     1      -3.473  -1.504  -0.307  1.00  0.00    -0.186 N 
HETATM   24  H6  UNL     1      -3.637  -2.508  -0.538  1.00  0.00     0.184 HD
BRANCH  23  25
HETATM   25  C7  UNL     1      -4.611  -0.769   0.126  1.00  0.00     0.722 A 
HETATM   26  N3  UNL     1      -4.594   0.073   1.131  1.00  0.00    -0.100 NA
HETATM   27  C8  UNL     1      -5.910   0.658   1.317  1.00  0.00     0.216 A 
HETATM   28  C9  UNL     1      -6.696   0.001   0.235  1.00  0.00     0.131 A 
HETATM   29  N4  UNL     1      -5.931  -0.805  -0.426  1.00  0.00    -0.078 NA
ENDBRANCH  23  25
ENDBRANCH   3  23
TORSDOF 10
