REMARK  6 active torsions:
REMARK  status: ('A' for Active; 'I' for Inactive)
REMARK    1  A    between atoms: C2_2  and  C3_3 
REMARK    2  A    between atoms: C3_3  and  C4_5 
REMARK    3  A    between atoms: C8_10  and  O2_11 
REMARK    4  A    between atoms: O2_11  and  C9_12 
REMARK    5  A    between atoms: C9_12  and  C10_13 
REMARK    6  A    between atoms: C10_13  and  N1_14 
ROOT
HETATM    1  C4  UNL     1       1.959   1.101  -2.175  1.00  0.00     0.063 A 
HETATM    2  P1  UNL     1       0.256   1.314  -2.515  1.00  0.00     0.016 P 
HETATM    3  C5  UNL     1      -0.808   0.634  -1.302  1.00  0.00     0.055 A 
HETATM    4  C6  UNL     1      -0.248   0.002  -0.208  1.00  0.00    -0.008 A 
HETATM    5  C7  UNL     1       1.130  -0.022  -0.193  1.00  0.00     0.049 A 
HETATM    6  C8  UNL     1       2.137   0.421  -0.987  1.00  0.00     0.085 A 
HETATM    7  C13 UNL     1      -0.905  -0.651   0.955  1.00  0.00     0.191 C 
HETATM    8  N2  UNL     1      -2.175  -1.214   0.708  1.00  0.00    -0.279 NA
HETATM    9  C14 UNL     1      -3.134  -1.274   1.603  1.00  0.00     0.222 C 
HETATM   10  N3  UNL     1      -4.371  -1.892   1.152  1.00  0.00    -0.268 N 
HETATM   11  C15 UNL     1      -3.960  -3.271   0.839  1.00  0.00     0.181 C 
HETATM   12  N4  UNL     1      -5.698  -1.636   0.938  1.00  0.00    -0.182 NA
HETATM   13  C16 UNL     1      -6.319  -0.602   0.592  1.00  0.00     0.170 C 
HETATM   14  C17 UNL     1      -6.262   0.796   0.223  1.00  0.00     0.077 A 
HETATM   15  C18 UNL     1      -7.135   1.828   0.446  1.00  0.00     0.035 A 
HETATM   16  C19 UNL     1      -6.498   2.897  -0.141  1.00  0.00     0.030 A 
HETATM   17  C20 UNL     1      -5.301   2.586  -0.703  1.00  0.00     0.044 A 
HETATM   18  N5  UNL     1      -5.243   1.283  -0.430  1.00  0.00    -0.235 N 
HETATM   19  N6  UNL     1      -4.110   0.601  -0.825  1.00  0.00    -0.153 NA
HETATM   20  C21 UNL     1      -3.389   1.511  -1.379  1.00  0.00     0.131 A 
HETATM   21  C22 UNL     1      -4.038   2.845  -1.446  1.00  0.00     0.139 A 
HETATM   22  N7  UNL     1      -2.146   0.904  -1.745  1.00  0.00    -0.341 N 
HETATM   23  H26 UNL     1      -2.445   0.579  -2.717  1.00  0.00     0.167 HD
ENDROOT
BRANCH   6  24
HETATM   24  O2  UNL     1       3.510   0.229  -0.681  1.00  0.00    -0.348 OA
BRANCH  24  25
HETATM   25  C9  UNL     1       3.887  -0.451   0.502  1.00  0.00     0.206 C 
BRANCH  25  26
HETATM   26  C10 UNL     1       5.387  -0.499   0.553  1.00  0.00     0.297 C 
BRANCH  26  27
HETATM   27  N1  UNL     1       5.919  -1.170   1.715  1.00  0.00     0.082 N 
HETATM   28  C11 UNL     1       5.648  -2.587   1.708  1.00  0.00     0.309 C 
HETATM   29  C12 UNL     1       5.484  -0.510   2.919  1.00  0.00     0.309 C 
ENDBRANCH  26  27
ENDBRANCH  25  26
ENDBRANCH  24  25
ENDBRANCH   6  24
BRANCH   1  30
HETATM   30  C3  UNL     1       2.915   1.627  -3.119  1.00  0.00     0.185 C 
HETATM   31  O1  UNL     1       2.424   2.202  -4.125  1.00  0.00    -0.287 OA
BRANCH  30  32
HETATM   32  C2  UNL     1       4.345   1.682  -3.242  1.00  0.00     0.045 C 
HETATM   33  C1  UNL     1       5.363   1.268  -2.526  1.00  0.00     0.015 C 
ENDBRANCH  30  32
ENDBRANCH   1  30
TORSDOF 6
