REMARK  5 active torsions:
REMARK  status: ('A' for Active; 'I' for Inactive)
REMARK    1  A    between atoms: O1_2  and  C2_3 
REMARK    2  A    between atoms: C3_4  and  O2_5 
REMARK    3  A    between atoms: O2_5  and  N1_6 
REMARK    4  A    between atoms: N1_6  and  C4_7 
REMARK    5  A    between atoms: C9_13  and  C10_14 
ROOT
HETATM    1  C4  UNL     1       1.329   0.789   0.175  1.00  0.00     0.763 A 
HETATM    2  N2  UNL     1       1.496   2.091   0.596  1.00  0.00    -0.070 NA
HETATM    3  C5  UNL     1       0.438   2.861   0.903  1.00  0.00     0.168 A 
HETATM    4  C6  UNL     1      -0.790   2.296   0.779  1.00  0.00     0.077 A 
HETATM    5  C7  UNL     1      -2.010   2.931   1.048  1.00  0.00     0.035 A 
HETATM    6  C8  UNL     1      -2.976   1.977   0.781  1.00  0.00     0.035 A 
HETATM    7  C9  UNL     1      -2.331   0.818   0.367  1.00  0.00     0.072 A 
HETATM    8  N5  UNL     1      -0.998   1.029   0.374  1.00  0.00    -0.216 N 
HETATM    9  N6  UNL     1       0.077   0.331   0.088  1.00  0.00     0.029 NA
ENDROOT
BRANCH   1  10
HETATM   10  N1  UNL     1       2.542   0.097  -0.103  1.00  0.00    -0.086 N 
HETATM   11  H6  UNL     1       2.656  -0.538   0.719  1.00  0.00     0.214 HD
BRANCH  10  12
HETATM   12  O2  UNL     1       3.493   0.089  -1.126  1.00  0.00    -0.234 OA
BRANCH  12  13
HETATM   13  C3  UNL     1       4.664   0.845  -1.001  1.00  0.00     0.192 C 
HETATM   14  C2  UNL     1       5.740   0.318  -0.452  1.00  0.00     0.160 C 
BRANCH  14  15
HETATM   15  O1  UNL     1       5.313  -0.989  -0.135  1.00  0.00    -0.366 OA
HETATM   16  C1  UNL     1       6.288  -2.020  -0.010  1.00  0.00     0.209 C 
ENDBRANCH  14  15
ENDBRANCH  12  13
ENDBRANCH  10  12
ENDBRANCH   1  10
BRANCH   7  17
HETATM   17  C10 UNL     1      -2.994  -0.431  -0.011  1.00  0.00     0.029 A 
HETATM   18  C11 UNL     1      -2.444  -1.653  -0.430  1.00  0.00     0.154 A 
HETATM   19  N3  UNL     1      -3.497  -2.468  -0.658  1.00  0.00    -0.185 NA
HETATM   20  N4  UNL     1      -4.645  -1.877  -0.424  1.00  0.00    -0.285 N 
HETATM   21  C12 UNL     1      -6.025  -2.336  -0.518  1.00  0.00     0.179 C 
HETATM   22  C13 UNL     1      -4.376  -0.615  -0.022  1.00  0.00     0.127 A 
ENDBRANCH   7  17
TORSDOF 5
