REMARK  12 active torsions:
REMARK  status: ('A' for Active; 'I' for Inactive)
REMARK    1  A    between atoms: C2_2  and  C3_3 
REMARK       I    between atoms: C3_3  and  N1_5 
REMARK    2  A    between atoms: N1_5  and  C4_6 
REMARK    3  A    between atoms: C6_8  and  N2_9 
REMARK    4  A    between atoms: N2_9  and  C7_10 
REMARK    5  A    between atoms: C7_10  and  N3_11 
REMARK    6  A    between atoms: N3_11  and  C8_12 
REMARK    7  A    between atoms: C12_16  and  C13_17 
REMARK    8  A    between atoms: C15_19  and  O2_20 
REMARK    9  A    between atoms: C18_23  and  O3_24 
REMARK   10  A    between atoms: O3_24  and  C19_25 
REMARK   11  A    between atoms: C19_25  and  C20_26 
REMARK   12  A    between atoms: C20_26  and  N4_27 
ROOT
HETATM    1  C4  UNL     1      -0.225  -0.859  -0.227  1.00  0.00     0.070 C 
HETATM    2  C5  UNL     1       0.653   0.031   0.227  1.00  0.00     0.064 C 
HETATM    3  C6  UNL     1       0.657   1.477   0.139  1.00  0.00     0.061 C 
HETATM    4  C15 UNL     1      -0.379   2.223  -0.146  1.00  0.00     0.073 C 
HETATM    5  C16 UNL     1      -1.806   2.014  -0.464  1.00  0.00     0.096 C 
HETATM    6  C17 UNL     1      -2.087   0.658  -1.022  1.00  0.00     0.019 C 
HETATM    7  C18 UNL     1      -1.447  -0.493  -0.921  1.00  0.00     0.092 C 
ENDROOT
BRANCH   3   8
HETATM    8  N2  UNL     1       1.860   2.184   0.359  1.00  0.00    -0.370 N 
HETATM    9  H6  UNL     1       1.765   3.200   0.633  1.00  0.00     0.161 HD
BRANCH   8  10
HETATM   10  C7  UNL     1       3.268   1.740   0.282  1.00  0.00     0.265 C 
BRANCH  10  11
HETATM   11  N3  UNL     1       4.173   2.711   0.577  1.00  0.00    -0.300 NA
BRANCH  11  12
HETATM   12  C8  UNL     1       5.035   3.237   1.569  1.00  0.00     0.053 A 
HETATM   13  C9  UNL     1       5.859   3.370   3.181  1.00  0.00     0.023 A 
HETATM   14  C10 UNL     1       5.666   2.741   4.226  1.00  0.00    -0.016 A 
HETATM   15  C13 UNL     1       5.588   3.668   1.919  1.00  0.00     0.038 A 
HETATM   16  C12 UNL     1       4.595   2.446   2.413  1.00  0.00     0.023 A 
HETATM   17  C11 UNL     1       4.614   1.918   3.713  1.00  0.00    -0.016 A 
HETATM   18  C14 UNL     1       4.790   4.941   1.673  1.00  0.00     0.051 A 
ENDBRANCH  11  12
ENDBRANCH  10  11
ENDBRANCH   8  10
ENDBRANCH   3   8
BRANCH   4  19
HETATM   19  O2  UNL     1      -0.226   3.632  -0.190  1.00  0.00    -0.362 OA
HETATM   20  H15 UNL     1      -0.642   4.113   0.621  1.00  0.00     0.217 HD
ENDBRANCH   4  19
BRANCH   1  21
HETATM   21  N1  UNL     1      -0.042  -2.237  -0.041  1.00  0.00    -0.321 N 
HETATM   22  C3  UNL     1       0.141  -3.241  -1.022  1.00  0.00     0.245 C 
HETATM   23  O1  UNL     1       0.202  -3.219  -2.278  1.00  0.00    -0.268 OA
HETATM   24  H4  UNL     1      -0.086  -2.264   0.981  1.00  0.00     0.169 HD
BRANCH  22  25
HETATM   25  C2  UNL     1       0.296  -4.605  -0.454  1.00  0.00     0.064 C 
HETATM   26  C1  UNL     1       0.271  -5.049   0.826  1.00  0.00     0.017 C 
ENDBRANCH  22  25
ENDBRANCH   1  21
BRANCH   7  27
HETATM   27  O3  UNL     1      -2.162  -1.492  -1.643  1.00  0.00    -0.347 OA
BRANCH  27  28
HETATM   28  C19 UNL     1      -3.116  -2.149  -0.779  1.00  0.00     0.206 C 
BRANCH  28  29
HETATM   29  C20 UNL     1      -4.008  -3.050  -1.546  1.00  0.00     0.297 C 
BRANCH  29  30
HETATM   30  N4  UNL     1      -4.790  -2.387  -2.557  1.00  0.00     0.082 N 
HETATM   31  C21 UNL     1      -5.658  -3.367  -3.176  1.00  0.00     0.309 C 
HETATM   32  C22 UNL     1      -5.475  -1.213  -2.115  1.00  0.00     0.309 C 
ENDBRANCH  29  30
ENDBRANCH  28  29
ENDBRANCH  27  28
ENDBRANCH   7  27
TORSDOF 12
