REMARK  9 active torsions:
REMARK  status: ('A' for Active; 'I' for Inactive)
REMARK       I    between atoms: C2_2  and  N1_4 
REMARK    1  A    between atoms: N1_4  and  C3_5 
REMARK    2  A    between atoms: C3_5  and  O2_6 
REMARK    3  A    between atoms: O2_6  and  C4_7 
REMARK    4  A    between atoms: C6_9  and  N2_10 
REMARK    5  A    between atoms: N2_10  and  C8_12 
REMARK    6  A    between atoms: C8_12  and  C9_13 
REMARK    7  A    between atoms: C9_13  and  N3_14 
REMARK    8  A    between atoms: C14_19  and  N4_20 
REMARK    9  A    between atoms: N4_20  and  C15_21 
ROOT
HETATM    1  C4  UNL     1      -1.196   0.870  -0.397  1.00  0.00     0.100 A 
HETATM    2  C5  UNL     1       0.192   0.982  -0.520  1.00  0.00     0.068 A 
HETATM    3  C6  UNL     1       1.012  -0.125  -0.538  1.00  0.00     0.032 A 
HETATM    4  C12 UNL     1       0.352  -1.321  -0.426  1.00  0.00     0.031 A 
HETATM    5  C13 UNL     1      -0.994  -1.466  -0.306  1.00  0.00     0.035 A 
HETATM    6  C14 UNL     1      -1.822  -0.372  -0.287  1.00  0.00     0.083 A 
ENDROOT
BRANCH   6   7
HETATM    7  N4  UNL     1      -3.234  -0.362  -0.152  1.00  0.00    -0.185 N 
HETATM    8  H23 UNL     1      -3.765   0.538  -0.065  1.00  0.00     0.184 HD
BRANCH   7   9
HETATM    9  C15 UNL     1      -4.011  -1.576  -0.109  1.00  0.00     0.726 C 
HETATM   10  N5  UNL     1      -3.566  -2.381  -1.037  1.00  0.00    -0.074 NA
HETATM   11  C16 UNL     1      -3.981  -3.687  -1.410  1.00  0.00     0.153 C 
HETATM   12  C17 UNL     1      -5.079  -4.415  -1.136  1.00  0.00     0.103 C 
HETATM   13  N6  UNL     1      -6.248  -4.153  -0.364  1.00  0.00    -0.393 N 
HETATM   14  C18 UNL     1      -6.970  -3.045   0.176  1.00  0.00     0.166 C 
HETATM   15  H26 UNL     1      -6.693  -5.094  -0.146  1.00  0.00     0.159 HD
HETATM   16  C19 UNL     1      -6.165  -2.128   1.017  1.00  0.00     0.129 C 
HETATM   17  N7  UNL     1      -5.011  -1.564   0.890  1.00  0.00    -0.077 NA
ENDBRANCH   7   9
ENDBRANCH   6   7
BRANCH   1  18
HETATM   18  O2  UNL     1      -1.966   2.025  -0.386  1.00  0.00    -0.330 OA
BRANCH  18  19
HETATM   19  C3  UNL     1      -1.481   3.323  -0.488  1.00  0.00     0.301 C 
BRANCH  19  20
HETATM   20  N1  UNL     1      -0.570   3.735   0.536  1.00  0.00    -0.340 N 
HETATM   21  C2  UNL     1      -0.150   5.067   0.323  1.00  0.00     0.215 C 
HETATM   22  C1  UNL     1       0.804   5.801   1.213  1.00  0.00     0.117 C 
HETATM   23  O1  UNL     1      -0.635   5.653  -0.703  1.00  0.00    -0.274 OA
HETATM   24  H4  UNL     1      -0.159   3.283   1.378  1.00  0.00     0.164 HD
ENDBRANCH  19  20
ENDBRANCH  18  19
ENDBRANCH   1  18
BRANCH   3  25
HETATM   25  N2  UNL     1       2.437   0.011  -0.659  1.00  0.00    -0.383 N 
HETATM   26  C7  UNL     1       2.846   1.395  -0.743  1.00  0.00     0.149 C 
BRANCH  25  27
HETATM   27  C8  UNL     1       3.355  -1.095  -0.692  1.00  0.00     0.152 C 
BRANCH  27  28
HETATM   28  C9  UNL     1       4.240  -1.237   0.496  1.00  0.00     0.291 C 
BRANCH  28  29
HETATM   29  N3  UNL     1       5.132  -0.148   0.758  1.00  0.00     0.081 N 
HETATM   30  C10 UNL     1       5.832  -0.512   2.012  1.00  0.00     0.309 C 
HETATM   31  C11 UNL     1       6.215  -0.080  -0.224  1.00  0.00     0.309 C 
ENDBRANCH  28  29
ENDBRANCH  27  28
ENDBRANCH  25  27
ENDBRANCH   3  25
TORSDOF 9
