REMARK  4 active torsions:
REMARK  status: ('A' for Active; 'I' for Inactive)
REMARK    1  A    between atoms: C3_3  and  C4_5 
REMARK    2  A    between atoms: C6_7  and  N1_8 
REMARK    3  A    between atoms: N1_8  and  C7_9 
REMARK    4  A    between atoms: C12_15  and  C13_16 
ROOT
HETATM    1  N1  UNL     1      -0.350  -0.686   1.191  1.00  0.00    -0.212 N 
HETATM    2  H6  UNL     1       0.299  -1.164   1.858  1.00  0.00     0.178 HD
ENDROOT
BRANCH   1   3
HETATM    3  C6  UNL     1      -1.741  -0.790   1.426  1.00  0.00     0.151 C 
HETATM    4  C5  UNL     1      -2.295   0.621   1.635  1.00  0.00     0.010 C 
HETATM    5  C4  UNL     1      -3.548   0.932   1.211  1.00  0.00    -0.035 C 
HETATM    6  C23 UNL     1      -4.763   0.747   0.483  1.00  0.00     0.153 C 
HETATM    7  N6  UNL     1      -5.088  -0.098  -0.516  1.00  0.00    -0.416 N 
HETATM    8  C22 UNL     1      -5.177  -1.446  -0.779  1.00  0.00     0.144 C 
HETATM    9  H28 UNL     1      -5.171   0.487  -1.442  1.00  0.00     0.153 HD
HETATM   10  C21 UNL     1      -3.950  -2.230  -1.053  1.00  0.00     0.291 C 
HETATM   11  N5  UNL     1      -2.988  -2.558  -0.011  1.00  0.00     0.088 NA
HETATM   12  C19 UNL     1      -2.610  -1.302   0.426  1.00  0.00     0.301 C 
HETATM   13  C20 UNL     1      -1.964  -3.405  -0.562  1.00  0.00     0.310 C 
BRANCH   5  14
HETATM   14  C3  UNL     1      -3.512   2.355   1.699  1.00  0.00    -0.038 A 
HETATM   15  C2  UNL     1      -4.432   3.486   1.699  1.00  0.00     0.028 A 
HETATM   16  C1  UNL     1      -3.648   4.343   2.299  1.00  0.00     0.011 A 
HETATM   17  O1  UNL     1      -3.000   3.341   2.236  1.00  0.00     0.000 OA
ENDBRANCH   5  14
ENDBRANCH   1   3
BRANCH   1  18
HETATM   18  C7  UNL     1       0.302   0.019   0.112  1.00  0.00     0.740 A 
HETATM   19  N2  UNL     1      -0.425   0.680  -0.839  1.00  0.00    -0.072 NA
HETATM   20  C8  UNL     1       0.220   1.325  -1.827  1.00  0.00     0.168 A 
HETATM   21  C9  UNL     1       1.596   1.337  -1.904  1.00  0.00     0.077 A 
HETATM   22  C10 UNL     1       2.576   1.878  -2.746  1.00  0.00     0.035 A 
HETATM   23  N3  UNL     1       2.250   0.670  -0.941  1.00  0.00    -0.216 N 
HETATM   24  C11 UNL     1       3.814   1.490  -2.220  1.00  0.00     0.034 A 
HETATM   25  C12 UNL     1       3.585   0.736  -1.092  1.00  0.00     0.065 A 
HETATM   26  N4  UNL     1       1.642   0.028   0.040  1.00  0.00     0.026 NA
BRANCH  25  27
HETATM   27  C13 UNL     1       4.682   0.190  -0.304  1.00  0.00    -0.033 C 
HETATM   28  C14 UNL     1       5.938   0.419  -0.659  1.00  0.00    -0.017 C 
HETATM   29  C15 UNL     1       7.035  -0.149   0.164  1.00  0.00     0.028 C 
HETATM   30  C16 UNL     1       6.824  -1.576   0.564  1.00  0.00     0.004 C 
HETATM   31  C17 UNL     1       5.380  -1.880   0.893  1.00  0.00     0.005 C 
HETATM   32  C18 UNL     1       4.529  -0.636   0.922  1.00  0.00     0.040 C 
ENDBRANCH  25  27
ENDBRANCH   1  18
TORSDOF 4
