REMARK  5 active torsions:
REMARK  status: ('A' for Active; 'I' for Inactive)
REMARK    1  A    between atoms: O1_2  and  C2_3 
REMARK    2  A    between atoms: C15_22  and  N6_23 
REMARK    3  A    between atoms: N6_23  and  C17_25 
REMARK    4  A    between atoms: C17_25  and  C18_26 
REMARK    5  A    between atoms: C18_26  and  N7_27 
ROOT
HETATM    1  C2  UNL     1       0.732  -1.889  -1.251  1.00  0.00     0.057 C 
HETATM    2  C3  UNL     1       2.060  -2.000  -1.557  1.00  0.00    -0.039 A 
HETATM    3  C4  UNL     1       3.430  -2.320  -2.032  1.00  0.00     0.053 A 
HETATM    4  C5  UNL     1       3.118  -1.118  -1.111  1.00  0.00     0.075 A 
HETATM    5  C6  UNL     1       3.574  -1.252   0.287  1.00  0.00     0.061 A 
HETATM    6  P1  UNL     1       3.768  -1.902   1.801  1.00  0.00     0.030 P 
HETATM    7  C7  UNL     1       4.764  -0.380   2.047  1.00  0.00     0.105 A 
HETATM    8  C8  UNL     1       5.534   0.562   2.583  1.00  0.00     0.138 C 
HETATM    9  N1  UNL     1       6.215   1.239   1.694  1.00  0.00    -0.057 NA
HETATM   10  C9  UNL     1       5.418   1.873   0.655  1.00  0.00     0.740 C 
HETATM   11  N2  UNL     1       4.713   0.971   0.011  1.00  0.00     0.026 NA
HETATM   12  N3  UNL     1       4.363  -0.188   0.706  1.00  0.00    -0.217 N 
HETATM   13  N4  UNL     1       5.344   3.298   0.364  1.00  0.00    -0.218 N 
HETATM   14  C10 UNL     1       3.969   3.527  -0.135  1.00  0.00     0.167 C 
HETATM   15  C11 UNL     1       3.044   3.221   1.020  1.00  0.00     0.010 C 
HETATM   16  C12 UNL     1       2.169   2.251   0.865  1.00  0.00     0.085 C 
HETATM   17  N5  UNL     1       1.109   1.436   1.344  1.00  0.00    -0.376 N 
HETATM   18  C13 UNL     1      -0.285   1.450   1.538  1.00  0.00     0.085 C 
HETATM   19  C14 UNL     1      -1.065   0.569   0.949  1.00  0.00     0.016 C 
HETATM   20  C15 UNL     1      -0.902  -0.550   0.044  1.00  0.00     0.041 C 
HETATM   21  C21 UNL     1       0.413  -0.747  -0.307  1.00  0.00     0.153 C 
HETATM   22  H7  UNL     1       6.251   3.759   0.579  1.00  0.00     0.178 HD
HETATM   23  H12 UNL     1       1.388   0.465   1.711  1.00  0.00     0.164 HD
ENDROOT
BRANCH  20  24
HETATM   24  N6  UNL     1      -2.329  -0.840   0.027  1.00  0.00    -0.406 N 
HETATM   25  C16 UNL     1      -2.888  -1.647   1.062  1.00  0.00     0.144 C 
BRANCH  24  26
HETATM   26  C17 UNL     1      -3.115  -0.281  -1.052  1.00  0.00     0.147 C 
BRANCH  26  27
HETATM   27  C18 UNL     1      -4.062   0.788  -0.571  1.00  0.00     0.290 C 
BRANCH  27  28
HETATM   28  N7  UNL     1      -5.021   0.322   0.411  1.00  0.00     0.081 N 
HETATM   29  C19 UNL     1      -5.807   1.520   0.763  1.00  0.00     0.309 C 
HETATM   30  C20 UNL     1      -5.933  -0.594  -0.303  1.00  0.00     0.309 C 
ENDBRANCH  27  28
ENDBRANCH  26  27
ENDBRANCH  24  26
ENDBRANCH  20  24
BRANCH   1  31
HETATM   31  O1  UNL     1       0.260  -3.009  -2.047  1.00  0.00    -0.359 OA
HETATM   32  C1  UNL     1      -0.245  -4.064  -1.241  1.00  0.00     0.209 C 
ENDBRANCH   1  31
TORSDOF 5
