REMARK  3 active torsions:
REMARK  status: ('A' for Active; 'I' for Inactive)
REMARK    1  A    between atoms: C2_2  and  N1_3 
REMARK    2  A    between atoms: N1_3  and  C3_4 
REMARK    3  A    between atoms: C10_13  and  N4_14 
ROOT
HETATM    1  C3  UNL     1       1.918  -1.017  -0.164  1.00  0.00     0.138 A 
HETATM    2  N2  UNL     1       1.721  -1.173   1.152  1.00  0.00    -0.241 NA
HETATM    3  C4  UNL     1       0.453  -1.290   1.654  1.00  0.00     0.132 A 
HETATM    4  C5  UNL     1      -0.472  -1.227   0.651  1.00  0.00     0.011 A 
HETATM    5  C6  UNL     1      -0.570  -1.090  -0.703  1.00  0.00     0.032 A 
HETATM    6  C7  UNL     1       0.770  -0.996  -0.880  1.00  0.00     0.028 A 
HETATM    7  C8  UNL     1       0.731  -0.628  -2.290  1.00  0.00     0.126 C 
HETATM    8  N3  UNL     1       0.281   0.502  -2.596  1.00  0.00    -0.293 NA
HETATM    9  C9  UNL     1      -0.237   1.624  -1.990  1.00  0.00     0.229 C 
HETATM   10  C10 UNL     1      -1.054   1.542  -0.749  1.00  0.00     0.150 C 
HETATM   11  N5  UNL     1      -1.701   1.200   0.235  1.00  0.00    -0.152 NA
HETATM   12  N6  UNL     1      -2.141   0.139   0.909  1.00  0.00    -0.243 N 
HETATM   13  C11 UNL     1      -3.356   0.314   1.458  1.00  0.00     0.119 A 
HETATM   14  C12 UNL     1      -3.736  -0.837   2.166  1.00  0.00     0.022 A 
HETATM   15  C13 UNL     1      -2.694  -1.775   2.048  1.00  0.00     0.034 A 
HETATM   16  C14 UNL     1      -1.777  -1.136   1.288  1.00  0.00     0.069 A 
ENDROOT
BRANCH   1  17
HETATM   17  N1  UNL     1       3.084  -0.880  -0.949  1.00  0.00    -0.354 N 
HETATM   18  H4  UNL     1       3.119  -0.774  -1.973  1.00  0.00     0.166 HD
BRANCH  17  19
HETATM   19  C2  UNL     1       4.361  -0.876  -0.363  1.00  0.00     0.063 C 
HETATM   20  C1  UNL     1       4.633   0.185   0.395  1.00  0.00     0.049 C 
ENDBRANCH  17  19
ENDBRANCH   1  17
BRANCH  10  21
HETATM   21  N4  UNL     1      -1.333   2.931  -0.397  1.00  0.00    -0.308 N 
HETATM   22 BR1  UNL     1      -2.226   3.981   0.905  1.00  0.00     0.048 Br
HETATM   23  H10 UNL     1      -1.089   3.896  -0.818  1.00  0.00     0.175 HD
ENDBRANCH  10  21
TORSDOF 3
