REMARK  7 active torsions:
REMARK  status: ('A' for Active; 'I' for Inactive)
REMARK    1  A    between atoms: O1_2  and  C2_3 
REMARK    2  A    between atoms: C4_5  and  N1_6 
REMARK    3  A    between atoms: N1_6  and  C6_8 
REMARK    4  A    between atoms: C6_8  and  C7_9 
REMARK    5  A    between atoms: C7_9  and  N2_10 
REMARK    6  A    between atoms: N4_20  and  C16_21 
REMARK    7  A    between atoms: C21_27  and  C22_28 
ROOT
HETATM    1  C2  UNL     1       0.673  -2.075  -0.978  1.00  0.00     0.266 C 
HETATM    2  C3  UNL     1       1.603  -1.223  -0.188  1.00  0.00     0.052 C 
HETATM    3  C4  UNL     1       1.752  -0.177  -0.944  1.00  0.00     0.012 C 
HETATM    4  C10 UNL     1       1.973   1.107  -1.723  1.00  0.00     0.076 C 
HETATM    5  C11 UNL     1       1.470   0.509  -2.877  1.00  0.00     0.001 C 
HETATM    6  C12 UNL     1       1.317   1.166  -4.223  1.00  0.00     0.120 C 
HETATM    7  N3  UNL     1      -0.144   1.227  -4.475  1.00  0.00    -0.399 N 
HETATM    8  C13 UNL     1      -0.879  -0.019  -4.563  1.00  0.00     0.080 C 
HETATM    9  C14 UNL     1      -1.308  -0.573  -3.385  1.00  0.00     0.010 C 
HETATM   10  C15 UNL     1      -1.280  -0.326  -1.934  1.00  0.00     0.173 C 
HETATM   11  N4  UNL     1      -0.643  -1.417  -1.177  1.00  0.00    -0.179 N 
HETATM   12  H23 UNL     1      -0.945   1.891  -4.636  1.00  0.00     0.158 HD
ENDROOT
BRANCH  11  13
HETATM   13  C16 UNL     1      -1.574  -2.029  -0.229  1.00  0.00     0.744 A 
HETATM   14  N5  UNL     1      -1.595  -3.312   0.156  1.00  0.00    -0.071 NA
HETATM   15  C17 UNL     1      -2.441  -3.832   1.052  1.00  0.00     0.168 A 
HETATM   16  C18 UNL     1      -3.372  -2.971   1.629  1.00  0.00     0.077 A 
HETATM   17  C19 UNL     1      -4.379  -3.171   2.584  1.00  0.00     0.035 A 
HETATM   18  N6  UNL     1      -3.368  -1.682   1.259  1.00  0.00    -0.221 N 
HETATM   19  C20 UNL     1      -4.947  -1.900   2.727  1.00  0.00     0.030 A 
HETATM   20  C21 UNL     1      -4.324  -0.976   1.910  1.00  0.00     0.041 A 
HETATM   21  N7  UNL     1      -2.496  -1.256   0.367  1.00  0.00     0.026 NA
BRANCH  20  22
HETATM   22  C22 UNL     1      -4.668   0.468   1.818  1.00  0.00     0.038 A 
HETATM   23  C23 UNL     1      -5.131   1.083   3.146  1.00  0.00     0.011 A 
HETATM   24  C24 UNL     1      -6.050   0.950   1.977  1.00  0.00     0.011 A 
ENDBRANCH  20  22
ENDBRANCH  11  13
BRANCH   1  25
HETATM   25  O1  UNL     1       0.475  -3.334  -0.467  1.00  0.00    -0.367 OA
HETATM   26  C1  UNL     1       0.902  -4.345  -1.309  1.00  0.00     0.204 C 
ENDBRANCH   1  25
BRANCH   3  27
HETATM   27  N1  UNL     1       2.658   0.443   0.061  1.00  0.00    -0.387 N 
HETATM   28  C5  UNL     1       4.055   0.001  -0.138  1.00  0.00     0.149 C 
BRANCH  27  29
HETATM   29  C6  UNL     1       2.601   1.342   1.200  1.00  0.00     0.152 C 
BRANCH  29  30
HETATM   30  C7  UNL     1       3.330   2.621   0.881  1.00  0.00     0.291 C 
BRANCH  30  31
HETATM   31  N2  UNL     1       3.305   3.535   2.012  1.00  0.00     0.081 N 
HETATM   32  C8  UNL     1       4.081   3.054   3.120  1.00  0.00     0.309 C 
HETATM   33  C9  UNL     1       3.736   4.841   1.636  1.00  0.00     0.309 C 
ENDBRANCH  30  31
ENDBRANCH  29  30
ENDBRANCH  27  29
ENDBRANCH   3  27
TORSDOF 7
