REMARK  2 active torsions:
REMARK  status: ('A' for Active; 'I' for Inactive)
REMARK    1  A    between atoms: O1_2  and  C2_3 
REMARK    2  A    between atoms: N6_25  and  N7_26 
ROOT
HETATM    1  C2  UNL     1      -0.046  -2.774   0.537  1.00  0.00     0.085 C 
HETATM    2  C3  UNL     1       0.968  -3.243  -0.191  1.00  0.00     0.143 C 
HETATM    3  N1  UNL     1       2.283  -3.642  -0.525  1.00  0.00    -0.194 N 
HETATM    4  C4  UNL     1       2.883  -2.302  -0.352  1.00  0.00     0.743 A 
HETATM    5  N2  UNL     1       4.055  -2.779   0.206  1.00  0.00    -0.071 NA
HETATM    6  C5  UNL     1       4.997  -1.982   0.645  1.00  0.00     0.168 A 
HETATM    7  C6  UNL     1       4.866  -0.601   0.575  1.00  0.00     0.077 A 
HETATM    8  C7  UNL     1       5.503   0.503   0.906  1.00  0.00     0.035 A 
HETATM    9  C8  UNL     1       4.781   1.595   0.575  1.00  0.00     0.030 A 
HETATM   10  C9  UNL     1       3.583   1.119  -0.033  1.00  0.00     0.041 A 
HETATM   11  N3  UNL     1       3.691  -0.201   0.004  1.00  0.00    -0.221 N 
HETATM   12  N4  UNL     1       2.765  -1.022  -0.425  1.00  0.00     0.026 NA
HETATM   13  C10 UNL     1       2.650   2.057  -0.582  1.00  0.00     0.088 C 
HETATM   14  C11 UNL     1       1.463   2.439   0.084  1.00  0.00    -0.002 C 
HETATM   15  C12 UNL     1       1.432   3.791   0.598  1.00  0.00     0.112 C 
HETATM   16  N5  UNL     1       0.042   3.517   1.097  1.00  0.00    -0.277 NA
HETATM   17  C13 UNL     1      -0.732   3.781   0.050  1.00  0.00     0.089 C 
HETATM   18  C14 UNL     1      -2.103   3.816  -0.448  1.00  0.00     0.047 C 
HETATM   19  C15 UNL     1      -2.982   2.983   0.438  1.00  0.00     0.005 C 
HETATM   20  C16 UNL     1      -3.882   2.037  -0.217  1.00  0.00     0.002 C 
HETATM   21  C17 UNL     1      -3.397   0.603  -0.446  1.00  0.00     0.022 C 
HETATM   22  C18 UNL     1      -3.101  -0.070   0.838  1.00  0.00     0.147 C 
HETATM   23  N6  UNL     1      -2.823  -1.548   0.782  1.00  0.00    -0.310 N 
HETATM   24  C19 UNL     1      -1.782  -1.789   1.813  1.00  0.00     0.112 C 
HETATM   25  C20 UNL     1      -0.524  -2.304   1.788  1.00  0.00     0.057 C 
HETATM   26  H5  UNL     1       2.629  -4.598  -0.802  1.00  0.00     0.183 HD
ENDROOT
BRANCH  23  27
HETATM   27  N7  UNL     1      -3.682  -1.871  -0.141  1.00  0.00    -0.343 N 
HETATM   28  H24 UNL     1      -3.514  -1.724  -1.123  1.00  0.00     0.177 HD
HETATM   29  H25 UNL     1      -4.360  -2.607   0.074  1.00  0.00     0.177 HD
ENDBRANCH  23  27
BRANCH   1  30
HETATM   30  O1  UNL     1      -1.124  -2.846  -0.275  1.00  0.00    -0.355 OA
HETATM   31  C1  UNL     1      -1.481  -4.214  -0.656  1.00  0.00     0.210 C 
ENDBRANCH   1  30
TORSDOF 2
