REMARK  3 active torsions:
REMARK  status: ('A' for Active; 'I' for Inactive)
REMARK    1  A    between atoms: C2_2  and  C3_3 
REMARK       I    between atoms: C3_3  and  N1_5 
REMARK    2  A    between atoms: N1_5  and  C4_6 
REMARK    3  A    between atoms: C11_15  and  C12_16 
ROOT
HETATM    1  C4  UNL     1       2.309  -0.451   0.817  1.00  0.00     0.081 A 
HETATM    2  C5  UNL     1       3.190  -1.226   0.171  1.00  0.00     0.118 A 
HETATM    3  N2  UNL     1       2.661  -1.787  -1.084  1.00  0.00    -0.350 N 
HETATM    4  C6  UNL     1       1.474  -1.810  -1.928  1.00  0.00     0.284 A 
HETATM    5  N3  UNL     1       0.914  -1.111  -1.198  1.00  0.00    -0.233 N 
HETATM    6  C7  UNL     1       1.209  -0.531  -0.068  1.00  0.00     0.108 A 
HETATM    7  C8  UNL     1      -0.067  -0.025  -0.184  1.00  0.00     0.084 A 
HETATM    8  C9  UNL     1      -0.706   0.834   0.682  1.00  0.00     0.036 A 
HETATM    9  C10 UNL     1      -1.901   0.897  -0.072  1.00  0.00     0.029 A 
HETATM   10  C11 UNL     1      -1.828   0.101  -1.249  1.00  0.00     0.035 A 
HETATM   11  N4  UNL     1      -0.578  -0.554  -1.367  1.00  0.00    -0.254 N 
HETATM   12  N5  UNL     1       0.223  -1.356  -2.078  1.00  0.00    -0.067 NA
HETATM   13  H6  UNL     1       3.023  -2.424  -1.862  1.00  0.00     0.163 HD
ENDROOT
BRANCH   1  14
HETATM   14  N1  UNL     1       2.063   0.366   1.883  1.00  0.00    -0.320 N 
HETATM   15  C3  UNL     1       1.232  -0.260   2.883  1.00  0.00     0.245 C 
HETATM   16  O1  UNL     1       0.675  -1.375   3.017  1.00  0.00    -0.268 OA
HETATM   17  H4  UNL     1       2.404   1.338   2.027  1.00  0.00     0.169 HD
BRANCH  15  18
HETATM   18  C2  UNL     1       0.934   0.594   4.064  1.00  0.00     0.064 C 
HETATM   19  C1  UNL     1       0.824   1.546   4.984  1.00  0.00     0.017 C 
ENDBRANCH  15  18
ENDBRANCH   1  14
BRANCH  10  20
HETATM   20  C12 UNL     1      -2.732  -0.224  -2.335  1.00  0.00     0.037 A 
HETATM   21  C13 UNL     1      -2.984   0.846  -3.401  1.00  0.00     0.011 A 
HETATM   22  C14 UNL     1      -2.142  -0.367  -3.725  1.00  0.00     0.011 A 
ENDBRANCH  10  20
TORSDOF 3
