REMARK  9 active torsions:
REMARK  status: ('A' for Active; 'I' for Inactive)
REMARK    1  A    between atoms: O1_2  and  C2_3 
REMARK    2  A    between atoms: C2_3  and  C3_4 
REMARK    3  A    between atoms: C3_4  and  N1_5 
REMARK    4  A    between atoms: C3_4  and  O2_6 
REMARK    5  A    between atoms: C3_4  and  N2_8 
REMARK    6  A    between atoms: N2_8  and  C6_10 
REMARK    7  A    between atoms: C6_10  and  C7_11 
REMARK    8  A    between atoms: C7_11  and  N3_12 
REMARK    9  A    between atoms: C8_13  and  O3_14 
ROOT
HETATM    1  C7  UNL     1      -0.588   0.587  -0.691  1.00  0.00     0.235 C 
HETATM    2  C8  UNL     1      -1.140   0.042   0.652  1.00  0.00     0.141 C 
HETATM    3  C10 UNL     1      -2.021   0.415   1.552  1.00  0.00     0.047 C 
HETATM    4  C11 UNL     1      -3.038   1.076   2.365  1.00  0.00     0.059 C 
HETATM    5  C12 UNL     1      -3.802   2.173   1.610  1.00  0.00     0.003 C 
HETATM    6  C13 UNL     1      -3.548   1.695   0.371  1.00  0.00     0.115 C 
HETATM    7  N4  UNL     1      -3.618   0.270   0.083  1.00  0.00    -0.245 N 
HETATM    8  N5  UNL     1      -3.983  -0.587   1.165  1.00  0.00    -0.184 NA
HETATM    9  C14 UNL     1      -4.208   0.010   2.332  1.00  0.00     0.121 C 
HETATM   10  C15 UNL     1      -3.137   0.272  -1.246  1.00  0.00     0.068 A 
HETATM   11  C16 UNL     1      -4.116   0.119  -2.179  1.00  0.00     0.032 A 
HETATM   12  C17 UNL     1      -3.848   0.097  -3.528  1.00  0.00     0.004 A 
HETATM   13  C18 UNL     1      -2.505   0.244  -3.890  1.00  0.00     0.024 A 
HETATM   14  C19 UNL     1      -1.532   0.397  -2.943  1.00  0.00     0.045 A 
HETATM   15 CL1  UNL     1       0.008   0.570  -3.712  1.00  0.00    -0.084 Cl
HETATM   16  C20 UNL     1      -1.747   0.425  -1.581  1.00  0.00     0.035 A 
ENDROOT
BRANCH   1  17
HETATM   17  C6  UNL     1       0.660  -0.106  -0.875  1.00  0.00     0.171 C 
BRANCH  17  18
HETATM   18  N2  UNL     1       1.558  -0.001   0.236  1.00  0.00    -0.357 N 
HETATM   19  C5  UNL     1       1.635   1.192   0.961  1.00  0.00     0.148 C 
BRANCH  18  20
HETATM   20  C3  UNL     1       2.826  -0.632  -0.109  1.00  0.00     0.355 C 
BRANCH  20  21
HETATM   21  C2  UNL     1       3.705  -0.946   1.053  1.00  0.00     0.262 C 
BRANCH  21  22
HETATM   22  O1  UNL     1       4.208   0.153   1.744  1.00  0.00    -0.389 OA
HETATM   23  C1  UNL     1       4.991  -0.363   2.784  1.00  0.00     0.201 C 
ENDBRANCH  21  22
ENDBRANCH  20  21
BRANCH  20  24
HETATM   24  N1  UNL     1       2.494  -1.943  -0.678  1.00  0.00     0.137 N 
HETATM   25  H6  UNL     1       2.319  -1.967  -1.665  1.00  0.00     0.319 HD
HETATM   26  H7  UNL     1       1.835  -2.419  -0.081  1.00  0.00     0.319 HD
ENDBRANCH  20  24
BRANCH  20  27
HETATM   27  O2  UNL     1       3.467   0.085  -1.091  1.00  0.00    -0.340 OA
HETATM   28  C4  UNL     1       4.554  -0.560  -1.628  1.00  0.00     0.207 C 
ENDBRANCH  20  27
ENDBRANCH  18  20
ENDBRANCH  17  18
ENDBRANCH   1  17
BRANCH   1  29
HETATM   29  N3  UNL     1      -0.355   2.012  -0.560  1.00  0.00     0.097 N 
HETATM   30  H16 UNL     1      -1.174   2.581  -0.874  1.00  0.00     0.314 HD
HETATM   31  H17 UNL     1       0.507   2.301  -1.105  1.00  0.00     0.314 HD
ENDBRANCH   1  29
BRANCH   2  32
HETATM   32  O3  UNL     1      -1.007  -1.020   1.507  1.00  0.00    -0.378 OA
HETATM   33  C9  UNL     1      -1.173  -2.372   1.242  1.00  0.00     0.202 C 
ENDBRANCH   2  32
TORSDOF 9
