REMARK  3 active torsions:
REMARK  status: ('A' for Active; 'I' for Inactive)
REMARK    1  A    between atoms: O1_2  and  C2_3 
REMARK    2  A    between atoms: C15_21  and  C16_22 
REMARK    3  A    between atoms: C16_22  and  N4_23 
ROOT
HETATM    1  C2  UNL     1       1.932   1.465  -0.873  1.00  0.00     0.077 C 
HETATM    2  C3  UNL     1       1.015   2.277  -0.415  1.00  0.00     0.056 C 
HETATM    3  C4  UNL     1      -0.344   2.553  -0.007  1.00  0.00     0.288 C 
HETATM    4  N1  UNL     1      -1.563   2.739   0.342  1.00  0.00    -0.382 NA
HETATM    5  C5  UNL     1      -2.620   1.813   0.363  1.00  0.00     0.192 C 
HETATM    6  N2  UNL     1      -3.591   1.000   0.209  1.00  0.00    -0.266 NA
HETATM    7  C6  UNL     1      -4.249   0.209   1.204  1.00  0.00     0.272 C 
HETATM    8  N3  UNL     1      -4.166  -1.240   0.958  1.00  0.00    -0.369 N 
HETATM    9  C7  UNL     1      -2.817  -1.691   0.901  1.00  0.00     0.070 A 
HETATM   10  C8  UNL     1      -1.923  -1.315  -0.065  1.00  0.00     0.039 A 
HETATM   11  C9  UNL     1      -0.570  -1.701  -0.119  1.00  0.00    -0.051 A 
HETATM   12  C10 UNL     1      -0.097  -2.526   0.868  1.00  0.00     0.034 A 
HETATM   13  C11 UNL     1      -0.961  -2.933   1.858  1.00  0.00     0.075 A 
HETATM   14 CL1  UNL     1      -0.283  -3.983   3.076  1.00  0.00    -0.081 Cl
HETATM   15  C12 UNL     1      -2.279  -2.520   1.862  1.00  0.00     0.164 A 
HETATM   16  F1  UNL     1      -3.142  -2.913   2.816  1.00  0.00    -0.202 F 
HETATM   17  C13 UNL     1      -0.059  -0.989  -1.282  1.00  0.00     0.066 C 
HETATM   18  C14 UNL     1       1.380  -0.996  -1.539  1.00  0.00    -0.011 C 
HETATM   19  C15 UNL     1       2.111   0.117  -1.330  1.00  0.00    -0.006 C 
HETATM   20  H9  UNL     1      -4.618  -2.158   0.798  1.00  0.00     0.161 HD
ENDROOT
BRANCH  19  21
HETATM   21  C16 UNL     1       3.507  -0.230  -1.700  1.00  0.00     0.223 C 
BRANCH  21  22
HETATM   22  N4  UNL     1       3.698  -1.547  -2.147  1.00  0.00    -0.136 NA
HETATM   23  O2  UNL     1       4.313  -1.811  -3.142  1.00  0.00    -0.067 OA
ENDBRANCH  21  22
ENDBRANCH  19  21
BRANCH   1  24
HETATM   24  O1  UNL     1       3.137   2.212  -0.933  1.00  0.00    -0.355 OA
HETATM   25  C1  UNL     1       3.769   2.638   0.258  1.00  0.00     0.210 C 
ENDBRANCH   1  24
TORSDOF 3
