REMARK  12 active torsions:
REMARK  status: ('A' for Active; 'I' for Inactive)
REMARK    1  A    between atoms: N1_2  and  C3_4 
REMARK    2  A    between atoms: C3_4  and  C4_5 
REMARK    3  A    between atoms: C4_5  and  N2_6 
REMARK    4  A    between atoms: N2_6  and  C6_8 
REMARK    5  A    between atoms: C6_8  and  C7_9 
REMARK    6  A    between atoms: C7_9  and  N3_10 
REMARK       I    between atoms: N3_10  and  C8_11 
REMARK    7  A    between atoms: C8_11  and  C9_13 
REMARK    8  A    between atoms: C9_13  and  C10_14 
REMARK    9  A    between atoms: C10_14  and  C11_15 
REMARK   10  A    between atoms: C11_15  and  N4_16 
REMARK   11  A    between atoms: N4_16  and  C12_17 
REMARK   12  A    between atoms: C12_17  and  N5_18 
ROOT
HETATM    1  N3  UNL     1      -0.646  -0.921   0.939  1.00  0.00    -0.360 N 
HETATM    2  C8  UNL     1       0.358  -0.416   0.091  1.00  0.00     0.217 C 
HETATM    3  O1  UNL     1       0.238  -0.388  -1.152  1.00  0.00    -0.274 OA
HETATM    4  H18 UNL     1      -0.361  -0.863   1.962  1.00  0.00     0.162 HD
ENDROOT
BRANCH   2   5
HETATM    5  C9  UNL     1       1.648   0.130   0.526  1.00  0.00     0.104 C 
BRANCH   5   6
HETATM    6  C10 UNL     1       2.507   0.576  -0.636  1.00  0.00     0.028 C 
BRANCH   6   7
HETATM    7  C11 UNL     1       3.828   1.129  -0.083  1.00  0.00     0.116 C 
BRANCH   7   8
HETATM    8  N4  UNL     1       4.460   0.086   0.645  1.00  0.00    -0.404 N 
HETATM    9  H25 UNL     1       4.890   0.311   1.541  1.00  0.00     0.154 HD
BRANCH   8  10
HETATM   10  C12 UNL     1       4.954  -1.022  -0.089  1.00  0.00     0.265 C 
BRANCH  10  11
HETATM   11  N5  UNL     1       5.974  -0.713  -1.070  1.00  0.00    -0.271 NA
HETATM   12  C13 UNL     1       7.122  -0.246  -0.715  1.00  0.00     0.053 A 
HETATM   13  C14 UNL     1       8.095   0.036  -1.793  1.00  0.00     0.031 A 
HETATM   14  C17 UNL     1       7.810   0.126   0.539  1.00  0.00     0.031 A 
HETATM   15  C15 UNL     1       9.203   0.510  -1.232  1.00  0.00     0.002 A 
HETATM   16  C16 UNL     1       9.027   0.567   0.232  1.00  0.00     0.002 A 
ENDBRANCH  10  11
ENDBRANCH   8  10
ENDBRANCH   7   8
ENDBRANCH   6   7
ENDBRANCH   5   6
ENDBRANCH   2   5
BRANCH   1  17
HETATM   17  C7  UNL     1      -1.920  -1.461   0.510  1.00  0.00     0.142 C 
BRANCH  17  18
HETATM   18  C6  UNL     1      -2.676  -0.376  -0.222  1.00  0.00     0.136 C 
BRANCH  18  19
HETATM   19  N2  UNL     1      -3.926  -0.881  -0.669  1.00  0.00    -0.413 N 
HETATM   20  C5  UNL     1      -4.509  -1.802   0.233  1.00  0.00     0.143 C 
BRANCH  19  21
HETATM   21  C4  UNL     1      -4.785   0.008  -1.357  1.00  0.00     0.146 C 
BRANCH  21  22
HETATM   22  C3  UNL     1      -5.458   1.050  -0.497  1.00  0.00     0.290 C 
BRANCH  22  23
HETATM   23  N1  UNL     1      -6.290   0.483   0.517  1.00  0.00     0.081 N 
HETATM   24  C1  UNL     1      -7.470  -0.180   0.053  1.00  0.00     0.309 C 
HETATM   25  C2  UNL     1      -6.560   1.330   1.637  1.00  0.00     0.309 C 
ENDBRANCH  22  23
ENDBRANCH  21  22
ENDBRANCH  19  21
ENDBRANCH  18  19
ENDBRANCH  17  18
ENDBRANCH   1  17
TORSDOF 12
