REMARK  7 active torsions:
REMARK  status: ('A' for Active; 'I' for Inactive)
REMARK    1  A    between atoms: C2_2  and  C3_3 
REMARK       I    between atoms: C3_3  and  N1_5 
REMARK    2  A    between atoms: N1_5  and  C4_6 
REMARK    3  A    between atoms: C15_20  and  O2_21 
REMARK    4  A    between atoms: C19_25  and  N5_26 
REMARK    5  A    between atoms: N5_26  and  C21_28 
REMARK    6  A    between atoms: C21_28  and  C22_29 
REMARK    7  A    between atoms: C22_29  and  N6_30 
ROOT
HETATM    1  C4  UNL     1       1.044   1.028   0.389  1.00  0.00     0.039 C 
HETATM    2  C5  UNL     1      -0.157   0.738  -0.077  1.00  0.00     0.046 C 
HETATM    3  C6  UNL     1      -0.867  -0.509   0.163  1.00  0.00     0.049 C 
HETATM    4  C7  UNL     1      -2.249  -0.659  -0.167  1.00  0.00     0.182 C 
HETATM    5  N2  UNL     1      -2.933  -1.825   0.054  1.00  0.00    -0.158 NA
HETATM    6  N3  UNL     1      -4.398  -1.738   0.273  1.00  0.00    -0.303 N 
HETATM    7  C8  UNL     1      -5.654  -1.149  -0.245  1.00  0.00     0.127 C 
HETATM    8  C9  UNL     1      -5.440  -0.787  -1.713  1.00  0.00     0.002 C 
HETATM    9  C10 UNL     1      -4.707   0.243  -2.263  1.00  0.00     0.029 C 
HETATM   10  C11 UNL     1      -4.009   0.876  -1.062  1.00  0.00     0.058 C 
HETATM   11  N4  UNL     1      -2.697   0.702  -0.750  1.00  0.00    -0.227 NA
HETATM   12  C12 UNL     1      -4.702   1.718   0.012  1.00  0.00     0.027 C 
HETATM   13  C13 UNL     1      -5.926   1.297   0.520  1.00  0.00    -0.022 C 
HETATM   14  C14 UNL     1      -6.367  -0.157   0.553  1.00  0.00     0.058 C 
HETATM   15  C15 UNL     1      -0.416  -1.659   0.696  1.00  0.00     0.082 C 
HETATM   16  C17 UNL     1       0.937  -1.964   1.183  1.00  0.00     0.036 C 
HETATM   17  C18 UNL     1       1.894  -1.066   1.370  1.00  0.00     0.007 C 
HETATM   18  C19 UNL     1       2.056   0.394   1.216  1.00  0.00     0.152 C 
HETATM   19  H6  UNL     1      -4.706  -2.317   1.125  1.00  0.00     0.183 HD
ENDROOT
BRANCH  15  20
HETATM   20  O2  UNL     1      -1.294  -2.751   0.834  1.00  0.00    -0.355 OA
HETATM   21  C16 UNL     1      -1.079  -3.982   0.138  1.00  0.00     0.210 C 
ENDBRANCH  15  20
BRANCH   1  22
HETATM   22  N1  UNL     1       1.282   2.357  -0.126  1.00  0.00    -0.325 N 
HETATM   23  C3  UNL     1       1.503   3.290   0.922  1.00  0.00     0.244 C 
HETATM   24  O1  UNL     1       1.508   3.078   2.143  1.00  0.00    -0.268 OA
HETATM   25  H4  UNL     1       1.315   2.750  -1.112  1.00  0.00     0.169 HD
BRANCH  23  26
HETATM   26  C2  UNL     1       1.761   4.699   0.558  1.00  0.00     0.064 C 
HETATM   27  C1  UNL     1       1.811   5.192  -0.669  1.00  0.00     0.017 C 
ENDBRANCH  23  26
ENDBRANCH   1  22
BRANCH  18  28
HETATM   28  N5  UNL     1       3.367   0.641   0.724  1.00  0.00    -0.402 N 
HETATM   29  C20 UNL     1       4.427   0.193   1.561  1.00  0.00     0.144 C 
BRANCH  28  30
HETATM   30  C21 UNL     1       3.582   0.419  -0.671  1.00  0.00     0.147 C 
BRANCH  30  31
HETATM   31  C22 UNL     1       3.522  -0.996  -1.139  1.00  0.00     0.288 C 
BRANCH  31  32
HETATM   32  N6  UNL     1       4.495  -1.879  -0.534  1.00  0.00     0.080 N 
HETATM   33  C23 UNL     1       5.796  -1.452  -1.033  1.00  0.00     0.306 C 
HETATM   34  H27 UNL     1       4.269  -2.843  -0.849  1.00  0.00     0.315 HD
ENDBRANCH  31  32
ENDBRANCH  30  31
ENDBRANCH  28  30
ENDBRANCH  18  28
TORSDOF 7
