REMARK  7 active torsions:
REMARK  status: ('A' for Active; 'I' for Inactive)
REMARK    1  A    between atoms: C2_2  and  C3_3 
REMARK    2  A    between atoms: C3_3  and  C4_5 
REMARK    3  A    between atoms: C6_7  and  O2_8 
REMARK    4  A    between atoms: C6_7  and  N1_10 
REMARK    5  A    between atoms: C15_20  and  N4_21 
REMARK    6  A    between atoms: C16_22  and  N5_23 
REMARK    7  A    between atoms: N5_23  and  C18_25 
ROOT
HETATM    1  C4  UNL     1      -0.252   2.124   0.439  1.00  0.00     0.011 C 
HETATM    2  C5  UNL     1       0.763   1.285   0.517  1.00  0.00     0.055 C 
HETATM    3  C6  UNL     1       0.666  -0.193   0.726  1.00  0.00     0.218 C 
HETATM    4  C15 UNL     1      -0.405  -0.936   0.138  1.00  0.00     0.108 C 
HETATM    5  C16 UNL     1      -1.636  -0.556  -0.041  1.00  0.00     0.127 C 
HETATM    6  N6  UNL     1      -2.233   0.683   0.298  1.00  0.00    -0.370 N 
HETATM    7  C20 UNL     1      -1.727   1.999   0.513  1.00  0.00     0.164 C 
HETATM    8  H26 UNL     1      -3.285   0.718   0.439  1.00  0.00     0.161 HD
ENDROOT
BRANCH   3   9
HETATM    9  O2  UNL     1       0.342  -0.132   2.083  1.00  0.00    -0.356 OA
HETATM   10  C7  UNL     1      -0.093  -1.213   2.714  1.00  0.00     0.205 C 
ENDBRANCH   3   9
BRANCH   3  11
HETATM   11  N1  UNL     1       1.999  -0.773   0.667  1.00  0.00    -0.257 N 
HETATM   12  C8  UNL     1       2.640  -1.554   1.703  1.00  0.00     0.295 A 
HETATM   13  N2  UNL     1       4.021  -1.842   1.508  1.00  0.00    -0.278 NA
HETATM   14  C9  UNL     1       4.754  -1.567   0.498  1.00  0.00     0.144 A 
HETATM   15  C10 UNL     1       4.055  -0.854  -0.570  1.00  0.00     0.073 A 
HETATM   16  C11 UNL     1       4.682  -0.514  -1.762  1.00  0.00     0.035 A 
HETATM   17  N3  UNL     1       2.750  -0.481  -0.506  1.00  0.00    -0.257 N 
HETATM   18  C12 UNL     1       3.678   0.109  -2.469  1.00  0.00     0.029 A 
HETATM   19  C13 UNL     1       2.496   0.129  -1.703  1.00  0.00     0.030 A 
HETATM   20  C14 UNL     1       1.256   0.717  -2.211  1.00  0.00     0.070 C 
ENDBRANCH   3  11
BRANCH   4  21
HETATM   21  N4  UNL     1      -0.064  -2.257  -0.302  1.00  0.00    -0.395 N 
HETATM   22  H16 UNL     1      -0.429  -3.167   0.023  1.00  0.00     0.156 HD
HETATM   23  H17 UNL     1       0.647  -2.338  -1.053  1.00  0.00     0.156 HD
ENDBRANCH   4  21
BRANCH   1  24
HETATM   24  C3  UNL     1       0.103   3.547   0.226  1.00  0.00     0.178 C 
HETATM   25  O1  UNL     1       1.303   3.917   0.124  1.00  0.00    -0.288 OA
BRANCH  24  26
HETATM   26  C2  UNL     1      -0.816   4.654   0.111  1.00  0.00     0.045 C 
HETATM   27  C1  UNL     1      -0.195   5.804  -0.078  1.00  0.00     0.015 C 
ENDBRANCH  24  26
ENDBRANCH   1  24
BRANCH   5  28
HETATM   28  N5  UNL     1      -2.520  -1.485  -0.654  1.00  0.00    -0.370 N 
HETATM   29  C17 UNL     1      -2.736  -1.316  -2.078  1.00  0.00     0.151 C 
BRANCH  28  30
HETATM   30  C18 UNL     1      -3.201  -2.559   0.025  1.00  0.00     0.119 C 
HETATM   31  C19 UNL     1      -4.701  -2.327   0.089  1.00  0.00     0.026 C 
ENDBRANCH  28  30
ENDBRANCH   5  28
TORSDOF 7
