REMARK  8 active torsions:
REMARK  status: ('A' for Active; 'I' for Inactive)
REMARK    1  A    between atoms: B1_2  and  C2_3 
REMARK       I    between atoms: C2_3  and  N1_5 
REMARK    2  A    between atoms: N1_5  and  C3_6 
REMARK    3  A    between atoms: C15_22  and  N6_23 
REMARK    4  A    between atoms: N6_23  and  C16_24 
REMARK    5  A    between atoms: N6_23  and  C17_26 
REMARK    6  A    between atoms: C16_24  and  O2_25 
REMARK    7  A    between atoms: C17_26  and  C18_27 
REMARK    8  A    between atoms: C18_27  and  N7_28 
ROOT
HETATM    1  C3  UNL     1      -0.070   1.262  -0.754  1.00  0.00     0.066 C 
HETATM    2  C4  UNL     1       0.648   0.995  -1.864  1.00  0.00     0.145 C 
HETATM    3  N2  UNL     1       1.040  -0.396  -1.954  1.00  0.00    -0.254 N 
HETATM    4  C5  UNL     1       0.659  -1.327  -0.905  1.00  0.00     0.123 C 
HETATM    5  C6  UNL     1      -0.056  -0.871   0.166  1.00  0.00    -0.019 C 
HETATM    6  C7  UNL     1       0.556  -1.658   1.300  1.00  0.00     0.086 C 
HETATM    7  C8  UNL     1       2.058  -1.774   1.123  1.00  0.00     0.116 C 
HETATM    8  N3  UNL     1       2.549  -1.139   0.136  1.00  0.00    -0.183 NA
HETATM    9  N4  UNL     1       3.830  -1.019  -0.324  1.00  0.00    -0.238 N 
HETATM   10  C9  UNL     1       5.007  -0.909   0.305  1.00  0.00     0.033 A 
HETATM   11  C10 UNL     1       5.288  -0.884   1.749  1.00  0.00     0.070 C 
HETATM   12  C11 UNL     1       5.965  -0.817  -0.679  1.00  0.00     0.029 A 
HETATM   13  C12 UNL     1       5.405  -0.867  -1.936  1.00  0.00     0.035 A 
HETATM   14  C13 UNL     1       4.049  -0.996  -1.650  1.00  0.00     0.077 A 
HETATM   15  C14 UNL     1       3.097  -1.079  -2.759  1.00  0.00     0.170 C 
HETATM   16  N5  UNL     1       1.834  -0.858  -3.006  1.00  0.00    -0.179 NA
HETATM   17  C15 UNL     1      -0.992   0.146  -0.376  1.00  0.00     0.307 C 
ENDROOT
BRANCH  17  18
HETATM   18  N6  UNL     1      -2.005   0.485   0.547  1.00  0.00     0.127 N 
BRANCH  18  19
HETATM   19  C16 UNL     1      -2.948   1.461   0.099  1.00  0.00     0.438 C 
BRANCH  19  20
HETATM   20  O2  UNL     1      -3.765   1.818   1.169  1.00  0.00    -0.373 OA
HETATM   21  H18 UNL     1      -3.242   1.895   2.019  1.00  0.00     0.211 HD
ENDBRANCH  19  20
ENDBRANCH  18  19
BRANCH  18  22
HETATM   22  C17 UNL     1      -2.584  -0.655   1.191  1.00  0.00     0.306 C 
BRANCH  22  23
HETATM   23  C18 UNL     1      -3.358  -1.587   0.337  1.00  0.00     0.301 C 
BRANCH  23  24
HETATM   24  N7  UNL     1      -4.526  -1.080  -0.320  1.00  0.00     0.081 N 
HETATM   25  C19 UNL     1      -5.100  -2.108  -1.217  1.00  0.00     0.309 C 
HETATM   26  C20 UNL     1      -5.588  -0.732   0.599  1.00  0.00     0.309 C 
ENDBRANCH  23  24
ENDBRANCH  22  23
ENDBRANCH  18  22
ENDBRANCH  17  18
BRANCH   1  27
HETATM   27  N1  UNL     1       0.098   2.466  -0.073  1.00  0.00    -0.338 N 
HETATM   28  C2  UNL     1       0.944   3.551  -0.391  1.00  0.00     0.162 C 
HETATM   29  O1  UNL     1       1.671   3.502  -1.398  1.00  0.00    -0.289 OA
HETATM   30  H3  UNL     1      -0.451   2.591   0.784  1.00  0.00     0.167 HD
BRANCH  28  31
HETATM   31  B1  UNL     1       0.992   4.997   0.628  1.00  0.00     0.281 B 
HETATM   32  C1  UNL     1       1.311   6.225   1.801  1.00  0.00    -0.081 C 
ENDBRANCH  28  31
ENDBRANCH   1  27
TORSDOF 8
