REMARK  8 active torsions:
REMARK  status: ('A' for Active; 'I' for Inactive)
REMARK    1  A    between atoms: C3_3  and  N1_4 
REMARK    2  A    between atoms: N1_4  and  C4_5 
REMARK    3  A    between atoms: C4_5  and  N2_6 
REMARK    4  A    between atoms: N2_6  and  C6_8 
REMARK    5  A    between atoms: C6_8  and  C8_10 
REMARK    6  A    between atoms: C8_10  and  O1_12 
REMARK    7  A    between atoms: C11_14  and  N3_15 
REMARK    8  A    between atoms: N3_15  and  C12_16 
ROOT
HETATM    1  C1  UNL     1       1.995  -0.318  -1.697  1.00  0.00     0.023 C 
HETATM    2  C2  UNL     1       0.980  -0.724  -0.762  1.00  0.00     0.084 C 
HETATM    3  C3  UNL     1       0.176   0.340  -0.049  1.00  0.00     0.016 C 
HETATM    4  C10 UNL     1       0.800   0.644   1.136  1.00  0.00     0.060 C 
HETATM    5  C11 UNL     1       1.975  -0.217   1.132  1.00  0.00     0.190 A 
HETATM    6  N4  UNL     1       2.477  -0.728   2.393  1.00  0.00    -0.241 NA
HETATM    7  C18 UNL     1       2.357  -2.010   2.380  1.00  0.00     0.230 A 
HETATM    8  N5  UNL     1       1.759  -2.456   1.163  1.00  0.00    -0.245 NA
HETATM    9  C19 UNL     1       1.501  -1.416   0.446  1.00  0.00     0.077 A 
ENDROOT
BRANCH   3  10
HETATM   10  N1  UNL     1      -1.039   0.890  -0.600  1.00  0.00    -0.368 N 
HETATM   11  H5  UNL     1      -0.773   1.831  -1.006  1.00  0.00     0.161 HD
BRANCH  10  12
HETATM   12  C4  UNL     1      -2.420   0.385  -0.666  1.00  0.00     0.395 C 
BRANCH  12  13
HETATM   13  N2  UNL     1      -2.976   0.167   0.611  1.00  0.00     0.108 N 
HETATM   14  C5  UNL     1      -2.155  -0.821   1.331  1.00  0.00     0.312 C 
BRANCH  13  15
HETATM   15  C6  UNL     1      -4.337  -0.184   0.731  1.00  0.00     0.248 C 
HETATM   16  C7  UNL     1      -4.705  -1.434  -0.065  1.00  0.00     0.045 C 
BRANCH  15  17
HETATM   17  C8  UNL     1      -5.367   0.861   0.499  1.00  0.00     0.147 C 
HETATM   18  C9  UNL     1      -5.474   1.365  -0.918  1.00  0.00     0.041 C 
BRANCH  17  19
HETATM   19  O1  UNL     1      -6.619   0.211   0.722  1.00  0.00    -0.394 OA
HETATM   20  H19 UNL     1      -7.275   0.971   0.767  1.00  0.00     0.210 HD
ENDBRANCH  17  19
ENDBRANCH  15  17
ENDBRANCH  13  15
ENDBRANCH  12  13
ENDBRANCH  10  12
ENDBRANCH   3  10
BRANCH   5  21
HETATM   21  N3  UNL     1       3.099   0.493   0.491  1.00  0.00    -0.351 N 
HETATM   22  H21 UNL     1       2.723   1.486   0.372  1.00  0.00     0.163 HD
BRANCH  21  23
HETATM   23  C12 UNL     1       4.453   0.520  -0.024  1.00  0.00     0.071 A 
HETATM   24  C13 UNL     1       5.045   1.667  -0.556  1.00  0.00     0.032 A 
HETATM   25  C14 UNL     1       6.325   1.511  -1.007  1.00  0.00     0.004 A 
HETATM   26  C15 UNL     1       6.981   0.331  -0.946  1.00  0.00     0.027 A 
HETATM   27  C16 UNL     1       6.426  -0.816  -0.429  1.00  0.00     0.074 A 
HETATM   28 CL1  UNL     1       7.433  -2.242  -0.438  1.00  0.00    -0.081 Cl
HETATM   29  C17 UNL     1       5.136  -0.673   0.029  1.00  0.00     0.164 A 
HETATM   30  F1  UNL     1       4.725  -1.872   0.488  1.00  0.00    -0.202 F 
ENDBRANCH  21  23
ENDBRANCH   5  21
TORSDOF 8
