REMARK  10 active torsions:
REMARK  status: ('A' for Active; 'I' for Inactive)
REMARK    1  A    between atoms: C2_2  and  C3_3 
REMARK       I    between atoms: C3_3  and  N1_5 
REMARK    2  A    between atoms: N1_5  and  C4_6 
REMARK    3  A    between atoms: C6_8  and  N2_9 
REMARK    4  A    between atoms: N2_9  and  C7_10 
REMARK    5  A    between atoms: N5_17  and  C12_18 
REMARK    6  A    between atoms: C14_20  and  O2_21 
REMARK    7  A    between atoms: C17_24  and  N6_25 
REMARK    8  A    between atoms: N6_25  and  C19_27 
REMARK    9  A    between atoms: C19_27  and  C20_28 
REMARK   10  A    between atoms: C20_28  and  N7_29 
ROOT
HETATM    1  C4  UNL     1      -0.576  -0.841   0.183  1.00  0.00     0.064 A 
HETATM    2  C5  UNL     1       0.754  -0.647   0.481  1.00  0.00     0.065 A 
HETATM    3  C6  UNL     1       1.187   0.528   1.005  1.00  0.00     0.085 A 
HETATM    4  C14 UNL     1       0.199   1.503   1.213  1.00  0.00     0.097 A 
HETATM    5  C16 UNL     1      -1.131   1.253   0.894  1.00  0.00     0.070 A 
HETATM    6  C17 UNL     1      -1.591   0.068   0.362  1.00  0.00     0.059 A 
ENDROOT
BRANCH   3   7
HETATM    7  N2  UNL     1       2.457   0.981   1.403  1.00  0.00    -0.186 N 
HETATM    8  H6  UNL     1       2.728   1.881   1.829  1.00  0.00     0.184 HD
BRANCH   7   9
HETATM    9  C7  UNL     1       3.594   0.148   1.236  1.00  0.00     0.724 A 
HETATM   10  N3  UNL     1       3.644  -0.681   0.215  1.00  0.00    -0.076 NA
HETATM   11  C8  UNL     1       4.510  -1.608  -0.367  1.00  0.00     0.240 A 
HETATM   12  C9  UNL     1       5.216  -2.606   0.494  1.00  0.00     0.034 A 
HETATM   13  N5  UNL     1       5.908  -1.218  -0.559  1.00  0.00    -0.368 N 
HETATM   14  C10 UNL     1       5.681  -1.420   0.833  1.00  0.00     0.123 A 
HETATM   15  C11 UNL     1       5.842  -0.581   2.059  1.00  0.00     0.148 A 
HETATM   16  N4  UNL     1       4.736   0.144   2.133  1.00  0.00    -0.076 NA
BRANCH  13  17
HETATM   17  C12 UNL     1       6.628  -0.898  -1.813  1.00  0.00     0.116 C 
HETATM   18  C13 UNL     1       6.055   0.398  -2.338  1.00  0.00     0.026 C 
ENDBRANCH  13  17
ENDBRANCH   7   9
ENDBRANCH   3   7
BRANCH   4  19
HETATM   19  O2  UNL     1       0.529   2.746   1.746  1.00  0.00    -0.354 OA
HETATM   20  C15 UNL     1      -0.488   3.694   1.938  1.00  0.00     0.210 C 
ENDBRANCH   4  19
BRANCH   1  21
HETATM   21  N1  UNL     1      -0.827  -2.148  -0.362  1.00  0.00    -0.322 N 
HETATM   22  C3  UNL     1      -1.052  -3.005   0.751  1.00  0.00     0.244 C 
HETATM   23  O1  UNL     1      -1.038  -2.681   1.985  1.00  0.00    -0.268 OA
HETATM   24  H4  UNL     1      -0.916  -2.750  -1.208  1.00  0.00     0.169 HD
BRANCH  22  25
HETATM   25  C2  UNL     1      -1.353  -4.428   0.920  1.00  0.00     0.064 C 
HETATM   26  C1  UNL     1      -1.396  -4.368   2.237  1.00  0.00     0.017 C 
ENDBRANCH  22  25
ENDBRANCH   1  21
BRANCH   6  27
HETATM   27  N6  UNL     1      -2.923  -0.213   0.020  1.00  0.00    -0.382 N 
HETATM   28  C18 UNL     1      -3.746  -1.314   0.496  1.00  0.00     0.150 C 
BRANCH  27  29
HETATM   29  C19 UNL     1      -3.551   0.717  -0.926  1.00  0.00     0.152 C 
BRANCH  29  30
HETATM   30  C20 UNL     1      -4.633   1.505  -0.266  1.00  0.00     0.291 C 
BRANCH  30  31
HETATM   31  N7  UNL     1      -5.305   2.451  -1.115  1.00  0.00     0.081 N 
HETATM   32  C21 UNL     1      -4.406   3.539  -1.480  1.00  0.00     0.309 C 
HETATM   33  C22 UNL     1      -5.897   1.896  -2.296  1.00  0.00     0.309 C 
ENDBRANCH  30  31
ENDBRANCH  29  30
ENDBRANCH  27  29
ENDBRANCH   6  27
TORSDOF 10
