REMARK  5 active torsions:
REMARK  status: ('A' for Active; 'I' for Inactive)
REMARK    1  A    between atoms: C2_2  and  C3_3 
REMARK    2  A    between atoms: C2_2  and  O2_25 
REMARK    3  A    between atoms: C3_3  and  C4_4 
REMARK    4  A    between atoms: C14_17  and  C15_19 
REMARK    5  A    between atoms: N4_22  and  N5_23 
ROOT
HETATM    1  C4  UNL     1       1.215   0.056  -0.146  1.00  0.00    -0.056 C 
HETATM    2  C5  UNL     1       0.867   1.351   0.175  1.00  0.00     0.021 C 
HETATM    3  C6  UNL     1      -0.411   1.875  -0.148  1.00  0.00     0.027 A 
HETATM    4  C7  UNL     1       0.217   2.722  -1.197  1.00  0.00     0.133 A 
HETATM    5  N1  UNL     1      -0.078   3.681  -2.192  1.00  0.00    -0.253 NA
HETATM    6  C8  UNL     1      -1.379   3.999  -2.288  1.00  0.00     0.234 A 
HETATM    7  N2  UNL     1      -2.179   3.328  -1.398  1.00  0.00    -0.224 NA
HETATM    8  C9  UNL     1      -1.657   2.453  -0.540  1.00  0.00     0.137 A 
HETATM    9  N3  UNL     1      -2.879   1.913   0.141  1.00  0.00    -0.359 N 
HETATM   10  C10 UNL     1      -3.300   0.595   0.379  1.00  0.00     0.099 A 
HETATM   11  C11 UNL     1      -2.271  -0.068  -0.378  1.00  0.00     0.052 A 
HETATM   12  C12 UNL     1      -2.700  -1.372  -0.101  1.00  0.00     0.128 A 
HETATM   13  C13 UNL     1      -2.199  -2.645  -0.475  1.00  0.00     0.153 A 
HETATM   14  C14 UNL     1      -3.308  -2.147   0.311  1.00  0.00     0.119 A 
HETATM   15 CL1  UNL     1      -4.423  -3.224   1.055  1.00  0.00    -0.112 Cl
HETATM   16  C15 UNL     1      -3.444  -0.764   0.444  1.00  0.00     0.133 A 
HETATM   17  F1  UNL     1      -4.474  -0.314   1.187  1.00  0.00    -0.241 F 
HETATM   18  O1  UNL     1      -1.001  -2.747  -1.329  1.00  0.00    -0.271 OA
HETATM   19  N4  UNL     1      -0.339  -1.466  -1.462  1.00  0.00    -0.124 NA
HETATM   20  C16 UNL     1       0.831  -1.229  -0.781  1.00  0.00     0.174 C 
HETATM   21  H8  UNL     1      -3.690   2.338   0.587  1.00  0.00     0.162 HD
ENDROOT
BRANCH   1  22
HETATM   22  C3  UNL     1       2.637  -0.132   0.351  1.00  0.00     0.099 C 
BRANCH  22  23
HETATM   23  C2  UNL     1       2.745  -1.172   1.399  1.00  0.00     0.040 C 
HETATM   24  C1  UNL     1       3.320  -2.357   1.579  1.00  0.00     0.046 C 
BRANCH  23  25
HETATM   25  O2  UNL     1       2.075  -0.940   2.630  1.00  0.00    -0.361 OA
HETATM   26  C17 UNL     1       2.807  -0.275   3.663  1.00  0.00     0.209 C 
ENDBRANCH  23  25
ENDBRANCH  22  23
ENDBRANCH   1  22
BRANCH  19  27
HETATM   27  N5  UNL     1      -0.345  -1.186  -2.831  1.00  0.00    -0.245 NA
HETATM   28  H11 UNL     1       0.340  -1.790  -3.341  1.00  0.00     0.139 HD
HETATM   29  H12 UNL     1      -0.034  -0.198  -2.957  1.00  0.00     0.139 HD
ENDBRANCH  19  27
TORSDOF 5
