REMARK  9 active torsions:
REMARK  status: ('A' for Active; 'I' for Inactive)
REMARK    1  A    between atoms: C2_2  and  C3_3 
REMARK       I    between atoms: C3_3  and  N1_5 
REMARK    2  A    between atoms: N1_5  and  C4_6 
REMARK    3  A    between atoms: C6_8  and  N2_9 
REMARK    4  A    between atoms: N2_9  and  N3_10 
REMARK    5  A    between atoms: C13_19  and  O2_20 
REMARK    6  A    between atoms: C16_23  and  N6_24 
REMARK    7  A    between atoms: N6_24  and  C18_26 
REMARK    8  A    between atoms: C18_26  and  C19_27 
REMARK    9  A    between atoms: C19_27  and  N7_28 
ROOT
HETATM    1  C4  UNL     1      -0.443   1.789  -0.799  1.00  0.00     0.064 A 
HETATM    2  C5  UNL     1       0.906   2.083  -0.769  1.00  0.00     0.066 A 
HETATM    3  C6  UNL     1       1.730   1.235  -0.069  1.00  0.00     0.087 A 
HETATM    4  C13 UNL     1       1.186   0.137   0.573  1.00  0.00     0.098 A 
HETATM    5  C15 UNL     1      -0.194  -0.127   0.516  1.00  0.00     0.070 A 
HETATM    6  C16 UNL     1      -1.038   0.716  -0.188  1.00  0.00     0.059 A 
ENDROOT
BRANCH   3   7
HETATM    7  N2  UNL     1       3.164   1.372   0.081  1.00  0.00    -0.260 N 
HETATM    8  H6  UNL     1       3.570   2.191   0.571  1.00  0.00     0.191 HD
BRANCH   7   9
HETATM    9  N3  UNL     1       3.855   0.279  -0.515  1.00  0.00    -0.100 N 
HETATM   10  N4  UNL     1       3.401  -0.193  -1.683  1.00  0.00    -0.145 NA
HETATM   11  C7  UNL     1       4.172  -1.226  -2.097  1.00  0.00     0.174 A 
HETATM   12  C8  UNL     1       5.137  -1.384  -1.132  1.00  0.00     0.079 A 
HETATM   13  C9  UNL     1       6.240  -2.127  -0.742  1.00  0.00     0.035 A 
HETATM   14  N5  UNL     1       4.905  -0.451  -0.195  1.00  0.00    -0.222 N 
HETATM   15  C10 UNL     1       6.631  -1.571   0.470  1.00  0.00     0.029 A 
HETATM   16  C11 UNL     1       5.785  -0.511   0.814  1.00  0.00     0.034 A 
HETATM   17  C12 UNL     1       5.887   0.313   2.033  1.00  0.00     0.070 C 
ENDBRANCH   7   9
ENDBRANCH   3   7
BRANCH   4  18
HETATM   18  O2  UNL     1       2.056  -0.690   1.275  1.00  0.00    -0.354 OA
HETATM   19  C14 UNL     1       1.635  -1.842   1.991  1.00  0.00     0.210 C 
ENDBRANCH   4  18
BRANCH   1  20
HETATM   20  N1  UNL     1      -1.195   2.743  -1.535  1.00  0.00    -0.322 N 
HETATM   21  C3  UNL     1      -1.733   3.834  -0.799  1.00  0.00     0.244 C 
HETATM   22  O1  UNL     1      -1.416   3.790   0.452  1.00  0.00    -0.268 OA
HETATM   23  H4  UNL     1      -1.507   2.997  -2.531  1.00  0.00     0.169 HD
BRANCH  21  24
HETATM   24  C2  UNL     1      -2.536   5.026  -0.912  1.00  0.00     0.064 C 
HETATM   25  C1  UNL     1      -2.701   5.684   0.205  1.00  0.00     0.017 C 
ENDBRANCH  21  24
ENDBRANCH   1  20
BRANCH   6  26
HETATM   26  N6  UNL     1      -2.417   0.409  -0.243  1.00  0.00    -0.382 N 
HETATM   27  C17 UNL     1      -3.423   1.160  -0.944  1.00  0.00     0.150 C 
BRANCH  26  28
HETATM   28  C18 UNL     1      -3.015  -0.729   0.415  1.00  0.00     0.152 C 
BRANCH  28  29
HETATM   29  C19 UNL     1      -3.510  -1.783  -0.571  1.00  0.00     0.291 C 
BRANCH  29  30
HETATM   30  N7  UNL     1      -4.111  -2.897   0.170  1.00  0.00     0.081 N 
HETATM   31  C20 UNL     1      -5.323  -2.467   0.820  1.00  0.00     0.309 C 
HETATM   32  C21 UNL     1      -4.269  -4.000  -0.721  1.00  0.00     0.309 C 
ENDBRANCH  29  30
ENDBRANCH  28  29
ENDBRANCH  26  28
ENDBRANCH   6  26
TORSDOF 9
