REMARK  5 active torsions:
REMARK  status: ('A' for Active; 'I' for Inactive)
REMARK    1  A    between atoms: O1_2  and  C2_3 
REMARK    2  A    between atoms: C4_5  and  N1_6 
REMARK    3  A    between atoms: N1_6  and  C5_7 
REMARK    4  A    between atoms: C5_7  and  C6_8 
REMARK    5  A    between atoms: C6_8  and  N2_9 
ROOT
HETATM    1  C2  UNL     1      -0.181  -3.554   0.666  1.00  0.00     0.078 A 
HETATM    2  C3  UNL     1       0.967  -2.998   0.234  1.00  0.00     0.068 A 
HETATM    3  C4  UNL     1       1.338  -1.681   0.305  1.00  0.00     0.057 A 
HETATM    4  C9  UNL     1       0.453  -0.759   0.886  1.00  0.00     0.055 A 
HETATM    5  C10 UNL     1      -0.721  -1.323   1.331  1.00  0.00     0.043 A 
HETATM    6  C11 UNL     1      -1.070  -2.677   1.241  1.00  0.00    -0.003 A 
HETATM    7  C12 UNL     1      -2.450  -2.872   1.775  1.00  0.00     0.190 C 
HETATM    8  N3  UNL     1      -3.166  -1.564   1.627  1.00  0.00    -0.295 NA
HETATM    9  C13 UNL     1      -3.332  -1.125   0.388  1.00  0.00     0.142 C 
HETATM   10  C14 UNL     1      -4.005   0.145   0.030  1.00  0.00     0.073 A 
HETATM   11  C15 UNL     1      -5.311   0.413   0.375  1.00  0.00     0.035 A 
HETATM   12  C16 UNL     1      -5.656   1.685  -0.067  1.00  0.00     0.029 A 
HETATM   13  C17 UNL     1      -4.509   2.130  -0.675  1.00  0.00     0.030 A 
HETATM   14  C18 UNL     1      -4.555   3.500  -1.267  1.00  0.00     0.070 C 
HETATM   15  N4  UNL     1      -3.519   1.225  -0.626  1.00  0.00    -0.264 N 
HETATM   16  N5  UNL     1      -2.268   1.427  -1.196  1.00  0.00    -0.327 N 
HETATM   17  C19 UNL     1      -1.005   0.852  -0.826  1.00  0.00     0.164 C 
HETATM   18  C20 UNL     1      -0.616   1.350   0.535  1.00  0.00     0.097 C 
HETATM   19  C21 UNL     1      -0.413   2.854   0.510  1.00  0.00     0.034 C 
HETATM   20  N6  UNL     1       0.575   0.669   1.040  1.00  0.00    -0.382 N 
HETATM   21  H25 UNL     1      -2.194   2.092  -2.032  1.00  0.00     0.180 HD
HETATM   22  H32 UNL     1       1.494   0.637   1.470  1.00  0.00     0.160 HD
ENDROOT
BRANCH   3  23
HETATM   23  N1  UNL     1       2.559  -1.068  -0.137  1.00  0.00    -0.386 N 
HETATM   24  H5  UNL     1       2.997  -1.965  -0.530  1.00  0.00     0.159 HD
BRANCH  23  25
HETATM   25  C5  UNL     1       3.731  -0.479  -0.560  1.00  0.00     0.150 C 
BRANCH  25  26
HETATM   26  C6  UNL     1       3.744   1.024  -0.210  1.00  0.00     0.290 C 
BRANCH  26  27
HETATM   27  N2  UNL     1       4.967   1.611  -0.697  1.00  0.00     0.081 N 
HETATM   28  C7  UNL     1       4.961   3.016  -0.343  1.00  0.00     0.309 C 
HETATM   29  C8  UNL     1       6.153   0.913  -0.300  1.00  0.00     0.309 C 
ENDBRANCH  26  27
ENDBRANCH  25  26
ENDBRANCH  23  25
ENDBRANCH   3  23
BRANCH   1  30
HETATM   30  O1  UNL     1      -0.652  -4.810   0.656  1.00  0.00    -0.355 OA
HETATM   31  C1  UNL     1       0.061  -5.896   0.112  1.00  0.00     0.210 C 
ENDBRANCH   1  30
TORSDOF 5
