REMARK  3 active torsions:
REMARK  status: ('A' for Active; 'I' for Inactive)
REMARK       I    between atoms: C3_3  and  N1_5 
REMARK    1  A    between atoms: N1_5  and  C4_6 
REMARK    2  A    between atoms: C4_6  and  C5_7 
REMARK    3  A    between atoms: C23_29  and  O2_30 
ROOT
HETATM    1  C1  UNL     1       5.984  -1.821  -1.688  1.00  0.00     0.019 C 
HETATM    2  C2  UNL     1       5.534  -0.890  -1.081  1.00  0.00     0.065 C 
HETATM    3  C3  UNL     1       5.053   0.333  -0.289  1.00  0.00     0.237 C 
HETATM    4  O1  UNL     1       5.325   1.369   0.298  1.00  0.00    -0.269 OA
HETATM    5  N1  UNL     1       3.642   0.437  -0.016  1.00  0.00    -0.357 N 
HETATM    6  H4  UNL     1       3.184  -0.434  -0.448  1.00  0.00     0.162 HD
ENDROOT
BRANCH   5   7
HETATM    7  C4  UNL     1       2.287   0.698   0.343  1.00  0.00     0.137 C 
BRANCH   7   8
HETATM    8  C5  UNL     1       1.201  -0.104   0.041  1.00  0.00     0.069 C 
HETATM    9  C6  UNL     1       0.816  -0.374  -1.446  1.00  0.00    -0.057 C 
HETATM   10  C7  UNL     1       1.321  -0.286  -2.654  1.00  0.00     0.020 C 
HETATM   11  C8  UNL     1      -0.568  -0.960  -1.743  1.00  0.00     0.020 C 
HETATM   12  C9  UNL     1      -1.539  -1.425  -0.905  1.00  0.00    -0.006 C 
HETATM   13  C10 UNL     1      -2.921  -0.900  -1.154  1.00  0.00     0.148 C 
HETATM   14  C18 UNL     1      -1.720  -2.249   0.279  1.00  0.00    -0.011 A 
HETATM   15  N2  UNL     1      -3.638  -0.077  -0.386  1.00  0.00    -0.073 NA
HETATM   16  C11 UNL     1      -3.039   0.416   0.881  1.00  0.00     0.742 C 
HETATM   17  N3  UNL     1      -2.625   0.551   2.063  1.00  0.00     0.014 NA
HETATM   18  N6  UNL     1      -2.807   1.453   0.016  1.00  0.00    -0.194 N 
HETATM   19  N4  UNL     1      -1.973   1.686   2.558  1.00  0.00    -0.296 N 
HETATM   20  C12 UNL     1      -1.463   0.855   3.639  1.00  0.00     0.174 C 
HETATM   21  H12 UNL     1      -2.170   2.524   1.939  1.00  0.00     0.182 HD
HETATM   22  C13 UNL     1      -0.528  -0.215   3.230  1.00  0.00     0.162 C 
HETATM   23  N5  UNL     1      -0.885  -1.507   3.770  1.00  0.00    -0.277 NA
HETATM   24  C20 UNL     1      -0.642  -0.512   1.792  1.00  0.00    -0.011 C 
HETATM   25  C14 UNL     1      -1.382  -2.236   2.802  1.00  0.00     0.063 A 
HETATM   26  C15 UNL     1      -1.964  -3.486   2.813  1.00  0.00     0.032 A 
HETATM   27  C19 UNL     1      -1.285  -1.686   1.528  1.00  0.00     0.012 A 
HETATM   28  C16 UNL     1      -2.401  -4.096   1.623  1.00  0.00     0.003 A 
HETATM   29  C17 UNL     1      -2.253  -3.453   0.461  1.00  0.00     0.013 A 
HETATM   30  C21 UNL     1      -0.138   0.163   0.629  1.00  0.00    -0.036 C 
HETATM   31  C22 UNL     1      -0.523   1.101  -0.223  1.00  0.00     0.046 C 
HETATM   32  C23 UNL     1      -1.179   2.125  -1.017  1.00  0.00     0.084 C 
HETATM   33  C25 UNL     1      -2.514   2.447  -0.926  1.00  0.00     0.143 C 
HETATM   34  H24 UNL     1      -3.393   2.278   0.439  1.00  0.00     0.183 HD
BRANCH  32  35
HETATM   35  O2  UNL     1      -0.734   3.022  -2.011  1.00  0.00    -0.355 OA
HETATM   36  C24 UNL     1      -0.350   4.341  -1.578  1.00  0.00     0.210 C 
ENDBRANCH  32  35
ENDBRANCH   7   8
ENDBRANCH   5   7
TORSDOF 3
