REMARK  5 active torsions:
REMARK  status: ('A' for Active; 'I' for Inactive)
REMARK    1  A    between atoms: C2_2  and  C3_3 
REMARK       I    between atoms: C3_3  and  N1_5 
REMARK    2  A    between atoms: N1_5  and  C4_6 
REMARK    3  A    between atoms: C4_6  and  C5_7 
REMARK    4  A    between atoms: C12_16  and  C13_17 
REMARK    5  A    between atoms: C13_17  and  N3_18 
ROOT
HETATM    1  C5  UNL     1       2.741  -0.976  -0.102  1.00  0.00     0.114 A 
HETATM    2  C6  UNL     1       1.689  -1.337  -1.279  1.00  0.00     0.086 A 
HETATM    3  C7  UNL     1       2.534  -1.813  -0.666  1.00  0.00     0.044 A 
HETATM    4  O2  UNL     1       3.502  -2.111   0.146  1.00  0.00     0.000 OA
HETATM    5  C8  UNL     1       3.300  -3.230   1.051  1.00  0.00     0.000 C 
HETATM    6  C9  UNL     1       1.478  -0.914  -1.226  1.00  0.00    -0.009 A 
HETATM    7  C10 UNL     1       0.669  -0.246  -1.633  1.00  0.00     0.046 A 
HETATM    8  N2  UNL     1      -0.261   0.496  -2.082  1.00  0.00    -0.351 N 
HETATM    9  C11 UNL     1      -0.682   0.518  -3.433  1.00  0.00     0.152 C 
HETATM   10  C12 UNL     1      -1.212   1.430  -1.722  1.00  0.00     0.222 C 
HETATM   11  N4  UNL     1      -1.416   0.561  -0.820  1.00  0.00    -0.170 NA
HETATM   12  N5  UNL     1      -2.066   0.152   0.235  1.00  0.00    -0.239 N 
HETATM   13  C16 UNL     1      -2.954   0.544   1.162  1.00  0.00     0.032 A 
HETATM   14  C17 UNL     1      -3.764   1.693   1.615  1.00  0.00     0.070 C 
HETATM   15  C18 UNL     1      -3.223  -0.481   2.083  1.00  0.00     0.029 A 
HETATM   16  C19 UNL     1      -2.454  -1.627   1.740  1.00  0.00     0.035 A 
HETATM   17  C20 UNL     1      -1.804  -1.098   0.606  1.00  0.00     0.075 A 
HETATM   18  C21 UNL     1      -0.891  -2.211   0.239  1.00  0.00     0.308 C 
HETATM   19  N6  UNL     1      -0.163  -3.026  -0.361  1.00  0.00    -0.404 NA
HETATM   20  C22 UNL     1       0.166  -3.139  -1.760  1.00  0.00     0.228 C 
HETATM   21  N7  UNL     1       1.515  -2.598  -1.986  1.00  0.00    -0.390 N 
HETATM   22  H29 UNL     1       2.466  -2.679  -2.461  1.00  0.00     0.156 HD
ENDROOT
BRANCH   1  23
HETATM   23  C4  UNL     1       2.946   0.181   0.562  1.00  0.00     0.073 C 
BRANCH  23  24
HETATM   24  N1  UNL     1       4.040  -0.142   1.516  1.00  0.00    -0.357 N 
HETATM   25  C3  UNL     1       3.555  -0.080   2.843  1.00  0.00     0.240 C 
HETATM   26  O1  UNL     1       2.579   0.161   3.635  1.00  0.00    -0.269 OA
HETATM   27  H4  UNL     1       5.074  -0.399   1.494  1.00  0.00     0.162 HD
BRANCH  25  28
HETATM   28  C2  UNL     1       4.334  -0.406   3.970  1.00  0.00     0.064 C 
HETATM   29  C1  UNL     1       4.843  -0.651   5.130  1.00  0.00     0.017 C 
ENDBRANCH  25  28
ENDBRANCH  23  24
ENDBRANCH   1  23
BRANCH  10  30
HETATM   30  C13 UNL     1      -2.207   2.252  -1.193  1.00  0.00     0.333 C 
BRANCH  30  31
HETATM   31  N3  UNL     1      -2.298   3.482  -2.069  1.00  0.00     0.084 N 
HETATM   32  C14 UNL     1      -3.295   4.347  -1.389  1.00  0.00     0.309 C 
HETATM   33  C15 UNL     1      -2.837   3.124  -3.370  1.00  0.00     0.309 C 
ENDBRANCH  30  31
ENDBRANCH  10  30
TORSDOF 5
