REMARK  3 active torsions:
REMARK  status: ('A' for Active; 'I' for Inactive)
REMARK    1  A    between atoms: C2_2  and  C3_3 
REMARK    2  A    between atoms: C6_7  and  C7_8 
REMARK    3  A    between atoms: C10_15  and  O1_16 
ROOT
HETATM    1  C3  UNL     1       0.002   1.740   1.061  1.00  0.00     0.343 C 
HETATM    2  N1  UNL     1       0.737   0.539   0.804  1.00  0.00    -0.264 NA
HETATM    3  C4  UNL     1       2.002   0.425   0.710  1.00  0.00     0.143 C 
HETATM    4  C5  UNL     1       2.535  -0.911   0.440  1.00  0.00     0.064 C 
HETATM    5  C6  UNL     1       3.829  -1.165   0.320  1.00  0.00     0.020 C 
HETATM    6  N2  UNL     1       1.702  -2.056   0.283  1.00  0.00    -0.276 N 
HETATM    7  N3  UNL     1       0.766  -2.591  -0.604  1.00  0.00    -0.170 NA
HETATM    8  C8  UNL     1      -0.506  -2.557  -0.391  1.00  0.00     0.229 C 
HETATM    9  N4  UNL     1      -1.432  -2.092   0.582  1.00  0.00    -0.351 N 
HETATM   10  C9  UNL     1      -2.018  -0.798   0.456  1.00  0.00     0.043 C 
HETATM   11  C10 UNL     1      -2.286  -0.135  -0.680  1.00  0.00     0.096 C 
HETATM   12  C12 UNL     1      -1.275   0.975  -0.824  1.00  0.00     0.341 C 
HETATM   13  N5  UNL     1      -1.261   1.794   0.362  1.00  0.00     0.119 N 
HETATM   14  C13 UNL     1      -2.355   1.512   1.260  1.00  0.00     0.282 C 
HETATM   15  C14 UNL     1      -2.440   0.051   1.628  1.00  0.00     0.090 C 
HETATM   16  H11 UNL     1       1.755  -2.774   1.042  1.00  0.00     0.189 HD
HETATM   17  H13 UNL     1      -1.738  -2.637   1.423  1.00  0.00     0.166 HD
ENDROOT
BRANCH   5  18
HETATM   18  C7  UNL     1       4.441  -2.467   0.052  1.00  0.00     0.144 C 
HETATM   19 CL1  UNL     1       5.393  -2.474  -1.459  1.00  0.00    -0.126 Cl
ENDBRANCH   5  18
BRANCH   1  20
HETATM   20  C2  UNL     1       0.776   3.003   0.659  1.00  0.00     0.055 C 
HETATM   21  C1  UNL     1       1.089   2.964  -0.821  1.00  0.00     0.009 C 
ENDBRANCH   1  20
BRANCH  11  22
HETATM   22  O1  UNL     1      -3.391  -0.783  -1.217  1.00  0.00    -0.356 OA
HETATM   23  C11 UNL     1      -3.564  -1.154  -2.547  1.00  0.00     0.209 C 
ENDBRANCH  11  22
TORSDOF 3
