REMARK  5 active torsions:
REMARK  status: ('A' for Active; 'I' for Inactive)
REMARK    1  A    between atoms: O1_2  and  C2_3 
REMARK    2  A    between atoms: C3_4  and  C4_5 
REMARK    3  A    between atoms: C4_5  and  N1_6 
REMARK       I    between atoms: N1_6  and  C6_8 
REMARK       I    between atoms: C6_8  and  N2_9 
REMARK    4  A    between atoms: C9_13  and  N3_14 
REMARK    5  A    between atoms: N3_14  and  C10_15 
ROOT
HETATM    1  C2  UNL     1      -1.463  -0.638   1.053  1.00  0.00     0.204 A 
HETATM    2  C3  UNL     1      -1.175   0.060  -0.190  1.00  0.00    -0.027 A 
HETATM    3  C7  UNL     1      -0.015   0.745  -0.101  1.00  0.00     0.025 A 
HETATM    4  C8  UNL     1       0.623   0.602   1.198  1.00  0.00     0.038 A 
HETATM    5  C9  UNL     1       1.715   0.959   1.958  1.00  0.00     0.141 A 
HETATM    6  N4  UNL     1       1.922   0.570   3.205  1.00  0.00    -0.224 NA
HETATM    7  C16 UNL     1       1.038  -0.237   3.839  1.00  0.00     0.235 A 
HETATM    8  N5  UNL     1      -0.059  -0.621   3.135  1.00  0.00    -0.242 NA
HETATM    9  C17 UNL     1      -0.263  -0.234   1.895  1.00  0.00     0.083 A 
ENDROOT
BRANCH   5  10
HETATM   10  N3  UNL     1       2.589   1.808   1.181  1.00  0.00    -0.338 N 
HETATM   11  H13 UNL     1       2.606   2.837   1.210  1.00  0.00     0.167 HD
BRANCH  10  12
HETATM   12  C10 UNL     1       3.469   1.077   0.333  1.00  0.00     0.074 A 
HETATM   13  C11 UNL     1       3.444  -0.294   0.287  1.00  0.00     0.033 A 
HETATM   14  C12 UNL     1       4.347  -0.869  -0.583  1.00  0.00     0.004 A 
HETATM   15  C13 UNL     1       5.269  -0.275  -1.413  1.00  0.00     0.027 A 
HETATM   16  C14 UNL     1       5.235   1.127  -1.311  1.00  0.00     0.074 A 
HETATM   17 CL1  UNL     1       6.368   2.021  -2.323  1.00  0.00    -0.081 Cl
HETATM   18  C15 UNL     1       4.360   1.772  -0.462  1.00  0.00     0.164 A 
HETATM   19  F1  UNL     1       4.360   3.146  -0.394  1.00  0.00    -0.202 F 
ENDBRANCH  10  12
ENDBRANCH   5  10
BRANCH   2  20
HETATM   20  C4  UNL     1      -1.886   0.159  -1.470  1.00  0.00     0.164 C 
BRANCH  20  21
HETATM   21  N1  UNL     1      -3.213   0.699  -1.420  1.00  0.00    -0.335 N 
HETATM   22  C5  UNL     1      -3.531   2.111  -1.511  1.00  0.00     0.154 C 
HETATM   23  C6  UNL     1      -4.384  -0.101  -1.269  1.00  0.00     0.315 C 
HETATM   24  N2  UNL     1      -4.183  -1.506  -1.182  1.00  0.00    -0.352 N 
HETATM   25  O2  UNL     1      -5.601  -0.393  -1.152  1.00  0.00    -0.247 OA
HETATM   26  H10 UNL     1      -4.097  -2.395  -1.757  1.00  0.00     0.160 HD
HETATM   27  H11 UNL     1      -4.036  -2.522  -1.102  1.00  0.00     0.160 HD
ENDBRANCH  20  21
ENDBRANCH   2  20
BRANCH   1  28
HETATM   28  O1  UNL     1      -1.346  -2.017   0.984  1.00  0.00    -0.380 OA
HETATM   29  C1  UNL     1      -2.337  -2.739   1.581  1.00  0.00     0.202 C 
ENDBRANCH   1  28
TORSDOF 5
