REMARK  5 active torsions:
REMARK  status: ('A' for Active; 'I' for Inactive)
REMARK    1  A    between atoms: C2_2  and  C3_3 
REMARK       I    between atoms: C3_3  and  N1_5 
REMARK    2  A    between atoms: N1_5  and  C4_6 
REMARK    3  A    between atoms: C4_6  and  C5_7 
REMARK    4  A    between atoms: N4_16  and  C12_17 
REMARK    5  A    between atoms: C12_17  and  C13_18 
ROOT
HETATM    1  C5  UNL     1       2.572  -0.557  -0.623  1.00  0.00     0.140 A 
HETATM    2  C6  UNL     1       1.483  -1.188   0.036  1.00  0.00     0.008 A 
HETATM    3  C7  UNL     1       0.514  -1.696   0.704  1.00  0.00     0.045 C 
HETATM    4  C8  UNL     1      -0.048  -1.333   2.037  1.00  0.00     0.360 A 
HETATM    5  C9  UNL     1      -0.715  -1.148   3.304  1.00  0.00     0.203 A 
HETATM    6  C10 UNL     1      -0.404   0.011   4.246  1.00  0.00     0.159 A 
HETATM    7  N2  UNL     1       0.900  -0.222   4.308  1.00  0.00    -0.228 NA
HETATM    8  C11 UNL     1       1.183  -1.407   3.456  1.00  0.00     0.215 A 
HETATM    9  N3  UNL     1       0.724  -2.369   2.658  1.00  0.00    -0.028 NA
HETATM   10  N4  UNL     1      -0.777  -2.312   2.405  1.00  0.00     0.066 N 
HETATM   11  N6  UNL     1       2.431  -1.699   2.780  1.00  0.00    -0.308 N 
HETATM   12  S1  UNL     1       2.740  -0.725   1.288  1.00  0.00    -0.079 SA
HETATM   13  H18 UNL     1       3.207  -2.388   3.020  1.00  0.00     0.176 HD
ENDROOT
BRANCH  10  14
HETATM   14  C12 UNL     1      -2.242  -2.153   2.236  1.00  0.00     0.309 C 
BRANCH  14  15
HETATM   15  C13 UNL     1      -2.722  -0.915   1.694  1.00  0.00    -0.012 A 
HETATM   16  C14 UNL     1      -3.211   0.105   2.482  1.00  0.00     0.126 A 
HETATM   17  N5  UNL     1      -3.658   1.292   1.958  1.00  0.00    -0.260 NA
HETATM   18  C15 UNL     1      -3.643   1.518   0.647  1.00  0.00     0.066 A 
HETATM   19  C16 UNL     1      -4.068   2.687   0.004  1.00  0.00     0.032 A 
HETATM   20  C20 UNL     1      -3.174   0.566  -0.244  1.00  0.00    -0.007 A 
HETATM   21  C17 UNL     1      -3.993   2.789  -1.356  1.00  0.00     0.002 A 
HETATM   22  C18 UNL     1      -3.525   1.831  -2.209  1.00  0.00     0.001 A 
HETATM   23  C19 UNL     1      -3.086   0.638  -1.610  1.00  0.00     0.014 A 
HETATM   24  C21 UNL     1      -2.725  -0.632   0.327  1.00  0.00     0.024 A 
ENDBRANCH  14  15
ENDBRANCH  10  14
BRANCH   1  25
HETATM   25  C4  UNL     1       3.581   0.163  -1.026  1.00  0.00     0.086 C 
BRANCH  25  26
HETATM   26  N1  UNL     1       4.089  -0.170  -2.303  1.00  0.00    -0.336 N 
HETATM   27  C3  UNL     1       3.979   0.894  -3.194  1.00  0.00     0.244 C 
HETATM   28  O1  UNL     1       3.670   2.056  -3.551  1.00  0.00    -0.268 OA
HETATM   29  H4  UNL     1       4.510  -1.062  -2.625  1.00  0.00     0.168 HD
BRANCH  27  30
HETATM   30  C2  UNL     1       4.473   0.693  -4.578  1.00  0.00     0.064 C 
HETATM   31  C1  UNL     1       4.543   1.457  -5.680  1.00  0.00     0.017 C 
ENDBRANCH  27  30
ENDBRANCH  25  26
ENDBRANCH   1  25
TORSDOF 5
