REMARK  4 active torsions:
REMARK  status: ('A' for Active; 'I' for Inactive)
REMARK    1  A    between atoms: N1_2  and  C3_4 
REMARK    2  A    between atoms: C3_4  and  C4_5 
REMARK    3  A    between atoms: C4_5  and  N2_6 
REMARK    4  A    between atoms: N2_6  and  C6_8 
ROOT
HETATM    1  C6  UNL     1       0.610  -0.468  -0.660  1.00  0.00     0.011 C 
HETATM    2  C7  UNL     1      -0.181   0.473  -0.115  1.00  0.00     0.066 C 
HETATM    3  C8  UNL     1      -1.605   0.633   0.245  1.00  0.00     0.124 C 
HETATM    4  C9  UNL     1      -2.673  -0.151   0.027  1.00  0.00     0.157 C 
HETATM    5  N3  UNL     1      -3.591   0.751   0.654  1.00  0.00    -0.245 NA
HETATM    6  C10 UNL     1      -4.737   1.029  -0.018  1.00  0.00     0.093 C 
HETATM    7  C11 UNL     1      -5.257   1.945   1.053  1.00  0.00     0.064 C 
HETATM    8  C12 UNL     1      -4.398   3.267   0.853  1.00  0.00     0.137 C 
HETATM    9  N4  UNL     1      -4.308   4.055   2.020  1.00  0.00    -0.124 NA
HETATM   10  N5  UNL     1      -3.095   3.849   2.653  1.00  0.00    -0.005 NA
HETATM   11  N6  UNL     1      -2.359   2.889   1.844  1.00  0.00    -0.152 NA
HETATM   12  C13 UNL     1      -2.240   1.695   2.229  1.00  0.00     0.278 C 
HETATM   13  O1  UNL     1      -1.551   1.864   0.967  1.00  0.00    -0.299 OA
HETATM   14  N7  UNL     1      -2.952  -1.331  -0.619  1.00  0.00    -0.372 N 
HETATM   15  C14 UNL     1      -3.181  -2.641  -1.088  1.00  0.00     0.128 C 
HETATM   16  C15 UNL     1      -1.901  -3.387  -1.206  1.00  0.00     0.035 C 
HETATM   17  C16 UNL     1      -0.725  -4.094  -1.402  1.00  0.00     0.105 C 
HETATM   18  N8  UNL     1      -0.100  -4.111  -0.138  1.00  0.00    -0.414 N 
HETATM   19  C17 UNL     1       0.906  -3.021  -0.372  1.00  0.00     0.120 C 
HETATM   20  C18 UNL     1       0.059  -1.838  -0.709  1.00  0.00     0.076 C 
HETATM   21  H21 UNL     1      -3.068  -0.591  -1.384  1.00  0.00     0.161 HD
HETATM   22  H26 UNL     1      -0.741  -4.885   0.154  1.00  0.00     0.153 HD
ENDROOT
BRANCH   1  23
HETATM   23  N2  UNL     1       2.010  -0.280  -0.944  1.00  0.00    -0.387 N 
HETATM   24  C5  UNL     1       2.559  -1.261  -1.859  1.00  0.00     0.149 C 
BRANCH  23  25
HETATM   25  C4  UNL     1       2.813   0.813  -0.493  1.00  0.00     0.152 C 
BRANCH  25  26
HETATM   26  C3  UNL     1       3.863   0.414   0.526  1.00  0.00     0.291 C 
BRANCH  26  27
HETATM   27  N1  UNL     1       4.670   1.618   0.833  1.00  0.00     0.081 N 
HETATM   28  C1  UNL     1       5.742   1.229   1.737  1.00  0.00     0.309 C 
HETATM   29  C2  UNL     1       5.271   2.096  -0.413  1.00  0.00     0.309 C 
ENDBRANCH  26  27
ENDBRANCH  25  26
ENDBRANCH  23  25
ENDBRANCH   1  23
TORSDOF 4
