REMARK  5 active torsions:
REMARK  status: ('A' for Active; 'I' for Inactive)
REMARK    1  A    between atoms: C2_2  and  C3_3 
REMARK    2  A    between atoms: C6_6  and  O1_7 
REMARK    3  A    between atoms: C7_8  and  N1_9 
REMARK    4  A    between atoms: C7_8  and  N2_12 
REMARK    5  A    between atoms: N1_9  and  C8_10 
ROOT
HETATM    1  C3  UNL     1       3.472   1.010  -1.307  1.00  0.00     0.001 C 
HETATM    2  C4  UNL     1       3.145   1.881  -0.332  1.00  0.00     0.000 C 
HETATM    3  C5  UNL     1       2.077   1.558   0.691  1.00  0.00     0.065 C 
HETATM    4  C6  UNL     1       2.358   0.185   1.165  1.00  0.00     0.174 C 
HETATM    5  C7  UNL     1       1.641  -0.912   0.436  1.00  0.00     0.172 C 
HETATM    6  C19 UNL     1       1.615  -0.710  -1.058  1.00  0.00     0.178 C 
HETATM    7  N7  UNL     1       2.918  -0.303  -1.562  1.00  0.00    -0.389 N 
HETATM    8  H29 UNL     1       3.467  -0.993  -2.128  1.00  0.00     0.159 HD
ENDROOT
BRANCH   5   9
HETATM    9  N1  UNL     1       2.397  -2.126   0.678  1.00  0.00    -0.337 N 
HETATM   10  H11 UNL     1       3.296  -2.140   1.253  1.00  0.00     0.164 HD
BRANCH   9  11
HETATM   11  C8  UNL     1       2.090  -3.428   0.218  1.00  0.00     0.350 C 
HETATM   12  O2  UNL     1       1.082  -3.631  -0.467  1.00  0.00    -0.284 OA
ENDBRANCH   9  11
ENDBRANCH   5   9
BRANCH   5  13
HETATM   13  N2  UNL     1       0.298  -1.154   0.911  1.00  0.00    -0.228 N 
HETATM   14  C9  UNL     1      -0.624  -0.070   0.774  1.00  0.00     0.253 C 
HETATM   15  N3  UNL     1      -0.477   0.355   1.981  1.00  0.00    -0.173 NA
HETATM   16  N4  UNL     1      -1.140   1.458   2.524  1.00  0.00    -0.309 N 
HETATM   17  C10 UNL     1      -1.817   2.294   1.553  1.00  0.00     0.170 C 
HETATM   18  H14 UNL     1      -0.930   1.340   3.557  1.00  0.00     0.182 HD
HETATM   19  C11 UNL     1      -2.844   1.519   0.816  1.00  0.00     0.011 C 
HETATM   20  C12 UNL     1      -3.443   0.985  -0.220  1.00  0.00     0.083 C 
HETATM   21  N5  UNL     1      -4.537   0.201  -0.717  1.00  0.00    -0.387 N 
HETATM   22  C13 UNL     1      -5.206   1.119  -1.646  1.00  0.00     0.149 C 
HETATM   23  C14 UNL     1      -4.292  -0.992   0.002  1.00  0.00     0.141 C 
HETATM   24  C15 UNL     1      -5.071  -1.974   0.424  1.00  0.00     0.021 C 
HETATM   25  C16 UNL     1      -4.074  -2.810   1.072  1.00  0.00    -0.022 C 
HETATM   26  C17 UNL     1      -2.767  -2.633   1.200  1.00  0.00     0.017 C 
HETATM   27  C18 UNL     1      -1.349  -2.746   1.512  1.00  0.00     0.139 C 
HETATM   28  N6  UNL     1      -0.168  -2.316   1.479  1.00  0.00    -0.181 NA
ENDBRANCH   5  13
BRANCH   4  29
HETATM   29  O1  UNL     1       2.093   0.099   2.529  1.00  0.00    -0.391 OA
HETATM   30  H10 UNL     1       1.948  -0.821   2.861  1.00  0.00     0.210 HD
ENDBRANCH   4  29
BRANCH   1  31
HETATM   31  C2  UNL     1       4.532   1.392  -2.277  1.00  0.00     0.052 C 
HETATM   32  C1  UNL     1       5.106   2.754  -2.019  1.00  0.00     0.011 C 
ENDBRANCH   1  31
TORSDOF 5
