REMARK  6 active torsions:
REMARK  status: ('A' for Active; 'I' for Inactive)
REMARK    1  A    between atoms: C2_2  and  C3_3 
REMARK       I    between atoms: C3_3  and  N1_5 
REMARK    2  A    between atoms: N1_5  and  C4_6 
REMARK    3  A    between atoms: C6_8  and  N2_9 
REMARK    4  A    between atoms: C14_19  and  O2_20 
REMARK    5  A    between atoms: C17_23  and  N5_24 
REMARK    6  A    between atoms: C20_27  and  N6_28 
ROOT
HETATM    1  C4  UNL     1      -0.481   1.079   0.943  1.00  0.00     0.064 A 
HETATM    2  C5  UNL     1       0.887   0.955   0.951  1.00  0.00     0.065 A 
HETATM    3  C6  UNL     1       1.597  -0.210   0.752  1.00  0.00     0.083 A 
HETATM    4  C14 UNL     1       0.880  -1.375   0.521  1.00  0.00     0.098 A 
HETATM    5  C16 UNL     1      -0.497  -1.288   0.506  1.00  0.00     0.070 A 
HETATM    6  C17 UNL     1      -1.152  -0.097   0.711  1.00  0.00     0.060 A 
ENDROOT
BRANCH   3   7
HETATM    7  N2  UNL     1       3.012  -0.253   0.775  1.00  0.00    -0.289 N 
HETATM    8  C7  UNL     1       3.626  -1.112   1.770  1.00  0.00     0.291 C 
HETATM    9  N3  UNL     1       4.608  -1.912   1.093  1.00  0.00    -0.275 NA
HETATM   10  C8  UNL     1       5.108  -1.631  -0.030  1.00  0.00     0.035 C 
HETATM   11  C9  UNL     1       6.070  -2.067  -1.088  1.00  0.00     0.083 C 
HETATM   12  C13 UNL     1       4.739  -0.404  -0.825  1.00  0.00     0.153 C 
HETATM   13  C10 UNL     1       6.929  -0.837  -1.211  1.00  0.00    -0.017 C 
HETATM   14  C11 UNL     1       6.088   0.192  -1.045  1.00  0.00    -0.062 C 
HETATM   15  C12 UNL     1       6.366   1.665  -1.064  1.00  0.00     0.045 C 
HETATM   16  N4  UNL     1       3.853   0.455  -0.071  1.00  0.00    -0.222 NA
HETATM   17  H15 UNL     1       4.300   1.283   0.334  1.00  0.00     0.148 HD
ENDBRANCH   3   7
BRANCH   4  18
HETATM   18  O2  UNL     1       1.566  -2.559   0.318  1.00  0.00    -0.354 OA
HETATM   19  C15 UNL     1       0.851  -3.777   0.077  1.00  0.00     0.210 C 
ENDBRANCH   4  18
BRANCH   1  20
HETATM   20  N1  UNL     1      -1.224   2.250   1.142  1.00  0.00    -0.322 N 
HETATM   21  C3  UNL     1      -0.786   3.571   1.396  1.00  0.00     0.244 C 
HETATM   22  O1  UNL     1       0.449   3.784   1.464  1.00  0.00    -0.268 OA
HETATM   23  H4  UNL     1      -2.268   2.205   1.109  1.00  0.00     0.169 HD
BRANCH  21  24
HETATM   24  C2  UNL     1      -1.673   4.702   1.585  1.00  0.00     0.064 C 
HETATM   25  C1  UNL     1      -2.968   4.597   1.536  1.00  0.00     0.017 C 
ENDBRANCH  21  24
ENDBRANCH   1  20
BRANCH   6  26
HETATM   26  N5  UNL     1      -2.566  -0.234   0.657  1.00  0.00    -0.377 N 
HETATM   27  C18 UNL     1      -3.651  -0.000   1.589  1.00  0.00     0.125 C 
HETATM   28  C19 UNL     1      -4.700   0.610   0.682  1.00  0.00     0.057 C 
HETATM   29  C20 UNL     1      -4.307   0.332  -0.729  1.00  0.00     0.241 C 
HETATM   30  C23 UNL     1      -3.202  -0.712  -0.560  1.00  0.00     0.159 C 
BRANCH  29  31
HETATM   31  N6  UNL     1      -5.366  -0.193  -1.564  1.00  0.00     0.086 N 
HETATM   32  C21 UNL     1      -5.879  -1.452  -1.056  1.00  0.00     0.310 C 
HETATM   33  C22 UNL     1      -4.797  -0.462  -2.869  1.00  0.00     0.310 C 
ENDBRANCH  29  31
ENDBRANCH   6  26
TORSDOF 6
