REMARK  8 active torsions:
REMARK  status: ('A' for Active; 'I' for Inactive)
REMARK    1  A    between atoms: C2_2  and  N1_3 
REMARK    2  A    between atoms: N1_3  and  O1_4 
REMARK    3  A    between atoms: N1_3  and  C3_5 
REMARK    4  A    between atoms: C5_7  and  N2_8 
REMARK    5  A    between atoms: N2_8  and  C6_9 
REMARK    6  A    between atoms: C13_19  and  O2_20 
REMARK    7  A    between atoms: C16_23  and  N6_24 
REMARK    8  A    between atoms: C19_27  and  N7_28 
ROOT
HETATM    1  C3  UNL     1       0.179  -0.456   0.653  1.00  0.00     0.090 A 
HETATM    2  C4  UNL     1      -1.193  -0.450   0.532  1.00  0.00     0.067 A 
HETATM    3  C5  UNL     1      -1.942   0.527  -0.086  1.00  0.00     0.085 A 
HETATM    4  C13 UNL     1      -1.183   1.582  -0.618  1.00  0.00     0.097 A 
HETATM    5  C15 UNL     1       0.184   1.580  -0.501  1.00  0.00     0.071 A 
HETATM    6  C16 UNL     1       0.913   0.589   0.124  1.00  0.00     0.062 A 
ENDROOT
BRANCH   3   7
HETATM    7  N2  UNL     1      -3.335   0.508  -0.201  1.00  0.00    -0.184 N 
HETATM    8  H6  UNL     1      -3.751   1.331  -0.716  1.00  0.00     0.184 HD
BRANCH   7   9
HETATM    9  C6  UNL     1      -4.251  -0.464   0.285  1.00  0.00     0.744 A 
HETATM   10  N3  UNL     1      -3.964  -1.561   0.984  1.00  0.00    -0.071 NA
HETATM   11  C7  UNL     1      -4.893  -2.432   1.401  1.00  0.00     0.168 A 
HETATM   12  C8  UNL     1      -6.213  -2.197   1.100  1.00  0.00     0.077 A 
HETATM   13  C9  UNL     1      -7.422  -2.825   1.335  1.00  0.00     0.035 A 
HETATM   14  N4  UNL     1      -6.525  -1.103   0.400  1.00  0.00    -0.222 N 
HETATM   15  C10 UNL     1      -8.428  -2.057   0.749  1.00  0.00     0.029 A 
HETATM   16  C11 UNL     1      -7.838  -0.963   0.157  1.00  0.00     0.033 A 
HETATM   17  C12 UNL     1      -8.545   0.113  -0.581  1.00  0.00     0.070 C 
HETATM   18  N5  UNL     1      -5.556  -0.295   0.026  1.00  0.00     0.026 NA
ENDBRANCH   7   9
ENDBRANCH   3   7
BRANCH   4  19
HETATM   19  O2  UNL     1      -1.863   2.606  -1.256  1.00  0.00    -0.354 OA
HETATM   20  C14 UNL     1      -1.132   3.689  -1.807  1.00  0.00     0.210 C 
ENDBRANCH   4  19
BRANCH   1  21
HETATM   21  N1  UNL     1       0.941  -1.472   1.286  1.00  0.00    -0.235 N 
BRANCH  21  22
HETATM   22  C2  UNL     1       1.597  -2.576   0.668  1.00  0.00     0.113 C 
HETATM   23  C1  UNL     1       0.898  -3.514   0.068  1.00  0.00     0.032 C 
ENDBRANCH  21  22
BRANCH  21  24
HETATM   24  O1  UNL     1       1.010  -1.323   2.626  1.00  0.00    -0.283 OA
HETATM   25  H4  UNL     1       1.528  -1.996   3.093  1.00  0.00     0.245 HD
ENDBRANCH  21  24
ENDBRANCH   1  21
BRANCH   6  26
HETATM   26  N6  UNL     1       2.319   0.794   0.134  1.00  0.00    -0.379 N 
HETATM   27  C17 UNL     1       3.234   1.009   1.234  1.00  0.00     0.125 C 
HETATM   28  C18 UNL     1       4.433   0.140   1.055  1.00  0.00     0.055 C 
HETATM   29  C19 UNL     1       5.052   0.306  -0.292  1.00  0.00     0.225 C 
HETATM   30  C22 UNL     1       4.249   1.175  -1.232  1.00  0.00     0.055 C 
HETATM   31  C23 UNL     1       2.797   0.758  -1.225  1.00  0.00     0.125 C 
BRANCH  29  32
HETATM   32  N7  UNL     1       6.386   0.798  -0.166  1.00  0.00     0.084 N 
HETATM   33  C20 UNL     1       6.530   2.057   0.487  1.00  0.00     0.309 C 
HETATM   34  C21 UNL     1       7.207  -0.193   0.500  1.00  0.00     0.309 C 
ENDBRANCH  29  32
ENDBRANCH   6  26
TORSDOF 8
