REMARK  7 active torsions:
REMARK  status: ('A' for Active; 'I' for Inactive)
REMARK    1  A    between atoms: C2_2  and  C3_3 
REMARK       I    between atoms: C3_3  and  N1_5 
REMARK    2  A    between atoms: N1_5  and  C4_6 
REMARK    3  A    between atoms: C6_8  and  C7_9 
REMARK    4  A    between atoms: C13_17  and  O2_18 
REMARK    5  A    between atoms: O2_18  and  C14_19 
REMARK    6  A    between atoms: C17_22  and  N4_23 
REMARK    7  A    between atoms: C20_26  and  N5_27 
ROOT
HETATM    1  C4  UNL     1      -0.490   0.587  -0.996  1.00  0.00     0.062 A 
HETATM    2  C5  UNL     1      -1.774   0.303  -1.477  1.00  0.00     0.046 A 
HETATM    3  C6  UNL     1      -2.769  -0.245  -0.658  1.00  0.00     0.022 A 
HETATM    4  C13 UNL     1      -2.428  -0.496   0.659  1.00  0.00     0.081 A 
HETATM    5  C16 UNL     1      -1.159  -0.211   1.116  1.00  0.00     0.069 A 
HETATM    6  C17 UNL     1      -0.170   0.328   0.321  1.00  0.00     0.060 A 
ENDROOT
BRANCH   6   7
HETATM    7  N4  UNL     1       1.122   0.605   0.834  1.00  0.00    -0.379 N 
HETATM    8  C18 UNL     1       2.262  -0.083   0.227  1.00  0.00     0.125 C 
HETATM    9  C19 UNL     1       2.926  -0.809   1.375  1.00  0.00     0.055 C 
HETATM   10  C20 UNL     1       3.295   0.029   2.534  1.00  0.00     0.225 C 
HETATM   11  C23 UNL     1       2.523   1.251   2.778  1.00  0.00     0.055 C 
HETATM   12  C24 UNL     1       1.346   1.520   1.909  1.00  0.00     0.125 C 
BRANCH  10  13
HETATM   13  N5  UNL     1       4.737   0.289   2.454  1.00  0.00     0.084 N 
HETATM   14  C21 UNL     1       5.491  -0.945   2.488  1.00  0.00     0.309 C 
HETATM   15  C22 UNL     1       5.097   1.045   1.274  1.00  0.00     0.309 C 
ENDBRANCH  10  13
ENDBRANCH   6   7
BRANCH   1  16
HETATM   16  N1  UNL     1       0.452   1.141  -1.905  1.00  0.00    -0.322 N 
HETATM   17  C3  UNL     1       0.862   2.432  -2.331  1.00  0.00     0.244 C 
HETATM   18  O1  UNL     1       0.434   3.552  -1.956  1.00  0.00    -0.268 OA
HETATM   19  H4  UNL     1       0.880   0.275  -2.287  1.00  0.00     0.169 HD
BRANCH  17  20
HETATM   20  C2  UNL     1       1.920   2.451  -3.334  1.00  0.00     0.064 C 
HETATM   21  C1  UNL     1       2.313   3.631  -3.737  1.00  0.00     0.017 C 
ENDBRANCH  17  20
ENDBRANCH   1  16
BRANCH   4  22
HETATM   22  O2  UNL     1      -3.458  -1.036   1.405  1.00  0.00    -0.351 OA
BRANCH  22  23
HETATM   23  C14 UNL     1      -3.254  -1.345   2.771  1.00  0.00     0.171 C 
HETATM   24  C15 UNL     1      -4.488  -1.924   3.414  1.00  0.00     0.034 C 
ENDBRANCH  22  23
ENDBRANCH   4  22
BRANCH   3  25
HETATM   25  C7  UNL     1      -4.077  -0.489  -1.323  1.00  0.00     0.248 A 
HETATM   26  N2  UNL     1      -4.483   0.635  -2.133  1.00  0.00    -0.271 NA
HETATM   27  C8  UNL     1      -4.640   0.559  -3.409  1.00  0.00     0.115 A 
HETATM   28  C9  UNL     1      -4.434  -0.643  -4.194  1.00  0.00     0.048 A 
HETATM   29  C10 UNL     1      -4.055  -1.755  -3.550  1.00  0.00     0.039 A 
HETATM   30  C11 UNL     1      -3.688  -3.165  -3.559  1.00  0.00     0.047 A 
HETATM   31  N3  UNL     1      -3.883  -1.676  -2.150  1.00  0.00    -0.329 N 
HETATM   32  C12 UNL     1      -3.540  -3.036  -2.238  1.00  0.00     0.096 A 
ENDBRANCH   3  25
TORSDOF 7
