REMARK  6 active torsions:
REMARK  status: ('A' for Active; 'I' for Inactive)
REMARK       I    between atoms: C2_2  and  N1_4 
REMARK    1  A    between atoms: N1_4  and  C3_5 
REMARK    2  A    between atoms: C6_8  and  N2_9 
REMARK    3  A    between atoms: N2_9  and  C7_10 
REMARK    4  A    between atoms: N3_11  and  N4_12 
REMARK    5  A    between atoms: C15_21  and  N6_22 
REMARK    6  A    between atoms: C18_25  and  N7_26 
ROOT
HETATM    1  N4  UNL     1       6.797  -1.352   0.187  1.00  0.00    -0.234 N 
HETATM    2  C8  UNL     1       7.185  -2.433   0.913  1.00  0.00     0.119 A 
HETATM    3  C9  UNL     1       8.407  -2.883   0.467  1.00  0.00     0.022 A 
HETATM    4  C10 UNL     1       8.792  -2.057  -0.566  1.00  0.00     0.044 A 
HETATM    5  C11 UNL     1       7.776  -1.132  -0.705  1.00  0.00     0.137 A 
HETATM    6  C12 UNL     1       7.765  -0.074  -1.674  1.00  0.00     0.119 C 
HETATM    7  N5  UNL     1       7.762   0.775  -2.468  1.00  0.00    -0.190 NA
ENDROOT
BRANCH   1   8
HETATM    8  N3  UNL     1       5.594  -0.673   0.408  1.00  0.00    -0.162 NA
HETATM    9  C7  UNL     1       5.596   0.354   1.206  1.00  0.00     0.230 C 
BRANCH   9  10
HETATM   10  N2  UNL     1       4.361   0.996   1.391  1.00  0.00    -0.353 N 
HETATM   11  H8  UNL     1       4.236   1.757   2.098  1.00  0.00     0.166 HD
BRANCH  10  12
HETATM   12  C6  UNL     1       3.152   0.741   0.696  1.00  0.00     0.013 C 
HETATM   13  C5  UNL     1       3.200   0.891  -0.779  1.00  0.00     0.086 C 
HETATM   14  C4  UNL     1       1.979   1.451  -1.365  1.00  0.00     0.011 C 
HETATM   15  C3  UNL     1       0.672   1.282  -1.095  1.00  0.00     0.058 C 
HETATM   16  C15 UNL     1       0.095   0.437  -0.060  1.00  0.00     0.058 C 
HETATM   17  C14 UNL     1       0.768   0.078   1.046  1.00  0.00     0.034 C 
HETATM   18  C13 UNL     1       2.124   0.396   1.483  1.00  0.00     0.027 C 
BRANCH  15  19
HETATM   19  N1  UNL     1      -0.232   2.016  -1.900  1.00  0.00    -0.326 N 
HETATM   20  C2  UNL     1      -1.287   1.964  -2.848  1.00  0.00     0.218 C 
HETATM   21  C1  UNL     1      -1.913   3.188  -3.397  1.00  0.00     0.117 C 
HETATM   22  O1  UNL     1      -1.665   0.837  -3.199  1.00  0.00    -0.274 OA
HETATM   23  H4  UNL     1       0.036   3.017  -1.642  1.00  0.00     0.169 HD
ENDBRANCH  15  19
BRANCH  16  24
HETATM   24  N6  UNL     1      -1.261  -0.075  -0.169  1.00  0.00    -0.358 N 
HETATM   25  C16 UNL     1      -2.300   0.832   0.238  1.00  0.00     0.127 C 
HETATM   26  C17 UNL     1      -3.232   0.515   1.318  1.00  0.00     0.055 C 
HETATM   27  C18 UNL     1      -4.443  -0.293   1.119  1.00  0.00     0.223 C 
HETATM   28  C21 UNL     1      -4.518  -1.618   0.551  1.00  0.00     0.038 C 
HETATM   29  C22 UNL     1      -3.700  -2.755   1.132  1.00  0.00     0.028 C 
HETATM   30  C23 UNL     1      -2.234  -2.358   0.924  1.00  0.00     0.170 C 
HETATM   31  O2  UNL     1      -2.181  -2.175  -0.481  1.00  0.00    -0.372 OA
HETATM   32  C24 UNL     1      -1.037  -1.407  -0.764  1.00  0.00     0.293 C 
BRANCH  27  33
HETATM   33  N7  UNL     1      -5.330   0.558   0.248  1.00  0.00     0.084 N 
HETATM   34  C19 UNL     1      -6.578  -0.124  -0.010  1.00  0.00     0.309 C 
HETATM   35  C20 UNL     1      -5.691   1.761   0.968  1.00  0.00     0.309 C 
ENDBRANCH  27  33
ENDBRANCH  16  24
ENDBRANCH  10  12
ENDBRANCH   9  10
ENDBRANCH   1   8
TORSDOF 6
