REMARK  6 active torsions:
REMARK  status: ('A' for Active; 'I' for Inactive)
REMARK    1  A    between atoms: O1_2  and  C2_3 
REMARK    2  A    between atoms: C5_6  and  N1_7 
REMARK    3  A    between atoms: N1_7  and  C6_8 
REMARK    4  A    between atoms: C6_8  and  C7_9 
REMARK    5  A    between atoms: C9_12  and  N2_13 
REMARK    6  A    between atoms: N2_13  and  C10_14 
ROOT
HETATM    1  C2  UNL     1      -1.387  -1.990  -1.090  1.00  0.00     0.095 A 
HETATM    2  C3  UNL     1      -2.757  -1.970  -1.164  1.00  0.00     0.041 A 
HETATM    3  C4  UNL     1      -3.500  -0.948  -0.627  1.00  0.00     0.032 A 
HETATM    4  C5  UNL     1      -2.811   0.069  -0.005  1.00  0.00     0.034 A 
HETATM    5  C8  UNL     1      -1.435   0.025   0.055  1.00  0.00     0.062 A 
HETATM    6  C9  UNL     1      -0.666  -0.987  -0.474  1.00  0.00     0.085 A 
ENDROOT
BRANCH   6   7
HETATM    7  N2  UNL     1       0.750  -0.968  -0.378  1.00  0.00    -0.184 N 
HETATM    8  H9  UNL     1       1.167  -1.838  -0.829  1.00  0.00     0.184 HD
BRANCH   7   9
HETATM    9  C10 UNL     1       1.632  -0.028   0.190  1.00  0.00     0.744 A 
HETATM   10  N3  UNL     1       1.247   1.109   0.782  1.00  0.00    -0.071 NA
HETATM   11  C11 UNL     1       2.114   1.973   1.303  1.00  0.00     0.168 A 
HETATM   12  C12 UNL     1       3.456   1.687   1.231  1.00  0.00     0.076 A 
HETATM   13  C13 UNL     1       4.579   2.359   1.663  1.00  0.00     0.034 A 
HETATM   14  N4  UNL     1       3.812   0.548   0.636  1.00  0.00    -0.228 N 
HETATM   15  C14 UNL     1       5.650   1.547   1.290  1.00  0.00     0.022 A 
HETATM   16  C15 UNL     1       5.161   0.430   0.655  1.00  0.00     0.119 A 
HETATM   17  N5  UNL     1       2.946  -0.287   0.130  1.00  0.00     0.026 NA
ENDBRANCH   7   9
ENDBRANCH   6   7
BRANCH   1  18
HETATM   18  O1  UNL     1      -0.686  -3.041  -1.644  1.00  0.00    -0.354 OA
HETATM   19  C1  UNL     1      -1.355  -4.097  -2.286  1.00  0.00     0.210 C 
ENDBRANCH   1  18
BRANCH   4  20
HETATM   20  N1  UNL     1      -3.614   1.110   0.534  1.00  0.00    -0.362 N 
HETATM   21  H6  UNL     1      -4.009   0.908   1.500  1.00  0.00     0.165 HD
BRANCH  20  22
HETATM   22  C6  UNL     1      -4.116   2.414   0.230  1.00  0.00     0.147 C 
BRANCH  22  23
HETATM   23  C7  UNL     1      -3.388   3.419   0.687  1.00  0.00     0.238 C 
HETATM   24  O2  UNL     1      -3.048   4.324   1.492  1.00  0.00    -0.283 OA
ENDBRANCH  22  23
ENDBRANCH  20  22
ENDBRANCH   4  20
TORSDOF 6
