REMARK  4 active torsions:
REMARK  status: ('A' for Active; 'I' for Inactive)
REMARK    1  A    between atoms: N1_2  and  C2_3 
REMARK    2  A    between atoms: N2_6  and  C5_7 
REMARK    3  A    between atoms: C13_19  and  C14_20 
REMARK    4  A    between atoms: C18_24  and  N6_25 
ROOT
HETATM    1  C2  UNL     1      -0.556   1.783  -0.401  1.00  0.00     0.033 A 
HETATM    2  C3  UNL     1       0.674   2.231  -0.530  1.00  0.00     0.023 A 
HETATM    3  C4  UNL     1       1.789   1.364  -0.160  1.00  0.00     0.161 A 
HETATM    4  N2  UNL     1       1.446   0.072   0.328  1.00  0.00    -0.315 N 
HETATM    5  C12 UNL     1       0.103  -0.296   0.423  1.00  0.00     0.104 A 
HETATM    6  C13 UNL     1      -0.939   0.486   0.085  1.00  0.00    -0.012 A 
ENDROOT
BRANCH   4   7
HETATM    7  C5  UNL     1       2.509  -0.793   0.700  1.00  0.00     0.291 C 
HETATM    8  N3  UNL     1       3.704  -0.479   0.356  1.00  0.00    -0.121 NA
HETATM    9  N4  UNL     1       4.935  -1.132   0.581  1.00  0.00    -0.233 N 
HETATM   10  C6  UNL     1       6.120  -0.849   0.013  1.00  0.00     0.033 A 
HETATM   11  C10 UNL     1       5.132  -2.180   1.429  1.00  0.00     0.078 A 
HETATM   12  C7  UNL     1       6.343   0.230  -0.976  1.00  0.00     0.070 C 
HETATM   13  C8  UNL     1       7.078  -1.703   0.485  1.00  0.00     0.029 A 
HETATM   14  C9  UNL     1       6.453  -2.555   1.390  1.00  0.00     0.035 A 
HETATM   15  C11 UNL     1       4.152  -2.872   2.293  1.00  0.00     0.178 C 
HETATM   16  N5  UNL     1       2.858  -2.750   2.274  1.00  0.00    -0.135 NA
HETATM   17  O1  UNL     1       2.114  -1.931   1.427  1.00  0.00    -0.173 OA
ENDBRANCH   4   7
BRANCH   6  18
HETATM   18  C14 UNL     1      -2.349   0.038   0.210  1.00  0.00     0.024 C 
HETATM   19  C15 UNL     1      -3.100   0.726   1.300  1.00  0.00     0.009 C 
HETATM   20  C16 UNL     1      -4.447   1.222   1.002  1.00  0.00     0.003 C 
HETATM   21  C17 UNL     1      -5.239   0.522  -0.053  1.00  0.00     0.026 C 
HETATM   22  C18 UNL     1      -4.480  -0.242  -1.074  1.00  0.00     0.091 C 
HETATM   23  C20 UNL     1      -3.018   0.059  -1.119  1.00  0.00     0.035 C 
BRANCH  22  24
HETATM   24  N6  UNL     1      -4.781  -1.652  -1.044  1.00  0.00    -0.348 N 
HETATM   25  C19 UNL     1      -4.518  -2.354   0.147  1.00  0.00     0.158 C 
HETATM   26 BR1  UNL     1      -4.320  -2.576  -2.574  1.00  0.00     0.044 Br
ENDBRANCH  22  24
ENDBRANCH   6  18
BRANCH   1  27
HETATM   27  N1  UNL     1      -1.523   2.720  -0.793  1.00  0.00    -0.394 N 
HETATM   28  C1  UNL     1      -1.351   3.427  -2.073  1.00  0.00     0.146 C 
HETATM   29  H4  UNL     1      -2.399   3.026  -0.311  1.00  0.00     0.159 HD
ENDBRANCH   1  27
TORSDOF 4
