REMARK  7 active torsions:
REMARK  status: ('A' for Active; 'I' for Inactive)
REMARK    1  A    between atoms: C2_2  and  C3_3 
REMARK       I    between atoms: C3_3  and  N1_5 
REMARK    2  A    between atoms: N1_5  and  C4_6 
REMARK    3  A    between atoms: C5_7  and  C6_8 
REMARK    4  A    between atoms: C6_8  and  N2_12 
REMARK    5  A    between atoms: C7_9  and  C8_10 
REMARK    6  A    between atoms: C8_10  and  O2_11 
REMARK    7  A    between atoms: N2_12  and  C9_13 
ROOT
HETATM    1  C6  UNL     1       1.133  -1.436   0.092  1.00  0.00     0.049 C 
HETATM    2  C7  UNL     1       0.727  -2.549  -0.496  1.00  0.00     0.029 C 
ENDROOT
BRANCH   1   3
HETATM    3  C5  UNL     1       2.176  -0.591  -0.428  1.00  0.00     0.047 C 
HETATM    4  C4  UNL     1       2.537   0.498   0.202  1.00  0.00     0.093 C 
BRANCH   4   5
HETATM    5  N1  UNL     1       3.540   1.409  -0.203  1.00  0.00    -0.334 N 
HETATM    6  C3  UNL     1       4.384   1.380  -1.345  1.00  0.00     0.244 C 
HETATM    7  O1  UNL     1       4.257   0.422  -2.142  1.00  0.00    -0.268 OA
HETATM    8  H4  UNL     1       3.749   2.269   0.388  1.00  0.00     0.168 HD
BRANCH   6   9
HETATM    9  C2  UNL     1       5.381   2.404  -1.631  1.00  0.00     0.064 C 
HETATM   10  C1  UNL     1       5.642   3.471  -0.901  1.00  0.00     0.017 C 
ENDBRANCH   6   9
ENDBRANCH   4   5
ENDBRANCH   1   3
BRANCH   1  11
HETATM   11  N2  UNL     1       0.342  -1.269   1.289  1.00  0.00    -0.187 N 
HETATM   12  H11 UNL     1       0.586  -1.882   2.121  1.00  0.00     0.184 HD
BRANCH  11  13
HETATM   13  C9  UNL     1      -0.716  -0.287   1.267  1.00  0.00     0.744 A 
HETATM   14  N3  UNL     1      -0.655   0.988   1.684  1.00  0.00    -0.071 NA
HETATM   15  C10 UNL     1      -1.691   1.829   1.614  1.00  0.00     0.168 A 
HETATM   16  C11 UNL     1      -2.888   1.383   1.092  1.00  0.00     0.077 A 
HETATM   17  C12 UNL     1      -4.115   2.006   0.891  1.00  0.00     0.035 A 
HETATM   18  N4  UNL     1      -2.929   0.099   0.678  1.00  0.00    -0.222 N 
HETATM   19  C13 UNL     1      -4.929   1.048   0.329  1.00  0.00     0.029 A 
HETATM   20  C14 UNL     1      -4.171  -0.117   0.210  1.00  0.00     0.033 A 
HETATM   21  C15 UNL     1      -4.774  -1.346  -0.370  1.00  0.00     0.070 C 
HETATM   22  N5  UNL     1      -1.883  -0.715   0.759  1.00  0.00     0.026 NA
ENDBRANCH  11  13
ENDBRANCH   1  11
BRANCH   2  23
HETATM   23  C8  UNL     1      -0.312  -3.533  -0.121  1.00  0.00     0.194 C 
BRANCH  23  24
HETATM   24  O2  UNL     1      -1.251  -3.566  -1.158  1.00  0.00    -0.397 OA
HETATM   25  H10 UNL     1      -0.826  -4.039  -1.930  1.00  0.00     0.209 HD
ENDBRANCH  23  24
ENDBRANCH   2  23
TORSDOF 7
