REMARK  1 active torsions:
REMARK  status: ('A' for Active; 'I' for Inactive)
REMARK    1  A    between atoms: C8_8  and  O1_9 
ROOT
HETATM    1  C1  UNL     1      -3.978  -1.366  -0.515  1.00  0.00     0.011 C 
HETATM    2  C2  UNL     1      -3.178  -0.934  -1.533  1.00  0.00    -0.031 C 
HETATM    3  C3  UNL     1      -3.597   0.491  -1.889  1.00  0.00     0.010 C 
HETATM    4  C4  UNL     1      -2.475   1.480  -1.586  1.00  0.00     0.005 C 
HETATM    5  C5  UNL     1      -2.235   1.398  -0.122  1.00  0.00     0.027 C 
HETATM    6  C6  UNL     1      -1.023   2.092   0.411  1.00  0.00    -0.028 C 
HETATM    7  C7  UNL     1      -0.497   3.055   1.248  1.00  0.00     0.001 C 
HETATM    8  C8  UNL     1       0.994   2.865   0.969  1.00  0.00     0.148 C 
HETATM    9  C10 UNL     1       1.394   1.445   1.439  1.00  0.00    -0.016 C 
HETATM   10  C11 UNL     1       0.340   1.048   2.249  1.00  0.00     0.040 C 
HETATM   11  C12 UNL     1      -0.658   0.496   3.096  1.00  0.00     0.035 C 
HETATM   12  C13 UNL     1      -0.239  -0.833   3.310  1.00  0.00     0.016 C 
HETATM   13  C14 UNL     1       0.850  -1.896   2.894  1.00  0.00     0.086 C 
HETATM   14  N1  UNL     1       1.478  -2.170   1.853  1.00  0.00    -0.284 NA
HETATM   15  C15 UNL     1       1.546  -1.734   0.548  1.00  0.00     0.200 C 
HETATM   16  C16 UNL     1       2.690  -1.148  -0.087  1.00  0.00     0.044 C 
HETATM   17  C17 UNL     1       3.004   0.302  -0.065  1.00  0.00     0.004 C 
HETATM   18  C18 UNL     1       2.868   0.973   1.225  1.00  0.00     0.008 C 
HETATM   19  N2  UNL     1       1.028  -2.922  -0.205  1.00  0.00    -0.170 NA
HETATM   20  N3  UNL     1       2.055  -3.314  -1.189  1.00  0.00    -0.201 NA
HETATM   21  C19 UNL     1       0.752  -2.944  -1.466  1.00  0.00     0.326 A 
HETATM   22  C20 UNL     1      -0.096  -3.573  -2.393  1.00  0.00     0.355 A 
HETATM   23  N4  UNL     1       0.237  -2.115  -2.414  1.00  0.00     0.137 N 
HETATM   24  C21 UNL     1      -0.780  -1.182  -2.239  1.00  0.00     0.278 C 
HETATM   25  C22 UNL     1      -2.109  -1.869  -1.971  1.00  0.00     0.040 C 
HETATM   26  H26 UNL     1       2.294  -4.328  -1.135  1.00  0.00     0.145 HD
ENDROOT
BRANCH   8  27
HETATM   27  O1  UNL     1       1.692   3.754   1.764  1.00  0.00    -0.386 OA
HETATM   28  C9  UNL     1       2.445   4.687   1.083  1.00  0.00     0.202 C 
ENDBRANCH   8  27
TORSDOF 1
