REMARK  1 active torsions:
REMARK  status: ('A' for Active; 'I' for Inactive)
REMARK    1  A    between atoms: C8_10  and  C9_11 
ROOT
HETATM    1  O1  UNL     1       2.920   0.297  -0.290  1.00  0.00    -0.273 OA
HETATM    2  C1  UNL     1       4.115   0.382  -0.597  1.00  0.00     0.223 C 
HETATM    3  C2  UNL     1       4.089   1.810  -0.942  1.00  0.00     0.125 C 
HETATM    4  C3  UNL     1       2.855   2.434  -0.369  1.00  0.00     0.157 C 
HETATM    5  N1  UNL     1       1.620   1.836  -0.820  1.00  0.00    -0.299 NA
HETATM    6  C4  UNL     1       0.630   1.742   0.050  1.00  0.00     0.141 C 
HETATM    7  C5  UNL     1      -0.733   1.248   0.084  1.00  0.00     0.073 A 
HETATM    8  C6  UNL     1      -1.705   2.224  -0.199  1.00  0.00     0.035 A 
HETATM    9  C7  UNL     1      -2.987   1.651  -0.146  1.00  0.00     0.030 A 
HETATM   10  C8  UNL     1      -2.682   0.324   0.177  1.00  0.00     0.039 A 
HETATM   11  N2  UNL     1      -1.365   0.109   0.307  1.00  0.00    -0.258 N 
HETATM   12  N3  UNL     1      -0.881  -1.141   0.619  1.00  0.00    -0.292 N 
HETATM   13  C12 UNL     1       0.427  -1.556   0.250  1.00  0.00     0.072 C 
HETATM   14  C13 UNL     1       0.330  -2.409  -0.796  1.00  0.00     0.166 C 
HETATM   15  O2  UNL     1       1.495  -3.162  -1.128  1.00  0.00    -0.355 OA
HETATM   16  C14 UNL     1       2.588  -3.065  -0.177  1.00  0.00     0.231 C 
HETATM   17  C15 UNL     1       2.682  -1.628   0.224  1.00  0.00     0.038 C 
HETATM   18  C16 UNL     1       1.666  -1.082   0.873  1.00  0.00     0.060 C 
HETATM   19  N4  UNL     1       3.917  -1.000  -0.211  1.00  0.00    -0.329 N 
HETATM   20  H13 UNL     1      -1.366  -1.902   1.113  1.00  0.00     0.187 HD
HETATM   21  H18 UNL     1       4.796  -1.551  -0.273  1.00  0.00     0.168 HD
ENDROOT
BRANCH  10  22
HETATM   22  C9  UNL     1      -3.860  -0.605   0.323  1.00  0.00     0.038 A 
HETATM   23  C10 UNL     1      -5.011  -0.098   1.192  1.00  0.00     0.011 A 
HETATM   24  C11 UNL     1      -5.160  -0.311  -0.276  1.00  0.00     0.011 A 
ENDBRANCH  10  22
TORSDOF 1
