REMARK  7 active torsions:
REMARK  status: ('A' for Active; 'I' for Inactive)
REMARK    1  A    between atoms: C2_2  and  C3_3 
REMARK       I    between atoms: C3_3  and  N1_5 
REMARK    2  A    between atoms: N1_5  and  C4_6 
REMARK    3  A    between atoms: C6_8  and  N2_9 
REMARK    4  A    between atoms: N2_9  and  C7_10 
REMARK    5  A    between atoms: C12_16  and  C13_17 
REMARK    6  A    between atoms: C18_24  and  N6_25 
REMARK    7  A    between atoms: C21_28  and  N7_29 
ROOT
HETATM    1  C4  UNL     1      -0.724   1.306   0.726  1.00  0.00     0.065 C 
HETATM    2  C5  UNL     1       0.499   0.890   0.984  1.00  0.00     0.062 C 
HETATM    3  C6  UNL     1       0.749  -0.491   1.391  1.00  0.00     0.063 C 
HETATM    4  C16 UNL     1      -0.269  -1.252   1.674  1.00  0.00     0.018 C 
HETATM    5  C17 UNL     1      -1.475  -0.793   1.610  1.00  0.00     0.020 C 
HETATM    6  C18 UNL     1      -1.711   0.264   0.895  1.00  0.00     0.069 C 
ENDROOT
BRANCH   3   7
HETATM    7  N2  UNL     1       2.057  -0.988   1.476  1.00  0.00    -0.186 N 
HETATM    8  H6  UNL     1       2.242  -1.683   2.230  1.00  0.00     0.184 HD
BRANCH   7   9
HETATM    9  C7  UNL     1       3.098  -0.590   0.600  1.00  0.00     0.744 A 
HETATM   10  N3  UNL     1       2.866   0.304  -0.373  1.00  0.00    -0.071 NA
HETATM   11  C8  UNL     1       3.855   0.682  -1.204  1.00  0.00     0.168 A 
HETATM   12  C9  UNL     1       5.136   0.162  -1.082  1.00  0.00     0.077 A 
HETATM   13  C10 UNL     1       6.348   0.284  -1.696  1.00  0.00     0.035 A 
HETATM   14  N4  UNL     1       5.302  -0.740  -0.074  1.00  0.00    -0.221 N 
HETATM   15  C11 UNL     1       7.277  -0.534  -1.083  1.00  0.00     0.030 A 
HETATM   16  C12 UNL     1       6.597  -1.166  -0.069  1.00  0.00     0.041 A 
HETATM   17  N5  UNL     1       4.329  -1.107   0.738  1.00  0.00     0.026 NA
BRANCH  16  18
HETATM   18  C13 UNL     1       7.190  -2.157   0.880  1.00  0.00     0.038 A 
HETATM   19  C14 UNL     1       8.608  -1.858   1.326  1.00  0.00     0.011 A 
HETATM   20  C15 UNL     1       8.341  -2.984   0.408  1.00  0.00     0.011 A 
ENDBRANCH  16  18
ENDBRANCH   7   9
ENDBRANCH   3   7
BRANCH   1  21
HETATM   21  N1  UNL     1      -1.137   2.578   0.330  1.00  0.00    -0.322 N 
HETATM   22  C3  UNL     1      -0.392   3.761   0.095  1.00  0.00     0.244 C 
HETATM   23  O1  UNL     1       0.854   3.735   0.251  1.00  0.00    -0.268 OA
HETATM   24  H4  UNL     1      -2.149   2.771   0.156  1.00  0.00     0.169 HD
BRANCH  22  25
HETATM   25  C2  UNL     1      -0.907   5.038  -0.315  1.00  0.00     0.064 C 
HETATM   26  C1  UNL     1       0.059   5.937  -0.445  1.00  0.00     0.017 C 
ENDBRANCH  22  25
ENDBRANCH   1  21
BRANCH   6  27
HETATM   27  N6  UNL     1      -3.021   0.319   0.289  1.00  0.00    -0.378 N 
HETATM   28  C19 UNL     1      -3.219  -0.107  -1.079  1.00  0.00     0.125 C 
HETATM   29  C20 UNL     1      -4.605  -0.632  -1.342  1.00  0.00     0.055 C 
HETATM   30  C21 UNL     1      -5.175  -1.056  -0.028  1.00  0.00     0.225 C 
HETATM   31  C24 UNL     1      -5.449   0.203   0.761  1.00  0.00     0.055 C 
HETATM   32  C25 UNL     1      -4.112   0.810   1.092  1.00  0.00     0.125 C 
BRANCH  30  33
HETATM   33  N7  UNL     1      -6.334  -1.911  -0.114  1.00  0.00     0.084 N 
HETATM   34  C22 UNL     1      -6.078  -3.137  -0.807  1.00  0.00     0.309 C 
HETATM   35  C23 UNL     1      -7.525  -1.278  -0.577  1.00  0.00     0.309 C 
ENDBRANCH  30  33
ENDBRANCH   6  27
TORSDOF 7
