REMARK  4 active torsions:
REMARK  status: ('A' for Active; 'I' for Inactive)
REMARK    1  A    between atoms: C7_8  and  C8_9 
REMARK    2  A    between atoms: C12_13  and  N2_14 
REMARK    3  A    between atoms: N2_14  and  C13_15 
REMARK    4  A    between atoms: C13_15  and  C14_16 
ROOT
HETATM    1  C1  UNL     1      -3.070  -1.004  -1.558  1.00  0.00     0.070 C 
HETATM    2  C2  UNL     1      -3.102   0.088  -0.552  1.00  0.00     0.033 A 
HETATM    3  C3  UNL     1      -4.209   0.875  -0.237  1.00  0.00     0.029 A 
HETATM    4  C4  UNL     1      -3.833   1.782   0.752  1.00  0.00     0.035 A 
HETATM    5  C5  UNL     1      -2.500   1.533   1.024  1.00  0.00     0.076 A 
HETATM    6  C6  UNL     1      -1.649   2.152   1.923  1.00  0.00     0.150 A 
HETATM    7  N1  UNL     1      -0.378   1.702   1.985  1.00  0.00    -0.241 NA
HETATM    8  C7  UNL     1       0.029   0.675   1.181  1.00  0.00     0.154 A 
HETATM    9  N3  UNL     1      -0.834   0.096   0.314  1.00  0.00    -0.151 NA
HETATM   10  N4  UNL     1      -2.092   0.515   0.230  1.00  0.00    -0.235 N 
ENDROOT
BRANCH   8  11
HETATM   11  C8  UNL     1       1.402   0.111   1.175  1.00  0.00     0.087 A 
HETATM   12  C9  UNL     1       1.432  -1.302   1.603  1.00  0.00    -0.014 A 
HETATM   13  C10 UNL     1       1.899  -2.448   1.143  1.00  0.00    -0.001 A 
HETATM   14  C11 UNL     1       2.575  -2.311  -0.136  1.00  0.00     0.027 A 
HETATM   15  C12 UNL     1       2.587  -1.070  -0.581  1.00  0.00     0.045 A 
HETATM   16  C15 UNL     1       2.093   0.248  -0.134  1.00  0.00     0.076 A 
BRANCH  15  17
HETATM   17  N2  UNL     1       3.254  -0.914  -1.851  1.00  0.00    -0.207 NA
BRANCH  17  18
HETATM   18  C13 UNL     1       4.262  -0.116  -1.880  1.00  0.00     0.044 C 
BRANCH  18  19
HETATM   19  C14 UNL     1       5.224   0.714  -2.072  1.00  0.00     0.295 C 
HETATM   20  O1  UNL     1       5.814   1.801  -2.199  1.00  0.00    -0.272 OA
ENDBRANCH  18  19
ENDBRANCH  17  18
ENDBRANCH  15  17
ENDBRANCH   8  11
TORSDOF 4
