REMARK  4 active torsions:
REMARK  status: ('A' for Active; 'I' for Inactive)
REMARK    1  A    between atoms: O1_2  and  C2_3 
REMARK    2  A    between atoms: C6_9  and  N3_10 
REMARK    3  A    between atoms: N3_10  and  C7_11 
REMARK    4  A    between atoms: C18_25  and  C19_26 
REMARK       I    between atoms: C19_26  and  N5_27 
ROOT
HETATM    1  C2  UNL     1      -2.155   1.821  -0.916  1.00  0.00     0.146 C 
HETATM    2  C3  UNL     1      -1.257   2.722  -0.430  1.00  0.00     0.230 C 
HETATM    3  C4  UNL     1       0.072   2.502   0.197  1.00  0.00     0.060 A 
HETATM    4  N1  UNL     1       0.537   3.729   0.440  1.00  0.00    -0.245 NA
HETATM    5  C5  UNL     1       1.744   3.947   1.031  1.00  0.00     0.235 A 
HETATM    6  N2  UNL     1       2.519   2.923   1.397  1.00  0.00    -0.224 NA
HETATM    7  C6  UNL     1       2.175   1.639   1.213  1.00  0.00     0.141 A 
HETATM    8  C13 UNL     1       0.973   1.494   0.624  1.00  0.00     0.037 A 
HETATM    9  C14 UNL     1       0.246   0.345   0.221  1.00  0.00     0.041 C 
HETATM   10  C15 UNL     1      -0.394  -0.698  -0.222  1.00  0.00     0.004 C 
HETATM   11  C16 UNL     1       0.011  -0.678  -1.633  1.00  0.00     0.068 C 
HETATM   12  N4  UNL     1      -1.302  -1.711   0.294  1.00  0.00    -0.374 N 
HETATM   13  C17 UNL     1      -0.638  -2.978   0.047  1.00  0.00     0.150 C 
HETATM   14  C18 UNL     1      -2.390  -0.916   0.782  1.00  0.00     0.194 C 
HETATM   15  C20 UNL     1      -3.264  -0.299  -0.289  1.00  0.00     0.205 C 
HETATM   16  O3  UNL     1      -2.603   0.498  -1.210  1.00  0.00    -0.358 OA
ENDROOT
BRANCH   7  17
HETATM   17  N3  UNL     1       2.614   0.308   1.430  1.00  0.00    -0.338 N 
HETATM   18  H6  UNL     1       2.328  -0.149   2.313  1.00  0.00     0.167 HD
BRANCH  17  19
HETATM   19  C7  UNL     1       3.415  -0.381   0.483  1.00  0.00     0.074 A 
HETATM   20  C8  UNL     1       3.798   0.228  -0.690  1.00  0.00     0.033 A 
HETATM   21  C9  UNL     1       4.574  -0.357  -1.668  1.00  0.00     0.004 A 
HETATM   22  C10 UNL     1       4.969  -1.656  -1.399  1.00  0.00     0.027 A 
HETATM   23  C11 UNL     1       4.604  -2.287  -0.241  1.00  0.00     0.074 A 
HETATM   24 CL1  UNL     1       5.127  -3.943   0.066  1.00  0.00    -0.081 Cl
HETATM   25  C12 UNL     1       3.819  -1.667   0.728  1.00  0.00     0.164 A 
HETATM   26  F1  UNL     1       3.434  -2.233   1.872  1.00  0.00    -0.202 F 
ENDBRANCH  17  19
ENDBRANCH   7  17
BRANCH   1  27
HETATM   27  O1  UNL     1      -3.301   2.401  -1.433  1.00  0.00    -0.365 OA
HETATM   28  C1  UNL     1      -3.653   3.763  -1.282  1.00  0.00     0.204 C 
ENDBRANCH   1  27
BRANCH  14  29
HETATM   29  C19 UNL     1      -3.350  -1.854   1.508  1.00  0.00     0.220 C 
HETATM   30  N5  UNL     1      -3.182  -3.247   1.652  1.00  0.00    -0.271 NA
HETATM   31  H18 UNL     1      -4.060  -3.742   1.946  1.00  0.00     0.127 HD
HETATM   32  H19 UNL     1      -4.030  -3.750   1.940  1.00  0.00     0.127 HD
HETATM   33  O2  UNL     1      -4.316  -1.184   1.957  1.00  0.00    -0.278 OA
ENDBRANCH  14  29
TORSDOF 4
