REMARK  6 active torsions:
REMARK  status: ('A' for Active; 'I' for Inactive)
REMARK    1  A    between atoms: C3_3  and  N1_5 
REMARK    2  A    between atoms: N1_5  and  C4_6 
REMARK    3  A    between atoms: C6_8  and  C7_9 
REMARK    4  A    between atoms: C13_17  and  O2_18 
REMARK    5  A    between atoms: C16_21  and  N4_22 
REMARK    6  A    between atoms: C19_25  and  N5_26 
ROOT
HETATM    1  C4  UNL     1      -0.607   0.520   1.077  1.00  0.00     0.061 A 
HETATM    2  C5  UNL     1      -1.983   0.602   1.155  1.00  0.00     0.048 A 
HETATM    3  C6  UNL     1      -2.762   0.044   0.140  1.00  0.00     0.026 A 
HETATM    4  C13 UNL     1      -2.094  -0.563  -0.892  1.00  0.00     0.082 A 
HETATM    5  C15 UNL     1      -0.720  -0.633  -0.950  1.00  0.00     0.069 A 
HETATM    6  C16 UNL     1       0.061  -0.088   0.041  1.00  0.00     0.060 A 
ENDROOT
BRANCH   6   7
HETATM    7  N4  UNL     1       1.469  -0.183  -0.043  1.00  0.00    -0.379 N 
HETATM    8  C17 UNL     1       2.072  -0.720  -1.245  1.00  0.00     0.125 C 
HETATM    9  C18 UNL     1       3.428  -0.107  -1.466  1.00  0.00     0.055 C 
HETATM   10  C19 UNL     1       4.422  -0.715  -0.493  1.00  0.00     0.225 C 
HETATM   11  C22 UNL     1       3.680  -0.830   0.827  1.00  0.00     0.055 C 
HETATM   12  C23 UNL     1       2.512   0.150   0.868  1.00  0.00     0.125 C 
BRANCH  10  13
HETATM   13  N5  UNL     1       5.599   0.098  -0.384  1.00  0.00     0.084 N 
HETATM   14  C20 UNL     1       6.551  -0.477   0.541  1.00  0.00     0.309 C 
HETATM   15  C21 UNL     1       6.234   0.190  -1.679  1.00  0.00     0.309 C 
ENDBRANCH  10  13
ENDBRANCH   6   7
BRANCH   1  16
HETATM   16  N1  UNL     1       0.041   1.128   2.158  1.00  0.00    -0.335 N 
HETATM   17  H4  UNL     1       0.413   1.018   3.144  1.00  0.00     0.168 HD
BRANCH  16  18
HETATM   18  C3  UNL     1       0.350   2.487   1.880  1.00  0.00     0.141 A 
HETATM   19  C2  UNL     1       1.016   3.539   2.676  1.00  0.00     0.056 A 
HETATM   20  C1  UNL     1       0.981   4.567   1.829  1.00  0.00     0.209 A 
HETATM   21  O1  UNL     1       0.335   3.477   1.109  1.00  0.00    -0.332 OA
ENDBRANCH  16  18
ENDBRANCH   1  16
BRANCH   4  22
HETATM   22  O2  UNL     1      -2.915  -1.103  -1.878  1.00  0.00    -0.355 OA
HETATM   23  C14 UNL     1      -2.358  -1.769  -3.020  1.00  0.00     0.210 C 
ENDBRANCH   4  22
BRANCH   3  24
HETATM   24  C7  UNL     1      -4.218   0.118   0.199  1.00  0.00     0.074 C 
HETATM   25  N2  UNL     1      -5.062   1.071  -0.182  1.00  0.00    -0.175 NA
HETATM   26  N3  UNL     1      -6.395   0.659   0.097  1.00  0.00    -0.272 N 
HETATM   27  C8  UNL     1      -7.769   0.340   0.410  1.00  0.00     0.111 A 
HETATM   28  C10 UNL     1      -6.246  -0.763  -0.255  1.00  0.00     0.143 A 
HETATM   29  C9  UNL     1      -7.612  -0.939   0.098  1.00  0.00     0.020 A 
HETATM   30  C11 UNL     1      -5.098  -1.035   0.717  1.00  0.00     0.065 C 
HETATM   31  C12 UNL     1      -4.514  -2.361   0.393  1.00  0.00     0.019 C 
ENDBRANCH   3  24
TORSDOF 6
