REMARK  8 active torsions:
REMARK  status: ('A' for Active; 'I' for Inactive)
REMARK    1  A    between atoms: C2_2  and  C3_3 
REMARK       I    between atoms: C3_3  and  N1_5 
REMARK    2  A    between atoms: N1_5  and  C4_6 
REMARK    3  A    between atoms: C4_6  and  C5_7 
REMARK    4  A    between atoms: C4_6  and  C13_18 
REMARK    5  A    between atoms: C5_7  and  C6_8 
REMARK    6  A    between atoms: C6_8  and  N2_9 
REMARK    7  A    between atoms: N2_9  and  C7_10 
REMARK    8  A    between atoms: C18_24  and  N6_25 
ROOT
HETATM    1  C4  UNL     1       0.403   0.594   0.614  1.00  0.00     0.059 C 
ENDROOT
BRANCH   1   2
HETATM    2  N1  UNL     1       0.588  -0.644   1.263  1.00  0.00    -0.322 N 
HETATM    3  C3  UNL     1       1.806  -1.263   1.560  1.00  0.00     0.242 C 
HETATM    4  O1  UNL     1       2.931  -0.810   1.291  1.00  0.00    -0.269 OA
HETATM    5  H4  UNL     1      -0.180  -1.194   1.614  1.00  0.00     0.169 HD
BRANCH   3   6
HETATM    6  C2  UNL     1       2.010  -2.526   2.219  1.00  0.00     0.065 C 
HETATM    7  C1  UNL     1       0.846  -3.123   2.569  1.00  0.00     0.019 C 
ENDBRANCH   3   6
ENDBRANCH   1   2
BRANCH   1   8
HETATM    8  C5  UNL     1       1.263   1.528   0.253  1.00  0.00     0.025 C 
BRANCH   8   9
HETATM    9  C6  UNL     1       2.042   2.641  -0.209  1.00  0.00     0.167 C 
BRANCH   9  10
HETATM   10  N2  UNL     1       3.037   2.194  -1.198  1.00  0.00    -0.219 N 
HETATM   11  H8  UNL     1       2.978   2.454  -2.223  1.00  0.00     0.178 HD
BRANCH  10  12
HETATM   12  C7  UNL     1       4.141   1.368  -0.782  1.00  0.00     0.721 A 
HETATM   13  N3  UNL     1       4.596   1.710   0.377  1.00  0.00    -0.076 NA
HETATM   14  C8  UNL     1       5.672   1.120   1.095  1.00  0.00     0.133 A 
HETATM   15  C9  UNL     1       6.409   0.104   0.693  1.00  0.00     0.003 A 
HETATM   16  C10 UNL     1       6.475  -0.765  -0.478  1.00  0.00     0.047 A 
HETATM   17  C11 UNL     1       7.866  -0.837  -1.098  1.00  0.00     0.020 C 
HETATM   18  C12 UNL     1       5.488  -0.496  -1.522  1.00  0.00     0.117 A 
HETATM   19  N4  UNL     1       4.528   0.346  -1.699  1.00  0.00    -0.079 NA
ENDBRANCH  10  12
ENDBRANCH   9  10
ENDBRANCH   8   9
ENDBRANCH   1   8
BRANCH   1  20
HETATM   20  C13 UNL     1      -0.938   0.973   0.274  1.00  0.00     0.056 C 
HETATM   21  C14 UNL     1      -1.274   2.140  -0.304  1.00  0.00     0.034 C 
HETATM   22  C15 UNL     1      -2.700   2.386  -0.595  1.00  0.00     0.302 C 
HETATM   23  N5  UNL     1      -3.624   1.970   0.408  1.00  0.00     0.110 N 
HETATM   24  C16 UNL     1      -3.357   0.662   0.951  1.00  0.00     0.324 C 
HETATM   25  H19 UNL     1      -3.631   2.669   1.171  1.00  0.00     0.319 HD
HETATM   26  C17 UNL     1      -4.495  -0.271   0.740  1.00  0.00     0.093 C 
HETATM   27  N7  UNL     1      -2.082   0.140   0.433  1.00  0.00    -0.349 N 
HETATM   28  C18 UNL     1      -4.437  -1.170  -0.441  1.00  0.00     0.227 C 
HETATM   29  C21 UNL     1      -3.080  -1.365  -1.052  1.00  0.00     0.055 C 
HETATM   30  C22 UNL     1      -1.986  -1.244   0.040  1.00  0.00     0.127 C 
BRANCH  28  31
HETATM   31  N6  UNL     1      -5.420  -0.937  -1.457  1.00  0.00     0.084 N 
HETATM   32  C19 UNL     1      -6.749  -1.117  -0.902  1.00  0.00     0.309 C 
HETATM   33  C20 UNL     1      -5.375   0.321  -2.116  1.00  0.00     0.309 C 
ENDBRANCH  28  31
ENDBRANCH   1  20
TORSDOF 8
