REMARK  8 active torsions:
REMARK  status: ('A' for Active; 'I' for Inactive)
REMARK    1  A    between atoms: C2_2  and  C3_3 
REMARK       I    between atoms: C3_3  and  N1_5 
REMARK    2  A    between atoms: N1_5  and  C4_6 
REMARK    3  A    between atoms: C6_8  and  S1_9 
REMARK    4  A    between atoms: N2_11  and  C8_12 
REMARK    5  A    between atoms: C8_12  and  C9_13 
REMARK    6  A    between atoms: C9_13  and  C10_14 
REMARK    7  A    between atoms: C10_14  and  C11_15 
REMARK    8  A    between atoms: C10_14  and  N3_17 
ROOT
HETATM    1  C4  UNL     1       2.983   0.750   0.078  1.00  0.00     0.031 A 
HETATM    2  C5  UNL     1       3.164   2.040   0.330  1.00  0.00     0.046 A 
HETATM    3  C6  UNL     1       2.001   2.810   0.774  1.00  0.00     0.014 A 
HETATM    4  C7  UNL     1       0.803   2.265   0.927  1.00  0.00     0.104 A 
HETATM    5  N2  UNL     1       0.627   0.878   0.651  1.00  0.00    -0.383 N 
HETATM    6  C15 UNL     1       1.704   0.011   0.204  1.00  0.00     0.179 A 
ENDROOT
BRANCH   5   7
HETATM    7  C8  UNL     1      -0.690   0.264   0.816  1.00  0.00     0.124 C 
BRANCH   7   8
HETATM    8  C9  UNL     1      -1.270  -0.143  -0.516  1.00  0.00     0.044 C 
BRANCH   8   9
HETATM    9  C10 UNL     1      -2.634  -0.785  -0.403  1.00  0.00     0.079 C 
BRANCH   9  10
HETATM   10  C11 UNL     1      -3.186  -1.181  -1.748  1.00  0.00     0.020 C 
HETATM   11  C12 UNL     1      -4.542  -1.822  -1.649  1.00  0.00     0.007 C 
ENDBRANCH   9  10
BRANCH   9  12
HETATM   12  N3  UNL     1      -3.484   0.002   0.384  1.00  0.00    -0.417 N 
HETATM   13  C13 UNL     1      -3.778   1.323   0.020  1.00  0.00     0.143 C 
HETATM   14  C14 UNL     1      -3.891  -0.470   1.650  1.00  0.00     0.143 C 
ENDBRANCH   9  12
ENDBRANCH   8   9
ENDBRANCH   7   8
ENDBRANCH   5   7
BRANCH   3  15
HETATM   15  S1  UNL     1       2.185   4.551   1.129  1.00  0.00    -0.142 SA
HETATM   16  H6  UNL     1       2.619   4.632   2.485  1.00  0.00     0.107 HD
ENDBRANCH   3  15
BRANCH   1  17
HETATM   17  N1  UNL     1       4.128   0.029  -0.351  1.00  0.00    -0.326 N 
HETATM   18  C3  UNL     1       4.650  -1.085   0.360  1.00  0.00     0.244 C 
HETATM   19  O1  UNL     1       4.039  -1.411   1.410  1.00  0.00    -0.268 OA
HETATM   20  H4  UNL     1       4.648   0.294  -1.230  1.00  0.00     0.169 HD
BRANCH  18  21
HETATM   21  C2  UNL     1       5.827  -1.799  -0.111  1.00  0.00     0.064 C 
HETATM   22  C1  UNL     1       6.580  -1.611  -1.158  1.00  0.00     0.017 C 
ENDBRANCH  18  21
ENDBRANCH   1  17
TORSDOF 8
