REMARK  6 active torsions:
REMARK  status: ('A' for Active; 'I' for Inactive)
REMARK    1  A    between atoms: N1_2  and  C2_3 
REMARK    2  A    between atoms: N1_2  and  C3_5 
REMARK    3  A    between atoms: C3_5  and  C4_6 
REMARK    4  A    between atoms: C5_7  and  C6_8 
REMARK    5  A    between atoms: C11_15  and  N4_16 
REMARK    6  A    between atoms: N4_16  and  C12_17 
ROOT
HETATM    1  C6  UNL     1      -1.213   0.869  -0.239  1.00  0.00    -0.035 A 
HETATM    2  C7  UNL     1      -1.494   2.215  -0.178  1.00  0.00     0.014 A 
HETATM    3  C8  UNL     1      -0.439   3.094  -0.052  1.00  0.00     0.033 A 
HETATM    4  C9  UNL     1       0.823   2.595   0.007  1.00  0.00     0.072 A 
HETATM    5  N2  UNL     1       1.809   3.513   0.131  1.00  0.00    -0.241 NA
HETATM    6  C10 UNL     1       3.101   3.128   0.199  1.00  0.00     0.236 A 
HETATM    7  N3  UNL     1       3.391   1.826   0.142  1.00  0.00    -0.224 NA
HETATM    8  C11 UNL     1       2.489   0.849   0.020  1.00  0.00     0.142 A 
HETATM    9  C18 UNL     1       1.176   1.263  -0.047  1.00  0.00     0.040 A 
HETATM   10  C19 UNL     1       0.091   0.428  -0.173  1.00  0.00     0.029 A 
ENDROOT
BRANCH   8  11
HETATM   11  N4  UNL     1       2.766  -0.535  -0.043  1.00  0.00    -0.340 N 
HETATM   12  H12 UNL     1       2.028  -1.232  -0.115  1.00  0.00     0.167 HD
BRANCH  11  13
HETATM   13  C12 UNL     1       4.031  -1.168  -0.020  1.00  0.00     0.035 A 
HETATM   14  C13 UNL     1       5.224  -0.490  -0.075  1.00  0.00     0.032 A 
HETATM   15  C14 UNL     1       6.483  -1.046  -0.050  1.00  0.00     0.046 A 
HETATM   16  C15 UNL     1       6.590  -2.420   0.039  1.00  0.00     0.138 A 
HETATM   17  F1  UNL     1       7.767  -3.081   0.072  1.00  0.00    -0.204 F 
HETATM   18  C16 UNL     1       5.430  -3.158   0.097  1.00  0.00     0.074 A 
HETATM   19 CL1  UNL     1       5.498  -4.903   0.211  1.00  0.00    -0.081 Cl
HETATM   20  C17 UNL     1       4.203  -2.537   0.067  1.00  0.00     0.056 A 
ENDBRANCH  11  13
ENDBRANCH   8  11
BRANCH   1  21
HETATM   21  C5  UNL     1      -2.292  -0.097  -0.371  1.00  0.00     0.009 C 
HETATM   22  C4  UNL     1      -3.562   0.256  -0.436  1.00  0.00    -0.006 C 
BRANCH  22  23
HETATM   23  C3  UNL     1      -4.708  -0.675  -0.570  1.00  0.00     0.152 C 
BRANCH  23  24
HETATM   24  N1  UNL     1      -5.642  -0.587   0.529  1.00  0.00    -0.360 N 
HETATM   25  C1  UNL     1      -6.786   0.298   0.572  1.00  0.00     0.152 C 
BRANCH  24  26
HETATM   26  C2  UNL     1      -5.421  -1.442   1.669  1.00  0.00     0.350 C 
HETATM   27  O1  UNL     1      -6.338  -1.212   2.506  1.00  0.00    -0.284 OA
ENDBRANCH  24  26
ENDBRANCH  23  24
ENDBRANCH  22  23
ENDBRANCH   1  21
TORSDOF 6
