REMARK  6 active torsions:
REMARK  status: ('A' for Active; 'I' for Inactive)
REMARK    1  A    between atoms: C2_2  and  C3_3 
REMARK    2  A    between atoms: C3_3  and  C4_5 
REMARK    3  A    between atoms: C6_7  and  N1_8 
REMARK    4  A    between atoms: C10_12  and  C11_13 
REMARK    5  A    between atoms: C20_24  and  O2_25 
REMARK    6  A    between atoms: C23_28  and  N4_29 
ROOT
HETATM    1  C4  UNL     1      -3.379   1.058   0.298  1.00  0.00    -0.001 C 
HETATM    2  C5  UNL     1      -2.118   0.709   0.500  1.00  0.00     0.045 C 
HETATM    3  C6  UNL     1      -1.488  -0.455  -0.147  1.00  0.00     0.087 C 
HETATM    4  C20 UNL     1      -1.784  -1.090  -1.276  1.00  0.00     0.098 C 
HETATM    5  C22 UNL     1      -2.893  -0.706  -2.159  1.00  0.00     0.064 C 
HETATM    6  C23 UNL     1      -3.996  -0.052  -1.831  1.00  0.00     0.011 C 
HETATM    7  C25 UNL     1      -4.470   0.491  -0.532  1.00  0.00     0.099 C 
ENDROOT
BRANCH   3   8
HETATM    8  N1  UNL     1      -0.371  -0.998   0.553  1.00  0.00    -0.263 N 
HETATM    9  C7  UNL     1      -0.755  -2.008   1.542  1.00  0.00     0.179 A 
HETATM   10  C8  UNL     1       0.408  -2.563   2.261  1.00  0.00    -0.003 A 
HETATM   11  C9  UNL     1       1.656  -2.209   2.055  1.00  0.00     0.032 A 
HETATM   12  C10 UNL     1       1.920  -1.179   1.031  1.00  0.00     0.089 A 
HETATM   13  N3  UNL     1       0.947  -0.649   0.362  1.00  0.00    -0.171 NA
BRANCH  12  14
HETATM   14  C11 UNL     1       3.272  -0.738   0.749  1.00  0.00     0.022 A 
HETATM   15  C12 UNL     1       4.265  -1.599   0.286  1.00  0.00     0.105 A 
HETATM   16  N2  UNL     1       5.369  -0.833   0.143  1.00  0.00    -0.359 N 
HETATM   17  C13 UNL     1       6.642  -1.322  -0.318  1.00  0.00     0.156 C 
HETATM   18  C14 UNL     1       5.109   0.434   0.490  1.00  0.00     0.045 A 
HETATM   19  C15 UNL     1       5.826   1.618   0.546  1.00  0.00     0.030 A 
HETATM   20  C19 UNL     1       3.796   0.532   0.878  1.00  0.00     0.005 A 
HETATM   21  C16 UNL     1       5.228   2.802   0.970  1.00  0.00     0.002 A 
HETATM   22  C17 UNL     1       3.892   2.861   1.355  1.00  0.00     0.001 A 
HETATM   23  C18 UNL     1       3.171   1.686   1.302  1.00  0.00     0.014 A 
ENDBRANCH  12  14
ENDBRANCH   3   8
BRANCH   4  24
HETATM   24  O2  UNL     1      -1.038  -2.166  -1.675  1.00  0.00    -0.354 OA
HETATM   25  C21 UNL     1      -0.326  -2.272  -2.871  1.00  0.00     0.210 C 
ENDBRANCH   4  24
BRANCH   1  26
HETATM   26  C3  UNL     1      -3.722   2.248   1.070  1.00  0.00     0.174 C 
HETATM   27  O1  UNL     1      -4.829   2.845   1.113  1.00  0.00    -0.288 OA
BRANCH  26  28
HETATM   28  C2  UNL     1      -2.718   2.882   1.919  1.00  0.00     0.029 C 
HETATM   29  C1  UNL     1      -3.061   3.965   2.610  1.00  0.00     0.035 C 
ENDBRANCH  26  28
ENDBRANCH   1  26
BRANCH   6  30
HETATM   30  N4  UNL     1      -4.890   0.166  -2.942  1.00  0.00    -0.397 N 
HETATM   31  C24 UNL     1      -5.866  -0.901  -3.113  1.00  0.00     0.146 C 
HETATM   32  H21 UNL     1      -4.659   1.069  -3.421  1.00  0.00     0.158 HD
ENDBRANCH   6  30
TORSDOF 6
