REMARK  10 active torsions:
REMARK  status: ('A' for Active; 'I' for Inactive)
REMARK    1  A    between atoms: C2_2  and  C3_3 
REMARK    2  A    between atoms: C3_3  and  N1_4 
REMARK    3  A    between atoms: N1_4  and  C4_5 
REMARK    4  A    between atoms: C6_7  and  N2_8 
REMARK    5  A    between atoms: C10_13  and  N4_14 
REMARK    6  A    between atoms: C11_15  and  O1_16 
REMARK    7  A    between atoms: C14_19  and  N5_20 
REMARK    8  A    between atoms: N5_20  and  C16_22 
REMARK    9  A    between atoms: C16_22  and  C17_23 
REMARK   10  A    between atoms: C17_23  and  N6_24 
ROOT
HETATM    1  C4  UNL     1      -0.337   0.643  -0.564  1.00  0.00     0.057 A 
HETATM    2  C5  UNL     1      -1.605   0.846  -0.079  1.00  0.00     0.064 A 
HETATM    3  C6  UNL     1      -2.372  -0.223   0.359  1.00  0.00     0.077 A 
HETATM    4  C11 UNL     1      -1.804  -1.501   0.285  1.00  0.00     0.097 A 
HETATM    5  C13 UNL     1      -0.526  -1.679  -0.206  1.00  0.00     0.070 A 
HETATM    6  C14 UNL     1       0.243  -0.594  -0.646  1.00  0.00     0.059 A 
ENDROOT
BRANCH   3   7
HETATM    7  N2  UNL     1      -3.658   0.082   0.837  1.00  0.00    -0.288 N 
HETATM    8  C7  UNL     1      -3.916   0.656   2.023  1.00  0.00     0.216 A 
HETATM    9  N3  UNL     1      -5.165   0.932   2.446  1.00  0.00    -0.255 NA
HETATM   10  C8  UNL     1      -6.237   0.628   1.660  1.00  0.00     0.122 A 
HETATM   11  C9  UNL     1      -6.017   0.029   0.417  1.00  0.00     0.070 A 
HETATM   12  C10 UNL     1      -4.716  -0.231   0.035  1.00  0.00     0.129 A 
BRANCH  12  13
HETATM   13  N4  UNL     1      -4.492  -0.786  -1.117  1.00  0.00    -0.283 NA
HETATM   14  H11 UNL     1      -3.509  -0.986  -1.415  1.00  0.00     0.188 HD
ENDBRANCH  12  13
ENDBRANCH   3   7
BRANCH   4  15
HETATM   15  O1  UNL     1      -2.681  -2.468   0.755  1.00  0.00    -0.354 OA
HETATM   16  C12 UNL     1      -2.246  -3.814   0.744  1.00  0.00     0.210 C 
ENDBRANCH   4  15
BRANCH   1  17
HETATM   17  N1  UNL     1       0.480   1.697  -1.041  1.00  0.00    -0.385 N 
HETATM   18  H6  UNL     1       1.423   1.640  -1.425  1.00  0.00     0.160 HD
BRANCH  17  19
HETATM   19  C3  UNL     1      -0.066   3.034  -0.989  1.00  0.00     0.146 C 
BRANCH  19  20
HETATM   20  C2  UNL     1       0.850   4.074  -1.496  1.00  0.00    -0.018 C 
HETATM   21  C1  UNL     1       1.447   5.159  -1.069  1.00  0.00     0.008 C 
ENDBRANCH  19  20
ENDBRANCH  17  19
ENDBRANCH   1  17
BRANCH   6  22
HETATM   22  N5  UNL     1       1.516  -1.054  -1.073  1.00  0.00    -0.382 N 
HETATM   23  C15 UNL     1       2.141  -0.625  -2.322  1.00  0.00     0.150 C 
BRANCH  22  24
HETATM   24  C16 UNL     1       2.298  -2.033  -0.391  1.00  0.00     0.152 C 
BRANCH  24  25
HETATM   25  C17 UNL     1       3.594  -1.699   0.211  1.00  0.00     0.291 C 
BRANCH  25  26
HETATM   26  N6  UNL     1       3.658  -0.750   1.275  1.00  0.00     0.081 N 
HETATM   27  C18 UNL     1       5.048  -0.708   1.817  1.00  0.00     0.309 C 
HETATM   28  C19 UNL     1       3.451   0.599   0.784  1.00  0.00     0.309 C 
ENDBRANCH  25  26
ENDBRANCH  24  25
ENDBRANCH  22  24
ENDBRANCH   6  22
TORSDOF 10
