REMARK  8 active torsions:
REMARK  status: ('A' for Active; 'I' for Inactive)
REMARK    1  A    between atoms: C5_7  and  C6_8 
REMARK    2  A    between atoms: C6_8  and  O1_9 
REMARK    3  A    between atoms: O1_9  and  C7_10 
REMARK    4  A    between atoms: C10_13  and  N2_14 
REMARK       I    between atoms: N2_14  and  C11_15 
REMARK    5  A    between atoms: C11_15  and  C12_17 
REMARK    6  A    between atoms: N3_20  and  C15_21 
REMARK    7  A    between atoms: C15_21  and  C16_22 
REMARK    8  A    between atoms: C16_22  and  N4_23 
ROOT
HETATM    1  B1  UNL     1       6.366  -3.621   2.336  1.00  0.00     0.199 B 
HETATM    2  C1  UNL     1       4.810  -2.140   2.303  1.00  0.00    -0.206 C 
HETATM    3  C2  UNL     1       3.813  -1.181   2.305  1.00  0.00     0.086 A 
HETATM    4  C3  UNL     1       3.641  -0.506   3.461  1.00  0.00     0.058 A 
HETATM    5  C4  UNL     1       2.608   0.419   3.305  1.00  0.00     0.121 A 
HETATM    6  N1  UNL     1       1.926   0.568   2.158  1.00  0.00    -0.242 NA
HETATM    7  C5  UNL     1       2.166  -0.159   1.032  1.00  0.00     0.167 A 
HETATM    8  N5  UNL     1       3.176  -1.085   1.134  1.00  0.00    -0.223 NA
ENDROOT
BRANCH   7   9
HETATM    9  C6  UNL     1       1.433  -0.017  -0.241  1.00  0.00     0.168 C 
HETATM   10  C9  UNL     1       1.315   1.433  -0.512  1.00  0.00     0.047 C 
HETATM   11  C10 UNL     1       0.157   2.012  -0.755  1.00  0.00     0.040 C 
HETATM   12  C14 UNL     1      -1.126   1.269  -0.780  1.00  0.00     0.329 C 
HETATM   13  N3  UNL     1      -0.961  -0.146  -0.887  1.00  0.00     0.099 N 
HETATM   14  C19 UNL     1       0.117  -0.720  -0.161  1.00  0.00     0.323 C 
BRANCH   9  15
HETATM   15  O1  UNL     1       2.232  -0.544  -1.254  1.00  0.00    -0.366 OA
BRANCH  15  16
HETATM   16  C7  UNL     1       1.659  -0.471  -2.502  1.00  0.00     0.165 C 
HETATM   17  C8  UNL     1       2.660  -1.088  -3.487  1.00  0.00     0.033 C 
ENDBRANCH  15  16
ENDBRANCH   9  15
BRANCH  11  18
HETATM   18  N2  UNL     1       0.096   3.416  -1.011  1.00  0.00    -0.326 N 
HETATM   19  C11 UNL     1      -0.692   4.229  -0.128  1.00  0.00     0.244 C 
HETATM   20  O2  UNL     1      -1.312   3.725   0.842  1.00  0.00    -0.268 OA
HETATM   21  H9  UNL     1       0.596   3.874  -1.806  1.00  0.00     0.169 HD
BRANCH  19  22
HETATM   22  C12 UNL     1      -0.819   5.682  -0.305  1.00  0.00     0.064 C 
HETATM   23  C13 UNL     1      -1.550   6.455   0.510  1.00  0.00     0.017 C 
ENDBRANCH  19  22
ENDBRANCH  11  18
BRANCH  13  24
HETATM   24  C15 UNL     1      -2.197  -0.752  -0.402  1.00  0.00     0.303 C 
BRANCH  24  25
HETATM   25  C16 UNL     1      -2.155  -2.254  -0.461  1.00  0.00     0.301 C 
BRANCH  25  26
HETATM   26  N4  UNL     1      -3.399  -2.814   0.028  1.00  0.00     0.081 N 
HETATM   27  C17 UNL     1      -3.314  -4.261  -0.047  1.00  0.00     0.309 C 
HETATM   28  C18 UNL     1      -3.676  -2.453   1.387  1.00  0.00     0.309 C 
ENDBRANCH  25  26
ENDBRANCH  24  25
ENDBRANCH  13  24
ENDBRANCH   7   9
TORSDOF 8
