REMARK  7 active torsions:
REMARK  status: ('A' for Active; 'I' for Inactive)
REMARK    1  A    between atoms: C2_2  and  C3_3 
REMARK       I    between atoms: C3_3  and  N1_5 
REMARK    2  A    between atoms: N1_5  and  C4_6 
REMARK    3  A    between atoms: C7_10  and  O2_11 
REMARK    4  A    between atoms: C10_14  and  N2_15 
REMARK    5  A    between atoms: N2_15  and  C12_17 
REMARK    6  A    between atoms: C12_17  and  C13_18 
REMARK    7  A    between atoms: C13_18  and  N3_19 
ROOT
HETATM    1  C4  UNL     1       1.724   0.388  -0.153  1.00  0.00     0.063 A 
HETATM    2  C5  UNL     1       3.084   0.383  -0.093  1.00  0.00     0.058 A 
HETATM    3  C6  UNL     1       3.812  -0.761  -0.033  1.00  0.00     0.069 A 
HETATM    4 CL1  UNL     1       5.567  -0.753   0.043  1.00  0.00    -0.081 Cl
HETATM    5  C7  UNL     1       3.175  -1.983  -0.031  1.00  0.00     0.092 A 
HETATM    6  C9  UNL     1       1.815  -1.943  -0.092  1.00  0.00     0.070 A 
HETATM    7  C10 UNL     1       1.019  -0.787  -0.157  1.00  0.00     0.059 A 
ENDROOT
BRANCH   7   8
HETATM    8  N2  UNL     1      -0.396  -1.033  -0.279  1.00  0.00    -0.382 N 
HETATM    9  C11 UNL     1      -0.885  -2.306   0.289  1.00  0.00     0.150 C 
BRANCH   8  10
HETATM   10  C12 UNL     1      -1.471  -0.287  -0.893  1.00  0.00     0.152 C 
BRANCH  10  11
HETATM   11  C13 UNL     1      -2.438   0.229   0.114  1.00  0.00     0.291 C 
BRANCH  11  12
HETATM   12  N3  UNL     1      -3.529   0.985  -0.476  1.00  0.00     0.081 N 
HETATM   13  C14 UNL     1      -4.381   1.414   0.618  1.00  0.00     0.309 C 
HETATM   14  C15 UNL     1      -4.369   0.113  -1.307  1.00  0.00     0.309 C 
ENDBRANCH  11  12
ENDBRANCH  10  11
ENDBRANCH   8  10
ENDBRANCH   7   8
BRANCH   1  15
HETATM   15  N1  UNL     1       0.950   1.551  -0.187  1.00  0.00    -0.322 N 
HETATM   16  C3  UNL     1       1.469   2.864  -0.208  1.00  0.00     0.244 C 
HETATM   17  O1  UNL     1       2.672   3.221  -0.202  1.00  0.00    -0.268 OA
HETATM   18  H4  UNL     1      -0.046   1.773  -0.191  1.00  0.00     0.169 HD
BRANCH  16  19
HETATM   19  C2  UNL     1       0.922   4.211  -0.243  1.00  0.00     0.064 C 
HETATM   20  C1  UNL     1       2.041   4.922  -0.242  1.00  0.00     0.017 C 
ENDBRANCH  16  19
ENDBRANCH   1  15
BRANCH   5  21
HETATM   21  O2  UNL     1       3.885  -3.176   0.031  1.00  0.00    -0.354 OA
HETATM   22  C8  UNL     1       3.305  -4.448   0.038  1.00  0.00     0.210 C 
ENDBRANCH   5  21
TORSDOF 7
