REMARK  4 active torsions:
REMARK  status: ('A' for Active; 'I' for Inactive)
REMARK    1  A    between atoms: C2_2  and  C3_3 
REMARK       I    between atoms: C3_3  and  N1_5 
REMARK    2  A    between atoms: N1_5  and  C4_6 
REMARK    3  A    between atoms: C8_10  and  N2_11 
REMARK    4  A    between atoms: C20_25  and  N5_26 
ROOT
HETATM    1  C4  UNL     1       2.007  -0.712  -0.499  1.00  0.00     0.060 A 
HETATM    2  C5  UNL     1       0.722  -0.387  -0.382  1.00  0.00     0.043 A 
HETATM    3  C6  UNL     1      -0.257  -1.479  -0.489  1.00  0.00     0.103 A 
HETATM    4  C7  UNL     1      -0.862  -1.696   0.853  1.00  0.00     0.083 C 
HETATM    5  C8  UNL     1      -1.626  -1.593   1.993  1.00  0.00     0.006 C 
HETATM    6  C9  UNL     1      -2.846  -0.621   2.274  1.00  0.00     0.180 C 
HETATM    7  N3  UNL     1      -2.923   0.111   0.991  1.00  0.00    -0.350 N 
HETATM    8  C10 UNL     1      -2.853  -0.856   0.076  1.00  0.00     0.105 A 
HETATM    9  C11 UNL     1      -2.563   0.069  -0.871  1.00  0.00     0.009 A 
HETATM   10  C12 UNL     1      -2.494   1.409  -0.583  1.00  0.00     0.004 A 
HETATM   11  C13 UNL     1      -2.240   2.491  -1.374  1.00  0.00     0.014 A 
HETATM   12  C14 UNL     1      -2.270   3.675  -0.666  1.00  0.00     0.001 A 
HETATM   13  C15 UNL     1      -2.533   3.727   0.707  1.00  0.00     0.002 A 
HETATM   14  C16 UNL     1      -2.783   2.601   1.461  1.00  0.00     0.030 A 
HETATM   15  C17 UNL     1      -2.766   1.412   0.814  1.00  0.00     0.045 A 
HETATM   16  C18 UNL     1      -2.065  -0.705  -2.041  1.00  0.00     0.126 C 
HETATM   17  N4  UNL     1      -1.011  -1.329  -1.627  1.00  0.00    -0.281 NA
HETATM   18  C19 UNL     1       0.741  -2.631  -0.711  1.00  0.00     0.042 A 
HETATM   19  C20 UNL     1       1.979  -2.157  -0.708  1.00  0.00     0.051 A 
ENDROOT
BRANCH   1  20
HETATM   20  N1  UNL     1       3.101   0.180  -0.428  1.00  0.00    -0.322 N 
HETATM   21  C3  UNL     1       3.941   0.269  -1.554  1.00  0.00     0.244 C 
HETATM   22  O1  UNL     1       3.791  -0.375  -2.598  1.00  0.00    -0.268 OA
HETATM   23  H4  UNL     1       3.239   0.735   0.459  1.00  0.00     0.169 HD
BRANCH  21  24
HETATM   24  C2  UNL     1       5.080   1.180  -1.515  1.00  0.00     0.064 C 
HETATM   25  C1  UNL     1       5.339   1.922  -0.447  1.00  0.00     0.017 C 
ENDBRANCH  21  24
ENDBRANCH   1  20
BRANCH   5  26
HETATM   26  N2  UNL     1      -1.013  -2.696   2.628  1.00  0.00    -0.404 N 
HETATM   27  H7  UNL     1      -0.239  -2.399   3.295  1.00  0.00     0.155 HD
HETATM   28  H8  UNL     1      -1.285  -3.711   2.467  1.00  0.00     0.155 HD
ENDBRANCH   5  26
BRANCH  19  29
HETATM   29  N5  UNL     1       3.132  -2.974  -0.890  1.00  0.00    -0.397 N 
HETATM   30  H18 UNL     1       3.890  -3.124  -0.182  1.00  0.00     0.156 HD
HETATM   31  H19 UNL     1       3.161  -3.429  -1.822  1.00  0.00     0.156 HD
ENDBRANCH  19  29
TORSDOF 4
