REMARK  3 active torsions:
REMARK  status: ('A' for Active; 'I' for Inactive)
REMARK    1  A    between atoms: N1_2  and  C2_3 
REMARK       I    between atoms: N3_8  and  C6_9 
REMARK    2  A    between atoms: C6_9  and  C7_11 
REMARK    3  A    between atoms: C7_11  and  C8_12 
ROOT
HETATM    1  C2  UNL     1       3.533   0.971   0.485  1.00  0.00     0.748 C 
HETATM    2  N2  UNL     1       3.844  -0.101  -0.165  1.00  0.00    -0.071 NA
HETATM    3  C3  UNL     1       2.987  -1.179  -0.595  1.00  0.00     0.161 C 
HETATM    4  C4  UNL     1       1.644  -1.260  -0.583  1.00  0.00     0.035 C 
HETATM    5  C5  UNL     1       0.995  -2.479  -1.079  1.00  0.00     0.070 C 
HETATM    6  N3  UNL     1       0.787  -0.225  -0.113  1.00  0.00    -0.279 N 
HETATM    7  C6  UNL     1      -0.553  -0.284  -0.509  1.00  0.00     0.231 C 
HETATM    8  O1  UNL     1      -1.135  -1.131  -1.234  1.00  0.00    -0.273 OA
HETATM    9  C13 UNL     1       1.069   0.895   0.716  1.00  0.00     0.237 C 
HETATM   10  N4  UNL     1       2.247   1.407   0.972  1.00  0.00    -0.055 NA
ENDROOT
BRANCH   7  11
HETATM   11  C7  UNL     1      -1.573   0.685  -0.127  1.00  0.00     0.139 C 
BRANCH  11  12
HETATM   12  C8  UNL     1      -2.915   0.355  -0.706  1.00  0.00     0.101 A 
HETATM   13 CL1  UNL     1      -2.850   0.329  -2.464  1.00  0.00    -0.108 Cl
HETATM   14  C9  UNL     1      -3.502  -0.883  -0.187  1.00  0.00     0.005 A 
HETATM   15  C10 UNL     1      -4.610  -0.629   0.508  1.00  0.00    -0.000 A 
HETATM   16  C11 UNL     1      -4.819   0.811   0.486  1.00  0.00     0.021 A 
HETATM   17  C12 UNL     1      -3.862   1.412  -0.204  1.00  0.00     0.039 A 
HETATM   18 CL2  UNL     1      -3.532   3.086  -0.603  1.00  0.00    -0.086 Cl
ENDBRANCH  11  12
ENDBRANCH   7  11
BRANCH   1  19
HETATM   19  N1  UNL     1       4.655   1.794   0.723  1.00  0.00    -0.084 NA
HETATM   20  C1  UNL     1       5.816   1.383   1.040  1.00  0.00     0.169 C 
ENDBRANCH   1  19
TORSDOF 3
