REMARK  7 active torsions:
REMARK  status: ('A' for Active; 'I' for Inactive)
REMARK    1  A    between atoms: N1_2  and  C2_3 
REMARK    2  A    between atoms: C2_3  and  C3_4 
REMARK    3  A    between atoms: C4_5  and  C5_6 
REMARK       I    between atoms: C5_6  and  N2_8 
REMARK    4  A    between atoms: N2_8  and  C6_9 
REMARK    5  A    between atoms: C6_9  and  C7_10 
REMARK    6  A    between atoms: C10_13  and  N3_14 
REMARK    7  A    between atoms: N3_14  and  C11_15 
ROOT
HETATM    1  C7  UNL     1       0.148  -0.215  -0.147  1.00  0.00     0.141 C 
HETATM    2  C8  UNL     1      -0.693   0.044  -1.322  1.00  0.00     0.113 A 
HETATM    3  C9  UNL     1      -1.375  -1.319  -1.462  1.00  0.00     0.087 C 
HETATM    4  C10 UNL     1      -2.481  -1.003  -0.368  1.00  0.00     0.205 C 
HETATM    5  N4  UNL     1      -2.037   0.374   0.137  1.00  0.00    -0.271 NA
HETATM    6  C17 UNL     1      -1.512   1.230  -0.746  1.00  0.00     0.149 A 
HETATM    7  C18 UNL     1      -1.643   2.227   0.411  1.00  0.00     0.084 C 
HETATM    8  C19 UNL     1      -0.578   1.761   1.424  1.00  0.00     0.173 C 
HETATM    9  O2  UNL     1       0.245   0.696   0.981  1.00  0.00    -0.372 OA
HETATM   10  N5  UNL     1      -0.642   1.397  -1.860  1.00  0.00    -0.378 N 
HETATM   11  H23 UNL     1      -0.060   1.698  -2.682  1.00  0.00     0.157 HD
ENDROOT
BRANCH   1  12
HETATM   12  C6  UNL     1       1.016  -1.484   0.004  1.00  0.00     0.167 C 
BRANCH  12  13
HETATM   13  N2  UNL     1       2.395  -0.979   0.156  1.00  0.00    -0.355 N 
HETATM   14  C5  UNL     1       3.365  -2.030   0.308  1.00  0.00     0.240 C 
HETATM   15  O1  UNL     1       2.644  -3.071   0.256  1.00  0.00    -0.269 OA
HETATM   16  H9  UNL     1       2.605   0.065   0.148  1.00  0.00     0.162 HD
BRANCH  14  17
HETATM   17  C4  UNL     1       4.767  -1.672   0.465  1.00  0.00     0.072 C 
HETATM   18  C3  UNL     1       5.648  -0.708   0.538  1.00  0.00     0.008 C 
BRANCH  18  19
HETATM   19  C2  UNL     1       5.696   0.766   0.493  1.00  0.00     0.296 C 
BRANCH  19  20
HETATM   20  N1  UNL     1       6.533   1.161  -0.626  1.00  0.00     0.082 N 
HETATM   21  C1  UNL     1       7.898   0.805  -0.372  1.00  0.00     0.307 C 
HETATM   22  H4  UNL     1       6.408   2.172  -0.847  1.00  0.00     0.315 HD
ENDBRANCH  19  20
ENDBRANCH  18  19
ENDBRANCH  14  17
ENDBRANCH  12  13
ENDBRANCH   1  12
BRANCH   4  23
HETATM   23  N3  UNL     1      -3.685  -0.818  -1.048  1.00  0.00    -0.367 N 
HETATM   24  H15 UNL     1      -3.768  -0.900  -2.100  1.00  0.00     0.161 HD
BRANCH  23  25
HETATM   25  C11 UNL     1      -4.965  -0.500  -0.519  1.00  0.00     0.031 A 
HETATM   26  C12 UNL     1      -6.170  -0.313  -1.203  1.00  0.00     0.032 A 
HETATM   27  C13 UNL     1      -7.327  -0.005  -0.525  1.00  0.00     0.046 A 
HETATM   28  C14 UNL     1      -7.335   0.129   0.847  1.00  0.00     0.138 A 
HETATM   29  F1  UNL     1      -8.526   0.435   1.429  1.00  0.00    -0.204 F 
HETATM   30  C15 UNL     1      -6.153  -0.050   1.568  1.00  0.00     0.074 A 
HETATM   31 CL1  UNL     1      -6.193   0.125   3.307  1.00  0.00    -0.081 Cl
HETATM   32  C16 UNL     1      -4.984  -0.363   0.871  1.00  0.00     0.056 A 
ENDBRANCH  23  25
ENDBRANCH   4  23
TORSDOF 7
