REMARK  10 active torsions:
REMARK  status: ('A' for Active; 'I' for Inactive)
REMARK    1  A    between atoms: C5_5  and  C6_6 
REMARK    2  A    between atoms: C8_8  and  C9_9 
REMARK    3  A    between atoms: C10_10  and  C11_11 
REMARK    4  A    between atoms: C10_10  and  C18_21 
REMARK    5  A    between atoms: C11_11  and  O1_12 
REMARK    6  A    between atoms: C11_11  and  C12_13 
REMARK    7  A    between atoms: C12_13  and  C13_15 
REMARK    8  A    between atoms: C14_16  and  C15_17 
REMARK    9  A    between atoms: C15_17  and  N1_18 
REMARK   10  A    between atoms: C21_25  and  N2_26 
ROOT
HETATM    1  C9  UNL     1       0.844  -1.581   0.395  1.00  0.00     0.038 C 
HETATM    2  C10 UNL     1      -0.310  -1.465  -0.212  1.00  0.00    -0.033 C 
ENDROOT
BRANCH   2   3
HETATM    3  C11 UNL     1      -0.859  -0.217  -0.815  1.00  0.00     0.221 C 
BRANCH   3   4
HETATM    4  O1  UNL     1       0.073   0.839  -0.781  1.00  0.00    -0.383 OA
HETATM    5  H9  UNL     1      -0.333   1.574  -1.308  1.00  0.00     0.211 HD
ENDBRANCH   3   4
BRANCH   3   6
HETATM    6  C12 UNL     1      -2.131   0.179  -0.159  1.00  0.00     0.181 C 
HETATM    7  O2  UNL     1      -3.289  -0.210   0.147  1.00  0.00    -0.290 OA
BRANCH   6   8
HETATM    8  C13 UNL     1      -2.485   1.441   0.472  1.00  0.00     0.051 C 
HETATM    9  C14 UNL     1      -3.693   1.551   0.989  1.00  0.00     0.007 C 
BRANCH   9  10
HETATM   10  C15 UNL     1      -4.126   2.803   1.646  1.00  0.00     0.299 C 
BRANCH  10  11
HETATM   11  N1  UNL     1      -5.281   3.389   1.010  1.00  0.00     0.083 N 
HETATM   12  C16 UNL     1      -6.472   2.581   1.197  1.00  0.00     0.309 C 
HETATM   13  C17 UNL     1      -5.030   3.607  -0.404  1.00  0.00     0.309 C 
ENDBRANCH  10  11
ENDBRANCH   9  10
ENDBRANCH   6   8
ENDBRANCH   3   6
ENDBRANCH   2   3
BRANCH   2  14
HETATM   14  C18 UNL     1      -1.257  -2.584  -0.359  1.00  0.00     0.078 C 
HETATM   15  C19 UNL     1      -1.232  -3.029  -1.832  1.00  0.00     0.040 C 
HETATM   16  C20 UNL     1      -0.234  -4.164  -1.778  1.00  0.00     0.171 C 
HETATM   17  O3  UNL     1       0.262  -4.243  -0.491  1.00  0.00    -0.357 OA
HETATM   18  C21 UNL     1      -0.832  -3.872   0.285  1.00  0.00     0.361 C 
BRANCH  18  19
HETATM   19  N2  UNL     1      -0.595  -3.810   1.689  1.00  0.00     0.107 N 
HETATM   20  H26 UNL     1       0.149  -4.396   2.071  1.00  0.00     0.316 HD
HETATM   21  H27 UNL     1      -1.520  -3.940   2.180  1.00  0.00     0.316 HD
ENDBRANCH  18  19
ENDBRANCH   2  14
BRANCH   1  22
HETATM   22  C8  UNL     1       1.941  -0.683   0.709  1.00  0.00     0.060 A 
HETATM   23  C7  UNL     1       3.287  -1.042   0.571  1.00  0.00     0.063 A 
HETATM   24  C6  UNL     1       4.344  -0.227   0.862  1.00  0.00     0.061 A 
HETATM   25  N4  UNL     1       4.059   1.003   1.313  1.00  0.00    -0.242 NA
HETATM   26  C22 UNL     1       2.791   1.409   1.468  1.00  0.00     0.234 A 
HETATM   27  N3  UNL     1       1.809   0.572   1.168  1.00  0.00    -0.242 NA
BRANCH  24  28
HETATM   28  C5  UNL     1       5.721  -0.729   0.668  1.00  0.00     0.043 C 
HETATM   29  C4  UNL     1       6.592   0.161   0.229  1.00  0.00    -0.028 A 
HETATM   30  C2  UNL     1       7.331   1.319  -0.248  1.00  0.00    -0.051 A 
HETATM   31  C3  UNL     1       8.027   0.154  -0.116  1.00  0.00     0.019 A 
HETATM   32  C1  UNL     1       7.054   2.762  -0.553  1.00  0.00     0.049 C 
ENDBRANCH  24  28
ENDBRANCH   1  22
TORSDOF 10
