REMARK  8 active torsions:
REMARK  status: ('A' for Active; 'I' for Inactive)
REMARK    1  A    between atoms: C2_2  and  C3_4 
REMARK    2  A    between atoms: C4_5  and  C5_6 
REMARK    3  A    between atoms: C6_7  and  N1_8 
REMARK    4  A    between atoms: N1_8  and  C7_9 
REMARK    5  A    between atoms: C12_16  and  N4_17 
REMARK       I    between atoms: N4_17  and  C13_18 
REMARK    6  A    between atoms: C13_18  and  C14_20 
REMARK    7  A    between atoms: C15_21  and  C16_22 
REMARK    8  A    between atoms: C16_22  and  C17_23 
ROOT
HETATM    1  C7  UNL     1       2.419  -0.460   1.229  1.00  0.00     0.141 A 
HETATM    2  N2  UNL     1       3.372  -0.861   2.092  1.00  0.00    -0.224 NA
HETATM    3  C8  UNL     1       3.419  -2.192   2.389  1.00  0.00     0.236 A 
HETATM    4  N3  UNL     1       2.547  -3.059   1.839  1.00  0.00    -0.241 NA
HETATM    5  C9  UNL     1       1.594  -2.653   0.975  1.00  0.00     0.072 A 
HETATM    6  C10 UNL     1       0.718  -3.541   0.427  1.00  0.00     0.035 A 
HETATM    7  C11 UNL     1      -0.263  -3.101  -0.466  1.00  0.00     0.032 A 
HETATM    8  C12 UNL     1      -0.321  -1.740  -0.778  1.00  0.00     0.036 A 
HETATM    9  C20 UNL     1       0.564  -0.840  -0.224  1.00  0.00     0.047 A 
HETATM   10  C21 UNL     1       1.517  -1.314   0.653  1.00  0.00     0.041 A 
ENDROOT
BRANCH   8  11
HETATM   11  N4  UNL     1      -1.351  -1.382  -1.695  1.00  0.00    -0.324 N 
HETATM   12  C13 UNL     1      -2.578  -1.049  -1.011  1.00  0.00     0.245 C 
HETATM   13  O1  UNL     1      -2.405  -1.167   0.230  1.00  0.00    -0.268 OA
HETATM   14  H11 UNL     1      -1.328  -1.333  -2.757  1.00  0.00     0.169 HD
BRANCH  12  15
HETATM   15  C14 UNL     1      -3.790  -0.648  -1.706  1.00  0.00     0.070 C 
HETATM   16  C15 UNL     1      -4.950  -0.328  -1.165  1.00  0.00    -0.021 C 
BRANCH  16  17
HETATM   17  C16 UNL     1      -5.340  -0.286   0.265  1.00  0.00     0.031 C 
BRANCH  17  18
HETATM   18  C17 UNL     1      -5.769   1.131   0.591  1.00  0.00    -0.019 C 
HETATM   19  C18 UNL     1      -4.581   2.036   0.317  1.00  0.00     0.010 C 
HETATM   20  C19 UNL     1      -6.948   1.498  -0.267  1.00  0.00     0.010 C 
ENDBRANCH  17  18
ENDBRANCH  16  17
ENDBRANCH  12  15
ENDBRANCH   8  11
BRANCH   1  21
HETATM   21  N1  UNL     1       2.381   0.913   0.932  1.00  0.00    -0.350 N 
HETATM   22  H7  UNL     1       1.796   1.497   0.336  1.00  0.00     0.166 HD
BRANCH  21  23
HETATM   23  C6  UNL     1       3.328   1.789   1.543  1.00  0.00     0.090 C 
HETATM   24  C5  UNL     1       4.471   1.758   0.878  1.00  0.00     0.017 C 
BRANCH  24  25
HETATM   25  C4  UNL     1       4.484   0.874  -0.269  1.00  0.00     0.004 C 
HETATM   26  C3  UNL     1       5.560   0.747  -1.021  1.00  0.00     0.036 C 
BRANCH  26  27
HETATM   27  C2  UNL     1       6.894   1.329  -0.999  1.00  0.00     0.077 A 
HETATM   28  C1  UNL     1       8.143   1.709  -1.193  1.00  0.00     0.250 A 
HETATM   29  F1  UNL     1       7.343   2.240  -0.073  1.00  0.00    -0.367 F 
ENDBRANCH  26  27
ENDBRANCH  24  25
ENDBRANCH  21  23
ENDBRANCH   1  21
TORSDOF 8
