REMARK  7 active torsions:
REMARK  status: ('A' for Active; 'I' for Inactive)
REMARK    1  A    between atoms: N1_2  and  C2_3 
REMARK    2  A    between atoms: C2_3  and  C3_4 
REMARK    3  A    between atoms: C3_4  and  C4_6 
REMARK    4  A    between atoms: C4_6  and  C5_7 
REMARK    5  A    between atoms: C8_10  and  O2_11 
REMARK    6  A    between atoms: O2_11  and  C9_12 
REMARK    7  A    between atoms: C9_12  and  C10_13 
ROOT
HETATM    1  C5  UNL     1       1.122   0.231  -0.744  1.00  0.00    -0.051 A 
HETATM    2  C6  UNL     1       0.442  -0.504   0.202  1.00  0.00     0.010 A 
HETATM    3  C7  UNL     1      -0.709   0.022   0.712  1.00  0.00     0.037 A 
HETATM    4  C8  UNL     1      -1.262   1.226   0.371  1.00  0.00     0.069 A 
HETATM    5  C16 UNL     1      -0.544   1.950  -0.595  1.00  0.00     0.037 A 
HETATM    6  C17 UNL     1       0.645   1.458  -1.154  1.00  0.00     0.010 A 
ENDROOT
BRANCH   4   7
HETATM    7  O2  UNL     1      -2.337   1.980   0.685  1.00  0.00    -0.347 OA
BRANCH   7   8
HETATM    8  C9  UNL     1      -3.398   1.820   1.540  1.00  0.00     0.214 C 
BRANCH   8   9
HETATM    9  C10 UNL     1      -4.194   0.629   1.164  1.00  0.00    -0.034 A 
HETATM   10  C11 UNL     1      -5.151   0.844   0.166  1.00  0.00     0.009 A 
HETATM   11  C12 UNL     1      -6.007  -0.098  -0.329  1.00  0.00     0.001 A 
HETATM   12  C13 UNL     1      -5.951  -1.375   0.172  1.00  0.00     0.000 A 
HETATM   13  C14 UNL     1      -5.023  -1.633   1.157  1.00  0.00     0.001 A 
HETATM   14  C15 UNL     1      -4.173  -0.664   1.637  1.00  0.00     0.009 A 
ENDBRANCH   8   9
ENDBRANCH   7   8
ENDBRANCH   4   7
BRANCH   1  15
HETATM   15  C4  UNL     1       2.372  -0.382  -1.273  1.00  0.00     0.118 C 
BRANCH  15  16
HETATM   16  C3  UNL     1       3.556   0.022  -0.449  1.00  0.00     0.159 C 
HETATM   17  O1  UNL     1       3.448   0.769   0.530  1.00  0.00    -0.296 OA
BRANCH  16  18
HETATM   18  C2  UNL     1       4.875  -0.526  -0.874  1.00  0.00     0.347 C 
BRANCH  18  19
HETATM   19  N1  UNL     1       5.925  -0.053   0.011  1.00  0.00     0.086 N 
HETATM   20  C1  UNL     1       7.174  -0.623  -0.460  1.00  0.00     0.307 C 
HETATM   21  H4  UNL     1       6.011   0.975  -0.056  1.00  0.00     0.315 HD
ENDBRANCH  18  19
ENDBRANCH  16  18
ENDBRANCH  15  16
ENDBRANCH   1  15
TORSDOF 7
