REMARK  9 active torsions:
REMARK  status: ('A' for Active; 'I' for Inactive)
REMARK    1  A    between atoms: N1_2  and  C3_4 
REMARK    2  A    between atoms: C3_4  and  C4_5 
REMARK    3  A    between atoms: C5_6  and  C6_7 
REMARK       I    between atoms: C6_7  and  N2_9 
REMARK    4  A    between atoms: N2_9  and  C7_10 
REMARK    5  A    between atoms: C7_10  and  C8_11 
REMARK    6  A    between atoms: C9_12  and  C10_13 
REMARK    7  A    between atoms: C12_17  and  N5_18 
REMARK    8  A    between atoms: N5_18  and  C13_19 
REMARK    9  A    between atoms: C16_22  and  C17_23 
ROOT
HETATM    1  C10 UNL     1       1.401   0.589   0.698  1.00  0.00     0.083 A 
HETATM    2  N3  UNL     1       0.927  -0.135   1.715  1.00  0.00    -0.240 NA
HETATM    3  C11 UNL     1       1.636  -0.349   2.861  1.00  0.00     0.236 A 
HETATM    4  N4  UNL     1       2.866   0.158   3.043  1.00  0.00    -0.223 NA
HETATM    5  C12 UNL     1       3.466   0.927   2.061  1.00  0.00     0.153 A 
HETATM    6  C19 UNL     1       2.662   1.075   0.959  1.00  0.00     0.108 A 
HETATM    7 CL1  UNL     1       3.440   2.052  -0.283  1.00  0.00    -0.078 Cl
ENDROOT
BRANCH   1   8
HETATM    8  C9  UNL     1       0.803   0.862  -0.595  1.00  0.00     0.031 C 
HETATM    9  C8  UNL     1      -0.347   0.345  -0.988  1.00  0.00    -0.005 C 
BRANCH   9  10
HETATM   10  C7  UNL     1      -1.386  -0.569  -0.435  1.00  0.00     0.150 C 
BRANCH  10  11
HETATM   11  N2  UNL     1      -2.674   0.057  -0.447  1.00  0.00    -0.354 N 
HETATM   12  C6  UNL     1      -3.361   1.186   0.077  1.00  0.00     0.241 C 
HETATM   13  O1  UNL     1      -2.519   1.826   0.788  1.00  0.00    -0.269 OA
HETATM   14  H11 UNL     1      -3.348  -0.507  -1.055  1.00  0.00     0.163 HD
BRANCH  12  15
HETATM   15  C5  UNL     1      -4.767   1.494  -0.192  1.00  0.00     0.072 C 
HETATM   16  C4  UNL     1      -5.872   1.065  -0.843  1.00  0.00     0.008 C 
BRANCH  16  17
HETATM   17  C3  UNL     1      -6.286  -0.051  -1.707  1.00  0.00     0.299 C 
BRANCH  17  18
HETATM   18  N1  UNL     1      -7.406  -0.746  -1.081  1.00  0.00     0.083 N 
HETATM   19  C1  UNL     1      -6.849  -1.363   0.130  1.00  0.00     0.309 C 
HETATM   20  C2  UNL     1      -7.884  -1.815  -1.951  1.00  0.00     0.309 C 
ENDBRANCH  17  18
ENDBRANCH  16  17
ENDBRANCH  12  15
ENDBRANCH  10  11
ENDBRANCH   9  10
ENDBRANCH   1   8
BRANCH   5  21
HETATM   21  N5  UNL     1       4.768   1.465   2.213  1.00  0.00    -0.340 N 
HETATM   22  H17 UNL     1       4.883   2.296   2.853  1.00  0.00     0.167 HD
BRANCH  21  23
HETATM   23  C13 UNL     1       5.912   0.910   1.531  1.00  0.00     0.030 A 
HETATM   24  C14 UNL     1       7.173   1.227   1.764  1.00  0.00     0.007 A 
HETATM   25  C15 UNL     1       8.035   0.432   0.848  1.00  0.00     0.066 A 
HETATM   26  C16 UNL     1       7.077  -0.381   0.062  1.00  0.00    -0.046 A 
HETATM   27  C18 UNL     1       5.850  -0.089   0.474  1.00  0.00     0.034 A 
BRANCH  26  28
HETATM   28  C17 UNL     1       7.619  -1.311  -0.981  1.00  0.00     0.257 C 
HETATM   29  F1  UNL     1       6.558  -1.957  -1.583  1.00  0.00    -0.251 F 
ENDBRANCH  26  28
ENDBRANCH  21  23
ENDBRANCH   5  21
TORSDOF 9
