REMARK  5 active torsions:
REMARK  status: ('A' for Active; 'I' for Inactive)
REMARK    1  A    between atoms: C5_5  and  S1_6 
REMARK    2  A    between atoms: S1_6  and  C6_7 
REMARK    3  A    between atoms: C6_7  and  C7_8 
REMARK    4  A    between atoms: C7_8  and  C8_9 
REMARK    5  A    between atoms: C8_9  and  C10_11 
ROOT
HETATM    1  C6  UNL     1       0.072   2.226   0.672  1.00  0.00     0.080 C 
ENDROOT
BRANCH   1   2
HETATM    2  S1  UNL     1       1.520   1.783   1.644  1.00  0.00    -0.130 SA
BRANCH   2   3
HETATM    3  C5  UNL     1       2.414   0.446   0.912  1.00  0.00     0.001 A 
HETATM    4  C4  UNL     1       2.212  -0.894   1.157  1.00  0.00     0.019 A 
HETATM    5  C3  UNL     1       2.953  -1.894   0.547  1.00  0.00     0.008 A 
HETATM    6  C2  UNL     1       3.924  -1.478  -0.337  1.00  0.00    -0.056 A 
HETATM    7  C1  UNL     1       4.722  -2.536  -0.993  1.00  0.00     0.049 C 
HETATM    8  C17 UNL     1       4.191  -0.160  -0.638  1.00  0.00    -0.055 A 
HETATM    9  C16 UNL     1       3.406   0.776   0.014  1.00  0.00     0.025 A 
HETATM   10  C18 UNL     1       5.240   0.226  -1.589  1.00  0.00     0.049 C 
ENDBRANCH   2   3
ENDBRANCH   1   2
BRANCH   1  11
HETATM   11  C7  UNL     1      -0.942   1.115   0.676  1.00  0.00     0.019 C 
BRANCH  11  12
HETATM   12  C8  UNL     1      -2.172   1.465  -0.136  1.00  0.00     0.015 C 
HETATM   13  C9  UNL     1      -2.857   2.698   0.411  1.00  0.00     0.015 C 
BRANCH  12  14
HETATM   14  C10 UNL     1      -3.093   0.315  -0.026  1.00  0.00    -0.058 A 
HETATM   15  C11 UNL     1      -4.310   0.430   0.484  1.00  0.00    -0.012 A 
HETATM   16  C12 UNL     1      -5.371  -0.583   0.681  1.00  0.00     0.110 A 
HETATM   17  C13 UNL     1      -4.874  -1.910   0.187  1.00  0.00     0.152 A 
HETATM   18  O1  UNL     1      -5.740  -2.809   0.331  1.00  0.00    -0.293 OA
HETATM   19  C14 UNL     1      -3.544  -2.044  -0.372  1.00  0.00     0.051 A 
HETATM   20  C15 UNL     1      -2.721  -1.016  -0.471  1.00  0.00     0.011 A 
ENDBRANCH  12  14
ENDBRANCH  11  12
ENDBRANCH   1  11
TORSDOF 5
