REMARK  6 active torsions:
REMARK  status: ('A' for Active; 'I' for Inactive)
REMARK    1  A    between atoms: C4_4  and  C5_5 
REMARK    2  A    between atoms: C5_5  and  C6_6 
REMARK    3  A    between atoms: C12_13  and  O1_16 
REMARK    4  A    between atoms: O1_16  and  C14_17 
REMARK    5  A    between atoms: C14_17  and  C15_18 
REMARK    6  A    between atoms: C20_23  and  O2_24 
ROOT
HETATM    1  C6  UNL     1      -0.469   1.558   0.663  1.00  0.00     0.057 C 
HETATM    2  C7  UNL     1      -0.178   2.983   0.966  1.00  0.00     0.130 C 
HETATM    3  N1  UNL     1       0.231   3.767  -0.198  1.00  0.00    -0.394 N 
HETATM    4  C8  UNL     1      -0.549   4.820  -0.864  1.00  0.00     0.148 C 
HETATM    5  C9  UNL     1       1.532   3.494  -0.768  1.00  0.00     0.081 C 
HETATM    6  C10 UNL     1       2.406   2.479  -0.623  1.00  0.00    -0.006 C 
HETATM    7  C11 UNL     1       1.994   1.363   0.319  1.00  0.00     0.082 C 
HETATM    8  C12 UNL     1       0.652   0.812  -0.076  1.00  0.00     0.157 C 
HETATM    9  C13 UNL     1       0.496   1.181  -1.515  1.00  0.00     0.098 C 
HETATM   10  N2  UNL     1       0.392   1.461  -2.645  1.00  0.00    -0.194 NA
ENDROOT
BRANCH   8  11
HETATM   11  O1  UNL     1       0.522  -0.462   0.179  1.00  0.00    -0.360 OA
BRANCH  11  12
HETATM   12  C14 UNL     1       1.060  -1.575  -0.179  1.00  0.00     0.211 C 
BRANCH  12  13
HETATM   13  C15 UNL     1       2.493  -1.777   0.092  1.00  0.00    -0.001 A 
HETATM   14  C16 UNL     1       3.500  -1.790  -0.889  1.00  0.00     0.012 A 
HETATM   15  C17 UNL     1       4.824  -2.011  -0.654  1.00  0.00     0.001 A 
HETATM   16  C18 UNL     1       5.229  -2.246   0.656  1.00  0.00     0.003 A 
HETATM   17  C19 UNL     1       4.293  -2.248   1.670  1.00  0.00     0.037 A 
HETATM   18  C20 UNL     1       2.963  -2.020   1.389  1.00  0.00     0.074 A 
BRANCH  18  19
HETATM   19  O2  UNL     1       2.060  -2.031   2.435  1.00  0.00    -0.360 OA
HETATM   20  H23 UNL     1       1.954  -1.181   3.000  1.00  0.00     0.217 HD
ENDBRANCH  18  19
ENDBRANCH  12  13
ENDBRANCH  11  12
ENDBRANCH   8  11
BRANCH   1  21
HETATM   21  C5  UNL     1      -1.762   1.477  -0.121  1.00  0.00     0.049 C 
BRANCH  21  22
HETATM   22  C4  UNL     1      -2.130   0.073  -0.467  1.00  0.00    -0.047 C 
HETATM   23  C3  UNL     1      -2.341  -0.862   0.641  1.00  0.00     0.010 C 
HETATM   24  C2  UNL     1      -3.009  -2.028   0.674  1.00  0.00    -0.083 C 
HETATM   25  C1  UNL     1      -3.030  -2.748   1.996  1.00  0.00     0.043 C 
HETATM   26  C24 UNL     1      -3.734  -2.717  -0.409  1.00  0.00     0.037 C 
HETATM   27  C23 UNL     1      -4.358  -1.785  -1.414  1.00  0.00     0.032 C 
HETATM   28  C22 UNL     1      -3.425  -0.822  -2.010  1.00  0.00    -0.014 C 
HETATM   29  C21 UNL     1      -2.257  -0.301  -1.729  1.00  0.00    -0.023 C 
ENDBRANCH  21  22
ENDBRANCH   1  21
TORSDOF 6
