REMARK  6 active torsions:
REMARK  status: ('A' for Active; 'I' for Inactive)
REMARK    1  A    between atoms: C1_2  and  C2_3 
REMARK    2  A    between atoms: C1_2  and  C9_11 
REMARK    3  A    between atoms: C2_3  and  N1_4 
REMARK    4  A    between atoms: C12_14  and  O2_15 
REMARK    5  A    between atoms: O2_15  and  C13_16 
REMARK    6  A    between atoms: C13_16  and  C14_17 
ROOT
HETATM    1  C9  UNL     1      -0.219  -0.176  -0.615  1.00  0.00     0.011 A 
HETATM    2  C10 UNL     1       0.508   0.026   0.551  1.00  0.00     0.018 A 
HETATM    3  C11 UNL     1       1.880  -0.004   0.600  1.00  0.00     0.038 A 
HETATM    4  C12 UNL     1       2.609  -0.242  -0.531  1.00  0.00     0.069 A 
HETATM    5  C20 UNL     1       1.923  -0.450  -1.724  1.00  0.00     0.038 A 
HETATM    6  C21 UNL     1       0.560  -0.413  -1.737  1.00  0.00     0.018 A 
ENDROOT
BRANCH   1   7
HETATM    7  C1  UNL     1      -1.679  -0.141  -0.676  1.00  0.00     0.176 C 
HETATM    8  O1  UNL     1      -2.221  -0.345  -1.806  1.00  0.00    -0.291 OA
BRANCH   7   9
HETATM    9  C2  UNL     1      -2.376   0.128   0.591  1.00  0.00     0.200 C 
BRANCH   9  10
HETATM   10  N1  UNL     1      -3.786   0.156   0.363  1.00  0.00    -0.405 N 
HETATM   11  C3  UNL     1      -4.397  -1.080   0.021  1.00  0.00     0.117 C 
HETATM   12  C4  UNL     1      -5.421  -0.837  -1.047  1.00  0.00     0.019 C 
HETATM   13  C5  UNL     1      -6.036   0.543  -0.989  1.00  0.00     0.002 C 
HETATM   14  C6  UNL     1      -6.802   0.790   0.289  1.00  0.00     0.002 C 
HETATM   15  C7  UNL     1      -5.926   0.622   1.512  1.00  0.00     0.019 C 
HETATM   16  C8  UNL     1      -4.508   1.000   1.268  1.00  0.00     0.117 C 
ENDBRANCH   9  10
ENDBRANCH   7   9
ENDBRANCH   1   7
BRANCH   4  17
HETATM   17  O2  UNL     1       3.994  -0.287  -0.563  1.00  0.00    -0.347 OA
BRANCH  17  18
HETATM   18  C13 UNL     1       4.666  -0.070   0.681  1.00  0.00     0.214 C 
BRANCH  18  19
HETATM   19  C14 UNL     1       6.120  -0.157   0.418  1.00  0.00    -0.034 A 
HETATM   20  C15 UNL     1       6.904  -1.280   0.465  1.00  0.00     0.009 A 
HETATM   21  C16 UNL     1       8.255  -1.220   0.196  1.00  0.00     0.001 A 
HETATM   22  C17 UNL     1       8.901  -0.030  -0.136  1.00  0.00     0.000 A 
HETATM   23  C18 UNL     1       8.120   1.097  -0.184  1.00  0.00     0.001 A 
HETATM   24  C19 UNL     1       6.778   1.029   0.084  1.00  0.00     0.009 A 
ENDBRANCH  18  19
ENDBRANCH  17  18
ENDBRANCH   4  17
TORSDOF 6
