REMARK  7 active torsions:
REMARK  status: ('A' for Active; 'I' for Inactive)
REMARK    1  A    between atoms: C3_3  and  C4_4 
REMARK    2  A    between atoms: C10_11  and  C11_12 
REMARK    3  A    between atoms: C11_12  and  N1_13 
REMARK    4  A    between atoms: N1_13  and  C12_14 
REMARK    5  A    between atoms: C12_14  and  C13_15 
REMARK    6  A    between atoms: C13_15  and  C14_16 
REMARK    7  A    between atoms: C14_16  and  C15_17 
ROOT
HETATM    1  C4  UNL     1      -2.419  -0.886  -0.411  1.00  0.00     0.010 C 
HETATM    2  C5  UNL     1      -3.202  -1.906  -0.727  1.00  0.00     0.016 C 
HETATM    3  C6  UNL     1      -3.404  -3.331  -0.738  1.00  0.00     0.020 C 
HETATM    4  C7  UNL     1      -2.369  -4.186  -0.763  1.00  0.00     0.010 C 
HETATM    5 BR1  UNL     1      -3.119  -5.957  -0.770  1.00  0.00    -0.051 Br
HETATM    6  C8  UNL     1      -0.902  -4.258  -0.787  1.00  0.00     0.016 C 
HETATM    7  C9  UNL     1      -0.089  -3.344  -0.267  1.00  0.00    -0.011 C 
HETATM    8  C10 UNL     1       0.016  -2.072   0.446  1.00  0.00     0.111 C 
HETATM    9  C16 UNL     1      -1.115  -1.141   0.250  1.00  0.00     0.169 C 
HETATM   10  O1  UNL     1      -0.831  -0.128   0.963  1.00  0.00    -0.292 OA
ENDROOT
BRANCH   8  11
HETATM   11  C11 UNL     1       1.294  -1.371  -0.006  1.00  0.00     0.285 C 
BRANCH  11  12
HETATM   12  N1  UNL     1       1.498  -0.101   0.664  1.00  0.00     0.084 N 
HETATM   13  H13 UNL     1       1.451  -0.173   1.686  1.00  0.00     0.315 HD
BRANCH  12  14
HETATM   14  C12 UNL     1       2.719   0.462   0.136  1.00  0.00     0.269 C 
BRANCH  14  15
HETATM   15  C13 UNL     1       3.127   1.755   0.780  1.00  0.00     0.031 C 
BRANCH  15  16
HETATM   16  C14 UNL     1       2.110   2.853   0.654  1.00  0.00     0.017 C 
BRANCH  16  17
HETATM   17  C15 UNL     1       2.593   4.134   1.323  1.00  0.00     0.114 C 
HETATM   18 CL1  UNL     1       1.381   5.387   1.155  1.00  0.00    -0.130 Cl
ENDBRANCH  16  17
ENDBRANCH  15  16
ENDBRANCH  14  15
ENDBRANCH  12  14
ENDBRANCH  11  12
ENDBRANCH   8  11
BRANCH   1  19
HETATM   19  C3  UNL     1      -2.851   0.462  -0.690  1.00  0.00     0.011 C 
HETATM   20  C2  UNL     1      -2.536   1.726  -0.623  1.00  0.00    -0.030 C 
HETATM   21  C1  UNL     1      -1.366   2.493  -0.137  1.00  0.00     0.036 C 
ENDBRANCH   1  19
TORSDOF 7
