REMARK  8 active torsions:
REMARK  status: ('A' for Active; 'I' for Inactive)
REMARK    1  A    between atoms: C2_2  and  C3_3 
REMARK    2  A    between atoms: C2_2  and  N2_6 
REMARK       I    between atoms: C3_3  and  N1_4 
REMARK    3  A    between atoms: N2_6  and  C5_8 
REMARK    4  A    between atoms: C5_8  and  C6_9 
REMARK    5  A    between atoms: C10_15  and  C11_16 
REMARK    6  A    between atoms: C11_16  and  C12_17 
REMARK    7  A    between atoms: C12_17  and  N4_18 
REMARK    8  A    between atoms: N4_18  and  C13_19 
ROOT
HETATM    1  C6  UNL     1      -0.989  -0.885  -1.041  1.00  0.00    -0.016 A 
HETATM    2  C7  UNL     1      -1.633  -1.766  -1.918  1.00  0.00     0.015 A 
HETATM    3  C8  UNL     1      -1.517  -1.816  -3.291  1.00  0.00     0.064 A 
HETATM    4  C9  UNL     1      -0.668  -0.888  -3.858  1.00  0.00     0.210 A 
HETATM    5  F1  UNL     1      -0.517  -0.891  -5.203  1.00  0.00    -0.184 F 
HETATM    6  N3  UNL     1      -0.016  -0.012  -3.072  1.00  0.00    -0.225 NA
HETATM    7  C10 UNL     1      -0.163  -0.005  -1.737  1.00  0.00     0.047 A 
ENDROOT
BRANCH   7   8
HETATM    8  C11 UNL     1       0.637   0.976  -1.004  1.00  0.00     0.079 C 
BRANCH   8   9
HETATM    9  C12 UNL     1       1.891   0.293  -0.499  1.00  0.00     0.126 C 
BRANCH   9  10
HETATM   10  N4  UNL     1       2.742   1.208   0.266  1.00  0.00    -0.390 N 
HETATM   11  H18 UNL     1       2.619   2.216   0.506  1.00  0.00     0.159 HD
BRANCH  10  12
HETATM   12  C13 UNL     1       3.927   0.595   0.752  1.00  0.00     0.029 A 
HETATM   13  C14 UNL     1       4.241  -0.736   0.511  1.00  0.00     0.029 A 
HETATM   14  C15 UNL     1       5.380  -1.367   0.969  1.00  0.00     0.004 A 
HETATM   15  C16 UNL     1       6.282  -0.645   1.720  1.00  0.00     0.024 A 
HETATM   16  C17 UNL     1       6.029   0.685   1.996  1.00  0.00     0.036 A 
HETATM   17 CL1  UNL     1       7.185   1.617   2.961  1.00  0.00    -0.084 Cl
HETATM   18  C18 UNL     1       4.872   1.242   1.504  1.00  0.00     0.052 A 
ENDBRANCH  10  12
ENDBRANCH   9  10
ENDBRANCH   8   9
ENDBRANCH   7   8
BRANCH   1  19
HETATM   19  C5  UNL     1      -1.217  -0.911   0.402  1.00  0.00     0.158 C 
BRANCH  19  20
HETATM   20  N2  UNL     1      -2.091   0.111   0.864  1.00  0.00    -0.401 N 
HETATM   21  C4  UNL     1      -1.772   0.858   1.987  1.00  0.00     0.144 C 
BRANCH  20  22
HETATM   22  C2  UNL     1      -3.403   0.133   0.359  1.00  0.00     0.161 C 
HETATM   23  C1  UNL     1      -4.360  -0.366   1.445  1.00  0.00     0.041 C 
BRANCH  22  24
HETATM   24  C3  UNL     1      -3.854   1.502  -0.002  1.00  0.00     0.217 C 
HETATM   25  N1  UNL     1      -5.209   1.464  -0.501  1.00  0.00    -0.271 NA
HETATM   26  H5  UNL     1      -5.929   0.776  -0.871  1.00  0.00     0.127 HD
HETATM   27  H6  UNL     1      -5.848   0.691  -0.856  1.00  0.00     0.127 HD
HETATM   28  O1  UNL     1      -4.181   2.689  -0.290  1.00  0.00    -0.278 OA
ENDBRANCH  22  24
ENDBRANCH  20  22
ENDBRANCH  19  20
ENDBRANCH   1  19
TORSDOF 8
