REMARK  7 active torsions:
REMARK  status: ('A' for Active; 'I' for Inactive)
REMARK    1  A    between atoms: C2_2  and  C3_3 
REMARK    2  A    between atoms: C2_2  and  C9_10 
REMARK    3  A    between atoms: C3_3  and  N1_4 
REMARK    4  A    between atoms: C9_10  and  C10_12 
REMARK    5  A    between atoms: C15_17  and  O2_18 
REMARK    6  A    between atoms: O2_18  and  C16_19 
REMARK    7  A    between atoms: C16_19  and  C17_20 
ROOT
HETATM    1  C10 UNL     1      -0.762  -0.855  -0.252  1.00  0.00     0.025 A 
HETATM    2  C11 UNL     1      -0.632  -2.165  -0.387  1.00  0.00     0.014 A 
HETATM    3  C12 UNL     1      -1.888  -2.825  -0.733  1.00  0.00     0.006 A 
HETATM    4  C13 UNL     1      -2.781  -1.821  -0.796  1.00  0.00    -0.051 A 
HETATM    5  C14 UNL     1      -4.199  -2.186  -1.141  1.00  0.00     0.046 C 
HETATM    6  C15 UNL     1      -2.198  -0.473  -0.498  1.00  0.00     0.187 A 
ENDROOT
BRANCH   1   7
HETATM    7  C9  UNL     1       0.283   0.089   0.085  1.00  0.00     0.188 C 
HETATM    8  O1  UNL     1       0.039   1.316   0.181  1.00  0.00    -0.287 OA
BRANCH   7   9
HETATM    9  C2  UNL     1       1.672  -0.239   0.341  1.00  0.00     0.011 C 
HETATM   10  C1  UNL     1       2.147  -1.457   0.298  1.00  0.00     0.025 C 
BRANCH   9  11
HETATM   11  C3  UNL     1       2.685   0.780   0.674  1.00  0.00     0.314 C 
BRANCH  11  12
HETATM   12  N1  UNL     1       4.005   0.288   0.879  1.00  0.00     0.092 N 
HETATM   13  C4  UNL     1       4.795   1.482   1.276  1.00  0.00     0.272 C 
HETATM   14  C5  UNL     1       6.075   1.006   1.877  1.00  0.00     0.030 C 
HETATM   15  C6  UNL     1       6.863   0.290   0.795  1.00  0.00     0.003 C 
HETATM   16  C7  UNL     1       6.010  -0.779   0.132  1.00  0.00     0.030 C 
HETATM   17  C8  UNL     1       4.677  -0.179  -0.317  1.00  0.00     0.272 C 
ENDBRANCH  11  12
ENDBRANCH   9  11
ENDBRANCH   7   9
ENDBRANCH   1   7
BRANCH   6  18
HETATM   18  O2  UNL     1      -2.685   0.070   0.644  1.00  0.00    -0.372 OA
BRANCH  18  19
HETATM   19  C16 UNL     1      -3.261   1.290   0.642  1.00  0.00     0.207 C 
BRANCH  19  20
HETATM   20  C17 UNL     1      -4.451   1.324  -0.221  1.00  0.00    -0.035 A 
HETATM   21  C18 UNL     1      -4.639   1.667  -1.542  1.00  0.00     0.009 A 
HETATM   22  C19 UNL     1      -5.884   1.595  -2.105  1.00  0.00     0.001 A 
HETATM   23  C20 UNL     1      -6.998   1.192  -1.429  1.00  0.00     0.000 A 
HETATM   24  C21 UNL     1      -6.838   0.839  -0.091  1.00  0.00     0.001 A 
HETATM   25  C22 UNL     1      -5.572   0.908   0.497  1.00  0.00     0.009 A 
ENDBRANCH  19  20
ENDBRANCH  18  19
ENDBRANCH   6  18
TORSDOF 7
