REMARK  8 active torsions:
REMARK  status: ('A' for Active; 'I' for Inactive)
REMARK    1  A    between atoms: C6_7  and  C7_8 
REMARK    2  A    between atoms: C7_8  and  C8_9 
REMARK    3  A    between atoms: C7_8  and  C11_13 
REMARK    4  A    between atoms: C8_9  and  N1_10 
REMARK    5  A    between atoms: C11_13  and  C12_15 
REMARK    6  A    between atoms: C15_18  and  O2_19 
REMARK    7  A    between atoms: O2_19  and  C16_20 
REMARK    8  A    between atoms: C16_20  and  C17_21 
ROOT
HETATM    1  C11 UNL     1      -1.284   0.805   0.981  1.00  0.00     0.166 C 
HETATM    2  O1  UNL     1      -1.686   1.859   1.588  1.00  0.00    -0.292 OA
ENDROOT
BRANCH   1   3
HETATM    3  C7  UNL     1      -2.412  -0.073   0.592  1.00  0.00     0.103 C 
BRANCH   3   4
HETATM    4  C6  UNL     1      -2.815   0.051  -0.839  1.00  0.00     0.069 C 
HETATM    5  S1  UNL     1      -1.454  -0.112  -2.028  1.00  0.00    -0.136 SA
HETATM    6  C5  UNL     1      -2.182   0.247  -3.644  1.00  0.00     0.045 C 
HETATM    7  C4  UNL     1      -3.451   0.427  -4.039  1.00  0.00     0.007 C 
HETATM    8  C3  UNL     1      -4.648   0.376  -3.201  1.00  0.00     0.003 C 
HETATM    9  C2  UNL     1      -4.900  -0.172  -2.026  1.00  0.00    -0.083 C 
HETATM   10  C1  UNL     1      -6.292   0.034  -1.549  1.00  0.00     0.043 C 
HETATM   11  C25 UNL     1      -3.869  -0.937  -1.243  1.00  0.00     0.050 C 
ENDBRANCH   3   4
BRANCH   3  12
HETATM   12  C8  UNL     1      -3.586   0.120   1.484  1.00  0.00     0.285 C 
BRANCH  12  13
HETATM   13  N1  UNL     1      -3.280   0.022   2.889  1.00  0.00     0.080 N 
HETATM   14  C9  UNL     1      -2.907  -1.265   3.360  1.00  0.00     0.309 C 
HETATM   15  C10 UNL     1      -4.242   0.718   3.715  1.00  0.00     0.309 C 
ENDBRANCH  12  13
ENDBRANCH   3  12
ENDBRANCH   1   3
BRANCH   1  16
HETATM   16  C12 UNL     1       0.137   0.667   0.793  1.00  0.00     0.010 A 
HETATM   17  C13 UNL     1       0.798  -0.422   0.273  1.00  0.00     0.018 A 
HETATM   18  C14 UNL     1       2.154  -0.538   0.071  1.00  0.00     0.037 A 
HETATM   19  C15 UNL     1       2.947   0.532   0.418  1.00  0.00     0.069 A 
HETATM   20  C23 UNL     1       2.339   1.667   0.951  1.00  0.00     0.037 A 
HETATM   21  C24 UNL     1       0.976   1.707   1.122  1.00  0.00     0.018 A 
BRANCH  19  22
HETATM   22  O2  UNL     1       4.315   0.564   0.275  1.00  0.00    -0.347 OA
BRANCH  22  23
HETATM   23  C16 UNL     1       5.036  -0.532  -0.257  1.00  0.00     0.214 C 
BRANCH  23  24
HETATM   24  C17 UNL     1       6.486  -0.266  -0.316  1.00  0.00    -0.034 A 
HETATM   25  C18 UNL     1       6.883   0.320  -1.513  1.00  0.00     0.009 A 
HETATM   26  C19 UNL     1       8.224   0.639  -1.738  1.00  0.00     0.001 A 
HETATM   27  C20 UNL     1       9.121   0.353  -0.741  1.00  0.00     0.000 A 
HETATM   28  C21 UNL     1       8.755  -0.231   0.465  1.00  0.00     0.001 A 
HETATM   29  C22 UNL     1       7.407  -0.544   0.672  1.00  0.00     0.009 A 
ENDBRANCH  23  24
ENDBRANCH  22  23
ENDBRANCH  19  22
ENDBRANCH   1  16
TORSDOF 8
