REMARK  8 active torsions:
REMARK  status: ('A' for Active; 'I' for Inactive)
REMARK    1  A    between atoms: C2_2  and  C3_3 
REMARK    2  A    between atoms: C2_2  and  C9_10 
REMARK    3  A    between atoms: C3_3  and  N1_4 
REMARK    4  A    between atoms: C9_10  and  C10_12 
REMARK    5  A    between atoms: C13_16  and  C14_17 
REMARK    6  A    between atoms: C14_17  and  O2_18 
REMARK    7  A    between atoms: O2_18  and  C15_19 
REMARK    8  A    between atoms: C15_19  and  C16_20 
ROOT
HETATM    1  C10 UNL     1      -0.237   1.250   0.428  1.00  0.00     0.021 A 
HETATM    2  C11 UNL     1      -0.065   2.569   0.439  1.00  0.00     0.060 A 
HETATM    3  S1  UNL     1       1.501   3.420   0.422  1.00  0.00    -0.136 SA
HETATM    4  C12 UNL     1       2.787   2.174   0.433  1.00  0.00     0.115 A 
HETATM    5  C13 UNL     1       2.223   0.819   0.422  1.00  0.00    -0.046 A 
HETATM    6  C22 UNL     1       0.972   0.500   0.420  1.00  0.00     0.021 A 
ENDROOT
BRANCH   1   7
HETATM    7  C9  UNL     1      -1.622   0.938   0.448  1.00  0.00     0.189 C 
HETATM    8  O1  UNL     1      -2.476   1.854   0.481  1.00  0.00    -0.287 OA
BRANCH   7   9
HETATM    9  C2  UNL     1      -2.425  -0.226   0.444  1.00  0.00     0.011 C 
HETATM   10  C1  UNL     1      -1.619  -1.299   0.413  1.00  0.00     0.025 C 
BRANCH   9  11
HETATM   11  C3  UNL     1      -3.754  -0.810   0.483  1.00  0.00     0.314 C 
BRANCH  11  12
HETATM   12  N1  UNL     1      -4.624  -0.509  -0.636  1.00  0.00     0.092 N 
HETATM   13  C4  UNL     1      -5.823  -1.351  -0.579  1.00  0.00     0.272 C 
HETATM   14  C5  UNL     1      -6.858  -0.866   0.374  1.00  0.00     0.030 C 
HETATM   15  C6  UNL     1      -7.355   0.478  -0.122  1.00  0.00     0.003 C 
HETATM   16  C7  UNL     1      -6.465   0.996  -1.221  1.00  0.00     0.030 C 
HETATM   17  C8  UNL     1      -5.023   0.885  -0.719  1.00  0.00     0.272 C 
ENDBRANCH  11  12
ENDBRANCH   9  11
ENDBRANCH   7   9
ENDBRANCH   1   7
BRANCH   5  18
HETATM   18  C14 UNL     1       3.310  -0.231   0.419  1.00  0.00     0.203 C 
BRANCH  18  19
HETATM   19  O2  UNL     1       4.052  -0.049   1.557  1.00  0.00    -0.382 OA
BRANCH  19  20
HETATM   20  C15 UNL     1       5.037  -0.989   1.649  1.00  0.00     0.206 C 
BRANCH  20  21
HETATM   21  C16 UNL     1       5.968  -0.881   0.513  1.00  0.00    -0.035 A 
HETATM   22  C17 UNL     1       5.876  -1.491  -0.700  1.00  0.00     0.009 A 
HETATM   23  C18 UNL     1       6.860  -1.284  -1.632  1.00  0.00     0.001 A 
HETATM   24  C19 UNL     1       7.953  -0.488  -1.422  1.00  0.00     0.000 A 
HETATM   25  C20 UNL     1       8.102   0.169  -0.185  1.00  0.00     0.001 A 
HETATM   26  C21 UNL     1       7.084  -0.070   0.721  1.00  0.00     0.009 A 
ENDBRANCH  20  21
ENDBRANCH  19  20
ENDBRANCH  18  19
ENDBRANCH   5  18
TORSDOF 8
