REMARK  5 active torsions:
REMARK  status: ('A' for Active; 'I' for Inactive)
REMARK    1  A    between atoms: C1_2  and  N1_3 
REMARK    2  A    between atoms: C2_4  and  C3_5 
REMARK    3  A    between atoms: C6_8  and  O2_9 
REMARK    4  A    between atoms: O2_9  and  C7_10 
REMARK    5  A    between atoms: C7_10  and  C8_11 
ROOT
HETATM    1  C3  UNL     1       2.950  -0.864  -0.808  1.00  0.00    -0.040 C 
HETATM    2  C4  UNL     1       1.773  -1.205  -1.304  1.00  0.00     0.011 C 
HETATM    3  C5  UNL     1       0.411  -0.876  -0.900  1.00  0.00     0.037 C 
HETATM    4  C6  UNL     1      -0.092   0.164  -0.210  1.00  0.00     0.068 C 
HETATM    5  C14 UNL     1       0.506   1.368   0.405  1.00  0.00     0.033 C 
HETATM    6  C15 UNL     1       1.764   1.832   0.494  1.00  0.00    -0.024 C 
HETATM    7  C16 UNL     1       3.139   1.443   0.069  1.00  0.00     0.032 C 
HETATM    8  C17 UNL     1       3.400  -0.028   0.336  1.00  0.00     0.043 C 
ENDROOT
BRANCH   4   9
HETATM    9  O2  UNL     1      -1.448   0.087  -0.046  1.00  0.00    -0.347 OA
BRANCH   9  10
HETATM   10  C7  UNL     1      -2.136   0.043   1.181  1.00  0.00     0.214 C 
BRANCH  10  11
HETATM   11  C8  UNL     1      -3.596  -0.038   0.822  1.00  0.00    -0.034 A 
HETATM   12  C9  UNL     1      -4.204   1.215   0.695  1.00  0.00     0.009 A 
HETATM   13  C10 UNL     1      -5.544   1.276   0.368  1.00  0.00     0.001 A 
HETATM   14  C11 UNL     1      -6.238   0.095   0.176  1.00  0.00     0.000 A 
HETATM   15  C12 UNL     1      -5.621  -1.132   0.306  1.00  0.00     0.001 A 
HETATM   16  C13 UNL     1      -4.273  -1.224   0.635  1.00  0.00     0.009 A 
ENDBRANCH  10  11
ENDBRANCH   9  10
ENDBRANCH   4   9
BRANCH   1  17
HETATM   17  C2  UNL     1       4.030  -1.441  -1.557  1.00  0.00     0.126 C 
HETATM   18  N1  UNL     1       5.288  -1.533  -1.644  1.00  0.00    -0.234 NA
BRANCH  18  19
HETATM   19  C1  UNL     1       6.265  -0.950  -0.826  1.00  0.00     0.376 C 
HETATM   20  O1  UNL     1       6.250   0.110  -1.506  1.00  0.00    -0.281 OA
ENDBRANCH  18  19
ENDBRANCH   1  17
TORSDOF 5
