REMARK  9 active torsions:
REMARK  status: ('A' for Active; 'I' for Inactive)
REMARK    1  A    between atoms: C2_2  and  C3_3 
REMARK    2  A    between atoms: C3_3  and  C4_4 
REMARK    3  A    between atoms: C3_3  and  C15_17 
REMARK    4  A    between atoms: C5_5  and  C6_6 
REMARK    5  A    between atoms: C6_6  and  C7_7 
REMARK    6  A    between atoms: C7_7  and  C8_9 
REMARK    7  A    between atoms: C8_9  and  C10_11 
REMARK    8  A    between atoms: C10_11  and  N1_12 
REMARK    9  A    between atoms: C15_17  and  C16_18 
ROOT
HETATM    1  C4  UNL     1      -1.514   0.366  -0.494  1.00  0.00     0.004 C 
HETATM    2  C5  UNL     1      -0.424   0.898   0.288  1.00  0.00    -0.013 C 
ENDROOT
BRANCH   1   3
HETATM    3  C3  UNL     1      -2.809   0.603  -0.533  1.00  0.00    -0.058 C 
BRANCH   3   4
HETATM    4  C2  UNL     1      -2.974   1.621   0.469  1.00  0.00    -0.019 C 
HETATM    5  C1  UNL     1      -4.049   2.310   0.946  1.00  0.00     0.031 C 
ENDBRANCH   3   4
BRANCH   3   6
HETATM    6  C15 UNL     1      -3.939   0.067  -1.305  1.00  0.00     0.077 C 
BRANCH   6   7
HETATM    7  C16 UNL     1      -4.987  -0.537  -0.435  1.00  0.00    -0.048 A 
HETATM    8  C17 UNL     1      -4.606  -1.087   0.779  1.00  0.00     0.008 A 
HETATM    9  C18 UNL     1      -5.552  -1.629   1.613  1.00  0.00     0.001 A 
HETATM   10  C19 UNL     1      -6.889  -1.660   1.308  1.00  0.00     0.001 A 
HETATM   11  C20 UNL     1      -7.233  -1.105   0.094  1.00  0.00     0.007 A 
HETATM   12  C21 UNL     1      -6.320  -0.545  -0.786  1.00  0.00    -0.055 A 
HETATM   13  C22 UNL     1      -6.648   0.043  -2.111  1.00  0.00     0.049 C 
ENDBRANCH   6   7
ENDBRANCH   3   6
ENDBRANCH   1   3
BRANCH   2  14
HETATM   14  C6  UNL     1       0.676   0.346  -0.035  1.00  0.00     0.093 C 
BRANCH  14  15
HETATM   15  C7  UNL     1       1.998  -0.106  -0.207  1.00  0.00     0.141 C 
HETATM   16  O1  UNL     1       1.593  -0.892  -1.132  1.00  0.00    -0.297 OA
BRANCH  15  17
HETATM   17  C8  UNL     1       3.401   0.061   0.298  1.00  0.00     0.069 C 
HETATM   18  C9  UNL     1       3.771   1.519   0.068  1.00  0.00     0.020 C 
BRANCH  17  19
HETATM   19  C10 UNL     1       4.229  -0.869  -0.500  1.00  0.00     0.128 C 
BRANCH  19  20
HETATM   20  N1  UNL     1       5.586  -0.968  -0.261  1.00  0.00    -0.412 N 
HETATM   21  C11 UNL     1       6.475   0.088  -0.552  1.00  0.00     0.117 C 
HETATM   22  C12 UNL     1       7.200   0.415   0.744  1.00  0.00     0.021 C 
HETATM   23  C13 UNL     1       6.752  -0.593   1.762  1.00  0.00     0.021 C 
HETATM   24  C14 UNL     1       6.007  -1.622   0.941  1.00  0.00     0.117 C 
ENDBRANCH  19  20
ENDBRANCH  17  19
ENDBRANCH  15  17
ENDBRANCH  14  15
ENDBRANCH   2  14
TORSDOF 9
