REMARK  9 active torsions:
REMARK  status: ('A' for Active; 'I' for Inactive)
REMARK    1  A    between atoms: N1_2  and  C3_4 
REMARK    2  A    between atoms: C3_4  and  C4_5 
REMARK    3  A    between atoms: C7_8  and  C8_9 
REMARK    4  A    between atoms: C9_10  and  C10_11 
REMARK    5  A    between atoms: C10_11  and  O1_12 
REMARK    6  A    between atoms: O1_12  and  S1_13 
REMARK    7  A    between atoms: S1_13  and  C11_16 
REMARK    8  A    between atoms: C14_19  and  C15_20 
REMARK    9  A    between atoms: C15_20  and  O5_22 
ROOT
HETATM    1  O1  UNL     1       2.255  -2.326   0.491  1.00  0.00    -0.268 OA
ENDROOT
BRANCH   1   2
HETATM    2  C10 UNL     1       1.540  -1.805  -0.580  1.00  0.00     0.218 C 
BRANCH   2   3
HETATM    3  C9  UNL     1       0.121  -1.763  -0.142  1.00  0.00     0.001 C 
HETATM    4  C8  UNL     1      -0.580  -0.648  -0.078  1.00  0.00     0.013 C 
BRANCH   4   5
HETATM    5  C7  UNL     1      -1.961  -0.722   0.365  1.00  0.00     0.006 C 
HETATM    6  C6  UNL     1      -2.578  -1.837   0.712  1.00  0.00    -0.011 C 
HETATM    7  C5  UNL     1      -3.991  -1.733   1.140  1.00  0.00     0.042 C 
HETATM    8  C4  UNL     1      -4.319  -0.288   0.847  1.00  0.00     0.081 C 
HETATM    9  C18 UNL     1      -2.987   0.289   0.550  1.00  0.00     0.165 C 
HETATM   10  O6  UNL     1      -2.709   1.535   0.455  1.00  0.00    -0.292 OA
BRANCH   8  11
HETATM   11  C3  UNL     1      -5.218  -0.256  -0.367  1.00  0.00     0.128 C 
BRANCH  11  12
HETATM   12  N1  UNL     1      -5.636   1.025  -0.789  1.00  0.00    -0.420 N 
HETATM   13  C1  UNL     1      -6.518   1.754   0.043  1.00  0.00     0.142 C 
HETATM   14  C2  UNL     1      -4.808   1.752  -1.677  1.00  0.00     0.142 C 
ENDBRANCH  11  12
ENDBRANCH   8  11
ENDBRANCH   4   5
ENDBRANCH   2   3
ENDBRANCH   1   2
BRANCH   1  15
HETATM   15  S1  UNL     1       3.887  -2.447   0.243  1.00  0.00     0.298 S 
HETATM   16  O2  UNL     1       4.452  -3.251   1.396  1.00  0.00    -0.193 OA
HETATM   17  O3  UNL     1       4.116  -3.298  -0.982  1.00  0.00    -0.193 OA
BRANCH  15  18
HETATM   18  C11 UNL     1       4.708  -0.925   0.134  1.00  0.00     0.086 A 
HETATM   19  C12 UNL     1       5.204  -0.313   1.274  1.00  0.00     0.027 A 
HETATM   20  C13 UNL     1       5.867   0.893   1.266  1.00  0.00     0.020 A 
HETATM   21  C14 UNL     1       6.031   1.503   0.038  1.00  0.00     0.037 A 
HETATM   22  C16 UNL     1       5.575   0.976  -1.152  1.00  0.00     0.020 A 
HETATM   23  C17 UNL     1       4.917  -0.244  -1.060  1.00  0.00     0.027 A 
BRANCH  21  24
HETATM   24  C15 UNL     1       6.737   2.783   0.045  1.00  0.00     0.176 C 
HETATM   25  O4  UNL     1       7.156   3.277   1.123  1.00  0.00    -0.646 OA
BRANCH  24  26
HETATM   26  O5  UNL     1       7.012   3.557  -1.067  1.00  0.00    -0.773 OA
HETATM   27  H19 UNL     1       7.940   3.959  -1.249  1.00  0.00     0.167 HD
ENDBRANCH  24  26
ENDBRANCH  21  24
ENDBRANCH  15  18
ENDBRANCH   1  15
TORSDOF 9
