REMARK  6 active torsions:
REMARK  status: ('A' for Active; 'I' for Inactive)
REMARK    1  A    between atoms: O1_2  and  C2_3 
REMARK    2  A    between atoms: C6_9  and  C7_10 
REMARK    3  A    between atoms: C10_14  and  C11_15 
REMARK    4  A    between atoms: N3_16  and  C13_18 
REMARK    5  A    between atoms: C13_18  and  C14_19 
REMARK    6  A    between atoms: C13_18  and  C15_21 
REMARK       I    between atoms: C15_21  and  N4_22 
ROOT
HETATM    1  C2  UNL     1      -0.709  -1.565   0.656  1.00  0.00     0.078 A 
HETATM    2  C3  UNL     1      -1.786  -1.484   1.473  1.00  0.00     0.071 A 
HETATM    3  C4  UNL     1      -2.754  -0.558   1.202  1.00  0.00     0.092 A 
HETATM    4  N1  UNL     1      -3.803  -0.482   2.033  1.00  0.00    -0.150 NA
HETATM    5  N2  UNL     1      -4.775   0.399   1.844  1.00  0.00    -0.162 NA
HETATM    6  C5  UNL     1      -4.686   1.225   0.791  1.00  0.00     0.151 A 
HETATM    7  C6  UNL     1      -3.609   1.174  -0.089  1.00  0.00     0.002 A 
HETATM    8  C8  UNL     1      -2.576   0.257   0.085  1.00  0.00     0.005 A 
HETATM    9  C9  UNL     1      -1.452   0.123  -0.721  1.00  0.00     0.026 A 
HETATM   10  C10 UNL     1      -0.442  -0.811  -0.467  1.00  0.00    -0.006 A 
ENDROOT
BRANCH  10  11
HETATM   11  C11 UNL     1       0.699  -0.731  -1.390  1.00  0.00     0.159 C 
HETATM   12  N3  UNL     1       1.647   0.240  -1.271  1.00  0.00    -0.400 N 
HETATM   13  C12 UNL     1       1.418   1.393  -2.187  1.00  0.00     0.144 C 
BRANCH  12  14
HETATM   14  C13 UNL     1       2.803   0.381  -0.562  1.00  0.00     0.180 C 
BRANCH  14  15
HETATM   15  C14 UNL     1       3.898  -0.607  -0.767  1.00  0.00     0.114 C 
HETATM   16  I1  UNL     1       5.562  -0.103   0.462  1.00  0.00    -0.087 I 
ENDBRANCH  14  15
BRANCH  14  17
HETATM   17  C15 UNL     1       2.602   0.638   0.907  1.00  0.00     0.238 C 
HETATM   18  N4  UNL     1       3.671   1.208   1.649  1.00  0.00    -0.368 N 
HETATM   19  H17 UNL     1       4.457   1.619   2.197  1.00  0.00     0.159 HD
HETATM   20  H18 UNL     1       3.591   2.235   1.434  1.00  0.00     0.159 HD
HETATM   21  O2  UNL     1       1.562   0.406   1.595  1.00  0.00    -0.271 OA
ENDBRANCH  14  17
ENDBRANCH  12  14
ENDBRANCH  10  11
BRANCH   1  22
HETATM   22  O1  UNL     1       0.299  -2.490   0.889  1.00  0.00    -0.355 OA
HETATM   23  C1  UNL     1       0.153  -3.352   2.015  1.00  0.00     0.210 C 
ENDBRANCH   1  22
BRANCH   7  24
HETATM   24  C7  UNL     1      -3.470   2.123  -1.241  1.00  0.00     0.263 C 
HETATM   25  F1  UNL     1      -4.441   3.074  -1.080  1.00  0.00    -0.251 F 
ENDBRANCH   7  24
TORSDOF 6
