REMARK  9 active torsions:
REMARK  status: ('A' for Active; 'I' for Inactive)
REMARK    1  A    between atoms: N1_2  and  C2_3 
REMARK    2  A    between atoms: C2_3  and  C3_4 
REMARK    3  A    between atoms: C3_4  and  C4_5 
REMARK    4  A    between atoms: C4_5  and  C5_7 
REMARK    5  A    between atoms: C8_10  and  O2_11 
REMARK    6  A    between atoms: O2_11  and  S1_12 
REMARK    7  A    between atoms: S1_12  and  C9_15 
REMARK    8  A    between atoms: C12_18  and  C13_19 
REMARK    9  A    between atoms: C13_19  and  O6_21 
ROOT
HETATM    1  O2  UNL     1       1.249   0.208   0.202  1.00  0.00    -0.229 OA
ENDROOT
BRANCH   1   2
HETATM    2  C8  UNL     1      -0.093  -0.075   0.003  1.00  0.00     0.089 A 
HETATM    3  C7  UNL     1      -0.859  -0.253   1.135  1.00  0.00     0.039 A 
HETATM    4  C6  UNL     1      -2.198  -0.536   1.016  1.00  0.00     0.018 A 
HETATM    5  C5  UNL     1      -2.832  -0.655  -0.212  1.00  0.00     0.010 A 
HETATM    6  C17 UNL     1      -2.064  -0.476  -1.355  1.00  0.00     0.018 A 
HETATM    7  C16 UNL     1      -0.722  -0.192  -1.218  1.00  0.00     0.039 A 
BRANCH   5   8
HETATM    8  C4  UNL     1      -4.272  -0.959  -0.349  1.00  0.00     0.161 C 
HETATM    9  O1  UNL     1      -4.768  -1.045  -1.522  1.00  0.00    -0.292 OA
BRANCH   8  10
HETATM   10  C3  UNL     1      -5.150  -1.165   0.798  1.00  0.00     0.114 C 
BRANCH  10  11
HETATM   11  C2  UNL     1      -5.756   0.053   1.405  1.00  0.00     0.277 C 
BRANCH  11  12
HETATM   12  N1  UNL     1      -6.583   0.844   0.550  1.00  0.00     0.079 N 
HETATM   13  C1  UNL     1      -5.920   1.550  -0.500  1.00  0.00     0.306 C 
HETATM   14  H4  UNL     1      -7.404   0.339   0.186  1.00  0.00     0.315 HD
ENDBRANCH  11  12
ENDBRANCH  10  11
ENDBRANCH   8  10
ENDBRANCH   5   8
ENDBRANCH   1   2
BRANCH   1  15
HETATM   15  S1  UNL     1       2.329  -1.112   0.302  1.00  0.00     0.303 S 
HETATM   16  O3  UNL     1       2.035  -2.136  -0.733  1.00  0.00    -0.193 OA
HETATM   17  O4  UNL     1       2.255  -1.727   1.662  1.00  0.00    -0.193 OA
BRANCH  15  18
HETATM   18  C9  UNL     1       3.942  -0.431   0.063  1.00  0.00     0.086 A 
HETATM   19  C10 UNL     1       4.443  -0.358  -1.230  1.00  0.00     0.027 A 
HETATM   20  C11 UNL     1       5.707   0.177  -1.421  1.00  0.00     0.020 A 
HETATM   21  C12 UNL     1       6.432   0.621  -0.326  1.00  0.00     0.037 A 
HETATM   22  C14 UNL     1       5.904   0.534   0.957  1.00  0.00     0.020 A 
HETATM   23  C15 UNL     1       4.654   0.008   1.171  1.00  0.00     0.027 A 
BRANCH  21  24
HETATM   24  C13 UNL     1       7.762   1.182  -0.532  1.00  0.00     0.176 C 
HETATM   25  O5  UNL     1       8.183   1.231  -1.719  1.00  0.00    -0.646 OA
BRANCH  24  26
HETATM   26  O6  UNL     1       8.497   1.630   0.551  1.00  0.00    -0.773 OA
HETATM   27  H13 UNL     1       9.493   1.800   0.446  1.00  0.00     0.167 HD
ENDBRANCH  24  26
ENDBRANCH  21  24
ENDBRANCH  15  18
ENDBRANCH   1  15
TORSDOF 9
