REMARK  9 active torsions:
REMARK  status: ('A' for Active; 'I' for Inactive)
REMARK    1  A    between atoms: C2_2  and  N1_3 
REMARK    2  A    between atoms: N1_3  and  C4_5 
REMARK    3  A    between atoms: C4_5  and  C5_6 
REMARK    4  A    between atoms: C10_11  and  C11_12 
REMARK    5  A    between atoms: C11_12  and  O1_13 
REMARK    6  A    between atoms: O1_13  and  C12_14 
REMARK    7  A    between atoms: C15_17  and  C16_18 
REMARK    8  A    between atoms: C16_18  and  C17_20 
REMARK    9  A    between atoms: C19_23  and  N2_24 
ROOT
HETATM    1  C12 UNL     1      -0.332   0.576  -1.011  1.00  0.00     0.069 A 
HETATM    2  C13 UNL     1      -0.654   1.927  -0.816  1.00  0.00     0.037 A 
HETATM    3  C14 UNL     1      -1.977   2.335  -0.606  1.00  0.00     0.018 A 
HETATM    4  C15 UNL     1      -2.996   1.407  -0.587  1.00  0.00     0.010 A 
HETATM    5  C20 UNL     1      -2.682   0.080  -0.779  1.00  0.00     0.018 A 
HETATM    6  C21 UNL     1      -1.382  -0.311  -0.984  1.00  0.00     0.037 A 
ENDROOT
BRANCH   1   7
HETATM    7  O1  UNL     1       1.021   0.478  -1.188  1.00  0.00    -0.347 OA
BRANCH   7   8
HETATM    8  C11 UNL     1       1.823  -0.624  -1.407  1.00  0.00     0.215 C 
BRANCH   8   9
HETATM    9  C10 UNL     1       1.774  -1.595  -0.311  1.00  0.00    -0.026 A 
HETATM   10  C5  UNL     1       2.500  -1.169   0.810  1.00  0.00    -0.022 A 
HETATM   11  C6  UNL     1       2.535  -2.018   1.925  1.00  0.00     0.009 A 
HETATM   12  C7  UNL     1       1.905  -3.241   1.995  1.00  0.00     0.001 A 
HETATM   13  C8  UNL     1       1.195  -3.647   0.885  1.00  0.00     0.001 A 
HETATM   14  C9  UNL     1       1.158  -2.817  -0.212  1.00  0.00     0.010 A 
BRANCH  10  15
HETATM   15  C4  UNL     1       3.244   0.136   0.883  1.00  0.00     0.311 C 
BRANCH  15  16
HETATM   16  N1  UNL     1       4.476   0.111   0.154  1.00  0.00     0.087 N 
HETATM   17  C3  UNL     1       5.338  -1.003   0.450  1.00  0.00     0.310 C 
BRANCH  16  18
HETATM   18  C2  UNL     1       5.238   1.331   0.222  1.00  0.00     0.268 C 
HETATM   19  C1  UNL     1       4.423   2.575  -0.060  1.00  0.00     0.037 C 
ENDBRANCH  16  18
ENDBRANCH  15  16
ENDBRANCH  10  15
ENDBRANCH   8   9
ENDBRANCH   7   8
ENDBRANCH   1   7
BRANCH   4  20
HETATM   20  C16 UNL     1      -4.383   1.795  -0.367  1.00  0.00     0.167 C 
HETATM   21  O2  UNL     1      -4.666   3.015  -0.191  1.00  0.00    -0.292 OA
BRANCH  20  22
HETATM   22  C17 UNL     1      -5.453   0.772  -0.347  1.00  0.00     0.102 C 
HETATM   23  C18 UNL     1      -6.808   1.360  -0.082  1.00  0.00     0.091 C 
HETATM   24  S1  UNL     1      -6.518   1.341   1.707  1.00  0.00    -0.143 SA
HETATM   25  C19 UNL     1      -5.547  -0.013   0.942  1.00  0.00     0.149 C 
BRANCH  25  26
HETATM   26  N2  UNL     1      -6.262  -1.240   0.754  1.00  0.00    -0.417 N 
HETATM   27  H23 UNL     1      -6.789  -1.321  -0.136  1.00  0.00     0.151 HD
HETATM   28  H24 UNL     1      -6.740  -1.619   1.590  1.00  0.00     0.151 HD
ENDBRANCH  25  26
ENDBRANCH  20  22
ENDBRANCH   4  20
TORSDOF 9
