REMARK  10 active torsions:
REMARK  status: ('A' for Active; 'I' for Inactive)
REMARK    1  A    between atoms: S1_2  and  C2_3 
REMARK    2  A    between atoms: C2_3  and  C3_4 
REMARK    3  A    between atoms: C3_4  and  C4_5 
REMARK    4  A    between atoms: C3_4  and  C6_9 
REMARK    5  A    between atoms: C4_5  and  N1_6 
REMARK    6  A    between atoms: N1_6  and  N2_8 
REMARK    7  A    between atoms: C6_9  and  C7_11 
REMARK    8  A    between atoms: C10_14  and  O2_15 
REMARK    9  A    between atoms: O2_15  and  C11_16 
REMARK   10  A    between atoms: C11_16  and  C12_17 
ROOT
HETATM    1  C7  UNL     1      -1.253  -0.518  -0.539  1.00  0.00     0.047 A 
HETATM    2  C8  UNL     1      -0.624  -0.247   0.619  1.00  0.00     0.025 A 
HETATM    3  C9  UNL     1       0.805  -0.074   0.840  1.00  0.00     0.034 A 
HETATM    4  C10 UNL     1       1.590  -0.194  -0.209  1.00  0.00     0.056 A 
HETATM    5  C18 UNL     1       1.426  -0.472  -1.639  1.00  0.00     0.144 A 
HETATM    6  S2  UNL     1      -0.308  -0.716  -2.070  1.00  0.00    -0.120 SA
ENDROOT
BRANCH   1   7
HETATM    7  C6  UNL     1      -2.713  -0.663  -0.589  1.00  0.00     0.172 C 
HETATM    8  O1  UNL     1      -3.109  -0.916  -1.793  1.00  0.00    -0.291 OA
BRANCH   7   9
HETATM    9  C3  UNL     1      -3.845  -0.608   0.304  1.00  0.00     0.085 C 
BRANCH   9  10
HETATM   10  C2  UNL     1      -3.758  -1.730   1.326  1.00  0.00     0.087 C 
BRANCH  10  11
HETATM   11  S1  UNL     1      -3.494  -3.270   0.450  1.00  0.00    -0.173 SA
HETATM   12  C1  UNL     1      -4.921  -3.731  -0.572  1.00  0.00     0.089 C 
ENDBRANCH  10  11
ENDBRANCH   9  10
BRANCH   9  13
HETATM   13  C4  UNL     1      -4.061   0.723   0.971  1.00  0.00     0.120 C 
BRANCH  13  14
HETATM   14  N1  UNL     1      -4.166   1.857   0.120  1.00  0.00    -0.258 NA
HETATM   15  C5  UNL     1      -2.970   2.267  -0.547  1.00  0.00     0.130 C 
BRANCH  14  16
HETATM   16  N2  UNL     1      -4.673   2.924   0.881  1.00  0.00    -0.269 NA
HETATM   17  H12 UNL     1      -4.563   2.736   1.886  1.00  0.00     0.137 HD
HETATM   18  H13 UNL     1      -5.685   3.103   0.651  1.00  0.00     0.137 HD
ENDBRANCH  14  16
ENDBRANCH  13  14
ENDBRANCH   9  13
ENDBRANCH   7   9
ENDBRANCH   1   7
BRANCH   4  19
HETATM   19  O2  UNL     1       2.951  -0.034  -0.021  1.00  0.00    -0.350 OA
BRANCH  19  20
HETATM   20  C11 UNL     1       3.800   0.788  -0.756  1.00  0.00     0.214 C 
BRANCH  20  21
HETATM   21  C12 UNL     1       5.159   0.640  -0.128  1.00  0.00    -0.034 A 
HETATM   22  C13 UNL     1       5.624   1.445   0.898  1.00  0.00     0.009 A 
HETATM   23  C14 UNL     1       6.900   1.217   1.403  1.00  0.00     0.001 A 
HETATM   24  C15 UNL     1       7.657   0.197   0.863  1.00  0.00     0.000 A 
HETATM   25  C16 UNL     1       7.227  -0.629  -0.164  1.00  0.00     0.001 A 
HETATM   26  C17 UNL     1       5.959  -0.382  -0.646  1.00  0.00     0.009 A 
ENDBRANCH  20  21
ENDBRANCH  19  20
ENDBRANCH   4  19
TORSDOF 10
