REMARK  12 active torsions:
REMARK  status: ('A' for Active; 'I' for Inactive)
REMARK    1  A    between atoms: N1_2  and  C3_4 
REMARK    2  A    between atoms: C3_4  and  C4_5 
REMARK    3  A    between atoms: C4_5  and  C5_6 
REMARK    4  A    between atoms: C4_5  and  C8_11 
REMARK    5  A    between atoms: C5_6  and  S1_7 
REMARK    6  A    between atoms: S1_7  and  C6_8 
REMARK    7  A    between atoms: C6_8  and  C7_9 
REMARK    8  A    between atoms: C7_9  and  N2_10 
REMARK    9  A    between atoms: C8_11  and  C9_13 
REMARK   10  A    between atoms: C12_16  and  O2_17 
REMARK   11  A    between atoms: O2_17  and  C13_18 
REMARK   12  A    between atoms: C13_18  and  C14_19 
ROOT
HETATM    1  C9  UNL     1      -0.083   1.553  -1.518  1.00  0.00     0.144 A 
HETATM    2  C10 UNL     1      -0.960   0.407  -1.845  1.00  0.00    -0.001 A 
HETATM    3  C11 UNL     1      -2.156  -0.031  -1.535  1.00  0.00     0.035 A 
HETATM    4  C12 UNL     1      -3.059   0.647  -0.627  1.00  0.00     0.075 A 
HETATM    5  C20 UNL     1      -2.574   1.785  -0.112  1.00  0.00     0.082 A 
HETATM    6  S2  UNL     1      -1.009   2.596  -0.362  1.00  0.00    -0.122 SA
ENDROOT
BRANCH   1   7
HETATM    7  C8  UNL     1       1.252   1.176  -1.022  1.00  0.00     0.150 C 
HETATM    8  O1  UNL     1       1.385   1.567   0.153  1.00  0.00    -0.296 OA
BRANCH   7   9
HETATM    9  C4  UNL     1       2.489   0.514  -1.390  1.00  0.00     0.084 C 
BRANCH   9  10
HETATM   10  C3  UNL     1       2.432  -0.957  -1.673  1.00  0.00     0.129 C 
BRANCH  10  11
HETATM   11  N1  UNL     1       3.603  -1.465  -2.301  1.00  0.00    -0.420 N 
HETATM   12  C1  UNL     1       3.907  -1.089  -3.612  1.00  0.00     0.142 C 
HETATM   13  C2  UNL     1       4.454  -2.314  -1.579  1.00  0.00     0.142 C 
ENDBRANCH  10  11
ENDBRANCH   9  10
BRANCH   9  14
HETATM   14  C5  UNL     1       3.669   0.784  -0.467  1.00  0.00     0.087 C 
BRANCH  14  15
HETATM   15  S1  UNL     1       3.459  -0.130   1.076  1.00  0.00    -0.167 SA
BRANCH  15  16
HETATM   16  C6  UNL     1       4.781   0.106   2.251  1.00  0.00     0.103 C 
BRANCH  16  17
HETATM   17  C7  UNL     1       4.832   1.538   2.770  1.00  0.00     0.276 C 
BRANCH  17  18
HETATM   18  N2  UNL     1       5.961   1.550   3.712  1.00  0.00     0.079 N 
HETATM   19  H16 UNL     1       6.211   2.544   3.906  1.00  0.00     0.312 HD
HETATM   20  H17 UNL     1       6.729   1.048   3.247  1.00  0.00     0.312 HD
ENDBRANCH  17  18
ENDBRANCH  16  17
ENDBRANCH  15  16
ENDBRANCH  14  15
ENDBRANCH   9  14
ENDBRANCH   7   9
ENDBRANCH   1   7
BRANCH   4  21
HETATM   21  O2  UNL     1      -4.331   0.388  -0.158  1.00  0.00    -0.346 OA
BRANCH  21  22
HETATM   22  C13 UNL     1      -4.504  -0.630   0.807  1.00  0.00     0.214 C 
BRANCH  22  23
HETATM   23  C14 UNL     1      -5.965  -0.590   1.176  1.00  0.00    -0.034 A 
HETATM   24  C15 UNL     1      -6.875  -1.358   0.458  1.00  0.00     0.009 A 
HETATM   25  C16 UNL     1      -8.199  -1.302   0.816  1.00  0.00     0.001 A 
HETATM   26  C17 UNL     1      -8.685  -0.525   1.855  1.00  0.00     0.000 A 
HETATM   27  C18 UNL     1      -7.719   0.208   2.520  1.00  0.00     0.001 A 
HETATM   28  C19 UNL     1      -6.368   0.211   2.225  1.00  0.00     0.009 A 
ENDBRANCH  22  23
ENDBRANCH  21  22
ENDBRANCH   4  21
TORSDOF 12
