REMARK  6 active torsions:
REMARK  status: ('A' for Active; 'I' for Inactive)
REMARK    1  A    between atoms: C2_2  and  C3_3 
REMARK    2  A    between atoms: C2_2  and  C6_7 
REMARK    3  A    between atoms: C3_3  and  N1_4 
REMARK    4  A    between atoms: C6_7  and  C7_9 
REMARK    5  A    between atoms: C15_18  and  C16_19 
REMARK    6  A    between atoms: C16_19  and  O4_21 
ROOT
HETATM    1  C7  UNL     1      -0.837   0.100   0.306  1.00  0.00     0.015 A 
HETATM    2  C8  UNL     1      -1.025   1.285  -0.335  1.00  0.00     0.017 A 
HETATM    3  C9  UNL     1       0.058   1.983  -0.918  1.00  0.00     0.021 A 
HETATM    4  C10 UNL     1       1.392   1.525  -0.888  1.00  0.00     0.023 A 
HETATM    5  C11 UNL     1       1.609   0.308  -0.227  1.00  0.00    -0.006 A 
HETATM    6  C12 UNL     1       0.490  -0.331   0.327  1.00  0.00     0.029 A 
HETATM    7  O2  UNL     1       2.608  -0.542   0.089  1.00  0.00     0.000 OA
HETATM    8  C13 UNL     1       3.928  -0.535   0.073  1.00  0.00     0.026 C 
HETATM    9  C14 UNL     1       4.867  -1.300   0.508  1.00  0.00    -0.003 C 
HETATM   10  C15 UNL     1       5.770  -0.317  -0.061  1.00  0.00     0.031 C 
HETATM   11  C17 UNL     1       5.504   0.797  -0.687  1.00  0.00    -0.002 C 
HETATM   12  C18 UNL     1       4.829   1.860  -1.281  1.00  0.00     0.036 C 
HETATM   13  C19 UNL     1       3.921   2.668  -1.739  1.00  0.00     0.258 C 
HETATM   14  S1  UNL     1       2.127   2.848  -1.874  1.00  0.00    -0.047 S 
HETATM   15  O5  UNL     1       1.648   2.589  -3.341  1.00  0.00    -0.274 OA
ENDROOT
BRANCH   1  16
HETATM   16  C6  UNL     1      -1.934  -0.709   0.848  1.00  0.00     0.186 C 
HETATM   17  O1  UNL     1      -1.657  -1.767   1.421  1.00  0.00    -0.287 OA
BRANCH  16  18
HETATM   18  C2  UNL     1      -3.312  -0.322   0.734  1.00  0.00    -0.011 C 
HETATM   19  C1  UNL     1      -4.206   0.557   0.346  1.00  0.00     0.044 C 
BRANCH  18  20
HETATM   20  C3  UNL     1      -4.362  -1.310   1.119  1.00  0.00     0.154 C 
BRANCH  20  21
HETATM   21  N1  UNL     1      -5.694  -0.903   0.882  1.00  0.00    -0.417 N 
HETATM   22  C4  UNL     1      -6.145  -0.800  -0.455  1.00  0.00     0.142 C 
HETATM   23  C5  UNL     1      -6.203   0.145   1.720  1.00  0.00     0.142 C 
ENDBRANCH  20  21
ENDBRANCH  18  20
ENDBRANCH  16  18
ENDBRANCH   1  16
BRANCH  10  24
HETATM   24  C16 UNL     1       7.245  -0.452   0.002  1.00  0.00     0.175 C 
HETATM   25  O3  UNL     1       8.244   0.226  -0.396  1.00  0.00    -0.646 OA
BRANCH  24  26
HETATM   26  O4  UNL     1       7.684  -1.579   0.651  1.00  0.00    -0.773 OA
HETATM   27  H16 UNL     1       8.629  -1.927   0.668  1.00  0.00     0.167 HD
ENDBRANCH  24  26
ENDBRANCH  10  24
TORSDOF 6
