REMARK  4 active torsions:
REMARK  status: ('A' for Active; 'I' for Inactive)
REMARK    1  A    between atoms: C6_6  and  C7_7 
REMARK    2  A    between atoms: C12_14  and  C13_15 
REMARK    3  A    between atoms: C13_15  and  C15_17 
REMARK    4  A    between atoms: C15_17  and  N1_18 
ROOT
HETATM    1  C1  UNL     1       6.858  -2.131  -0.901  1.00  0.00     0.037 C 
HETATM    2  C2  UNL     1       5.924  -1.043  -0.677  1.00  0.00    -0.017 C 
HETATM    3  C3  UNL     1       4.609  -0.861  -0.415  1.00  0.00    -0.020 C 
HETATM    4  C4  UNL     1       4.057   0.531  -0.251  1.00  0.00     0.021 C 
HETATM    5  C5  UNL     1       2.698   0.490   0.008  1.00  0.00     0.070 C 
HETATM    6  C6  UNL     1       1.970   1.779   0.201  1.00  0.00    -0.000 C 
HETATM    7  C8  UNL     1       0.695   1.715   0.440  1.00  0.00     0.008 A 
HETATM    8  C9  UNL     1      -0.034   2.957   0.632  1.00  0.00     0.011 A 
HETATM    9  C10 UNL     1      -1.321   3.077   0.833  1.00  0.00    -0.021 A 
HETATM   10  C11 UNL     1      -2.263   1.944   0.894  1.00  0.00     0.064 A 
HETATM   11  C12 UNL     1      -1.528   0.673   0.708  1.00  0.00    -0.035 A 
HETATM   12  C18 UNL     1      -0.224   0.595   0.511  1.00  0.00     0.101 A 
HETATM   13  O3  UNL     1       0.146  -0.731   0.389  1.00  0.00    -0.248 OA
HETATM   14  S1  UNL     1       1.309  -1.547   1.292  1.00  0.00     0.191 S 
HETATM   15  O4  UNL     1       0.792  -2.073   2.584  1.00  0.00    -0.223 OA
HETATM   16  P1  UNL     1       2.205  -3.048   0.108  1.00  0.00     0.067 P 
HETATM   17  S2  UNL     1       4.223  -2.614  -0.392  1.00  0.00    -0.090 SA
HETATM   18  H24 UNL     1       1.466  -3.215  -1.160  1.00  0.00     0.085 HD
ENDROOT
BRANCH  11  19
HETATM   19  C13 UNL     1      -2.585  -0.376   0.741  1.00  0.00     0.042 C 
HETATM   20  C14 UNL     1      -2.122  -1.781   0.690  1.00  0.00     0.016 C 
BRANCH  19  21
HETATM   21  C15 UNL     1      -3.646  -0.081  -0.263  1.00  0.00     0.280 C 
BRANCH  21  22
HETATM   22  N1  UNL     1      -4.724  -1.099  -0.342  1.00  0.00     0.080 N 
HETATM   23  C16 UNL     1      -5.900  -0.411  -0.989  1.00  0.00     0.309 C 
HETATM   24  C17 UNL     1      -4.337  -2.155  -1.318  1.00  0.00     0.309 C 
ENDBRANCH  21  22
ENDBRANCH  19  21
ENDBRANCH  11  19
BRANCH   6  25
HETATM   25  C7  UNL     1       2.485   3.197   0.147  1.00  0.00     0.151 A 
HETATM   26  O1  UNL     1       3.649   3.539  -0.070  1.00  0.00    -0.188 OA
HETATM   27  O2  UNL     1       2.577   4.558   0.174  1.00  0.00     0.000 OA
HETATM   28  H7  UNL     1       2.026   5.170  -0.458  1.00  0.00     0.000 HD
ENDBRANCH   6  25
TORSDOF 4
