REMARK  7 active torsions:
REMARK  status: ('A' for Active; 'I' for Inactive)
REMARK    1  A    between atoms: C2_2  and  C3_3 
REMARK    2  A    between atoms: C3_3  and  N1_4 
REMARK    3  A    between atoms: C6_7  and  C7_9 
REMARK    4  A    between atoms: C10_12  and  C11_13 
REMARK    5  A    between atoms: C11_13  and  O2_14 
REMARK    6  A    between atoms: O2_14  and  C12_15 
REMARK    7  A    between atoms: C12_15  and  C13_16 
ROOT
HETATM    1  C7  UNL     1      -1.576  -0.788  -0.532  1.00  0.00    -0.002 A 
HETATM    2  C8  UNL     1      -1.398   0.062   0.536  1.00  0.00     0.015 A 
HETATM    3  C9  UNL     1      -0.151   0.439   0.981  1.00  0.00     0.010 A 
HETATM    4  C10 UNL     1       0.930  -0.078   0.302  1.00  0.00    -0.035 A 
HETATM    5  C19 UNL     1       0.764  -0.925  -0.763  1.00  0.00     0.010 A 
HETATM    6  C20 UNL     1      -0.497  -1.294  -1.197  1.00  0.00     0.015 A 
ENDROOT
BRANCH   4   7
HETATM    7  C11 UNL     1       2.272   0.337   0.792  1.00  0.00     0.206 C 
BRANCH   7   8
HETATM    8  O2  UNL     1       2.774  -0.511   1.759  1.00  0.00    -0.382 OA
BRANCH   8   9
HETATM    9  C12 UNL     1       4.013  -0.109   2.197  1.00  0.00     0.206 C 
BRANCH   9  10
HETATM   10  C13 UNL     1       5.004  -0.075   1.093  1.00  0.00    -0.035 A 
HETATM   11  C14 UNL     1       5.754  -1.209   0.810  1.00  0.00     0.009 A 
HETATM   12  C15 UNL     1       6.705  -1.306  -0.188  1.00  0.00     0.001 A 
HETATM   13  C16 UNL     1       6.910  -0.172  -0.953  1.00  0.00     0.000 A 
HETATM   14  C17 UNL     1       6.202   0.978  -0.724  1.00  0.00     0.001 A 
HETATM   15  C18 UNL     1       5.265   1.017   0.286  1.00  0.00     0.009 A 
ENDBRANCH   9  10
ENDBRANCH   8   9
ENDBRANCH   7   8
ENDBRANCH   4   7
BRANCH   1  16
HETATM   16  C6  UNL     1      -2.852  -1.212  -1.036  1.00  0.00     0.085 A 
HETATM   17  C2  UNL     1      -4.255  -1.043  -0.790  1.00  0.00    -0.004 A 
HETATM   18  C1  UNL     1      -4.621  -1.850  -1.795  1.00  0.00     0.214 A 
HETATM   19  O1  UNL     1      -3.063  -1.987  -2.005  1.00  0.00    -0.346 OA
BRANCH  17  20
HETATM   20  C3  UNL     1      -5.082  -0.278   0.192  1.00  0.00     0.155 C 
BRANCH  20  21
HETATM   21  N1  UNL     1      -4.786   1.106   0.041  1.00  0.00    -0.417 N 
HETATM   22  C4  UNL     1      -5.518   1.966   0.933  1.00  0.00     0.142 C 
HETATM   23  C5  UNL     1      -4.640   1.589  -1.288  1.00  0.00     0.142 C 
ENDBRANCH  20  21
ENDBRANCH  17  20
ENDBRANCH   1  16
TORSDOF 7
