REMARK  5 active torsions:
REMARK  status: ('A' for Active; 'I' for Inactive)
REMARK    1  A    between atoms: N1_2  and  C2_3 
REMARK    2  A    between atoms: C2_3  and  C4_5 
REMARK    3  A    between atoms: C4_5  and  C5_7 
REMARK    4  A    between atoms: C10_12  and  O2_13 
REMARK    5  A    between atoms: O2_13  and  C11_14 
ROOT
HETATM    1  C5  UNL     1       0.789   0.402  -1.148  1.00  0.00     0.045 A 
HETATM    2  C6  UNL     1       1.607   1.066  -2.039  1.00  0.00     0.018 A 
HETATM    3  C7  UNL     1       1.094   1.699  -3.151  1.00  0.00     0.001 A 
HETATM    4  C8  UNL     1      -0.269   1.655  -3.358  1.00  0.00     0.003 A 
HETATM    5  C9  UNL     1      -1.042   0.980  -2.440  1.00  0.00     0.038 A 
HETATM    6  C10 UNL     1      -0.599   0.331  -1.317  1.00  0.00     0.084 A 
ENDROOT
BRANCH   6   7
HETATM    7  O2  UNL     1      -1.285  -0.359  -0.357  1.00  0.00    -0.337 OA
BRANCH   7   8
HETATM    8  C11 UNL     1      -2.671  -0.508  -0.402  1.00  0.00     0.181 C 
HETATM    9  C12 UNL     1      -2.928  -1.991  -0.400  1.00  0.00     0.022 C 
HETATM   10  C13 UNL     1      -2.759  -2.659   0.713  1.00  0.00    -0.027 C 
HETATM   11  C14 UNL     1      -3.316  -2.187   1.792  1.00  0.00     0.012 C 
HETATM   12  C15 UNL     1      -3.634  -0.764   1.871  1.00  0.00     0.006 C 
HETATM   13  C16 UNL     1      -3.330   0.020   0.840  1.00  0.00    -0.051 C 
HETATM   14  C17 UNL     1      -3.715   1.447   1.069  1.00  0.00     0.046 C 
ENDBRANCH   7   8
ENDBRANCH   6   7
BRANCH   1  15
HETATM   15  C4  UNL     1       1.383  -0.252   0.004  1.00  0.00     0.195 C 
HETATM   16  O1  UNL     1       0.709  -0.884   0.843  1.00  0.00    -0.290 OA
BRANCH  15  17
HETATM   17  C2  UNL     1       2.807  -0.311   0.407  1.00  0.00     0.290 C 
HETATM   18  C3  UNL     1       3.335   1.077   0.583  1.00  0.00     0.051 C 
BRANCH  17  19
HETATM   19  N1  UNL     1       2.952  -1.116   1.609  1.00  0.00     0.090 N 
HETATM   20  C1  UNL     1       4.306  -1.263   2.025  1.00  0.00     0.307 C 
HETATM   21  H4  UNL     1       2.524  -2.054   1.450  1.00  0.00     0.316 HD
ENDBRANCH  17  19
ENDBRANCH  15  17
ENDBRANCH   1  15
TORSDOF 5
