REMARK  6 active torsions:
REMARK  status: ('A' for Active; 'I' for Inactive)
REMARK    1  A    between atoms: C2_2  and  N1_3 
REMARK       I    between atoms: N1_3  and  C3_4 
REMARK    2  A    between atoms: C3_4  and  C4_6 
REMARK    3  A    between atoms: N2_10  and  C8_11 
REMARK    4  A    between atoms: C10_13  and  N3_14 
REMARK    5  A    between atoms: N3_14  and  C11_15 
REMARK    6  A    between atoms: C20_28  and  C21_29 
ROOT
HETATM    1  C8  UNL     1       0.050  -0.173  -0.142  1.00  0.00     0.038 C 
HETATM    2  C9  UNL     1       0.432   0.820  -0.911  1.00  0.00     0.065 C 
HETATM    3  C10 UNL     1       1.863   0.510  -1.210  1.00  0.00     0.193 A 
HETATM    4  N4  UNL     1       2.390   1.158  -2.379  1.00  0.00    -0.240 NA
HETATM    5  C17 UNL     1       2.923   0.251  -3.126  1.00  0.00     0.230 A 
HETATM    6  N5  UNL     1       2.795  -1.062  -2.534  1.00  0.00    -0.242 NA
HETATM    7  C18 UNL     1       2.155  -0.892  -1.395  1.00  0.00     0.091 A 
HETATM    8  C19 UNL     1       1.662  -1.866  -0.465  1.00  0.00     0.041 C 
HETATM    9  C20 UNL     1       0.536  -1.487   0.183  1.00  0.00    -0.030 C 
ENDROOT
BRANCH   1  10
HETATM   10  N2  UNL     1      -1.327   0.175   0.166  1.00  0.00    -0.367 N 
HETATM   11  C4  UNL     1      -2.458   0.455  -0.694  1.00  0.00     0.177 C 
HETATM   12  C5  UNL     1      -2.821   1.896  -0.275  1.00  0.00     0.037 C 
HETATM   13  C6  UNL     1      -2.659   1.786   1.231  1.00  0.00     0.022 C 
HETATM   14  C7  UNL     1      -2.000   0.405   1.434  1.00  0.00     0.124 C 
BRANCH  11  15
HETATM   15  C3  UNL     1      -3.660  -0.335  -0.454  1.00  0.00     0.244 C 
HETATM   16  N1  UNL     1      -4.694   0.076  -1.364  1.00  0.00    -0.339 N 
HETATM   17  H4  UNL     1      -4.778   0.795  -2.139  1.00  0.00     0.167 HD
HETATM   18  O1  UNL     1      -4.261  -1.251   0.198  1.00  0.00    -0.271 OA
BRANCH  16  19
HETATM   19  C2  UNL     1      -5.953  -0.605  -1.263  1.00  0.00     0.064 C 
HETATM   20  C1  UNL     1      -6.499  -1.565  -0.539  1.00  0.00     0.049 C 
ENDBRANCH  16  19
ENDBRANCH  11  15
ENDBRANCH   1  10
BRANCH   9  21
HETATM   21  C21 UNL     1      -0.058  -2.422   1.156  1.00  0.00     0.036 C 
HETATM   22  C22 UNL     1      -1.440  -2.820   0.696  1.00  0.00     0.010 C 
ENDBRANCH   9  21
BRANCH   3  23
HETATM   23  N3  UNL     1       2.616   1.077  -0.070  1.00  0.00    -0.351 N 
HETATM   24  H13 UNL     1       1.955   1.593   0.595  1.00  0.00     0.163 HD
BRANCH  23  25
HETATM   25  C11 UNL     1       3.961   1.118   0.369  1.00  0.00     0.071 A 
HETATM   26  C12 UNL     1       5.040   0.538  -0.251  1.00  0.00     0.032 A 
HETATM   27  C13 UNL     1       6.352   0.574   0.157  1.00  0.00     0.004 A 
HETATM   28  C14 UNL     1       6.575   1.277   1.317  1.00  0.00     0.027 A 
HETATM   29  C15 UNL     1       5.553   1.888   2.001  1.00  0.00     0.074 A 
HETATM   30 CL1  UNL     1       5.885   2.770   3.473  1.00  0.00    -0.081 Cl
HETATM   31  C16 UNL     1       4.271   1.800   1.520  1.00  0.00     0.164 A 
HETATM   32  F1  UNL     1       3.317   2.444   2.274  1.00  0.00    -0.202 F 
ENDBRANCH  23  25
ENDBRANCH   3  23
TORSDOF 6
