REMARK  7 active torsions:
REMARK  status: ('A' for Active; 'I' for Inactive)
REMARK    1  A    between atoms: N1_2  and  C3_4 
REMARK    2  A    between atoms: C3_4  and  C4_5 
REMARK    3  A    between atoms: C4_5  and  C5_6 
REMARK    4  A    between atoms: C5_6  and  C6_8 
REMARK    5  A    between atoms: C9_11  and  O2_12 
REMARK    6  A    between atoms: O2_12  and  C10_13 
REMARK    7  A    between atoms: C10_13  and  C11_14 
ROOT
HETATM    1  C6  UNL     1      -1.355   0.598  -0.221  1.00  0.00     0.010 A 
HETATM    2  C7  UNL     1      -0.682   1.238  -1.246  1.00  0.00     0.018 A 
HETATM    3  C8  UNL     1       0.697   1.147  -1.377  1.00  0.00     0.037 A 
HETATM    4  C9  UNL     1       1.453   0.403  -0.474  1.00  0.00     0.069 A 
HETATM    5  C17 UNL     1       0.776  -0.233   0.548  1.00  0.00     0.037 A 
HETATM    6  C18 UNL     1      -0.595  -0.135   0.666  1.00  0.00     0.018 A 
ENDROOT
BRANCH   4   7
HETATM    7  O2  UNL     1       2.827   0.377  -0.693  1.00  0.00    -0.347 OA
BRANCH   7   8
HETATM    8  C10 UNL     1       3.599  -0.384   0.233  1.00  0.00     0.214 C 
BRANCH   8   9
HETATM    9  C11 UNL     1       5.034  -0.293  -0.157  1.00  0.00    -0.034 A 
HETATM   10  C12 UNL     1       5.744   0.744   0.394  1.00  0.00     0.009 A 
HETATM   11  C13 UNL     1       7.077   0.956   0.127  1.00  0.00     0.001 A 
HETATM   12  C14 UNL     1       7.739   0.098  -0.728  1.00  0.00     0.000 A 
HETATM   13  C15 UNL     1       7.041  -0.969  -1.306  1.00  0.00     0.001 A 
HETATM   14  C16 UNL     1       5.686  -1.150  -1.009  1.00  0.00     0.009 A 
ENDBRANCH   8   9
ENDBRANCH   7   8
ENDBRANCH   4   7
BRANCH   1  15
HETATM   15  C5  UNL     1      -2.786   0.697  -0.086  1.00  0.00     0.161 C 
HETATM   16  O1  UNL     1      -3.410   1.391  -0.938  1.00  0.00    -0.292 OA
BRANCH  15  17
HETATM   17  C4  UNL     1      -3.499   0.014   1.003  1.00  0.00     0.103 C 
BRANCH  17  18
HETATM   18  C3  UNL     1      -4.995   0.269   0.955  1.00  0.00     0.123 C 
BRANCH  18  19
HETATM   19  N1  UNL     1      -5.490  -0.213  -0.289  1.00  0.00    -0.420 N 
HETATM   20  C1  UNL     1      -5.465  -1.623  -0.465  1.00  0.00     0.142 C 
HETATM   21  C2  UNL     1      -6.684   0.451  -0.755  1.00  0.00     0.142 C 
ENDBRANCH  18  19
ENDBRANCH  17  18
ENDBRANCH  15  17
ENDBRANCH   1  15
TORSDOF 7
