REMARK  6 active torsions:
REMARK  status: ('A' for Active; 'I' for Inactive)
REMARK    1  A    between atoms: C2_2  and  C3_3 
REMARK    2  A    between atoms: C3_3  and  N1_4 
REMARK    3  A    between atoms: C5_6  and  C6_8 
REMARK    4  A    between atoms: C9_11  and  O2_12 
REMARK    5  A    between atoms: O2_12  and  C10_13 
REMARK    6  A    between atoms: C10_13  and  C11_14 
ROOT
HETATM    1  C6  UNL     1       1.787   0.353  -0.787  1.00  0.00    -0.017 A 
HETATM    2  C7  UNL     1       1.006  -0.320  -1.689  1.00  0.00     0.013 A 
HETATM    3  C8  UNL     1      -0.333  -0.530  -1.409  1.00  0.00     0.037 A 
HETATM    4  C9  UNL     1      -0.889  -0.070  -0.233  1.00  0.00     0.069 A 
HETATM    5  C17 UNL     1      -0.100   0.607   0.673  1.00  0.00     0.037 A 
HETATM    6  C18 UNL     1       1.237   0.810   0.380  1.00  0.00     0.013 A 
ENDROOT
BRANCH   1   7
HETATM    7  C5  UNL     1       3.150   0.479  -1.253  1.00  0.00     0.135 A 
HETATM    8  C2  UNL     1       4.289   1.088  -0.624  1.00  0.00    -0.008 A 
HETATM    9  C1  UNL     1       4.552   0.573  -1.821  1.00  0.00     0.223 A 
HETATM   10  O1  UNL     1       3.593   0.055  -2.341  1.00  0.00    -0.363 OA
BRANCH   8  11
HETATM   11  C3  UNL     1       5.357   1.742   0.133  1.00  0.00     0.304 C 
BRANCH  11  12
HETATM   12  N1  UNL     1       5.553   1.047   1.385  1.00  0.00     0.082 N 
HETATM   13  C4  UNL     1       4.460   1.189   2.298  1.00  0.00     0.307 C 
HETATM   14  H5  UNL     1       6.410   1.500   1.818  1.00  0.00     0.315 HD
ENDBRANCH  11  12
ENDBRANCH   8  11
ENDBRANCH   1   7
BRANCH   4  15
HETATM   15  O2  UNL     1      -2.209  -0.216   0.163  1.00  0.00    -0.347 OA
BRANCH  15  16
HETATM   16  C10 UNL     1      -3.095  -0.889  -0.684  1.00  0.00     0.214 C 
BRANCH  16  17
HETATM   17  C11 UNL     1      -4.468  -0.964  -0.123  1.00  0.00    -0.034 A 
HETATM   18  C12 UNL     1      -4.862  -2.028   0.682  1.00  0.00     0.009 A 
HETATM   19  C13 UNL     1      -6.142  -2.084   1.196  1.00  0.00     0.001 A 
HETATM   20  C14 UNL     1      -7.060  -1.085   0.924  1.00  0.00     0.000 A 
HETATM   21  C15 UNL     1      -6.708  -0.006   0.126  1.00  0.00     0.001 A 
HETATM   22  C16 UNL     1      -5.420   0.005  -0.364  1.00  0.00     0.009 A 
ENDBRANCH  16  17
ENDBRANCH  15  16
ENDBRANCH   4  15
TORSDOF 6
