REMARK  11 active torsions:
REMARK  status: ('A' for Active; 'I' for Inactive)
REMARK    1  A    between atoms: C2_2  and  C3_3 
REMARK    2  A    between atoms: C2_2  and  C15_20 
REMARK    3  A    between atoms: C3_3  and  C4_4 
REMARK    4  A    between atoms: C7_7  and  O1_8 
REMARK    5  A    between atoms: O1_8  and  S1_9 
REMARK    6  A    between atoms: S1_9  and  C8_10 
REMARK    7  A    between atoms: S1_9  and  C9_12 
REMARK    8  A    between atoms: C9_12  and  C10_13 
REMARK    9  A    between atoms: C9_12  and  C11_15 
REMARK   10  A    between atoms: C11_15  and  O4_17 
REMARK   11  A    between atoms: C15_20  and  N1_21 
ROOT
HETATM    1  C4  UNL     1      -0.832  -0.304  -0.000  1.00  0.00    -0.058 A 
HETATM    2  C5  UNL     1      -0.212  -1.523  -0.221  1.00  0.00     0.010 A 
HETATM    3  C6  UNL     1       0.938  -1.879   0.475  1.00  0.00     0.038 A 
HETATM    4  C7  UNL     1       1.441  -0.967   1.397  1.00  0.00     0.084 A 
HETATM    5  C13 UNL     1       0.850   0.254   1.642  1.00  0.00     0.038 A 
HETATM    6  C14 UNL     1      -0.289   0.580   0.937  1.00  0.00     0.010 A 
ENDROOT
BRANCH   4   7
HETATM    7  O1  UNL     1       2.588  -1.323   2.090  1.00  0.00    -0.279 OA
BRANCH   7   8
HETATM    8  S1  UNL     1       4.209  -0.968   1.497  1.00  0.00     0.016 SA
BRANCH   8   9
HETATM    9  C8  UNL     1       5.383  -2.357   1.312  1.00  0.00     0.325 C 
HETATM   10  O2  UNL     1       5.754  -3.314   0.683  1.00  0.00    -0.293 OA
ENDBRANCH   8   9
BRANCH   8  11
HETATM   11  C9  UNL     1       4.286   0.114   0.250  1.00  0.00     0.053 C 
BRANCH  11  12
HETATM   12  C10 UNL     1       3.165   0.787  -0.392  1.00  0.00     0.396 C 
HETATM   13  O3  UNL     1       2.874   1.617  -1.308  1.00  0.00    -0.405 OA
ENDBRANCH  11  12
BRANCH  11  14
HETATM   14  C11 UNL     1       5.491   0.603  -0.447  1.00  0.00     0.157 C 
HETATM   15  C12 UNL     1       6.703  -0.057   0.184  1.00  0.00     0.045 C 
BRANCH  14  16
HETATM   16  O4  UNL     1       5.548   1.999  -0.232  1.00  0.00    -0.391 OA
HETATM   17  H15 UNL     1       6.047   2.135   0.608  1.00  0.00     0.210 HD
ENDBRANCH  14  16
ENDBRANCH  11  14
ENDBRANCH   8  11
ENDBRANCH   7   8
ENDBRANCH   4   7
BRANCH   1  18
HETATM   18  C3  UNL     1      -2.051   0.029  -0.775  1.00  0.00     0.044 C 
BRANCH  18  19
HETATM   19  C2  UNL     1      -3.287  -0.486   0.005  1.00  0.00     0.014 C 
HETATM   20  C1  UNL     1      -3.330   0.168   1.330  1.00  0.00     0.012 C 
BRANCH  19  21
HETATM   21  C15 UNL     1      -4.446  -0.423  -0.891  1.00  0.00     0.275 C 
BRANCH  21  22
HETATM   22  N1  UNL     1      -4.801   0.907  -1.283  1.00  0.00     0.080 N 
HETATM   23  C16 UNL     1      -5.843   0.828  -2.332  1.00  0.00     0.309 C 
HETATM   24  C17 UNL     1      -5.294   1.706  -0.187  1.00  0.00     0.309 C 
ENDBRANCH  21  22
ENDBRANCH  19  21
ENDBRANCH  18  19
ENDBRANCH   1  18
TORSDOF 11
