REMARK  8 active torsions:
REMARK  status: ('A' for Active; 'I' for Inactive)
REMARK    1  A    between atoms: C2_2  and  C3_3 
REMARK    2  A    between atoms: C2_2  and  C6_7 
REMARK    3  A    between atoms: C3_3  and  N1_4 
REMARK    4  A    between atoms: C6_7  and  C7_9 
REMARK    5  A    between atoms: C9_12  and  O2_13 
REMARK    6  A    between atoms: O2_13  and  C10_14 
REMARK    7  A    between atoms: C10_14  and  C11_15 
REMARK    8  A    between atoms: C17_21  and  O3_22 
ROOT
HETATM    1  C7  UNL     1      -0.743  -1.461   0.618  1.00  0.00     0.013 A 
HETATM    2  C8  UNL     1       0.235  -2.195   0.117  1.00  0.00     0.022 A 
HETATM    3  P1  UNL     1       1.909  -2.859   0.210  1.00  0.00    -0.068 P 
HETATM    4  C9  UNL     1       2.522  -2.055   2.045  1.00  0.00     0.206 A 
HETATM    5  C17 UNL     1       1.000  -1.252   2.261  1.00  0.00     0.077 A 
HETATM    6  C18 UNL     1      -0.192  -0.965   1.857  1.00  0.00     0.050 A 
HETATM    7  H12 UNL     1       2.787  -2.276  -0.725  1.00  0.00     0.064 HD
ENDROOT
BRANCH   1   8
HETATM    8  C6  UNL     1      -2.094  -1.133   0.206  1.00  0.00     0.166 C 
HETATM    9  O1  UNL     1      -2.656  -0.367   1.038  1.00  0.00    -0.292 OA
BRANCH   8  10
HETATM   10  C2  UNL     1      -2.931  -1.508  -0.970  1.00  0.00     0.039 C 
HETATM   11  C1  UNL     1      -2.646  -2.300  -2.024  1.00  0.00     0.064 C 
BRANCH  10  12
HETATM   12  C3  UNL     1      -4.282  -0.895  -0.937  1.00  0.00     0.284 C 
BRANCH  12  13
HETATM   13  N1  UNL     1      -4.240   0.540  -0.945  1.00  0.00     0.080 N 
HETATM   14  C4  UNL     1      -5.572   1.137  -0.898  1.00  0.00     0.309 C 
HETATM   15  C5  UNL     1      -3.478   1.065  -2.061  1.00  0.00     0.309 C 
ENDBRANCH  12  13
ENDBRANCH  10  12
ENDBRANCH   8  10
ENDBRANCH   1   8
BRANCH   5  16
HETATM   16  O3  UNL     1       1.442  -0.711   3.492  1.00  0.00    -0.362 OA
HETATM   17  H21 UNL     1       0.747  -0.496   4.185  1.00  0.00     0.217 HD
ENDBRANCH   5  16
BRANCH   4  18
HETATM   18  O2  UNL     1       3.121  -1.031   1.553  1.00  0.00    -0.370 OA
BRANCH  18  19
HETATM   19  C10 UNL     1       2.433  -0.020   0.902  1.00  0.00     0.207 C 
BRANCH  19  20
HETATM   20  C11 UNL     1       3.467   0.973   0.459  1.00  0.00    -0.035 A 
HETATM   21  C12 UNL     1       4.071   0.821  -0.802  1.00  0.00     0.009 A 
HETATM   22  C13 UNL     1       5.016   1.769  -1.159  1.00  0.00     0.001 A 
HETATM   23  C14 UNL     1       5.330   2.793  -0.308  1.00  0.00     0.000 A 
HETATM   24  C15 UNL     1       4.761   2.958   0.908  1.00  0.00     0.001 A 
HETATM   25  C16 UNL     1       3.815   2.027   1.290  1.00  0.00     0.009 A 
ENDBRANCH  19  20
ENDBRANCH  18  19
ENDBRANCH   4  18
TORSDOF 8
