REMARK  6 active torsions:
REMARK  status: ('A' for Active; 'I' for Inactive)
REMARK    1  A    between atoms: C2_2  and  C3_3 
REMARK    2  A    between atoms: C2_2  and  C6_7 
REMARK    3  A    between atoms: C3_3  and  N1_4 
REMARK    4  A    between atoms: C6_7  and  C7_9 
REMARK    5  A    between atoms: C10_12  and  C11_13 
REMARK    6  A    between atoms: C11_13  and  C12_14 
ROOT
HETATM    1  C7  UNL     1       0.989  -0.005   0.186  1.00  0.00     0.087 C 
HETATM    2  C8  UNL     1       0.214   1.114  -0.488  1.00  0.00     0.042 C 
HETATM    3  C9  UNL     1      -1.260   0.808  -0.408  1.00  0.00    -0.017 C 
HETATM    4  C10 UNL     1      -2.100  -0.214  -0.652  1.00  0.00    -0.037 C 
HETATM    5  C18 UNL     1      -1.429  -1.460  -1.183  1.00  0.00     0.206 C 
HETATM    6  O2  UNL     1      -0.495  -1.850  -0.231  1.00  0.00    -0.386 OA
HETATM    7  C19 UNL     1       0.761  -1.319  -0.511  1.00  0.00     0.180 C 
ENDROOT
BRANCH   4   8
HETATM    8  C11 UNL     1      -3.525  -0.227  -0.478  1.00  0.00     0.021 C 
BRANCH   8   9
HETATM    9  C12 UNL     1      -4.665   0.327  -0.148  1.00  0.00    -0.030 A 
HETATM   10  C13 UNL     1      -4.601   1.687   0.298  1.00  0.00     0.013 A 
HETATM   11  C14 UNL     1      -5.571   2.474   0.680  1.00  0.00     0.009 A 
HETATM   12  P1  UNL     1      -7.247   1.761   0.650  1.00  0.00    -0.082 P 
HETATM   13  C15 UNL     1      -7.095   0.054   0.064  1.00  0.00     0.015 A 
HETATM   14  H18 UNL     1      -7.727   1.691   2.036  1.00  0.00     0.066 HD
HETATM   15  C16 UNL     1      -5.905  -0.391  -0.232  1.00  0.00    -0.051 A 
HETATM   16  C17 UNL     1      -5.906  -1.815  -0.707  1.00  0.00     0.049 C 
ENDBRANCH   8   9
ENDBRANCH   4   8
BRANCH   1  17
HETATM   17  C6  UNL     1       2.418   0.342   0.079  1.00  0.00     0.163 C 
HETATM   18  O1  UNL     1       2.106   1.360  -0.562  1.00  0.00    -0.292 OA
BRANCH  17  19
HETATM   19  C2  UNL     1       3.703  -0.180   0.492  1.00  0.00     0.007 C 
HETATM   20  C1  UNL     1       3.684  -1.306   1.183  1.00  0.00     0.024 C 
BRANCH  19  21
HETATM   21  C3  UNL     1       4.772   0.710   0.016  1.00  0.00     0.312 C 
BRANCH  21  22
HETATM   22  N1  UNL     1       6.085   0.278   0.357  1.00  0.00     0.084 N 
HETATM   23  C4  UNL     1       6.551  -0.901  -0.298  1.00  0.00     0.309 C 
HETATM   24  C5  UNL     1       7.006   1.373   0.136  1.00  0.00     0.309 C 
ENDBRANCH  21  22
ENDBRANCH  19  21
ENDBRANCH  17  19
ENDBRANCH   1  17
TORSDOF 6
