REMARK  9 active torsions:
REMARK  status: ('A' for Active; 'I' for Inactive)
REMARK    1  A    between atoms: N1_2  and  C3_4 
REMARK    2  A    between atoms: C3_4  and  C4_5 
REMARK    3  A    between atoms: C4_5  and  C5_7 
REMARK    4  A    between atoms: C5_7  and  C6_8 
REMARK    5  A    between atoms: C9_11  and  O2_12 
REMARK    6  A    between atoms: O2_12  and  S1_13 
REMARK    7  A    between atoms: S1_13  and  C10_16 
REMARK    8  A    between atoms: C13_19  and  C14_20 
REMARK    9  A    between atoms: C14_20  and  O6_22 
ROOT
HETATM    1  O2  UNL     1       2.048   0.376  -0.252  1.00  0.00    -0.229 OA
ENDROOT
BRANCH   1   2
HETATM    2  C9  UNL     1       0.675   0.129  -0.272  1.00  0.00     0.089 A 
HETATM    3  C8  UNL     1       0.202  -0.730   0.693  1.00  0.00     0.039 A 
HETATM    4  C7  UNL     1      -1.130  -1.019   0.736  1.00  0.00     0.010 A 
HETATM    5  C6  UNL     1      -2.031  -0.487  -0.147  1.00  0.00    -0.051 A 
HETATM    6  C18 UNL     1      -1.555   0.387  -1.130  1.00  0.00     0.010 A 
HETATM    7  C17 UNL     1      -0.199   0.703  -1.201  1.00  0.00     0.039 A 
BRANCH   5   8
HETATM    8  C5  UNL     1      -3.494  -0.735  -0.195  1.00  0.00     0.118 C 
BRANCH   8   9
HETATM    9  C4  UNL     1      -4.218   0.223   0.682  1.00  0.00     0.159 C 
HETATM   10  O1  UNL     1      -3.216   0.816   1.068  1.00  0.00    -0.296 OA
BRANCH   9  11
HETATM   11  C3  UNL     1      -5.597   0.535   1.093  1.00  0.00     0.349 C 
BRANCH  11  12
HETATM   12  N1  UNL     1      -6.600  -0.307   0.471  1.00  0.00     0.086 N 
HETATM   13  C1  UNL     1      -6.716  -0.054  -0.948  1.00  0.00     0.309 C 
HETATM   14  C2  UNL     1      -7.847  -0.292   1.179  1.00  0.00     0.309 C 
ENDBRANCH  11  12
ENDBRANCH   9  11
ENDBRANCH   8   9
ENDBRANCH   5   8
ENDBRANCH   1   2
BRANCH   1  15
HETATM   15  S1  UNL     1       3.065  -0.643  -1.153  1.00  0.00     0.303 S 
HETATM   16  O3  UNL     1       2.800  -0.453  -2.601  1.00  0.00    -0.193 OA
HETATM   17  O4  UNL     1       2.782  -2.067  -0.775  1.00  0.00    -0.193 OA
BRANCH  15  18
HETATM   18  C10 UNL     1       4.706  -0.210  -0.748  1.00  0.00     0.086 A 
HETATM   19  C11 UNL     1       5.441   0.734  -1.430  1.00  0.00     0.027 A 
HETATM   20  C12 UNL     1       6.738   1.049  -1.077  1.00  0.00     0.020 A 
HETATM   21  C13 UNL     1       7.299   0.392  -0.012  1.00  0.00     0.037 A 
HETATM   22  C15 UNL     1       6.560  -0.558   0.675  1.00  0.00     0.020 A 
HETATM   23  C16 UNL     1       5.246  -0.901   0.345  1.00  0.00     0.027 A 
BRANCH  21  24
HETATM   24  C14 UNL     1       8.676   0.640   0.462  1.00  0.00     0.176 C 
HETATM   25  O5  UNL     1       9.279   0.109   1.408  1.00  0.00    -0.646 OA
BRANCH  24  26
HETATM   26  O6  UNL     1       9.401   1.605  -0.249  1.00  0.00    -0.773 OA
HETATM   27  H15 UNL     1      10.241   2.033   0.168  1.00  0.00     0.167 HD
ENDBRANCH  24  26
ENDBRANCH  21  24
ENDBRANCH  15  18
ENDBRANCH   1  15
TORSDOF 9
