REMARK  7 active torsions:
REMARK  status: ('A' for Active; 'I' for Inactive)
REMARK    1  A    between atoms: C2_2  and  C3_3 
REMARK    2  A    between atoms: C2_2  and  C6_7 
REMARK    3  A    between atoms: C3_3  and  N1_4 
REMARK    4  A    between atoms: C6_7  and  C7_9 
REMARK    5  A    between atoms: C8_10  and  O2_11 
REMARK    6  A    between atoms: O2_11  and  C9_12 
REMARK    7  A    between atoms: C9_12  and  C10_13 
ROOT
HETATM    1  C7  UNL     1       0.325  -1.748   0.553  1.00  0.00     0.050 A 
HETATM    2  C8  UNL     1      -0.965  -1.911   0.660  1.00  0.00     0.083 A 
HETATM    3  C16 UNL     1      -1.599  -3.242   0.726  1.00  0.00     0.061 A 
HETATM    4  C17 UNL     1      -0.806  -4.298   0.673  1.00  0.00     0.138 A 
HETATM    5  O3  UNL     1       0.548  -4.135   0.560  1.00  0.00    -0.358 OA
HETATM    6  C18 UNL     1       1.231  -2.913   0.487  1.00  0.00     0.220 A 
ENDROOT
BRANCH   1   7
HETATM    7  C6  UNL     1       0.868  -0.397   0.495  1.00  0.00     0.190 C 
HETATM    8  O1  UNL     1       0.029   0.537   0.554  1.00  0.00    -0.287 OA
BRANCH   7   9
HETATM    9  C2  UNL     1       2.288  -0.093   0.377  1.00  0.00     0.011 C 
HETATM   10  C1  UNL     1       3.195  -1.054   0.315  1.00  0.00     0.025 C 
BRANCH   9  11
HETATM   11  C3  UNL     1       2.737   1.303   0.325  1.00  0.00     0.313 C 
BRANCH  11  12
HETATM   12  N1  UNL     1       4.153   1.457   0.208  1.00  0.00     0.084 N 
HETATM   13  C4  UNL     1       4.413   2.906   0.174  1.00  0.00     0.309 C 
HETATM   14  C5  UNL     1       4.746   0.893  -0.964  1.00  0.00     0.309 C 
ENDBRANCH  11  12
ENDBRANCH   9  11
ENDBRANCH   7   9
ENDBRANCH   1   7
BRANCH   2  15
HETATM   15  O2  UNL     1      -1.850  -0.841   0.722  1.00  0.00    -0.346 OA
BRANCH  15  16
HETATM   16  C9  UNL     1      -2.939  -0.828  -0.178  1.00  0.00     0.214 C 
BRANCH  16  17
HETATM   17  C10 UNL     1      -3.784   0.388   0.023  1.00  0.00    -0.034 A 
HETATM   18  C11 UNL     1      -4.853   0.479   0.872  1.00  0.00     0.009 A 
HETATM   19  C12 UNL     1      -5.563   1.653   0.978  1.00  0.00     0.001 A 
HETATM   20  C13 UNL     1      -5.225   2.787   0.231  1.00  0.00     0.000 A 
HETATM   21  C14 UNL     1      -4.135   2.640  -0.612  1.00  0.00     0.001 A 
HETATM   22  C15 UNL     1      -3.398   1.482  -0.747  1.00  0.00     0.009 A 
ENDBRANCH  16  17
ENDBRANCH  15  16
ENDBRANCH   2  15
TORSDOF 7
