REMARK  5 active torsions:
REMARK  status: ('A' for Active; 'I' for Inactive)
REMARK    1  A    between atoms: C2_2  and  C3_3 
REMARK    2  A    between atoms: C2_2  and  C5_7 
REMARK    3  A    between atoms: C3_3  and  N1_4 
REMARK    4  A    between atoms: N1_4  and  S1_6 
REMARK    5  A    between atoms: C5_7  and  C6_9 
ROOT
HETATM    1  C6  UNL     1       0.572  -0.933   0.316  1.00  0.00     0.017 A 
HETATM    2  C7  UNL     1       0.428  -1.579   1.530  1.00  0.00     0.018 A 
HETATM    3  C8  UNL     1      -0.675  -1.342   2.360  1.00  0.00     0.040 A 
HETATM    4  C9  UNL     1      -1.656  -0.450   1.983  1.00  0.00     0.103 A 
HETATM    5  C10 UNL     1      -1.544   0.212   0.779  1.00  0.00     0.110 A 
HETATM    6  C11 UNL     1      -0.446  -0.058   0.009  1.00  0.00     0.055 A 
HETATM    7  O2  UNL     1      -2.518   1.116   0.376  1.00  0.00    -0.310 OA
HETATM    8  C12 UNL     1      -3.595   1.321   1.228  1.00  0.00     0.073 C 
HETATM    9  C13 UNL     1      -4.749   1.755   0.744  1.00  0.00     0.004 C 
HETATM   10  C14 UNL     1      -6.039   2.056   1.403  1.00  0.00     0.038 C 
HETATM   11  C15 UNL     1      -3.427   1.050   2.660  1.00  0.00     0.240 C 
HETATM   12  O3  UNL     1      -2.752  -0.207   2.797  1.00  0.00    -0.342 OA
ENDROOT
BRANCH   1  13
HETATM   13  C5  UNL     1       1.737  -1.237  -0.473  1.00  0.00     0.189 C 
HETATM   14  O1  UNL     1       2.526  -2.085   0.043  1.00  0.00    -0.287 OA
BRANCH  13  15
HETATM   15  C2  UNL     1       2.131  -0.713  -1.763  1.00  0.00    -0.003 C 
HETATM   16  C1  UNL     1       1.451   0.171  -2.458  1.00  0.00     0.024 C 
BRANCH  15  17
HETATM   17  C3  UNL     1       3.383  -1.162  -2.412  1.00  0.00     0.143 C 
BRANCH  17  18
HETATM   18  N1  UNL     1       4.517  -0.834  -1.538  1.00  0.00    -0.261 NA
HETATM   19  C4  UNL     1       5.731  -1.293  -2.215  1.00  0.00     0.124 C 
BRANCH  18  20
HETATM   20  S1  UNL     1       4.643   0.910  -1.362  1.00  0.00    -0.096 SA
HETATM   21  H8  UNL     1       4.880   1.254  -0.022  1.00  0.00     0.119 HD
ENDBRANCH  18  20
ENDBRANCH  17  18
ENDBRANCH  15  17
ENDBRANCH  13  15
ENDBRANCH   1  13
TORSDOF 5
