REMARK  9 active torsions:
REMARK  status: ('A' for Active; 'I' for Inactive)
REMARK    1  A    between atoms: C2_2  and  C3_3 
REMARK    2  A    between atoms: C2_2  and  C17_20 
REMARK    3  A    between atoms: C3_3  and  O1_4 
REMARK    4  A    between atoms: O1_4  and  C4_5 
REMARK    5  A    between atoms: C6_7  and  O2_8 
REMARK    6  A    between atoms: C9_11  and  O3_12 
REMARK    7  A    between atoms: O3_12  and  C10_13 
REMARK    8  A    between atoms: C10_13  and  C11_14 
REMARK    9  A    between atoms: C17_20  and  N1_21 
ROOT
HETATM    1  C4  UNL     1      -0.244  -1.657   0.625  1.00  0.00     0.105 A 
HETATM    2  C5  UNL     1       0.095  -2.807  -0.053  1.00  0.00     0.076 A 
HETATM    3  C6  UNL     1      -0.822  -3.488  -0.821  1.00  0.00     0.068 A 
HETATM    4  C7  UNL     1      -2.124  -3.021  -0.926  1.00  0.00     0.039 A 
HETATM    5  C8  UNL     1      -2.401  -1.868  -0.225  1.00  0.00     0.042 A 
HETATM    6  C9  UNL     1      -1.541  -1.139   0.557  1.00  0.00     0.102 A 
ENDROOT
BRANCH   1   7
HETATM    7  O1  UNL     1       0.701  -1.015   1.374  1.00  0.00    -0.344 OA
BRANCH   7   8
HETATM    8  C3  UNL     1       2.026  -1.288   1.610  1.00  0.00     0.211 C 
BRANCH   8   9
HETATM    9  C2  UNL     1       2.929  -1.307   0.441  1.00  0.00    -0.037 C 
HETATM   10  C1  UNL     1       3.700  -2.262  -0.064  1.00  0.00     0.018 C 
BRANCH   9  11
HETATM   11  C17 UNL     1       2.873   0.013  -0.175  1.00  0.00     0.307 C 
BRANCH  11  12
HETATM   12  N1  UNL     1       3.270   1.100   0.664  1.00  0.00     0.083 N 
HETATM   13  C18 UNL     1       4.658   1.138   1.014  1.00  0.00     0.309 C 
HETATM   14  C19 UNL     1       2.820   2.386   0.199  1.00  0.00     0.309 C 
ENDBRANCH  11  12
ENDBRANCH   9  11
ENDBRANCH   8   9
ENDBRANCH   7   8
ENDBRANCH   1   7
BRANCH   6  15
HETATM   15  O3  UNL     1      -1.725  -0.018   1.265  1.00  0.00    -0.344 OA
BRANCH  15  16
HETATM   16  C10 UNL     1      -2.773   0.834   1.497  1.00  0.00     0.214 C 
BRANCH  16  17
HETATM   17  C11 UNL     1      -3.312   1.498   0.290  1.00  0.00    -0.034 A 
HETATM   18  C12 UNL     1      -2.646   2.663  -0.116  1.00  0.00     0.009 A 
HETATM   19  C13 UNL     1      -2.967   3.458  -1.187  1.00  0.00     0.001 A 
HETATM   20  C14 UNL     1      -4.056   3.086  -1.956  1.00  0.00     0.000 A 
HETATM   21  C15 UNL     1      -4.744   1.949  -1.597  1.00  0.00     0.001 A 
HETATM   22  C16 UNL     1      -4.390   1.179  -0.514  1.00  0.00     0.009 A 
ENDBRANCH  16  17
ENDBRANCH  15  16
ENDBRANCH   6  15
BRANCH   3  23
HETATM   23  O2  UNL     1      -0.539  -4.660  -1.533  1.00  0.00    -0.361 OA
HETATM   24  H6  UNL     1      -0.300  -5.517  -1.068  1.00  0.00     0.217 HD
ENDBRANCH   3  23
TORSDOF 9
