REMARK  5 active torsions:
REMARK  status: ('A' for Active; 'I' for Inactive)
REMARK    1  A    between atoms: C2_2  and  C3_3 
REMARK    2  A    between atoms: C2_2  and  C5_7 
REMARK    3  A    between atoms: C3_3  and  N1_4 
REMARK    4  A    between atoms: N1_4  and  O1_6 
REMARK    5  A    between atoms: C5_7  and  C7_9 
ROOT
HETATM    1  C7  UNL     1      -0.147   0.611  -0.382  1.00  0.00    -0.069 C 
HETATM    2  C8  UNL     1      -1.194  -0.125  -0.050  1.00  0.00     0.015 C 
HETATM    3  C9  UNL     1      -2.397  -0.800   0.352  1.00  0.00    -0.028 A 
HETATM    4  C10 UNL     1      -2.442  -2.131   0.709  1.00  0.00     0.012 A 
HETATM    5  C11 UNL     1      -3.615  -2.753   1.069  1.00  0.00     0.001 A 
HETATM    6  C12 UNL     1      -4.712  -1.941   1.039  1.00  0.00     0.001 A 
HETATM    7  C13 UNL     1      -4.831  -0.620   0.712  1.00  0.00     0.010 A 
HETATM    8  C14 UNL     1      -3.623  -0.118   0.380  1.00  0.00    -0.021 A 
HETATM    9  C15 UNL     1      -3.436   1.344   0.034  1.00  0.00     0.249 C 
HETATM   10  O2  UNL     1      -2.419   1.461  -0.866  1.00  0.00    -0.236 OA
HETATM   11  O3  UNL     1      -2.120   2.713  -1.055  1.00  0.00    -0.240 OA
HETATM   12  C16 UNL     1      -1.158   2.923   0.001  1.00  0.00     0.214 C 
HETATM   13  C17 UNL     1       0.036   2.098  -0.383  1.00  0.00     0.064 C 
ENDROOT
BRANCH   1  14
HETATM   14  C5  UNL     1       1.200   0.195  -0.963  1.00  0.00     0.040 C 
HETATM   15  C6  UNL     1       1.141  -1.283  -1.313  1.00  0.00     0.019 C 
BRANCH  14  16
HETATM   16  C2  UNL     1       2.223   0.283   0.128  1.00  0.00    -0.066 C 
HETATM   17  C1  UNL     1       1.247   0.516   1.032  1.00  0.00     0.016 C 
BRANCH  16  18
HETATM   18  C3  UNL     1       3.577   0.266   0.711  1.00  0.00     0.154 C 
BRANCH  18  19
HETATM   19  N1  UNL     1       4.296  -0.973   0.511  1.00  0.00    -0.200 NA
HETATM   20  C4  UNL     1       4.666  -1.154  -0.874  1.00  0.00     0.143 C 
BRANCH  19  21
HETATM   21  O1  UNL     1       5.473  -0.952   1.206  1.00  0.00    -0.313 OA
HETATM   22  H8  UNL     1       5.939  -0.107   0.922  1.00  0.00     0.237 HD
ENDBRANCH  19  21
ENDBRANCH  18  19
ENDBRANCH  16  18
ENDBRANCH  14  16
ENDBRANCH   1  14
TORSDOF 5
