REMARK  4 active torsions:
REMARK  status: ('A' for Active; 'I' for Inactive)
REMARK    1  A    between atoms: C9_10  and  O1_11 
REMARK    2  A    between atoms: O1_11  and  C10_12 
REMARK    3  A    between atoms: C10_12  and  C11_13 
REMARK    4  A    between atoms: C17_19  and  O2_20 
ROOT
HETATM    1  C1  UNL     1      -1.963   1.164  -2.671  1.00  0.00     0.143 C 
HETATM    2  N1  UNL     1      -1.829   1.667  -1.280  1.00  0.00    -0.413 N 
HETATM    3  C2  UNL     1      -2.835   1.056  -0.531  1.00  0.00     0.143 C 
HETATM    4  C3  UNL     1      -2.763  -0.331  -0.093  1.00  0.00    -0.011 C 
HETATM    5  C4  UNL     1      -2.106  -1.541   0.078  1.00  0.00    -0.025 C 
HETATM    6  C5  UNL     1      -2.491  -2.895   0.674  1.00  0.00     0.054 C 
HETATM    7  C6  UNL     1      -2.201  -2.800   2.275  1.00  0.00    -0.023 C 
HETATM    8  C7  UNL     1      -1.512  -1.550   2.647  1.00  0.00    -0.001 C 
HETATM    9  C8  UNL     1      -0.996  -0.592   1.795  1.00  0.00     0.035 C 
HETATM   10  C9  UNL     1      -0.523   0.320   1.062  1.00  0.00     0.076 C 
HETATM   11  C17 UNL     1      -0.354   1.635   1.606  1.00  0.00     0.092 C 
HETATM   12  C18 UNL     1      -0.347   2.616   0.478  1.00  0.00     0.134 C 
HETATM   13  C19 UNL     1      -0.544   2.078  -0.945  1.00  0.00     0.125 C 
ENDROOT
BRANCH  10  14
HETATM   14  O1  UNL     1      -0.058   0.442  -0.276  1.00  0.00    -0.348 OA
BRANCH  14  15
HETATM   15  C10 UNL     1       1.348   0.212  -0.023  1.00  0.00     0.214 C 
BRANCH  15  16
HETATM   16  C11 UNL     1       2.531  -0.076  -0.600  1.00  0.00    -0.034 A 
HETATM   17  C12 UNL     1       3.070  -1.338  -0.765  1.00  0.00     0.009 A 
HETATM   18  C13 UNL     1       4.381  -1.568  -1.037  1.00  0.00     0.001 A 
HETATM   19  C14 UNL     1       5.229  -0.562  -1.167  1.00  0.00     0.000 A 
HETATM   20  C15 UNL     1       4.867   0.789  -1.029  1.00  0.00     0.001 A 
HETATM   21  C16 UNL     1       3.470   0.929  -0.751  1.00  0.00     0.009 A 
ENDBRANCH  15  16
ENDBRANCH  14  15
ENDBRANCH  10  14
BRANCH  11  22
HETATM   22  O2  UNL     1      -0.262   1.351   2.902  1.00  0.00    -0.388 OA
HETATM   23  H20 UNL     1      -0.476   2.086   3.565  1.00  0.00     0.210 HD
ENDBRANCH  11  22
TORSDOF 4
