REMARK  8 active torsions:
REMARK  status: ('A' for Active; 'I' for Inactive)
REMARK    1  A    between atoms: C2_2  and  C3_3 
REMARK    2  A    between atoms: C2_2  and  C6_8 
REMARK    3  A    between atoms: C3_3  and  N1_4 
REMARK    4  A    between atoms: N1_4  and  C5_6 
REMARK    5  A    between atoms: C5_6  and  O1_7 
REMARK    6  A    between atoms: C6_8  and  C7_10 
REMARK    7  A    between atoms: C10_13  and  C11_14 
REMARK    8  A    between atoms: C11_14  and  C12_15 
ROOT
HETATM    1  C7  UNL     1       0.078   0.160  -0.599  1.00  0.00     0.000 A 
HETATM    2  C8  UNL     1       0.275   1.124   0.282  1.00  0.00     0.012 A 
HETATM    3  C9  UNL     1       1.420   0.937   1.161  1.00  0.00     0.004 A 
HETATM    4  C10 UNL     1       1.951  -0.214   0.790  1.00  0.00    -0.067 A 
HETATM    5  C18 UNL     1       1.192  -0.810  -0.321  1.00  0.00     0.048 A 
HETATM    6  C19 UNL     1       0.604  -2.141   0.064  1.00  0.00     0.020 C 
ENDROOT
BRANCH   1   7
HETATM    7  C6  UNL     1      -0.905  -0.073  -1.643  1.00  0.00     0.183 C 
HETATM    8  O2  UNL     1      -0.843  -1.130  -2.362  1.00  0.00    -0.288 OA
BRANCH   7   9
HETATM    9  C2  UNL     1      -2.014   0.799  -1.988  1.00  0.00    -0.001 C 
HETATM   10  C1  UNL     1      -2.132   1.907  -1.282  1.00  0.00     0.044 C 
BRANCH   9  11
HETATM   11  C3  UNL     1      -2.981   0.506  -3.059  1.00  0.00     0.313 C 
BRANCH  11  12
HETATM   12  N1  UNL     1      -3.701  -0.724  -2.848  1.00  0.00     0.110 N 
HETATM   13  C4  UNL     1      -4.607  -0.899  -3.951  1.00  0.00     0.313 C 
BRANCH  12  14
HETATM   14  C5  UNL     1      -4.407  -0.717  -1.568  1.00  0.00     0.437 C 
BRANCH  14  15
HETATM   15  O1  UNL     1      -5.321   0.333  -1.531  1.00  0.00    -0.373 OA
HETATM   16  H10 UNL     1      -5.336   0.757  -0.625  1.00  0.00     0.211 HD
ENDBRANCH  14  15
ENDBRANCH  12  14
ENDBRANCH  11  12
ENDBRANCH   9  11
ENDBRANCH   7   9
ENDBRANCH   1   7
BRANCH   4  17
HETATM   17  C11 UNL     1       3.139  -0.881   1.356  1.00  0.00     0.073 C 
BRANCH  17  18
HETATM   18  C12 UNL     1       3.748  -0.117   2.460  1.00  0.00    -0.054 A 
HETATM   19  C13 UNL     1       4.725   0.847   2.427  1.00  0.00     0.007 A 
HETATM   20  C14 UNL     1       5.173   1.458   3.574  1.00  0.00     0.001 A 
HETATM   21  C15 UNL     1       4.654   1.121   4.803  1.00  0.00     0.000 A 
HETATM   22  C16 UNL     1       3.662   0.151   4.894  1.00  0.00     0.001 A 
HETATM   23  C17 UNL     1       3.228  -0.451   3.713  1.00  0.00     0.007 A 
ENDBRANCH  17  18
ENDBRANCH   4  17
TORSDOF 8
