REMARK  6 active torsions:
REMARK  status: ('A' for Active; 'I' for Inactive)
REMARK    1  A    between atoms: C2_2  and  C3_3 
REMARK    2  A    between atoms: C3_3  and  N1_4 
REMARK    3  A    between atoms: C6_7  and  C7_9 
REMARK    4  A    between atoms: C7_9  and  C8_10 
REMARK    5  A    between atoms: C8_10  and  O2_11 
REMARK    6  A    between atoms: C8_10  and  C9_12 
ROOT
HETATM    1  C8  UNL     1       0.314   1.134  -0.935  1.00  0.00     0.178 C 
ENDROOT
BRANCH   1   2
HETATM    2  C7  UNL     1      -0.902   0.229  -0.861  1.00  0.00     0.083 C 
BRANCH   2   3
HETATM    3  C6  UNL     1      -2.071   1.148  -0.671  1.00  0.00     0.110 A 
HETATM    4  C2  UNL     1      -3.210   1.437   0.174  1.00  0.00    -0.013 A 
HETATM    5  C1  UNL     1      -3.096   2.268  -0.858  1.00  0.00     0.218 A 
HETATM    6  O1  UNL     1      -2.193   2.066  -1.538  1.00  0.00    -0.368 OA
BRANCH   4   7
HETATM    7  C3  UNL     1      -3.782   0.873   1.414  1.00  0.00     0.306 C 
BRANCH   7   8
HETATM    8  N1  UNL     1      -4.247  -0.469   1.329  1.00  0.00     0.083 N 
HETATM    9  C4  UNL     1      -5.417  -0.600   0.491  1.00  0.00     0.309 C 
HETATM   10  C5  UNL     1      -3.266  -1.477   1.098  1.00  0.00     0.309 C 
ENDBRANCH   7   8
ENDBRANCH   4   7
ENDBRANCH   2   3
ENDBRANCH   1   2
BRANCH   1  11
HETATM   11  O2  UNL     1       0.141   1.987  -2.015  1.00  0.00    -0.389 OA
HETATM   12  H14 UNL     1       0.817   1.910  -2.711  1.00  0.00     0.210 HD
ENDBRANCH   1  11
BRANCH   1  13
HETATM   13  C9  UNL     1       1.581   0.374  -0.974  1.00  0.00     0.076 A 
HETATM   14  C10 UNL     1       2.448   0.472   0.024  1.00  0.00     0.047 A 
HETATM   15  C11 UNL     1       3.736  -0.229   0.099  1.00  0.00    -0.025 A 
HETATM   16  C12 UNL     1       4.548  -0.057   1.190  1.00  0.00     0.012 A 
HETATM   17  C16 UNL     1       3.981  -1.029  -0.995  1.00  0.00    -0.024 A 
HETATM   18  C13 UNL     1       5.732  -0.774   1.164  1.00  0.00     0.001 A 
HETATM   19  C14 UNL     1       6.042  -1.606   0.079  1.00  0.00     0.001 A 
HETATM   20  C15 UNL     1       5.180  -1.744  -1.003  1.00  0.00     0.010 A 
HETATM   21  C17 UNL     1       3.095  -1.196  -2.164  1.00  0.00     0.214 A 
HETATM   22  O3  UNL     1       1.906  -0.450  -2.021  1.00  0.00    -0.348 OA
ENDBRANCH   1  13
TORSDOF 6
