REMARK  7 active torsions:
REMARK  status: ('A' for Active; 'I' for Inactive)
REMARK    1  A    between atoms: C2_2  and  C3_3 
REMARK    2  A    between atoms: C2_2  and  C6_7 
REMARK    3  A    between atoms: C3_3  and  N1_4 
REMARK    4  A    between atoms: C6_7  and  C7_9 
REMARK    5  A    between atoms: C10_13  and  O3_14 
REMARK    6  A    between atoms: O3_14  and  C11_15 
REMARK    7  A    between atoms: C11_15  and  C12_16 
ROOT
HETATM    1  C7  UNL     1      -0.421  -2.579  -0.392  1.00  0.00     0.107 A 
HETATM    2  C8  UNL     1      -0.565  -2.588   1.111  1.00  0.00     0.014 A 
HETATM    3  C9  UNL     1       0.108  -1.933   2.050  1.00  0.00     0.142 A 
HETATM    4  O2  UNL     1       1.119  -1.090   1.620  1.00  0.00    -0.301 OA
HETATM    5  C10 UNL     1       1.363  -0.984   0.260  1.00  0.00     0.182 A 
HETATM    6  C18 UNL     1       0.673  -1.654  -0.682  1.00  0.00     0.053 A 
ENDROOT
BRANCH   1   7
HETATM    7  C6  UNL     1      -1.715  -2.236  -1.034  1.00  0.00     0.144 C 
HETATM    8  O1  UNL     1      -2.171  -3.118  -1.851  1.00  0.00    -0.296 OA
BRANCH   7   9
HETATM    9  C2  UNL     1      -2.419  -0.956  -0.738  1.00  0.00     0.035 C 
HETATM   10  C1  UNL     1      -1.738  -0.195   0.147  1.00  0.00     0.063 C 
BRANCH   9  11
HETATM   11  C3  UNL     1      -3.690  -0.864  -1.486  1.00  0.00     0.284 C 
BRANCH  11  12
HETATM   12  N1  UNL     1      -4.400   0.338  -1.139  1.00  0.00     0.080 N 
HETATM   13  C4  UNL     1      -5.538   0.540  -2.052  1.00  0.00     0.309 C 
HETATM   14  C5  UNL     1      -4.909   0.345   0.230  1.00  0.00     0.309 C 
ENDBRANCH  11  12
ENDBRANCH   9  11
ENDBRANCH   7   9
ENDBRANCH   1   7
BRANCH   5  15
HETATM   15  O3  UNL     1       2.366  -0.154  -0.223  1.00  0.00    -0.326 OA
BRANCH  15  16
HETATM   16  C11 UNL     1       2.900   0.802   0.672  1.00  0.00     0.216 C 
BRANCH  16  17
HETATM   17  C12 UNL     1       4.068   1.535   0.132  1.00  0.00    -0.034 A 
HETATM   18  C13 UNL     1       3.997   2.710  -0.582  1.00  0.00     0.009 A 
HETATM   19  C14 UNL     1       5.174   3.286  -1.025  1.00  0.00     0.001 A 
HETATM   20  C15 UNL     1       6.390   2.675  -0.744  1.00  0.00     0.000 A 
HETATM   21  C16 UNL     1       6.478   1.501  -0.032  1.00  0.00     0.001 A 
HETATM   22  C17 UNL     1       5.291   0.915   0.417  1.00  0.00     0.009 A 
ENDBRANCH  16  17
ENDBRANCH  15  16
ENDBRANCH   5  15
TORSDOF 7
