REMARK  7 active torsions:
REMARK  status: ('A' for Active; 'I' for Inactive)
REMARK    1  A    between atoms: C1_2  and  C2_3 
REMARK    2  A    between atoms: C1_2  and  C9_11 
REMARK    3  A    between atoms: C2_3  and  C3_4 
REMARK    4  A    between atoms: C3_4  and  N1_5 
REMARK    5  A    between atoms: C12_14  and  O2_15 
REMARK    6  A    between atoms: O2_15  and  C13_16 
REMARK    7  A    between atoms: C13_16  and  C14_17 
ROOT
HETATM    1  C9  UNL     1      -0.162  -0.504  -0.950  1.00  0.00     0.010 A 
HETATM    2  C10 UNL     1       0.527  -1.705  -0.928  1.00  0.00     0.018 A 
HETATM    3  C11 UNL     1       1.852  -1.835  -0.561  1.00  0.00     0.037 A 
HETATM    4  C12 UNL     1       2.552  -0.706  -0.189  1.00  0.00     0.069 A 
HETATM    5  C20 UNL     1       1.915   0.522  -0.192  1.00  0.00     0.037 A 
HETATM    6  C21 UNL     1       0.590   0.601  -0.567  1.00  0.00     0.018 A 
ENDROOT
BRANCH   1   7
HETATM    7  C1  UNL     1      -1.565  -0.411  -1.346  1.00  0.00     0.161 C 
HETATM    8  O1  UNL     1      -2.063  -1.530  -1.657  1.00  0.00    -0.292 OA
BRANCH   7   9
HETATM    9  C2  UNL     1      -2.180   0.944  -1.324  1.00  0.00     0.103 C 
BRANCH   9  10
HETATM   10  C3  UNL     1      -3.612   0.937  -1.740  1.00  0.00     0.124 C 
BRANCH  10  11
HETATM   11  N1  UNL     1      -4.483   0.155  -0.955  1.00  0.00    -0.412 N 
HETATM   12  C4  UNL     1      -5.847   0.127  -1.328  1.00  0.00     0.117 C 
HETATM   13  C5  UNL     1      -6.784   0.396  -0.183  1.00  0.00     0.019 C 
HETATM   14  C6  UNL     1      -6.500  -0.453   1.027  1.00  0.00     0.003 C 
HETATM   15  C7  UNL     1      -5.102  -1.028   1.015  1.00  0.00     0.019 C 
HETATM   16  C8  UNL     1      -4.185   0.020   0.421  1.00  0.00     0.117 C 
ENDBRANCH  10  11
ENDBRANCH   9  10
ENDBRANCH   7   9
ENDBRANCH   1   7
BRANCH   4  17
HETATM   17  O2  UNL     1       3.865  -0.833   0.175  1.00  0.00    -0.347 OA
BRANCH  17  18
HETATM   18  C13 UNL     1       4.590   0.312   0.557  1.00  0.00     0.214 C 
BRANCH  18  19
HETATM   19  C14 UNL     1       5.993  -0.050   0.913  1.00  0.00    -0.034 A 
HETATM   20  C15 UNL     1       6.280  -0.381   2.213  1.00  0.00     0.009 A 
HETATM   21  C16 UNL     1       7.599  -0.709   2.490  1.00  0.00     0.001 A 
HETATM   22  C17 UNL     1       8.599  -0.715   1.535  1.00  0.00     0.000 A 
HETATM   23  C18 UNL     1       8.216  -0.367   0.242  1.00  0.00     0.001 A 
HETATM   24  C19 UNL     1       6.933  -0.030  -0.111  1.00  0.00     0.009 A 
ENDBRANCH  18  19
ENDBRANCH  17  18
ENDBRANCH   4  17
TORSDOF 7
