REMARK  5 active torsions:
REMARK  status: ('A' for Active; 'I' for Inactive)
REMARK       I    between atoms: N1_2  and  C2_3 
REMARK    1  A    between atoms: C2_3  and  C3_5 
REMARK    2  A    between atoms: N2_9  and  C7_10 
REMARK    3  A    between atoms: C7_10  and  C8_11 
REMARK    4  A    between atoms: N4_18  and  C14_19 
REMARK    5  A    between atoms: C21_28  and  O2_29 
ROOT
HETATM    1  C8  UNL     1       0.102  -0.675   0.527  1.00  0.00    -0.009 A 
HETATM    2  C9  UNL     1      -1.132  -0.179   0.287  1.00  0.00     0.015 A 
HETATM    3  C10 UNL     1      -2.478  -0.377   0.936  1.00  0.00     0.146 A 
HETATM    4  C11 UNL     1      -2.266  -1.464   1.921  1.00  0.00     0.002 A 
HETATM    5  C12 UNL     1      -3.476  -1.742   2.344  1.00  0.00     0.090 C 
HETATM    6  N3  UNL     1      -4.141  -2.459   1.496  1.00  0.00    -0.267 NA
HETATM    7  C13 UNL     1      -3.974  -2.052   0.095  1.00  0.00     0.275 C 
HETATM    8  N4  UNL     1      -3.530  -0.653   0.019  1.00  0.00    -0.348 N 
HETATM    9  C20 UNL     1      -0.979  -2.045   2.258  1.00  0.00     0.049 A 
HETATM   10  C21 UNL     1       0.097  -1.664   1.597  1.00  0.00     0.076 A 
ENDROOT
BRANCH   1  11
HETATM   11  C7  UNL     1       1.256  -0.281  -0.297  1.00  0.00     0.159 C 
BRANCH  11  12
HETATM   12  N2  UNL     1       2.272   0.409   0.364  1.00  0.00    -0.396 N 
HETATM   13  C3  UNL     1       2.691   1.643  -0.192  1.00  0.00     0.172 C 
HETATM   14  C4  UNL     1       3.648   2.167   0.892  1.00  0.00     0.036 C 
HETATM   15  C5  UNL     1       4.311   0.849   1.343  1.00  0.00     0.022 C 
HETATM   16  C6  UNL     1       3.106  -0.129   1.316  1.00  0.00     0.118 C 
BRANCH  13  17
HETATM   17  C2  UNL     1       3.529   1.568  -1.406  1.00  0.00     0.239 C 
HETATM   18  N1  UNL     1       4.031   0.422  -2.077  1.00  0.00    -0.364 N 
HETATM   19  C1  UNL     1       4.841   0.448  -3.256  1.00  0.00     0.149 C 
HETATM   20  H4  UNL     1       3.769  -0.486  -1.643  1.00  0.00     0.161 HD
HETATM   21  O1  UNL     1       3.804   2.731  -1.867  1.00  0.00    -0.271 OA
ENDBRANCH  13  17
ENDBRANCH  11  12
ENDBRANCH   1  11
BRANCH  10  22
HETATM   22  O2  UNL     1       1.259  -2.264   1.971  1.00  0.00    -0.355 OA
HETATM   23  C22 UNL     1       1.465  -2.626   3.321  1.00  0.00     0.210 C 
ENDBRANCH  10  22
BRANCH   8  24
HETATM   24  C14 UNL     1      -4.103   0.257  -0.879  1.00  0.00     0.073 A 
HETATM   25  C15 UNL     1      -4.926  -0.162  -1.903  1.00  0.00     0.032 A 
HETATM   26  C16 UNL     1      -5.507   0.685  -2.830  1.00  0.00     0.004 A 
HETATM   27  C17 UNL     1      -5.272   2.044  -2.761  1.00  0.00     0.027 A 
HETATM   28  C18 UNL     1      -4.452   2.510  -1.751  1.00  0.00     0.074 A 
HETATM   29 CL1  UNL     1      -4.161   4.222  -1.669  1.00  0.00    -0.081 Cl
HETATM   30  C19 UNL     1      -3.904   1.617  -0.858  1.00  0.00     0.164 A 
HETATM   31  F1  UNL     1      -3.139   2.177   0.082  1.00  0.00    -0.202 F 
ENDBRANCH   8  24
TORSDOF 5
