REMARK  10 active torsions:
REMARK  status: ('A' for Active; 'I' for Inactive)
REMARK    1  A    between atoms: C2_2  and  C3_3 
REMARK    2  A    between atoms: C4_4  and  C5_5 
REMARK    3  A    between atoms: C5_5  and  C6_6 
REMARK    4  A    between atoms: C6_6  and  C7_7 
REMARK    5  A    between atoms: C7_7  and  C8_8 
REMARK    6  A    between atoms: C8_8  and  N1_9 
REMARK    7  A    between atoms: C13_15  and  C14_16 
REMARK    8  A    between atoms: C14_16  and  C15_17 
REMARK    9  A    between atoms: C15_17  and  C16_18 
REMARK   10  A    between atoms: C21_23  and  O2_24 
ROOT
HETATM    1  C1  UNL     1      -1.750  -0.014   2.411  1.00  0.00     0.048 C 
HETATM    2  C2  UNL     1      -1.537  -0.530   1.046  1.00  0.00    -0.066 C 
HETATM    3  C13 UNL     1      -2.611  -0.675   0.276  1.00  0.00    -0.020 C 
ENDROOT
BRANCH   2   4
HETATM    4  C3  UNL     1      -0.253  -0.912   0.427  1.00  0.00     0.002 C 
HETATM    5  C4  UNL     1       1.024  -0.916   0.852  1.00  0.00    -0.026 C 
BRANCH   5   6
HETATM    6  C5  UNL     1       1.620  -0.528   2.123  1.00  0.00     0.027 C 
BRANCH   6   7
HETATM    7  C6  UNL     1       2.590   0.566   2.048  1.00  0.00     0.006 C 
BRANCH   7   8
HETATM    8  C7  UNL     1       3.876   0.481   1.361  1.00  0.00     0.030 C 
BRANCH   8   9
HETATM    9  C8  UNL     1       3.970   0.190  -0.097  1.00  0.00     0.272 C 
BRANCH   9  10
HETATM   10  N1  UNL     1       5.408   0.296  -0.409  1.00  0.00     0.092 N 
HETATM   11  C9  UNL     1       6.192  -0.745   0.191  1.00  0.00     0.298 C 
HETATM   12  C10 UNL     1       7.468  -0.862  -0.656  1.00  0.00     0.198 C 
HETATM   13  O1  UNL     1       7.887   0.417  -1.046  1.00  0.00    -0.388 OA
HETATM   14  C11 UNL     1       7.023   0.931  -2.039  1.00  0.00     0.198 C 
HETATM   15  C12 UNL     1       5.617   0.409  -1.833  1.00  0.00     0.298 C 
ENDBRANCH   9  10
ENDBRANCH   8   9
ENDBRANCH   7   8
ENDBRANCH   6   7
ENDBRANCH   5   6
ENDBRANCH   2   4
BRANCH   3  16
HETATM   16  C14 UNL     1      -4.054  -0.487   0.314  1.00  0.00     0.032 C 
BRANCH  16  17
HETATM   17  C15 UNL     1      -4.563   0.485  -0.749  1.00  0.00     0.045 C 
BRANCH  17  18
HETATM   18  C16 UNL     1      -6.050   0.552  -0.569  1.00  0.00    -0.025 A 
HETATM   19  C17 UNL     1      -6.674   1.637   0.038  1.00  0.00     0.010 A 
HETATM   20  C18 UNL     1      -8.053   1.698   0.204  1.00  0.00     0.001 A 
HETATM   21  C19 UNL     1      -8.841   0.641  -0.250  1.00  0.00     0.003 A 
HETATM   22  C20 UNL     1      -8.173  -0.406  -0.841  1.00  0.00     0.037 A 
HETATM   23  C21 UNL     1      -6.804  -0.505  -1.025  1.00  0.00     0.071 A 
BRANCH  23  24
HETATM   24  O2  UNL     1      -6.254  -1.632  -1.645  1.00  0.00    -0.360 OA
HETATM   25  H31 UNL     1      -6.255  -1.754  -2.649  1.00  0.00     0.217 HD
ENDBRANCH  23  24
ENDBRANCH  17  18
ENDBRANCH  16  17
ENDBRANCH   3  16
TORSDOF 10
