REMARK  8 active torsions:
REMARK  status: ('A' for Active; 'I' for Inactive)
REMARK    1  A    between atoms: C2_2  and  O1_3 
REMARK    2  A    between atoms: O1_3  and  C3_4 
REMARK    3  A    between atoms: C3_4  and  C4_6 
REMARK    4  A    between atoms: N1_9  and  C7_10 
REMARK    5  A    between atoms: C7_10  and  C8_11 
REMARK    6  A    between atoms: C8_11  and  C9_12 
REMARK    7  A    between atoms: C9_12  and  C10_14 
REMARK    8  A    between atoms: C20_24  and  O4_25 
ROOT
HETATM    1  C10 UNL     1      -2.607  -1.333  -0.293  1.00  0.00     0.006 C 
HETATM    2  C11 UNL     1      -2.781  -0.973   0.967  1.00  0.00    -0.007 C 
HETATM    3  C12 UNL     1      -4.218  -0.888   1.319  1.00  0.00     0.067 C 
HETATM    4  C13 UNL     1      -4.644   0.501   1.422  1.00  0.00    -0.048 A 
HETATM    5  C14 UNL     1      -4.101   1.266   2.414  1.00  0.00     0.008 A 
HETATM    6  C15 UNL     1      -4.499   2.575   2.523  1.00  0.00     0.001 A 
HETATM    7  C16 UNL     1      -5.426   3.082   1.641  1.00  0.00     0.001 A 
HETATM    8  C17 UNL     1      -5.923   2.229   0.665  1.00  0.00     0.007 A 
HETATM    9  C18 UNL     1      -5.558   0.877   0.495  1.00  0.00    -0.049 A 
HETATM   10  C19 UNL     1      -6.307   0.387  -0.625  1.00  0.00     0.075 C 
HETATM   11  C20 UNL     1      -6.163  -0.999  -1.119  1.00  0.00     0.145 C 
HETATM   12  C21 UNL     1      -4.840  -1.365  -1.657  1.00  0.00     0.006 C 
HETATM   13  C22 UNL     1      -3.530  -1.504  -1.414  1.00  0.00     0.013 C 
ENDROOT
BRANCH   1  14
HETATM   14  C9  UNL     1      -1.175  -1.436  -0.646  1.00  0.00     0.160 C 
HETATM   15  O3  UNL     1      -0.434  -1.720  -1.628  1.00  0.00    -0.292 OA
BRANCH  14  16
HETATM   16  C8  UNL     1      -0.063  -1.165   0.288  1.00  0.00     0.103 C 
BRANCH  16  17
HETATM   17  C7  UNL     1       1.218  -1.440  -0.473  1.00  0.00     0.124 C 
BRANCH  17  18
HETATM   18  N1  UNL     1       2.387  -1.236   0.275  1.00  0.00    -0.412 N 
HETATM   19  C6  UNL     1       2.769   0.056   0.664  1.00  0.00     0.117 C 
HETATM   20  C5  UNL     1       3.699   0.701  -0.350  1.00  0.00     0.034 C 
HETATM   21  C4  UNL     1       4.754  -0.288  -0.735  1.00  0.00     0.088 C 
HETATM   22  C24 UNL     1       4.780  -1.479   0.218  1.00  0.00     0.034 C 
HETATM   23  C23 UNL     1       3.439  -2.163   0.208  1.00  0.00     0.117 C 
BRANCH  21  24
HETATM   24  C3  UNL     1       6.065   0.366  -0.749  1.00  0.00     0.263 C 
HETATM   25  O2  UNL     1       6.750   0.404  -1.813  1.00  0.00    -0.265 OA
BRANCH  24  26
HETATM   26  O1  UNL     1       6.661   0.972   0.323  1.00  0.00    -0.322 OA
BRANCH  26  27
HETATM   27  C2  UNL     1       7.952   1.556   0.109  1.00  0.00     0.174 C 
HETATM   28  C1  UNL     1       7.842   2.608  -0.949  1.00  0.00     0.034 C 
ENDBRANCH  26  27
ENDBRANCH  24  26
ENDBRANCH  21  24
ENDBRANCH  17  18
ENDBRANCH  16  17
ENDBRANCH  14  16
ENDBRANCH   1  14
BRANCH  11  29
HETATM   29  O4  UNL     1      -7.070  -1.022  -2.245  1.00  0.00    -0.391 OA
HETATM   30  H25 UNL     1      -7.105  -1.937  -2.606  1.00  0.00     0.210 HD
ENDBRANCH  11  29
TORSDOF 8
