REMARK  6 active torsions:
REMARK  status: ('A' for Active; 'I' for Inactive)
REMARK    1  A    between atoms: C2_2  and  O1_3 
REMARK    2  A    between atoms: O1_3  and  C3_4 
REMARK    3  A    between atoms: C3_4  and  C4_6 
REMARK    4  A    between atoms: N1_9  and  C7_10 
REMARK    5  A    between atoms: C7_10  and  C8_11 
REMARK    6  A    between atoms: C12_15  and  C13_16 
ROOT
HETATM    1  C8  UNL     1      -1.968  -0.205  -0.098  1.00  0.00     0.072 C 
HETATM    2  C9  UNL     1      -1.899   0.597   1.134  1.00  0.00    -0.015 C 
HETATM    3  C10 UNL     1      -2.564   1.695   1.524  1.00  0.00    -0.000 C 
HETATM    4  C11 UNL     1      -3.613   2.518   0.882  1.00  0.00     0.039 C 
HETATM    5  C12 UNL     1      -4.605   2.135   0.066  1.00  0.00     0.100 C 
HETATM    6  O4  UNL     1      -5.088   0.943  -0.510  1.00  0.00    -0.308 OA
HETATM    7  C14 UNL     1      -4.606  -0.378  -0.423  1.00  0.00     0.083 A 
HETATM    8  C15 UNL     1      -5.680  -1.233  -0.541  1.00  0.00     0.038 A 
HETATM    9  C16 UNL     1      -5.516  -2.595  -0.494  1.00  0.00     0.003 A 
HETATM   10  C17 UNL     1      -4.238  -3.138  -0.324  1.00  0.00     0.001 A 
HETATM   11  C18 UNL     1      -3.223  -2.232  -0.214  1.00  0.00     0.011 A 
HETATM   12  C19 UNL     1      -3.303  -0.860  -0.251  1.00  0.00    -0.015 A 
ENDROOT
BRANCH   1  13
HETATM   13  C7  UNL     1      -0.839  -1.067  -0.432  1.00  0.00     0.285 C 
BRANCH  13  14
HETATM   14  N1  UNL     1       0.430  -0.365  -0.658  1.00  0.00     0.089 N 
HETATM   15  C6  UNL     1       1.351  -1.326  -1.221  1.00  0.00     0.273 C 
HETATM   16  C5  UNL     1       2.779  -0.989  -1.225  1.00  0.00     0.045 C 
HETATM   17  C4  UNL     1       3.200  -0.665   0.198  1.00  0.00     0.089 C 
HETATM   18  C21 UNL     1       2.398   0.572   0.541  1.00  0.00     0.045 C 
HETATM   19  C20 UNL     1       0.919   0.301   0.497  1.00  0.00     0.273 C 
BRANCH  17  20
HETATM   20  C3  UNL     1       4.632  -0.314   0.234  1.00  0.00     0.263 C 
HETATM   21  O2  UNL     1       5.395  -0.229  -0.734  1.00  0.00    -0.265 OA
BRANCH  20  22
HETATM   22  O1  UNL     1       5.472  -0.004   1.273  1.00  0.00    -0.322 OA
BRANCH  22  23
HETATM   23  C2  UNL     1       6.840   0.303   1.070  1.00  0.00     0.174 C 
HETATM   24  C1  UNL     1       7.068   1.498   0.199  1.00  0.00     0.034 C 
ENDBRANCH  22  23
ENDBRANCH  20  22
ENDBRANCH  17  20
ENDBRANCH  13  14
ENDBRANCH   1  13
BRANCH   5  25
HETATM   25  C13 UNL     1      -5.380   3.293  -0.311  1.00  0.00     0.415 C 
HETATM   26  O3  UNL     1      -6.251   4.007  -0.841  1.00  0.00    -0.403 OA
ENDBRANCH   5  25
TORSDOF 6
