REMARK  0 active torsions:
REMARK  status: ('A' for Active; 'I' for Inactive)
ROOT
HETATM    1  C1  UNL     1       4.523  -2.048   0.189  1.00  0.00     0.024 C 
HETATM    2  C2  UNL     1       3.180  -2.024   0.005  1.00  0.00     0.006 C 
HETATM    3  C3  UNL     1       2.572  -3.336   0.254  1.00  0.00     0.311 C 
HETATM    4  N1  UNL     1       1.504  -3.247   1.239  1.00  0.00     0.089 N 
HETATM    5  C4  UNL     1       0.253  -2.705   0.636  1.00  0.00     0.296 C 
HETATM    6  C5  UNL     1      -0.393  -3.781  -0.175  1.00  0.00     0.197 C 
HETATM    7  O1  UNL     1      -1.550  -3.603  -0.845  1.00  0.00    -0.389 OA
HETATM    8  C6  UNL     1      -2.639  -3.077  -0.192  1.00  0.00     0.168 C 
HETATM    9  C7  UNL     1      -2.644  -1.597  -0.201  1.00  0.00     0.030 C 
HETATM   10  C8  UNL     1      -3.683  -0.939   0.715  1.00  0.00     0.029 C 
HETATM   11  C9  UNL     1      -3.682   0.509   0.289  1.00  0.00    -0.027 C 
HETATM   12  C10 UNL     1      -4.356   1.548  -0.124  1.00  0.00    -0.004 C 
HETATM   13  C11 UNL     1      -4.336   2.920  -0.533  1.00  0.00    -0.000 C 
HETATM   14  C12 UNL     1      -3.300   3.715  -0.652  1.00  0.00    -0.000 C 
HETATM   15  C13 UNL     1      -1.887   4.040  -0.591  1.00  0.00    -0.002 C 
HETATM   16  C14 UNL     1      -0.645   4.504  -0.589  1.00  0.00    -0.001 C 
HETATM   17  C15 UNL     1       0.469   3.608  -0.219  1.00  0.00     0.195 C 
HETATM   18  O2  UNL     1       1.223   3.991   0.873  1.00  0.00    -0.384 OA
HETATM   19  C16 UNL     1       2.181   2.965   1.098  1.00  0.00     0.195 C 
HETATM   20  C17 UNL     1       3.034   2.781  -0.075  1.00  0.00    -0.005 C 
HETATM   21  C18 UNL     1       3.214   1.701  -0.835  1.00  0.00    -0.021 C 
HETATM   22  C19 UNL     1       2.525   0.426  -0.600  1.00  0.00     0.110 C 
HETATM   23  C20 UNL     1       3.466  -0.648  -0.285  1.00  0.00     0.160 C 
HETATM   24  O3  UNL     1       4.582  -0.104  -0.313  1.00  0.00    -0.292 OA
HETATM   25  H5  UNL     1       1.250  -4.214   1.535  1.00  0.00     0.316 HD
ENDROOT
TORSDOF 0
