REMARK  7 active torsions:
REMARK  status: ('A' for Active; 'I' for Inactive)
REMARK    1  A    between atoms: C2_2  and  C3_3 
REMARK    2  A    between atoms: C3_3  and  O1_4 
REMARK    3  A    between atoms: O1_4  and  C4_5 
REMARK    4  A    between atoms: C5_6  and  C6_7 
REMARK    5  A    between atoms: C6_7  and  C7_9 
REMARK    6  A    between atoms: C7_9  and  C9_11 
REMARK    7  A    between atoms: C9_11  and  N1_12 
ROOT
HETATM    1  C4  UNL     1      -2.372  -0.956   0.095  1.00  0.00     0.152 A 
HETATM    2  C5  UNL     1      -1.195  -1.528   0.207  1.00  0.00     0.065 A 
HETATM    3  C14 UNL     1      -1.141  -2.933  -0.159  1.00  0.00     0.017 A 
HETATM    4  C15 UNL     1      -2.144  -3.675  -0.584  1.00  0.00    -0.006 A 
HETATM    5  C16 UNL     1      -3.482  -3.072  -0.724  1.00  0.00     0.149 A 
HETATM    6  N2  UNL     1      -3.521  -1.686  -0.360  1.00  0.00    -0.367 N 
HETATM    7  H22 UNL     1      -4.464  -1.265  -0.459  1.00  0.00     0.161 HD
ENDROOT
BRANCH   2   8
HETATM    8  C6  UNL     1      -0.086  -0.728   0.671  1.00  0.00     0.193 C 
HETATM    9  O2  UNL     1      -0.370   0.470   0.929  1.00  0.00    -0.287 OA
BRANCH   8  10
HETATM   10  C7  UNL     1       1.296  -1.117   0.878  1.00  0.00     0.012 C 
HETATM   11  C8  UNL     1       1.792  -2.319   0.667  1.00  0.00     0.025 C 
BRANCH  10  12
HETATM   12  C9  UNL     1       2.278  -0.123   1.367  1.00  0.00     0.314 C 
BRANCH  12  13
HETATM   13  N1  UNL     1       2.368   0.999   0.416  1.00  0.00     0.096 N 
HETATM   14  C10 UNL     1       3.338   1.892   0.985  1.00  0.00     0.299 C 
HETATM   15  C11 UNL     1       4.061   2.773   0.037  1.00  0.00     0.198 C 
HETATM   16  O3  UNL     1       4.058   2.395  -1.280  1.00  0.00    -0.388 OA
HETATM   17  C12 UNL     1       3.976   1.034  -1.443  1.00  0.00     0.198 C 
HETATM   18  C13 UNL     1       2.725   0.447  -0.845  1.00  0.00     0.299 C 
ENDBRANCH  12  13
ENDBRANCH  10  12
ENDBRANCH   8  10
ENDBRANCH   2   8
BRANCH   1  19
HETATM   19  O1  UNL     1      -2.655   0.390   0.393  1.00  0.00    -0.335 OA
BRANCH  19  20
HETATM   20  C3  UNL     1      -3.321   1.195  -0.570  1.00  0.00     0.182 C 
BRANCH  20  21
HETATM   21  C2  UNL     1      -3.531   2.586  -0.076  1.00  0.00     0.016 C 
HETATM   22  C1  UNL     1      -4.685   3.213   0.087  1.00  0.00     0.007 C 
ENDBRANCH  20  21
ENDBRANCH  19  20
ENDBRANCH   1  19
TORSDOF 7
