REMARK  8 active torsions:
REMARK  status: ('A' for Active; 'I' for Inactive)
REMARK    1  A    between atoms: C1_2  and  C2_3 
REMARK    2  A    between atoms: C1_2  and  C17_19 
REMARK    3  A    between atoms: C2_3  and  C3_4 
REMARK    4  A    between atoms: C6_7  and  O2_8 
REMARK    5  A    between atoms: O2_8  and  C7_9 
REMARK    6  A    between atoms: C7_9  and  C8_10 
REMARK    7  A    between atoms: C8_10  and  C9_11 
REMARK    8  A    between atoms: C17_19  and  N1_20 
ROOT
HETATM    1  C3  UNL     1       0.529  -0.572  -0.268  1.00  0.00    -0.051 A 
HETATM    2  C4  UNL     1      -0.210  -0.859   0.886  1.00  0.00     0.010 A 
HETATM    3  C5  UNL     1      -1.475  -0.340   1.083  1.00  0.00     0.037 A 
HETATM    4  C6  UNL     1      -2.043   0.483   0.131  1.00  0.00     0.068 A 
HETATM    5  C15 UNL     1      -1.390   0.820  -1.037  1.00  0.00     0.037 A 
HETATM    6  C16 UNL     1      -0.124   0.268  -1.175  1.00  0.00     0.010 A 
ENDROOT
BRANCH   1   7
HETATM    7  C2  UNL     1       1.876  -1.056  -0.587  1.00  0.00     0.118 C 
BRANCH   7   8
HETATM    8  C1  UNL     1       2.970  -0.138  -0.173  1.00  0.00     0.159 C 
HETATM    9  O1  UNL     1       2.797   0.951   0.394  1.00  0.00    -0.296 OA
BRANCH   8  10
HETATM   10  C17 UNL     1       4.305  -0.689  -0.524  1.00  0.00     0.350 C 
BRANCH  10  11
HETATM   11  N1  UNL     1       5.376   0.207  -0.177  1.00  0.00     0.099 N 
HETATM   12  C18 UNL     1       5.590   0.394   1.219  1.00  0.00     0.299 C 
HETATM   13  C19 UNL     1       6.494  -0.724   1.702  1.00  0.00     0.198 C 
HETATM   14  O3  UNL     1       7.716  -0.532   1.071  1.00  0.00    -0.388 OA
HETATM   15  C20 UNL     1       7.660  -0.716  -0.301  1.00  0.00     0.198 C 
HETATM   16  C21 UNL     1       6.532  -0.027  -0.976  1.00  0.00     0.299 C 
ENDBRANCH  10  11
ENDBRANCH   8  10
ENDBRANCH   7   8
ENDBRANCH   1   7
BRANCH   4  17
HETATM   17  O2  UNL     1      -3.319   0.980   0.375  1.00  0.00    -0.351 OA
BRANCH  17  18
HETATM   18  C7  UNL     1      -3.971   1.839  -0.561  1.00  0.00     0.180 C 
BRANCH  18  19
HETATM   19  C8  UNL     1      -5.344   2.225  -0.035  1.00  0.00     0.065 C 
BRANCH  19  20
HETATM   20  C9  UNL     1      -6.148   1.002   0.152  1.00  0.00    -0.056 A 
HETATM   21  C10 UNL     1      -6.249   0.211   1.271  1.00  0.00     0.007 A 
HETATM   22  C11 UNL     1      -7.055  -0.913   1.270  1.00  0.00     0.001 A 
HETATM   23  C12 UNL     1      -7.791  -1.295   0.156  1.00  0.00     0.000 A 
HETATM   24  C13 UNL     1      -7.690  -0.497  -0.978  1.00  0.00     0.001 A 
HETATM   25  C14 UNL     1      -6.882   0.623  -0.964  1.00  0.00     0.007 A 
ENDBRANCH  19  20
ENDBRANCH  18  19
ENDBRANCH  17  18
ENDBRANCH   4  17
TORSDOF 8
