REMARK  3 active torsions:
REMARK  status: ('A' for Active; 'I' for Inactive)
REMARK    1  A    between atoms: C7_8  and  O2_9 
REMARK    2  A    between atoms: O2_9  and  C8_10 
REMARK    3  A    between atoms: C8_10  and  C9_11 
ROOT
HETATM    1  C1  UNL     1      -2.071  -3.827  -1.338  1.00  0.00     0.067 C 
HETATM    2  C2  UNL     1      -1.876  -2.718  -2.083  1.00  0.00     0.058 C 
HETATM    3  C3  UNL     1      -1.968  -2.017  -3.311  1.00  0.00     0.194 C 
HETATM    4  O1  UNL     1      -2.526  -3.125  -3.626  1.00  0.00    -0.286 OA
HETATM    5  C4  UNL     1      -1.412  -0.678  -3.277  1.00  0.00     0.053 C 
HETATM    6  C5  UNL     1      -0.809   0.458  -2.942  1.00  0.00    -0.014 C 
HETATM    7  C6  UNL     1      -0.383   0.057  -1.616  1.00  0.00     0.057 C 
HETATM    8  C7  UNL     1       0.199   0.258  -0.449  1.00  0.00     0.102 C 
HETATM    9  C15 UNL     1       0.211  -0.870   0.472  1.00  0.00     0.069 C 
HETATM   10  C16 UNL     1      -0.256  -2.196   0.002  1.00  0.00     0.111 C 
HETATM   11  C17 UNL     1      -0.342  -3.089   1.242  1.00  0.00     0.193 C 
HETATM   12  O3  UNL     1      -1.637  -3.554   1.351  1.00  0.00    -0.388 OA
HETATM   13  C18 UNL     1      -2.500  -2.475   1.440  1.00  0.00     0.187 C 
HETATM   14  C19 UNL     1      -2.473  -1.661   0.155  1.00  0.00     0.149 C 
HETATM   15  N1  UNL     1      -1.471  -2.245  -0.762  1.00  0.00    -0.372 N 
ENDROOT
BRANCH   8  16
HETATM   16  O2  UNL     1       0.898   1.242   0.335  1.00  0.00    -0.372 OA
BRANCH  16  17
HETATM   17  C8  UNL     1       1.447   2.371  -0.300  1.00  0.00     0.207 C 
BRANCH  17  18
HETATM   18  C9  UNL     1       2.045   3.237   0.749  1.00  0.00    -0.035 A 
HETATM   19  C10 UNL     1       1.443   4.258   1.445  1.00  0.00     0.009 A 
HETATM   20  C11 UNL     1       2.166   4.955   2.385  1.00  0.00     0.001 A 
HETATM   21  C12 UNL     1       3.487   4.687   2.681  1.00  0.00     0.000 A 
HETATM   22  C13 UNL     1       4.107   3.645   1.973  1.00  0.00     0.001 A 
HETATM   23  C14 UNL     1       3.362   2.960   1.034  1.00  0.00     0.009 A 
ENDBRANCH  17  18
ENDBRANCH  16  17
ENDBRANCH   8  16
TORSDOF 3
