REMARK  6 active torsions:
REMARK  status: ('A' for Active; 'I' for Inactive)
REMARK    1  A    between atoms: C2_2  and  C8_10 
REMARK    2  A    between atoms: C3_3  and  N1_4 
REMARK    3  A    between atoms: C8_10  and  C9_12 
REMARK    4  A    between atoms: C12_15  and  O3_16 
REMARK    5  A    between atoms: O3_16  and  C13_17 
REMARK    6  A    between atoms: C13_17  and  C14_18 
ROOT
HETATM    1  C9  UNL     1       0.202   0.613   0.129  1.00  0.00     0.015 A 
HETATM    2  C10 UNL     1       1.208   1.102  -0.654  1.00  0.00     0.018 A 
HETATM    3  C11 UNL     1       2.493   1.069  -0.165  1.00  0.00     0.038 A 
HETATM    4  C12 UNL     1       2.845   0.576   1.067  1.00  0.00     0.069 A 
HETATM    5  C20 UNL     1       1.785   0.089   1.829  1.00  0.00     0.038 A 
HETATM    6  C21 UNL     1       0.464   0.106   1.365  1.00  0.00     0.018 A 
ENDROOT
BRANCH   1   7
HETATM    7  C8  UNL     1      -1.129   0.678  -0.450  1.00  0.00     0.189 C 
HETATM    8  O2  UNL     1      -1.317   1.156  -1.596  1.00  0.00    -0.287 OA
BRANCH   7   9
HETATM    9  C2  UNL     1      -2.432   0.280   0.034  1.00  0.00     0.004 C 
HETATM   10  C1  UNL     1      -2.918  -0.340   1.285  1.00  0.00     0.054 C 
HETATM   11  C3  UNL     1      -3.307   0.566  -0.899  1.00  0.00     0.096 C 
BRANCH  11  12
HETATM   12  N1  UNL     1      -4.688   0.341  -0.836  1.00  0.00    -0.385 N 
HETATM   13  C4  UNL     1      -5.632   1.420  -0.612  1.00  0.00     0.148 C 
HETATM   14  C5  UNL     1      -6.568   0.961   0.486  1.00  0.00     0.187 C 
HETATM   15  O1  UNL     1      -7.210  -0.180   0.075  1.00  0.00    -0.388 OA
HETATM   16  C6  UNL     1      -6.416  -1.276  -0.143  1.00  0.00     0.187 C 
HETATM   17  C7  UNL     1      -5.212  -0.990  -0.995  1.00  0.00     0.148 C 
ENDBRANCH  11  12
ENDBRANCH   7   9
ENDBRANCH   1   7
BRANCH   4  18
HETATM   18  O3  UNL     1       3.975   0.417   1.790  1.00  0.00    -0.347 OA
BRANCH  18  19
HETATM   19  C13 UNL     1       5.299   0.712   1.527  1.00  0.00     0.214 C 
BRANCH  19  20
HETATM   20  C14 UNL     1       5.848  -0.010   0.357  1.00  0.00    -0.034 A 
HETATM   21  C15 UNL     1       6.303  -1.298   0.661  1.00  0.00     0.009 A 
HETATM   22  C16 UNL     1       6.870  -2.155  -0.255  1.00  0.00     0.001 A 
HETATM   23  C17 UNL     1       7.014  -1.756  -1.563  1.00  0.00     0.000 A 
HETATM   24  C18 UNL     1       6.572  -0.493  -1.879  1.00  0.00     0.001 A 
HETATM   25  C19 UNL     1       6.008   0.358  -0.959  1.00  0.00     0.009 A 
ENDBRANCH  19  20
ENDBRANCH  18  19
ENDBRANCH   4  18
TORSDOF 6
