REMARK  6 active torsions:
REMARK  status: ('A' for Active; 'I' for Inactive)
REMARK    1  A    between atoms: C3_4  and  C4_5 
REMARK    2  A    between atoms: C4_5  and  C5_6 
REMARK    3  A    between atoms: C5_6  and  C6_7 
REMARK    4  A    between atoms: C10_11  and  C11_12 
REMARK    5  A    between atoms: C11_12  and  N2_13 
REMARK    6  A    between atoms: C16_19  and  O2_20 
ROOT
HETATM    1  N1  UNL     1       7.473   3.358   0.910  1.00  0.00    -0.192 NA
HETATM    2  C1  UNL     1       6.654   2.706   0.437  1.00  0.00     0.087 C 
HETATM    3  C2  UNL     1       5.637   1.901  -0.166  1.00  0.00     0.089 C 
HETATM    4  C3  UNL     1       4.911   0.993   0.466  1.00  0.00    -0.016 C 
ENDROOT
BRANCH   4   5
HETATM    5  C4  UNL     1       3.875   0.207  -0.254  1.00  0.00     0.028 C 
BRANCH   5   6
HETATM    6  C5  UNL     1       2.496   0.417   0.336  1.00  0.00     0.015 C 
BRANCH   6   7
HETATM    7  C6  UNL     1       1.534  -0.433  -0.483  1.00  0.00     0.043 C 
HETATM    8  C7  UNL     1       1.896  -1.890  -0.429  1.00  0.00     0.011 C 
HETATM    9  C8  UNL     1       0.720  -2.811  -0.506  1.00  0.00     0.005 C 
HETATM   10  C9  UNL     1      -0.419  -2.517   0.394  1.00  0.00     0.038 C 
HETATM   11  C10 UNL     1      -0.770  -1.073   0.295  1.00  0.00    -0.023 C 
HETATM   12  C16 UNL     1       0.125  -0.185  -0.096  1.00  0.00     0.051 C 
BRANCH  11  13
HETATM   13  C11 UNL     1      -2.166  -0.851   0.674  1.00  0.00     0.309 C 
BRANCH  13  14
HETATM   14  N2  UNL     1      -2.677   0.480   0.587  1.00  0.00     0.096 N 
HETATM   15  C12 UNL     1      -4.023   0.401   1.205  1.00  0.00     0.299 C 
HETATM   16  C13 UNL     1      -4.734   1.688   0.904  1.00  0.00     0.198 C 
HETATM   17  O1  UNL     1      -5.186   1.648  -0.421  1.00  0.00    -0.388 OA
HETATM   18  C14 UNL     1      -4.414   0.755  -1.162  1.00  0.00     0.198 C 
HETATM   19  C15 UNL     1      -2.945   0.846  -0.801  1.00  0.00     0.299 C 
ENDBRANCH  13  14
ENDBRANCH  11  13
BRANCH  12  20
HETATM   20  O2  UNL     1      -0.226   1.136  -0.173  1.00  0.00    -0.364 OA
HETATM   21  H24 UNL     1       0.101   1.856   0.454  1.00  0.00     0.217 HD
ENDBRANCH  12  20
ENDBRANCH   6   7
ENDBRANCH   5   6
ENDBRANCH   4   5
TORSDOF 6
