REMARK  5 active torsions:
REMARK  status: ('A' for Active; 'I' for Inactive)
REMARK    1  A    between atoms: C3_5  and  C4_6 
REMARK    2  A    between atoms: C7_9  and  O2_10 
REMARK    3  A    between atoms: O2_10  and  C8_11 
REMARK    4  A    between atoms: C8_11  and  C9_12 
REMARK    5  A    between atoms: C9_12  and  C10_13 
ROOT
HETATM    1  O1  UNL     1      -6.906   3.951  -0.674  1.00  0.00    -0.340 OA
HETATM    2  B1  UNL     1      -6.055   2.499  -0.500  1.00  0.00     0.407 B 
HETATM    3  C1  UNL     1      -5.348   1.001  -0.241  1.00  0.00     0.211 C 
HETATM    4  C2  UNL     1      -3.933   0.951  -0.831  1.00  0.00     0.064 C 
HETATM    5  C3  UNL     1      -3.163  -0.049  -0.071  1.00  0.00     0.155 C 
HETATM    6  O3  UNL     1      -3.214  -1.247  -0.775  1.00  0.00    -0.379 OA
HETATM    7  C17 UNL     1      -4.374  -1.920  -0.804  1.00  0.00     0.198 C 
HETATM    8  C18 UNL     1      -5.562  -1.320  -0.133  1.00  0.00     0.295 C 
HETATM    9  N1  UNL     1      -6.051  -0.131  -0.801  1.00  0.00     0.083 N 
HETATM   10  H22 UNL     1      -5.922  -0.138  -1.821  1.00  0.00     0.315 HD
ENDROOT
BRANCH   5  11
HETATM   11  C4  UNL     1      -1.753   0.227   0.197  1.00  0.00    -0.029 A 
HETATM   12  C5  UNL     1      -1.053   1.401   0.066  1.00  0.00     0.012 A 
HETATM   13  C6  UNL     1       0.277   1.536   0.351  1.00  0.00     0.037 A 
HETATM   14  C7  UNL     1       0.998   0.450   0.801  1.00  0.00     0.068 A 
HETATM   15  C15 UNL     1       0.323  -0.745   0.943  1.00  0.00     0.037 A 
HETATM   16  C16 UNL     1      -1.021  -0.877   0.654  1.00  0.00     0.012 A 
BRANCH  14  17
HETATM   17  O2  UNL     1       2.330   0.681   1.061  1.00  0.00    -0.351 OA
BRANCH  17  18
HETATM   18  C8  UNL     1       3.116  -0.401   1.526  1.00  0.00     0.179 C 
BRANCH  18  19
HETATM   19  C9  UNL     1       4.520   0.187   1.713  1.00  0.00     0.054 C 
BRANCH  19  20
HETATM   20  C10 UNL     1       4.933   0.684   0.365  1.00  0.00    -0.017 C 
HETATM   21  C11 UNL     1       6.010   0.188  -0.202  1.00  0.00    -0.059 A 
HETATM   22  C12 UNL     1       6.853  -0.840   0.403  1.00  0.00     0.003 A 
HETATM   23  C14 UNL     1       6.874   0.235  -1.391  1.00  0.00     0.065 A 
HETATM   24  C13 UNL     1       7.636  -0.802  -0.665  1.00  0.00    -0.022 A 
ENDBRANCH  19  20
ENDBRANCH  18  19
ENDBRANCH  17  18
ENDBRANCH  14  17
ENDBRANCH   5  11
TORSDOF 5
