REMARK  7 active torsions:
REMARK  status: ('A' for Active; 'I' for Inactive)
REMARK    1  A    between atoms: C2_2  and  C3_3 
REMARK    2  A    between atoms: C2_2  and  C8_10 
REMARK    3  A    between atoms: C3_3  and  N1_4 
REMARK    4  A    between atoms: C8_10  and  C9_12 
REMARK    5  A    between atoms: C13_16  and  O3_17 
REMARK    6  A    between atoms: O3_17  and  C14_18 
REMARK    7  A    between atoms: C14_18  and  C15_19 
ROOT
HETATM    1  C9  UNL     1      -0.054  -0.982  -0.148  1.00  0.00     0.017 A 
HETATM    2  C10 UNL     1       0.297  -2.299  -0.457  1.00  0.00     0.015 A 
HETATM    3  C11 UNL     1       1.518  -2.601  -1.069  1.00  0.00     0.004 A 
HETATM    4  C12 UNL     1       2.372  -1.569  -1.363  1.00  0.00     0.037 A 
HETATM    5  C13 UNL     1       2.111  -0.252  -1.096  1.00  0.00     0.070 A 
HETATM    6  C21 UNL     1       0.872  -0.019  -0.483  1.00  0.00     0.052 A 
ENDROOT
BRANCH   1   7
HETATM    7  C8  UNL     1      -1.353  -0.847   0.485  1.00  0.00     0.189 C 
HETATM    8  O2  UNL     1      -2.002  -1.915   0.679  1.00  0.00    -0.287 OA
BRANCH   7   9
HETATM    9  C2  UNL     1      -2.037   0.355   0.940  1.00  0.00     0.011 C 
HETATM   10  C1  UNL     1      -1.539   1.576   0.833  1.00  0.00     0.025 C 
BRANCH   9  11
HETATM   11  C3  UNL     1      -3.358   0.289   1.564  1.00  0.00     0.314 C 
BRANCH  11  12
HETATM   12  N1  UNL     1      -4.373  -0.281   0.720  1.00  0.00     0.096 N 
HETATM   13  C4  UNL     1      -5.665  -0.348   1.326  1.00  0.00     0.299 C 
HETATM   14  C5  UNL     1      -6.545   0.691   0.657  1.00  0.00     0.198 C 
HETATM   15  O1  UNL     1      -6.803   0.225  -0.627  1.00  0.00    -0.388 OA
HETATM   16  C6  UNL     1      -5.648   0.002  -1.356  1.00  0.00     0.198 C 
HETATM   17  C7  UNL     1      -4.386   0.260  -0.608  1.00  0.00     0.299 C 
ENDBRANCH  11  12
ENDBRANCH   9  11
ENDBRANCH   7   9
ENDBRANCH   1   7
BRANCH   5  18
HETATM   18  O3  UNL     1       2.783   0.897  -1.289  1.00  0.00    -0.347 OA
BRANCH  18  19
HETATM   19  C14 UNL     1       3.993   1.252  -1.814  1.00  0.00     0.214 C 
BRANCH  19  20
HETATM   20  C15 UNL     1       5.111   0.650  -1.064  1.00  0.00    -0.034 A 
HETATM   21  C16 UNL     1       5.832  -0.496  -1.279  1.00  0.00     0.009 A 
HETATM   22  C17 UNL     1       6.845  -0.903  -0.444  1.00  0.00     0.001 A 
HETATM   23  C18 UNL     1       7.209  -0.183   0.674  1.00  0.00     0.000 A 
HETATM   24  C19 UNL     1       6.519   0.977   0.939  1.00  0.00     0.001 A 
HETATM   25  C20 UNL     1       5.510   1.356   0.082  1.00  0.00     0.009 A 
ENDBRANCH  19  20
ENDBRANCH  18  19
ENDBRANCH   5  18
TORSDOF 7
