REMARK  6 active torsions:
REMARK  status: ('A' for Active; 'I' for Inactive)
REMARK    1  A    between atoms: O1_2  and  C2_3 
REMARK    2  A    between atoms: C6_9  and  N3_10 
REMARK    3  A    between atoms: N3_10  and  C7_11 
REMARK    4  A    between atoms: C7_11  and  C8_12 
REMARK    5  A    between atoms: C8_12  and  C9_14 
REMARK    6  A    between atoms: C11_18  and  O2_19 
ROOT
HETATM    1  C2  UNL     1      -2.777  -1.443   0.027  1.00  0.00     0.077 C 
HETATM    2  C3  UNL     1      -2.597  -2.731  -0.320  1.00  0.00     0.064 C 
HETATM    3  C4  UNL     1      -1.666  -2.462  -1.449  1.00  0.00     0.042 C 
HETATM    4  N1  UNL     1      -0.481  -2.253  -1.910  1.00  0.00    -0.246 NA
HETATM    5  C5  UNL     1       0.677  -2.220  -1.102  1.00  0.00     0.235 C 
HETATM    6  N2  UNL     1       1.647  -1.690  -0.483  1.00  0.00    -0.223 NA
HETATM    7  C6  UNL     1       1.978  -0.331  -0.405  1.00  0.00     0.140 C 
HETATM    8  C10 UNL     1       1.841   0.936  -0.806  1.00  0.00     0.135 C 
HETATM    9  N4  UNL     1       2.126   2.355  -0.789  1.00  0.00    -0.370 N 
HETATM   10  C11 UNL     1       1.251   2.947   0.242  1.00  0.00     0.217 C 
HETATM   11  C12 UNL     1      -0.146   2.593  -0.238  1.00  0.00     0.055 C 
HETATM   12  C13 UNL     1      -1.249   3.042   0.645  1.00  0.00     0.034 C 
HETATM   13  C14 UNL     1      -2.574   2.605  -0.008  1.00  0.00     0.270 C 
HETATM   14  N5  UNL     1      -2.611   1.203  -0.229  1.00  0.00     0.087 N 
HETATM   15  C15 UNL     1      -3.876   0.707  -0.803  1.00  0.00     0.310 C 
HETATM   16  C16 UNL     1      -3.587  -0.764  -1.003  1.00  0.00    -0.000 C 
HETATM   17  C17 UNL     1      -3.894  -1.652  -1.967  1.00  0.00    -0.009 C 
HETATM   18  C18 UNL     1      -2.723  -2.424  -2.515  1.00  0.00     0.087 C 
HETATM   19  H13 UNL     1       2.867   2.556  -1.507  1.00  0.00     0.161 HD
HETATM   20  H22 UNL     1      -1.898   0.856  -0.911  1.00  0.00     0.316 HD
ENDROOT
BRANCH   7  21
HETATM   21  N3  UNL     1       2.986  -0.212   0.631  1.00  0.00    -0.371 N 
HETATM   22  H6  UNL     1       2.385  -0.106   1.494  1.00  0.00     0.161 HD
BRANCH  21  23
HETATM   23  C7  UNL     1       4.253  -0.294  -0.057  1.00  0.00     0.159 C 
BRANCH  23  24
HETATM   24  C8  UNL     1       5.371  -0.188   0.949  1.00  0.00     0.201 C 
HETATM   25  F1  UNL     1       5.247   1.015   1.614  1.00  0.00    -0.247 F 
BRANCH  24  26
HETATM   26  C9  UNL     1       5.363  -1.382   1.854  1.00  0.00     0.153 C 
HETATM   27 CL1  UNL     1       3.894  -1.601   2.781  1.00  0.00    -0.128 Cl
ENDBRANCH  24  26
ENDBRANCH  23  24
ENDBRANCH  21  23
ENDBRANCH   7  21
BRANCH  10  28
HETATM   28  O2  UNL     1       1.540   2.513   1.507  1.00  0.00    -0.377 OA
HETATM   29  H15 UNL     1       0.796   2.173   2.030  1.00  0.00     0.212 HD
ENDBRANCH  10  28
BRANCH   1  30
HETATM   30  O1  UNL     1      -2.046  -1.574   1.203  1.00  0.00    -0.355 OA
HETATM   31  C1  UNL     1      -2.772  -1.770   2.428  1.00  0.00     0.210 C 
ENDBRANCH   1  30
TORSDOF 6
