REMARK  2 active torsions:
REMARK  status: ('A' for Active; 'I' for Inactive)
REMARK    1  A    between atoms: C7_7  and  C8_8 
REMARK    2  A    between atoms: C8_8  and  C9_9 
ROOT
HETATM    1  C9  UNL     1      -0.504  -0.087   0.230  1.00  0.00    -0.076 C 
HETATM    2  C10 UNL     1       0.291  -1.007  -0.327  1.00  0.00     0.003 C 
HETATM    3  C11 UNL     1       1.645  -1.137  -0.890  1.00  0.00     0.005 C 
HETATM    4  C12 UNL     1       2.743  -0.453  -0.528  1.00  0.00    -0.060 C 
HETATM    5  C13 UNL     1       3.760  -1.018  -1.435  1.00  0.00     0.139 C 
HETATM    6  N1  UNL     1       5.030  -1.253  -0.797  1.00  0.00    -0.257 NA
HETATM    7  N2  UNL     1       5.335  -0.349   0.202  1.00  0.00    -0.260 NA
HETATM    8  C14 UNL     1       4.613   0.921   0.023  1.00  0.00     0.113 C 
HETATM    9  C15 UNL     1       3.168   0.586   0.418  1.00  0.00     0.030 C 
HETATM   10  C16 UNL     1       2.254   1.760   0.312  1.00  0.00     0.010 C 
HETATM   11  C17 UNL     1       1.092   1.509   1.271  1.00  0.00     0.005 C 
HETATM   12  C18 UNL     1      -0.185   1.311   0.487  1.00  0.00     0.034 C 
HETATM   13  H14 UNL     1       5.081  -2.211  -0.357  1.00  0.00     0.141 HD
HETATM   14  H15 UNL     1       5.073  -0.680   1.162  1.00  0.00     0.140 HD
ENDROOT
BRANCH   1  15
HETATM   15  C8  UNL     1      -1.795  -0.679   0.576  1.00  0.00     0.073 C 
BRANCH  15  16
HETATM   16  C7  UNL     1      -2.975  -0.124  -0.071  1.00  0.00    -0.048 A 
HETATM   17  C2  UNL     1      -4.161  -0.744   0.347  1.00  0.00    -0.055 A 
HETATM   18  C1  UNL     1      -4.180  -1.862   1.359  1.00  0.00     0.049 C 
HETATM   19  C3  UNL     1      -5.378  -0.311  -0.195  1.00  0.00     0.007 A 
HETATM   20  C4  UNL     1      -5.479   0.697  -1.124  1.00  0.00     0.001 A 
HETATM   21  C5  UNL     1      -4.308   1.300  -1.530  1.00  0.00     0.001 A 
HETATM   22  C6  UNL     1      -3.125   0.880  -1.003  1.00  0.00     0.008 A 
ENDBRANCH  15  16
ENDBRANCH   1  15
TORSDOF 2
