REMARK  8 active torsions:
REMARK  status: ('A' for Active; 'I' for Inactive)
REMARK    1  A    between atoms: N1_2  and  C2_3 
REMARK    2  A    between atoms: C2_3  and  C3_4 
REMARK    3  A    between atoms: C3_4  and  C4_5 
REMARK    4  A    between atoms: C4_5  and  C5_6 
REMARK    5  A    between atoms: C5_6  and  C6_8 
REMARK    6  A    between atoms: C9_11  and  O2_12 
REMARK    7  A    between atoms: O2_12  and  C10_13 
REMARK    8  A    between atoms: C10_13  and  C11_14 
ROOT
HETATM    1  C6  UNL     1       1.284  -0.249  -0.451  1.00  0.00     0.010 A 
HETATM    2  C7  UNL     1       0.476  -0.513   0.651  1.00  0.00     0.018 A 
HETATM    3  C8  UNL     1      -0.895  -0.440   0.682  1.00  0.00     0.037 A 
HETATM    4  C9  UNL     1      -1.546  -0.066  -0.503  1.00  0.00     0.069 A 
HETATM    5  C17 UNL     1      -0.831   0.212  -1.639  1.00  0.00     0.037 A 
HETATM    6  C18 UNL     1       0.523   0.110  -1.562  1.00  0.00     0.018 A 
ENDROOT
BRANCH   1   7
HETATM    7  C5  UNL     1       2.745  -0.334  -0.448  1.00  0.00     0.159 C 
HETATM    8  O1  UNL     1       3.235  -0.046  -1.596  1.00  0.00    -0.292 OA
BRANCH   7   9
HETATM    9  C4  UNL     1       3.303  -0.728   0.868  1.00  0.00     0.085 C 
BRANCH   9  10
HETATM   10  C3  UNL     1       4.803  -0.713   0.790  1.00  0.00     0.038 C 
BRANCH  10  11
HETATM   11  C2  UNL     1       5.279   0.654   0.490  1.00  0.00     0.269 C 
BRANCH  11  12
HETATM   12  N1  UNL     1       6.714   0.780   0.400  1.00  0.00     0.079 N 
HETATM   13  C1  UNL     1       7.426   0.608   1.620  1.00  0.00     0.306 C 
HETATM   14  H4  UNL     1       6.901   1.773   0.069  1.00  0.00     0.315 HD
ENDBRANCH  11  12
ENDBRANCH  10  11
ENDBRANCH   9  10
ENDBRANCH   7   9
ENDBRANCH   1   7
BRANCH   4  15
HETATM   15  O2  UNL     1      -2.928  -0.025  -0.360  1.00  0.00    -0.347 OA
BRANCH  15  16
HETATM   16  C10 UNL     1      -3.812   0.320  -1.394  1.00  0.00     0.214 C 
BRANCH  16  17
HETATM   17  C11 UNL     1      -5.199   0.243  -0.831  1.00  0.00    -0.034 A 
HETATM   18  C12 UNL     1      -5.892   1.255  -0.216  1.00  0.00     0.009 A 
HETATM   19  C13 UNL     1      -7.159   1.073   0.264  1.00  0.00     0.001 A 
HETATM   20  C14 UNL     1      -7.737  -0.176   0.113  1.00  0.00     0.000 A 
HETATM   21  C15 UNL     1      -7.061  -1.219  -0.505  1.00  0.00     0.001 A 
HETATM   22  C16 UNL     1      -5.785  -0.994  -0.975  1.00  0.00     0.009 A 
ENDBRANCH  16  17
ENDBRANCH  15  16
ENDBRANCH   4  15
TORSDOF 8
