REMARK  7 active torsions:
REMARK  status: ('A' for Active; 'I' for Inactive)
REMARK    1  A    between atoms: C2_2  and  C3_3 
REMARK    2  A    between atoms: C2_2  and  C15_17 
REMARK    3  A    between atoms: C3_3  and  C4_4 
REMARK    4  A    between atoms: C5_5  and  O1_6 
REMARK    5  A    between atoms: O1_6  and  C6_7 
REMARK    6  A    between atoms: C6_7  and  C7_8 
REMARK    7  A    between atoms: C7_8  and  C8_9 
ROOT
HETATM    1  C4  UNL     1      -0.304   0.150  -1.682  1.00  0.00    -0.024 A 
HETATM    2  C5  UNL     1       0.906  -0.403  -1.818  1.00  0.00     0.075 A 
HETATM    3  C13 UNL     1       0.825  -0.279  -3.268  1.00  0.00     0.038 A 
HETATM    4  C14 UNL     1      -0.373   0.269  -3.136  1.00  0.00     0.013 A 
ENDROOT
BRANCH   1   5
HETATM    5  C3  UNL     1      -1.330   0.565  -0.662  1.00  0.00     0.054 C 
BRANCH   5   6
HETATM    6  C2  UNL     1      -2.556  -0.219  -0.983  1.00  0.00     0.001 C 
HETATM    7  C1  UNL     1      -2.169  -0.941  -2.048  1.00  0.00     0.014 C 
BRANCH   6   8
HETATM    8  C15 UNL     1      -3.833  -0.144  -0.244  1.00  0.00     0.159 C 
HETATM    9  N1  UNL     1      -4.553   1.069  -0.380  1.00  0.00    -0.395 N 
HETATM   10  C16 UNL     1      -4.680   1.878   0.792  1.00  0.00     0.233 C 
HETATM   11  H17 UNL     1      -5.403   1.019  -0.978  1.00  0.00     0.155 HD
HETATM   12  N2  UNL     1      -5.114   1.209   1.970  1.00  0.00    -0.400 N 
HETATM   13  C17 UNL     1      -4.970  -0.225   1.946  1.00  0.00     0.196 C 
HETATM   14  H20 UNL     1      -6.005   1.519   2.373  1.00  0.00     0.155 HD
HETATM   15  C18 UNL     1      -3.705  -0.517   1.198  1.00  0.00     0.167 C 
HETATM   16  O2  UNL     1      -2.685  -1.004   1.709  1.00  0.00    -0.294 OA
ENDBRANCH   6   8
ENDBRANCH   5   6
ENDBRANCH   1   5
BRANCH   2  17
HETATM   17  O1  UNL     1       1.890  -0.908  -0.994  1.00  0.00    -0.350 OA
BRANCH  17  18
HETATM   18  C6  UNL     1       1.756  -1.193   0.361  1.00  0.00     0.180 C 
BRANCH  18  19
HETATM   19  C7  UNL     1       2.999  -1.740   1.021  1.00  0.00     0.072 C 
BRANCH  19  20
HETATM   20  C8  UNL     1       4.112  -0.769   0.912  1.00  0.00    -0.020 A 
HETATM   21  C9  UNL     1       5.194  -1.184   0.272  1.00  0.00     0.014 A 
HETATM   22  C10 UNL     1       6.329  -0.286   0.126  1.00  0.00    -0.002 A 
HETATM   23  C11 UNL     1       6.357   0.950   0.600  1.00  0.00    -0.016 A 
HETATM   24  C12 UNL     1       5.413   1.791   1.347  1.00  0.00     0.106 A 
HETATM   25  S1  UNL     1       3.896   0.846   1.644  1.00  0.00    -0.131 SA
ENDBRANCH  19  20
ENDBRANCH  18  19
ENDBRANCH  17  18
ENDBRANCH   2  17
TORSDOF 7
