REMARK  5 active torsions:
REMARK  status: ('A' for Active; 'I' for Inactive)
REMARK    1  A    between atoms: N1_2  and  C3_4 
REMARK    2  A    between atoms: C3_4  and  C4_5 
REMARK    3  A    between atoms: C4_5  and  C5_6 
REMARK    4  A    between atoms: C5_6  and  C6_7 
REMARK    5  A    between atoms: C6_7  and  C7_9 
ROOT
HETATM    1  C7  UNL     1       0.093   0.495  -1.293  1.00  0.00     0.021 C 
HETATM    2  C8  UNL     1       0.327   1.301  -2.235  1.00  0.00    -0.011 C 
HETATM    3  C9  UNL     1       1.484   1.825  -2.295  1.00  0.00     0.010 C 
HETATM    4  C10 UNL     1       2.676   1.211  -1.995  1.00  0.00     0.002 C 
HETATM    5  C11 UNL     1       3.883   0.590  -1.770  1.00  0.00     0.004 C 
HETATM    6  C12 UNL     1       5.041  -0.015  -1.040  1.00  0.00     0.030 C 
HETATM    7  C13 UNL     1       5.043  -0.076   0.257  1.00  0.00     0.001 C 
HETATM    8  C14 UNL     1       5.814  -0.491   1.381  1.00  0.00    -0.002 C 
HETATM    9  C15 UNL     1       4.810  -0.122   2.248  1.00  0.00     0.131 C 
HETATM   10  O2  UNL     1       3.548   0.429   1.850  1.00  0.00    -0.360 OA
HETATM   11  C16 UNL     1       2.413  -0.379   1.946  1.00  0.00     0.202 C 
HETATM   12  C17 UNL     1       1.358  -0.356   0.973  1.00  0.00     0.000 C 
HETATM   13  C18 UNL     1       0.775   0.080  -0.129  1.00  0.00     0.014 C 
ENDROOT
BRANCH   1  14
HETATM   14  C6  UNL     1      -0.990  -0.374  -1.039  1.00  0.00     0.160 C 
HETATM   15  O1  UNL     1      -1.165  -1.161  -0.083  1.00  0.00    -0.292 OA
BRANCH  14  16
HETATM   16  C5  UNL     1      -2.274  -0.882  -1.478  1.00  0.00     0.085 C 
BRANCH  16  17
HETATM   17  C4  UNL     1      -3.067  -1.590  -0.430  1.00  0.00     0.038 C 
BRANCH  17  18
HETATM   18  C3  UNL     1      -3.435  -0.726   0.749  1.00  0.00     0.271 C 
BRANCH  18  19
HETATM   19  N1  UNL     1      -4.222   0.428   0.344  1.00  0.00     0.080 N 
HETATM   20  C1  UNL     1      -5.533   0.112  -0.112  1.00  0.00     0.309 C 
HETATM   21  C2  UNL     1      -4.338   1.302   1.489  1.00  0.00     0.309 C 
ENDBRANCH  18  19
ENDBRANCH  17  18
ENDBRANCH  16  17
ENDBRANCH  14  16
ENDBRANCH   1  14
TORSDOF 5
