REMARK  7 active torsions:
REMARK  status: ('A' for Active; 'I' for Inactive)
REMARK    1  A    between atoms: N1_2  and  C3_4 
REMARK    2  A    between atoms: C3_4  and  C4_5 
REMARK    3  A    between atoms: C4_5  and  C5_6 
REMARK    4  A    between atoms: C5_6  and  C6_8 
REMARK    5  A    between atoms: C9_11  and  O2_12 
REMARK    6  A    between atoms: O2_12  and  C10_13 
REMARK    7  A    between atoms: C10_13  and  C11_14 
ROOT
HETATM    1  C6  UNL     1      -1.268   0.098   0.392  1.00  0.00     0.010 A 
HETATM    2  C7  UNL     1      -0.663   0.695  -0.719  1.00  0.00     0.018 A 
HETATM    3  C8  UNL     1       0.673   0.720  -0.995  1.00  0.00     0.037 A 
HETATM    4  C9  UNL     1       1.512   0.109  -0.114  1.00  0.00     0.069 A 
HETATM    5  C17 UNL     1       1.044  -0.515   1.017  1.00  0.00     0.037 A 
HETATM    6  C18 UNL     1      -0.311  -0.497   1.225  1.00  0.00     0.018 A 
ENDROOT
BRANCH   4   7
HETATM    7  O2  UNL     1       2.888   0.085  -0.312  1.00  0.00    -0.347 OA
BRANCH   7   8
HETATM    8  C10 UNL     1       3.788  -0.524   0.561  1.00  0.00     0.214 C 
BRANCH   8   9
HETATM    9  C11 UNL     1       5.163  -0.345   0.026  1.00  0.00    -0.034 A 
HETATM   10  C12 UNL     1       5.781   0.828   0.474  1.00  0.00     0.009 A 
HETATM   11  C13 UNL     1       7.067   1.077   0.028  1.00  0.00     0.001 A 
HETATM   12  C14 UNL     1       7.725   0.224  -0.818  1.00  0.00     0.000 A 
HETATM   13  C15 UNL     1       7.096  -0.943  -1.257  1.00  0.00     0.001 A 
HETATM   14  C16 UNL     1       5.817  -1.201  -0.820  1.00  0.00     0.009 A 
ENDBRANCH   8   9
ENDBRANCH   7   8
ENDBRANCH   4   7
BRANCH   1  15
HETATM   15  C5  UNL     1      -2.723   0.091   0.680  1.00  0.00     0.161 C 
HETATM   16  O1  UNL     1      -2.961  -0.521   1.749  1.00  0.00    -0.292 OA
BRANCH  15  17
HETATM   17  C4  UNL     1      -3.468   0.809  -0.371  1.00  0.00     0.114 C 
BRANCH  17  18
HETATM   18  C3  UNL     1      -4.920   0.856  -0.131  1.00  0.00     0.279 C 
BRANCH  18  19
HETATM   19  N1  UNL     1      -5.706  -0.290  -0.083  1.00  0.00     0.080 N 
HETATM   20  C1  UNL     1      -5.643  -1.243   0.936  1.00  0.00     0.309 C 
HETATM   21  C2  UNL     1      -7.100   0.109  -0.302  1.00  0.00     0.309 C 
ENDBRANCH  18  19
ENDBRANCH  17  18
ENDBRANCH  15  17
ENDBRANCH   1  15
TORSDOF 7
