REMARK  0 active torsions:
REMARK  status: ('A' for Active; 'I' for Inactive)
ROOT
HETATM    1  O1  UNL     1      -3.806   0.230   1.673  1.00  0.00    -0.298 OA
HETATM    2  C1  UNL     1      -3.548  -0.128   0.501  1.00  0.00     0.130 C 
HETATM    3  C2  UNL     1      -3.564   1.031  -0.461  1.00  0.00     0.105 C 
HETATM    4  C3  UNL     1      -2.107   1.407  -0.709  1.00  0.00    -0.021 C 
HETATM    5  C4  UNL     1      -1.079   1.579  -1.517  1.00  0.00    -0.004 C 
HETATM    6  C5  UNL     1       0.298   2.022  -1.072  1.00  0.00     0.202 C 
HETATM    7  O2  UNL     1       1.214   0.976  -1.425  1.00  0.00    -0.351 OA
HETATM    8  C6  UNL     1       2.136   0.504  -0.494  1.00  0.00     0.053 C 
HETATM    9  C7  UNL     1       1.605  -0.599  -0.054  1.00  0.00    -0.042 C 
HETATM   10  C8  UNL     1       0.293  -0.996  -0.625  1.00  0.00     0.030 C 
HETATM   11  C9  UNL     1      -0.513  -2.088  -0.692  1.00  0.00    -0.001 C 
HETATM   12  C10 UNL     1      -1.807  -2.028  -1.406  1.00  0.00     0.006 C 
HETATM   13  C11 UNL     1      -3.020  -2.336  -0.620  1.00  0.00     0.008 C 
HETATM   14  C12 UNL     1      -3.334  -1.565   0.595  1.00  0.00     0.078 C 
HETATM   15  C13 UNL     1       2.458  -1.253   0.987  1.00  0.00     0.064 C 
HETATM   16  C14 UNL     1       2.654  -0.433   2.193  1.00  0.00    -0.022 C 
HETATM   17  C15 UNL     1       3.233   0.699   2.537  1.00  0.00    -0.004 C 
HETATM   18  C16 UNL     1       3.984   1.647   1.690  1.00  0.00    -0.004 C 
HETATM   19  C17 UNL     1       3.853   2.005   0.403  1.00  0.00    -0.020 C 
HETATM   20  C18 UNL     1       2.986   1.709  -0.804  1.00  0.00     0.092 C 
ENDROOT
TORSDOF 0
