REMARK  7 active torsions:
REMARK  status: ('A' for Active; 'I' for Inactive)
REMARK    1  A    between atoms: N1_2  and  C3_4 
REMARK    2  A    between atoms: C3_4  and  C4_5 
REMARK    3  A    between atoms: C4_5  and  C5_6 
REMARK    4  A    between atoms: C5_6  and  C6_7 
REMARK    5  A    between atoms: C10_11  and  O1_12 
REMARK    6  A    between atoms: O1_12  and  C11_13 
REMARK    7  A    between atoms: C11_13  and  C12_14 
ROOT
HETATM    1  C6  UNL     1       2.367   2.101  -0.172  1.00  0.00     0.030 C 
HETATM    2  C7  UNL     1       2.231   1.208  -1.334  1.00  0.00    -0.018 C 
HETATM    3  C8  UNL     1       1.330   0.332  -1.746  1.00  0.00    -0.001 C 
HETATM    4  C9  UNL     1       0.103   0.077  -0.954  1.00  0.00     0.036 C 
HETATM    5  C10 UNL     1      -0.571   0.973  -0.204  1.00  0.00     0.068 C 
HETATM    6  C17 UNL     1      -0.213   2.401  -0.024  1.00  0.00     0.033 C 
HETATM    7  C18 UNL     1       1.042   2.822  -0.019  1.00  0.00    -0.015 C 
ENDROOT
BRANCH   5   8
HETATM    8  O1  UNL     1      -1.714   0.536   0.473  1.00  0.00    -0.347 OA
BRANCH   8   9
HETATM    9  C11 UNL     1      -2.942   1.004  -0.011  1.00  0.00     0.205 C 
BRANCH   9  10
HETATM   10  C12 UNL     1      -4.095   0.491   0.764  1.00  0.00     0.030 C 
HETATM   11  C13 UNL     1      -5.148  -0.235   0.438  1.00  0.00     0.041 C 
HETATM   12  C14 UNL     1      -6.200  -0.642   1.388  1.00  0.00     0.027 C 
HETATM   13  N3  UNL     1      -5.325  -0.684  -0.922  1.00  0.00    -0.321 N 
HETATM   14  C15 UNL     1      -7.165  -1.359   0.883  1.00  0.00    -0.009 C 
HETATM   15  C16 UNL     1      -7.297  -1.794  -0.529  1.00  0.00     0.137 C 
HETATM   16  N2  UNL     1      -5.979  -1.903  -1.130  1.00  0.00    -0.237 NA
HETATM   17  H24 UNL     1      -5.390  -2.646  -0.741  1.00  0.00     0.146 HD
HETATM   18  H25 UNL     1      -4.949  -0.065  -1.700  1.00  0.00     0.180 HD
ENDBRANCH   9  10
ENDBRANCH   8   9
ENDBRANCH   5   8
BRANCH   1  19
HETATM   19  C5  UNL     1       2.570   1.320   1.074  1.00  0.00     0.014 C 
BRANCH  19  20
HETATM   20  C4  UNL     1       3.743   0.437   1.190  1.00  0.00     0.031 C 
BRANCH  20  21
HETATM   21  C3  UNL     1       3.888  -0.687   0.234  1.00  0.00     0.271 C 
BRANCH  21  22
HETATM   22  N1  UNL     1       5.103  -1.446   0.537  1.00  0.00     0.080 N 
HETATM   23  C1  UNL     1       5.239  -2.555  -0.412  1.00  0.00     0.309 C 
HETATM   24  C2  UNL     1       6.289  -0.622   0.407  1.00  0.00     0.309 C 
ENDBRANCH  21  22
ENDBRANCH  20  21
ENDBRANCH  19  20
ENDBRANCH   1  19
TORSDOF 7
