REMARK  9 active torsions:
REMARK  status: ('A' for Active; 'I' for Inactive)
REMARK    1  A    between atoms: C2_2  and  C3_3 
REMARK    2  A    between atoms: C2_2  and  C12_15 
REMARK    3  A    between atoms: C4_4  and  C5_5 
REMARK    4  A    between atoms: C5_5  and  C6_6 
REMARK    5  A    between atoms: C6_6  and  C7_8 
REMARK    6  A    between atoms: C7_8  and  C8_9 
REMARK    7  A    between atoms: C8_9  and  N1_10 
REMARK    8  A    between atoms: N1_10  and  C10_12 
REMARK    9  A    between atoms: C12_15  and  C13_16 
ROOT
HETATM    1  C3  UNL     1      -0.990  -0.758   1.725  1.00  0.00    -0.001 C 
HETATM    2  C4  UNL     1       0.217  -0.260   1.851  1.00  0.00    -0.019 C 
ENDROOT
BRANCH   1   3
HETATM    3  C2  UNL     1      -2.241  -0.787   0.995  1.00  0.00    -0.076 C 
HETATM    4  C1  UNL     1      -3.467  -1.203   0.756  1.00  0.00     0.039 C 
BRANCH   3   5
HETATM    5  C12 UNL     1      -2.457   0.071  -0.197  1.00  0.00     0.073 C 
BRANCH   5   6
HETATM    6  C13 UNL     1      -3.814  -0.120  -0.770  1.00  0.00    -0.048 A 
HETATM    7  C14 UNL     1      -4.025  -0.890  -1.916  1.00  0.00     0.008 A 
HETATM    8  C15 UNL     1      -5.317  -1.024  -2.380  1.00  0.00     0.001 A 
HETATM    9  C16 UNL     1      -6.391  -0.426  -1.750  1.00  0.00     0.001 A 
HETATM   10  C17 UNL     1      -6.172   0.344  -0.602  1.00  0.00     0.007 A 
HETATM   11  C18 UNL     1      -4.880   0.479  -0.138  1.00  0.00    -0.055 A 
HETATM   12  C19 UNL     1      -4.806   1.327   1.080  1.00  0.00     0.049 C 
ENDBRANCH   5   6
ENDBRANCH   3   5
ENDBRANCH   1   3
BRANCH   2  13
HETATM   13  C5  UNL     1       0.821   0.761   0.965  1.00  0.00     0.105 C 
BRANCH  13  14
HETATM   14  C6  UNL     1       2.052   0.270   0.307  1.00  0.00     0.132 C 
HETATM   15  O1  UNL     1       2.365  -0.891   0.602  1.00  0.00    -0.298 OA
BRANCH  14  16
HETATM   16  C7  UNL     1       2.823   1.134  -0.626  1.00  0.00     0.109 C 
BRANCH  16  17
HETATM   17  C8  UNL     1       4.042   0.361  -1.147  1.00  0.00     0.282 C 
BRANCH  17  18
HETATM   18  N1  UNL     1       4.835   0.011  -0.016  1.00  0.00     0.115 N 
HETATM   19  C9  UNL     1       5.433   1.153   0.596  1.00  0.00     0.313 C 
BRANCH  18  20
HETATM   20  C10 UNL     1       5.784  -1.034  -0.201  1.00  0.00     0.382 A 
HETATM   21  C11 UNL     1       6.875  -1.094  -1.111  1.00  0.00     0.234 A 
HETATM   22  O2  UNL     1       7.089  -0.784   0.346  1.00  0.00    -0.351 OA
ENDBRANCH  18  20
ENDBRANCH  17  18
ENDBRANCH  16  17
ENDBRANCH  14  16
ENDBRANCH  13  14
ENDBRANCH   2  13
TORSDOF 9
