REMARK  6 active torsions:
REMARK  status: ('A' for Active; 'I' for Inactive)
REMARK    1  A    between atoms: C1_2  and  C2_3 
REMARK    2  A    between atoms: C1_2  and  C8_11 
REMARK    3  A    between atoms: C2_3  and  C3_4 
REMARK    4  A    between atoms: C3_4  and  N1_5 
REMARK    5  A    between atoms: C11_14  and  C12_15 
REMARK    6  A    between atoms: C12_15  and  C13_16 
ROOT
HETATM    1  C8  UNL     1      -0.063  -0.272   0.153  1.00  0.00     0.010 A 
HETATM    2  C9  UNL     1       0.725   0.020  -0.941  1.00  0.00     0.015 A 
HETATM    3  C10 UNL     1       1.946   0.651  -0.864  1.00  0.00     0.008 A 
HETATM    4  C11 UNL     1       2.441   1.029   0.367  1.00  0.00    -0.054 A 
HETATM    5  C19 UNL     1       1.685   0.756   1.487  1.00  0.00     0.008 A 
HETATM    6  C20 UNL     1       0.447   0.113   1.376  1.00  0.00     0.015 A 
ENDROOT
BRANCH   1   7
HETATM    7  C1  UNL     1      -1.359  -0.937   0.110  1.00  0.00     0.161 C 
HETATM    8  O1  UNL     1      -2.010  -1.160   1.160  1.00  0.00    -0.292 OA
BRANCH   7   9
HETATM    9  C2  UNL     1      -1.994  -1.391  -1.144  1.00  0.00     0.103 C 
BRANCH   9  10
HETATM   10  C3  UNL     1      -2.984  -0.342  -1.602  1.00  0.00     0.124 C 
BRANCH  10  11
HETATM   11  N1  UNL     1      -3.975  -0.159  -0.602  1.00  0.00    -0.408 N 
HETATM   12  C4  UNL     1      -4.882  -1.234  -0.384  1.00  0.00     0.143 C 
HETATM   13  C5  UNL     1      -5.520  -1.013   0.993  1.00  0.00     0.187 C 
HETATM   14  O2  UNL     1      -6.025   0.258   1.125  1.00  0.00    -0.388 OA
HETATM   15  C6  UNL     1      -5.970   1.012  -0.021  1.00  0.00     0.187 C 
HETATM   16  C7  UNL     1      -4.565   1.145  -0.569  1.00  0.00     0.143 C 
ENDBRANCH  10  11
ENDBRANCH   9  10
ENDBRANCH   7   9
ENDBRANCH   1   7
BRANCH   4  17
HETATM   17  C12 UNL     1       3.761   1.708   0.391  1.00  0.00     0.077 C 
BRANCH  17  18
HETATM   18  C13 UNL     1       4.906   0.805   0.515  1.00  0.00    -0.054 A 
HETATM   19  C14 UNL     1       5.466   0.326  -0.672  1.00  0.00     0.007 A 
HETATM   20  C15 UNL     1       6.545  -0.528  -0.687  1.00  0.00     0.001 A 
HETATM   21  C16 UNL     1       7.100  -0.931   0.521  1.00  0.00     0.000 A 
HETATM   22  C17 UNL     1       6.549  -0.460   1.692  1.00  0.00     0.001 A 
HETATM   23  C18 UNL     1       5.469   0.395   1.710  1.00  0.00     0.007 A 
ENDBRANCH  17  18
ENDBRANCH   4  17
TORSDOF 6
