REMARK  11 active torsions:
REMARK  status: ('A' for Active; 'I' for Inactive)
REMARK    1  A    between atoms: C2_2  and  C3_3 
REMARK    2  A    between atoms: C2_2  and  C4_5 
REMARK    3  A    between atoms: C3_3  and  N1_4 
REMARK    4  A    between atoms: C4_5  and  C5_6 
REMARK    5  A    between atoms: C5_6  and  C6_7 
REMARK    6  A    between atoms: C6_7  and  C7_8 
REMARK    7  A    between atoms: C7_8  and  C8_9 
REMARK    8  A    between atoms: C10_11  and  O1_12 
REMARK    9  A    between atoms: O1_12  and  C11_13 
REMARK   10  A    between atoms: C11_13  and  C12_14 
REMARK   11  A    between atoms: C19_22  and  O2_23 
ROOT
HETATM    1  C8  UNL     1      -0.208   0.330   0.157  1.00  0.00    -0.045 A 
HETATM    2  C9  UNL     1       0.938  -0.174   0.585  1.00  0.00     0.042 A 
HETATM    3  C10 UNL     1       2.078   0.369  -0.174  1.00  0.00     0.068 A 
HETATM    4  C18 UNL     1       1.559   1.220  -1.073  1.00  0.00     0.045 A 
HETATM    5  C19 UNL     1       0.092   1.268  -0.944  1.00  0.00     0.173 A 
ENDROOT
BRANCH   1   6
HETATM    6  C7  UNL     1      -1.602   0.050   0.649  1.00  0.00     0.037 C 
BRANCH   6   7
HETATM    7  C6  UNL     1      -2.389  -0.501  -0.493  1.00  0.00     0.004 C 
BRANCH   7   8
HETATM    8  C5  UNL     1      -3.828  -0.833  -0.136  1.00  0.00     0.001 C 
BRANCH   8   9
HETATM    9  C4  UNL     1      -4.533   0.386   0.327  1.00  0.00     0.006 C 
BRANCH   9  10
HETATM   10  C2  UNL     1      -5.958   0.239   0.722  1.00  0.00     0.009 C 
HETATM   11  C1  UNL     1      -6.417   1.645   1.150  1.00  0.00     0.011 C 
BRANCH  10  12
HETATM   12  C3  UNL     1      -6.897  -0.223  -0.339  1.00  0.00     0.270 C 
BRANCH  12  13
HETATM   13  N1  UNL     1      -6.586  -1.550  -0.840  1.00  0.00     0.078 N 
HETATM   14  H7  UNL     1      -7.446  -1.907  -1.311  1.00  0.00     0.312 HD
HETATM   15  H8  UNL     1      -6.272  -2.194  -0.111  1.00  0.00     0.312 HD
ENDBRANCH  12  13
ENDBRANCH  10  12
ENDBRANCH   9  10
ENDBRANCH   8   9
ENDBRANCH   7   8
ENDBRANCH   6   7
ENDBRANCH   1   6
BRANCH   5  16
HETATM   16  O2  UNL     1      -0.293   2.566  -0.644  1.00  0.00    -0.387 OA
HETATM   17  H28 UNL     1      -0.019   2.834   0.270  1.00  0.00     0.210 HD
ENDBRANCH   5  16
BRANCH   3  18
HETATM   18  O1  UNL     1       3.423   0.051   0.019  1.00  0.00    -0.348 OA
BRANCH  18  19
HETATM   19  C11 UNL     1       3.709  -1.197   0.610  1.00  0.00     0.202 C 
BRANCH  19  20
HETATM   20  C12 UNL     1       5.132  -1.482   0.791  1.00  0.00    -0.006 C 
HETATM   21  C13 UNL     1       6.281  -0.904   0.559  1.00  0.00    -0.099 A 
HETATM   22  B1  UNL     1       7.665  -1.572   0.916  1.00  0.00     0.218 B 
HETATM   23  C17 UNL     1       6.408   0.415  -0.051  1.00  0.00    -0.005 A 
HETATM   24  C14 UNL     1       8.914  -0.714   0.558  1.00  0.00    -0.077 A 
HETATM   25  H21 UNL     1       7.688  -2.651   1.363  1.00  0.00    -0.016 HD
HETATM   26  C15 UNL     1       8.853   0.482  -0.001  1.00  0.00    -0.015 A 
HETATM   27  C16 UNL     1       7.543   1.043  -0.306  1.00  0.00    -0.002 A 
ENDBRANCH  19  20
ENDBRANCH  18  19
ENDBRANCH   3  18
TORSDOF 11
