REMARK  10 active torsions:
REMARK  status: ('A' for Active; 'I' for Inactive)
REMARK    1  A    between atoms: B1_1  and  C1_2 
REMARK    2  A    between atoms: C1_2  and  N1_3 
REMARK    3  A    between atoms: N1_3  and  C3_5 
REMARK    4  A    between atoms: C3_5  and  C4_6 
REMARK    5  A    between atoms: C4_6  and  C5_7 
REMARK    6  A    between atoms: C5_7  and  C6_8 
REMARK    7  A    between atoms: C6_8  and  C7_10 
REMARK    8  A    between atoms: C10_13  and  O2_14 
REMARK    9  A    between atoms: O2_14  and  C11_15 
REMARK   10  A    between atoms: C11_15  and  C12_16 
ROOT
HETATM    1  C7  UNL     1      -0.923  -0.305   1.278  1.00  0.00     0.010 A 
HETATM    2  C8  UNL     1      -0.347  -1.555   1.259  1.00  0.00     0.018 A 
HETATM    3  C9  UNL     1       1.000  -1.669   0.894  1.00  0.00     0.037 A 
HETATM    4  C10 UNL     1       1.720  -0.550   0.563  1.00  0.00     0.069 A 
HETATM    5  C18 UNL     1       1.175   0.737   0.568  1.00  0.00     0.037 A 
HETATM    6  C19 UNL     1      -0.140   0.767   0.934  1.00  0.00     0.018 A 
ENDROOT
BRANCH   1   7
HETATM    7  C6  UNL     1      -2.305  -0.221   1.677  1.00  0.00     0.159 C 
HETATM    8  O1  UNL     1      -2.758  -1.369   2.030  1.00  0.00    -0.292 OA
BRANCH   7   9
HETATM    9  C5  UNL     1      -3.424   0.678   1.842  1.00  0.00     0.085 C 
BRANCH   9  10
HETATM   10  C4  UNL     1      -3.558   1.737   0.803  1.00  0.00     0.038 C 
BRANCH  10  11
HETATM   11  C3  UNL     1      -3.712   1.259  -0.573  1.00  0.00     0.271 C 
BRANCH  11  12
HETATM   12  N1  UNL     1      -4.805   0.462  -0.967  1.00  0.00     0.075 NA
HETATM   13  C2  UNL     1      -6.051   1.189  -0.637  1.00  0.00     0.308 C 
BRANCH  12  14
HETATM   14  C1  UNL     1      -4.895  -0.892  -0.592  1.00  0.00     0.204 C 
BRANCH  14  15
HETATM   15  B1  UNL     1      -3.643  -1.759  -1.107  1.00  0.00     0.171 B 
HETATM   16  H1  UNL     1      -3.068  -1.461  -2.083  1.00  0.00    -0.030 HD
HETATM   17  H2  UNL     1      -3.709  -2.912  -0.775  1.00  0.00    -0.030 HD
ENDBRANCH  14  15
ENDBRANCH  12  14
ENDBRANCH  11  12
ENDBRANCH  10  11
ENDBRANCH   9  10
ENDBRANCH   7   9
ENDBRANCH   1   7
BRANCH   4  18
HETATM   18  O2  UNL     1       3.047  -0.734   0.212  1.00  0.00    -0.347 OA
BRANCH  18  19
HETATM   19  C11 UNL     1       3.827   0.369  -0.133  1.00  0.00     0.214 C 
BRANCH  19  20
HETATM   20  C12 UNL     1       5.211  -0.019  -0.478  1.00  0.00    -0.034 A 
HETATM   21  C13 UNL     1       6.165  -0.077   0.504  1.00  0.00     0.009 A 
HETATM   22  C14 UNL     1       7.506  -0.421   0.351  1.00  0.00     0.001 A 
HETATM   23  C15 UNL     1       7.873  -0.729  -0.947  1.00  0.00     0.000 A 
HETATM   24  C16 UNL     1       6.966  -0.691  -1.978  1.00  0.00     0.001 A 
HETATM   25  C17 UNL     1       5.628  -0.337  -1.766  1.00  0.00     0.009 A 
ENDBRANCH  19  20
ENDBRANCH  18  19
ENDBRANCH   4  18
TORSDOF 10
