REMARK  6 active torsions:
REMARK  status: ('A' for Active; 'I' for Inactive)
REMARK    1  A    between atoms: C1_2  and  C2_3 
REMARK    2  A    between atoms: C1_2  and  C7_10 
REMARK    3  A    between atoms: C2_3  and  N1_4 
REMARK    4  A    between atoms: C10_13  and  O3_14 
REMARK    5  A    between atoms: O3_14  and  C11_15 
REMARK    6  A    between atoms: C11_15  and  C12_16 
ROOT
HETATM    1  C7  UNL     1      -0.701  -0.284   0.702  1.00  0.00     0.011 A 
HETATM    2  C8  UNL     1       0.052  -0.778  -0.324  1.00  0.00     0.018 A 
HETATM    3  C9  UNL     1       1.347  -1.154  -0.088  1.00  0.00     0.038 A 
HETATM    4  C10 UNL     1       1.983  -1.078   1.120  1.00  0.00     0.069 A 
HETATM    5  C18 UNL     1       1.190  -0.570   2.149  1.00  0.00     0.038 A 
HETATM    6  C19 UNL     1      -0.132  -0.174   1.965  1.00  0.00     0.018 A 
ENDROOT
BRANCH   1   7
HETATM    7  C1  UNL     1      -2.084   0.119   0.468  1.00  0.00     0.176 C 
HETATM    8  O1  UNL     1      -2.813   0.589   1.389  1.00  0.00    -0.291 OA
BRANCH   7   9
HETATM    9  C2  UNL     1      -2.683  -0.012  -0.871  1.00  0.00     0.200 C 
BRANCH   9  10
HETATM   10  N1  UNL     1      -4.038   0.446  -0.938  1.00  0.00    -0.401 N 
HETATM   11  C3  UNL     1      -4.215   1.840  -0.785  1.00  0.00     0.143 C 
HETATM   12  C4  UNL     1      -5.318   2.292   0.108  1.00  0.00     0.187 C 
HETATM   13  O2  UNL     1      -6.430   1.454   0.107  1.00  0.00    -0.388 OA
HETATM   14  C5  UNL     1      -6.088   0.143   0.426  1.00  0.00     0.187 C 
HETATM   15  C6  UNL     1      -5.037  -0.426  -0.457  1.00  0.00     0.143 C 
ENDBRANCH   9  10
ENDBRANCH   7   9
ENDBRANCH   1   7
BRANCH   4  16
HETATM   16  O3  UNL     1       3.189  -1.359   1.626  1.00  0.00    -0.347 OA
BRANCH  16  17
HETATM   17  C11 UNL     1       4.341  -1.860   1.090  1.00  0.00     0.214 C 
BRANCH  17  18
HETATM   18  C12 UNL     1       4.882  -0.991   0.030  1.00  0.00    -0.034 A 
HETATM   19  C13 UNL     1       5.679   0.059   0.509  1.00  0.00     0.009 A 
HETATM   20  C14 UNL     1       6.280   0.960  -0.339  1.00  0.00     0.001 A 
HETATM   21  C15 UNL     1       6.133   0.882  -1.708  1.00  0.00     0.000 A 
HETATM   22  C16 UNL     1       5.346  -0.152  -2.212  1.00  0.00     0.001 A 
HETATM   23  C17 UNL     1       4.765  -1.028  -1.335  1.00  0.00     0.009 A 
ENDBRANCH  17  18
ENDBRANCH  16  17
ENDBRANCH   4  16
TORSDOF 6
