REMARK  3 active torsions:
REMARK  status: ('A' for Active; 'I' for Inactive)
REMARK       I    between atoms: N1_2  and  C2_3 
REMARK    1  A    between atoms: C2_3  and  C3_5 
REMARK    2  A    between atoms: N2_9  and  C7_10 
REMARK    3  A    between atoms: C7_10  and  C8_11 
ROOT
HETATM    1  C8  UNL     1       0.763   1.363  -0.312  1.00  0.00    -0.044 C 
HETATM    2  C9  UNL     1       1.449   2.411  -0.138  1.00  0.00    -0.006 C 
HETATM    3  C10 UNL     1       2.869   2.017  -0.458  1.00  0.00     0.078 C 
HETATM    4  C11 UNL     1       3.573   1.745   0.823  1.00  0.00     0.103 C 
HETATM    5  N3  UNL     1       4.349   0.690   0.819  1.00  0.00    -0.262 NA
HETATM    6  C12 UNL     1       5.054   0.375   2.007  1.00  0.00     0.353 C 
HETATM    7  N4  UNL     1       5.058  -0.898   2.361  1.00  0.00    -0.228 NA
HETATM    8  C13 UNL     1       4.406  -1.766   1.576  1.00  0.00    -0.021 C 
HETATM    9  C14 UNL     1       3.856  -2.494   0.893  1.00  0.00    -0.079 C 
HETATM   10  C15 UNL     1       3.186  -3.346   0.065  1.00  0.00     0.110 C 
HETATM   11  C16 UNL     1       3.259  -4.451  -0.592  1.00  0.00     0.018 C 
HETATM   12  C17 UNL     1       1.874  -4.388  -1.178  1.00  0.00     0.066 C 
HETATM   13 CL1  UNL     1       1.399  -5.680  -2.260  1.00  0.00    -0.082 Cl
HETATM   14  C18 UNL     1       0.814  -3.525  -1.095  1.00  0.00     0.115 C 
HETATM   15  F1  UNL     1      -0.400  -3.663  -1.751  1.00  0.00    -0.209 F 
HETATM   16  C19 UNL     1       0.471  -2.344  -0.307  1.00  0.00     0.079 C 
HETATM   17  O2  UNL     1       0.275  -1.224  -1.190  1.00  0.00     0.000 OA
HETATM   18  C20 UNL     1       0.304   0.048  -0.681  1.00  0.00     0.064 A 
HETATM   19  S1  UNL     1       1.747  -0.394  -1.400  1.00  0.00    -0.201 SA
HETATM   20  C21 UNL     1       2.836   0.780  -1.314  1.00  0.00     0.129 C 
ENDROOT
BRANCH   1  21
HETATM   21  C7  UNL     1      -0.596   1.622   0.280  1.00  0.00     0.153 C 
BRANCH  21  22
HETATM   22  N2  UNL     1      -1.678   1.550  -0.601  1.00  0.00    -0.396 N 
HETATM   23  C3  UNL     1      -2.786   0.720  -0.383  1.00  0.00     0.172 C 
HETATM   24  C4  UNL     1      -3.840   1.219  -1.377  1.00  0.00     0.036 C 
HETATM   25  C5  UNL     1      -3.402   2.654  -1.647  1.00  0.00     0.022 C 
HETATM   26  C6  UNL     1      -1.872   2.495  -1.617  1.00  0.00     0.118 C 
BRANCH  23  27
HETATM   27  C2  UNL     1      -3.274   0.900   1.020  1.00  0.00     0.239 C 
HETATM   28  N1  UNL     1      -4.321  -0.012   1.414  1.00  0.00    -0.364 N 
HETATM   29  C1  UNL     1      -4.838   0.121   2.758  1.00  0.00     0.149 C 
HETATM   30  H4  UNL     1      -4.752  -0.765   0.830  1.00  0.00     0.161 HD
HETATM   31  O1  UNL     1      -2.976   1.690   1.962  1.00  0.00    -0.271 OA
ENDBRANCH  23  27
ENDBRANCH  21  22
ENDBRANCH   1  21
TORSDOF 3
