REMARK  3 active torsions:
REMARK  status: ('A' for Active; 'I' for Inactive)
REMARK    1  A    between atoms: C4_4  and  C5_5 
REMARK    2  A    between atoms: C5_5  and  O1_6 
REMARK    3  A    between atoms: O1_6  and  C6_7 
ROOT
HETATM    1  C6  UNL     1       0.934   0.919   0.622  1.00  0.00     0.146 C 
HETATM    2  C7  UNL     1      -0.043   0.078   0.848  1.00  0.00    -0.008 C 
HETATM    3  C8  UNL     1       0.271  -0.971   1.801  1.00  0.00     0.026 C 
HETATM    4  C9  UNL     1       0.691  -2.050   1.188  1.00  0.00    -0.021 C 
HETATM    5  C10 UNL     1       0.761  -2.011  -0.112  1.00  0.00     0.062 C 
HETATM    6  C11 UNL     1      -0.512  -2.168  -0.764  1.00  0.00     0.151 C 
HETATM    7  O2  UNL     1      -0.688  -1.807  -1.988  1.00  0.00    -0.293 OA
HETATM    8  C12 UNL     1      -1.920  -2.606  -0.712  1.00  0.00     0.102 C 
HETATM    9  C13 UNL     1      -2.844  -2.141  -1.751  1.00  0.00     0.125 C 
HETATM   10  N1  UNL     1      -3.220  -0.845  -1.988  1.00  0.00    -0.401 N 
HETATM   11  C14 UNL     1      -2.689  -0.191  -3.152  1.00  0.00     0.143 C 
HETATM   12  C15 UNL     1      -3.810   0.738  -3.645  1.00  0.00     0.187 C 
HETATM   13  O3  UNL     1      -3.968   1.689  -2.640  1.00  0.00    -0.387 OA
HETATM   14  C16 UNL     1      -4.376   1.151  -1.446  1.00  0.00     0.196 C 
HETATM   15  C17 UNL     1      -3.400   0.133  -0.938  1.00  0.00     0.126 C 
HETATM   16  C18 UNL     1      -2.055   0.833  -0.849  1.00  0.00     0.007 C 
HETATM   17  C19 UNL     1      -1.126   0.433  -0.018  1.00  0.00    -0.052 C 
HETATM   18  C20 UNL     1      -1.984   0.224   1.205  1.00  0.00     0.049 C 
ENDROOT
BRANCH   1  19
HETATM   19  O1  UNL     1       2.243   1.222   0.960  1.00  0.00    -0.358 OA
BRANCH  19  20
HETATM   20  C5  UNL     1       3.040   0.274   1.618  1.00  0.00     0.209 C 
BRANCH  20  21
HETATM   21  C4  UNL     1       4.390   0.818   1.978  1.00  0.00    -0.051 A 
HETATM   22  C3  UNL     1       4.974   0.955   3.181  1.00  0.00     0.012 A 
HETATM   23  C2  UNL     1       6.166   1.524   2.560  1.00  0.00    -0.063 A 
HETATM   24  C1  UNL     1       7.338   1.988   3.008  1.00  0.00     0.019 C 
HETATM   25  C21 UNL     1       5.527   1.371   1.228  1.00  0.00     0.074 A 
ENDBRANCH  20  21
ENDBRANCH  19  20
ENDBRANCH   1  19
TORSDOF 3
