REMARK  5 active torsions:
REMARK  status: ('A' for Active; 'I' for Inactive)
REMARK    1  A    between atoms: C2_2  and  C10_14 
REMARK    2  A    between atoms: C3_3  and  C4_5 
REMARK    3  A    between atoms: C5_6  and  O2_7 
REMARK    4  A    between atoms: C7_9  and  O3_10 
REMARK    5  A    between atoms: C13_17  and  O5_18 
ROOT
HETATM    1  C1  UNL     1      -1.572  -1.853  -0.746  1.00  0.00     0.018 A 
HETATM    2  C2  UNL     1      -1.364  -0.687  -0.174  1.00  0.00     0.014 A 
HETATM    3  C3  UNL     1       0.023  -0.349  -0.131  1.00  0.00     0.029 A 
HETATM    4  O1  UNL     1      -0.394  -1.431  -0.652  1.00  0.00     0.000 OA
ENDROOT
BRANCH   3   5
HETATM    5  C4  UNL     1       1.455  -0.283  -0.234  1.00  0.00    -0.011 C 
HETATM    6  C5  UNL     1       2.132  -1.291  -0.812  1.00  0.00     0.073 C 
HETATM    7  C6  UNL     1       3.572  -1.492  -1.051  1.00  0.00     0.071 C 
HETATM    8  C7  UNL     1       4.417  -0.532  -0.772  1.00  0.00     0.069 C 
HETATM    9  C8  UNL     1       4.319   0.844  -0.225  1.00  0.00     0.232 C 
HETATM   10  O4  UNL     1       3.075   1.390  -0.547  1.00  0.00    -0.380 OA
HETATM   11  C9  UNL     1       2.086   0.940   0.326  1.00  0.00     0.206 C 
BRANCH   6  12
HETATM   12  O2  UNL     1       1.340  -2.352  -1.279  1.00  0.00    -0.360 OA
HETATM   13  H3  UNL     1       1.697  -3.074  -1.864  1.00  0.00     0.217 HD
ENDBRANCH   6  12
BRANCH   8  14
HETATM   14  O3  UNL     1       5.707  -0.977  -1.089  1.00  0.00    -0.363 OA
HETATM   15  H5  UNL     1       6.119  -0.806  -2.019  1.00  0.00     0.217 HD
ENDBRANCH   8  14
ENDBRANCH   3   5
BRANCH   2  16
HETATM   16  C10 UNL     1      -2.367   0.223   0.368  1.00  0.00    -0.047 A 
HETATM   17  C11 UNL     1      -2.101   1.439   0.955  1.00  0.00     0.011 A 
HETATM   18  C12 UNL     1      -3.146   2.201   1.426  1.00  0.00     0.037 A 
HETATM   19  C13 UNL     1      -4.429   1.735   1.303  1.00  0.00     0.065 A 
HETATM   20  C14 UNL     1      -4.702   0.508   0.711  1.00  0.00     0.037 A 
HETATM   21  C15 UNL     1      -3.637  -0.265   0.232  1.00  0.00     0.011 A 
BRANCH  19  22
HETATM   22  O5  UNL     1      -5.453   2.557   1.802  1.00  0.00    -0.361 OA
HETATM   23  H12 UNL     1      -6.182   2.838   1.180  1.00  0.00     0.217 HD
ENDBRANCH  19  22
ENDBRANCH   2  16
TORSDOF 5
