REMARK  10 active torsions:
REMARK  status: ('A' for Active; 'I' for Inactive)
REMARK    1  A    between atoms: C7_7  and  O1_8 
REMARK    2  A    between atoms: O1_8  and  C8_9 
REMARK    3  A    between atoms: C8_9  and  C9_10 
REMARK    4  A    between atoms: C8_9  and  C17_20 
REMARK    5  A    between atoms: C10_11  and  C11_12 
REMARK    6  A    between atoms: C11_12  and  C12_13 
REMARK    7  A    between atoms: C12_13  and  C13_15 
REMARK    8  A    between atoms: C13_15  and  C14_16 
REMARK    9  A    between atoms: C14_16  and  N1_17 
REMARK   10  A    between atoms: C17_20  and  O3_21 
ROOT
HETATM    1  C8  UNL     1      -1.859  -0.362  -1.480  1.00  0.00     0.175 C 
ENDROOT
BRANCH   1   2
HETATM    2  O1  UNL     1      -2.722  -0.220  -0.382  1.00  0.00    -0.339 OA
BRANCH   2   3
HETATM    3  C7  UNL     1      -3.515   0.863  -0.086  1.00  0.00     0.075 A 
HETATM    4  C2  UNL     1      -4.293   0.807   1.046  1.00  0.00    -0.029 A 
HETATM    5  C1  UNL     1      -4.275  -0.398   1.917  1.00  0.00     0.051 C 
HETATM    6  C3  UNL     1      -5.129   1.858   1.426  1.00  0.00     0.009 A 
HETATM    7  C4  UNL     1      -5.203   3.018   0.656  1.00  0.00     0.001 A 
HETATM    8  C5  UNL     1      -4.434   3.086  -0.471  1.00  0.00     0.003 A 
HETATM    9  C6  UNL     1      -3.626   2.027  -0.807  1.00  0.00     0.037 A 
ENDBRANCH   2   3
ENDBRANCH   1   2
BRANCH   1  10
HETATM   10  C9  UNL     1      -0.430  -0.558  -1.042  1.00  0.00     0.004 C 
HETATM   11  C10 UNL     1       0.497  -1.192  -1.742  1.00  0.00    -0.021 C 
BRANCH  11  12
HETATM   12  C11 UNL     1       1.919  -1.437  -1.405  1.00  0.00     0.105 C 
BRANCH  12  13
HETATM   13  C12 UNL     1       2.345  -0.893  -0.105  1.00  0.00     0.131 C 
HETATM   14  O2  UNL     1       2.305  -1.481   0.952  1.00  0.00    -0.298 OA
BRANCH  13  15
HETATM   15  C13 UNL     1       2.869   0.498  -0.102  1.00  0.00     0.098 C 
BRANCH  15  16
HETATM   16  C14 UNL     1       4.348   0.584  -0.394  1.00  0.00     0.123 C 
BRANCH  16  17
HETATM   17  N1  UNL     1       5.187  -0.109   0.519  1.00  0.00    -0.420 N 
HETATM   18  C15 UNL     1       5.272   0.395   1.843  1.00  0.00     0.142 C 
HETATM   19  C16 UNL     1       5.319  -1.510   0.335  1.00  0.00     0.142 C 
ENDBRANCH  16  17
ENDBRANCH  15  16
ENDBRANCH  13  15
ENDBRANCH  12  13
ENDBRANCH  11  12
ENDBRANCH   1  10
BRANCH   1  20
HETATM   20  C17 UNL     1      -2.303  -1.567  -2.305  1.00  0.00     0.200 C 
BRANCH  20  21
HETATM   21  O3  UNL     1      -2.262  -2.718  -1.536  1.00  0.00    -0.398 OA
HETATM   22  H25 UNL     1      -2.063  -2.497  -0.590  1.00  0.00     0.209 HD
ENDBRANCH  20  21
ENDBRANCH   1  20
TORSDOF 10
