REMARK  10 active torsions:
REMARK  status: ('A' for Active; 'I' for Inactive)
REMARK    1  A    between atoms: N1_2  and  C3_4 
REMARK    2  A    between atoms: C3_4  and  C4_5 
REMARK    3  A    between atoms: C4_5  and  C5_6 
REMARK    4  A    between atoms: C5_6  and  C6_8 
REMARK    5  A    between atoms: C6_8  and  C7_9 
REMARK    6  A    between atoms: C8_10  and  O2_11 
REMARK    7  A    between atoms: C9_12  and  O3_13 
REMARK    8  A    between atoms: O3_13  and  C10_14 
REMARK    9  A    between atoms: C10_14  and  C11_15 
REMARK   10  A    between atoms: C11_15  and  C12_16 
ROOT
HETATM    1  C7  UNL     1       0.854  -0.681  -2.190  1.00  0.00    -0.034 A 
HETATM    2  C8  UNL     1      -0.387  -0.378  -1.773  1.00  0.00     0.101 A 
HETATM    3  C9  UNL     1      -0.978  -1.400  -0.953  1.00  0.00     0.098 A 
HETATM    4  C17 UNL     1      -0.081  -2.365  -0.856  1.00  0.00     0.017 A 
HETATM    5  C18 UNL     1       1.146  -2.018  -1.614  1.00  0.00     0.067 A 
ENDROOT
BRANCH   3   6
HETATM    6  O3  UNL     1      -2.211  -1.490  -0.330  1.00  0.00    -0.348 OA
BRANCH   6   7
HETATM    7  C10 UNL     1      -3.344  -1.030  -1.033  1.00  0.00     0.179 C 
BRANCH   7   8
HETATM    8  C11 UNL     1      -4.616  -1.209  -0.258  1.00  0.00     0.048 C 
BRANCH   8   9
HETATM    9  C12 UNL     1      -4.583  -0.475   1.018  1.00  0.00    -0.120 C 
HETATM   10  C13 UNL     1      -4.847   0.681   1.652  1.00  0.00    -0.010 C 
HETATM   11  C14 UNL     1      -5.109   0.903   2.957  1.00  0.00    -0.002 C 
HETATM   12  C15 UNL     1      -5.153  -0.075   3.923  1.00  0.00    -0.016 C 
HETATM   13  C16 UNL     1      -4.954  -1.433   3.803  1.00  0.00    -0.081 C 
HETATM   14  B1  UNL     1      -3.815  -1.763   2.428  1.00  0.00     0.205 B 
ENDBRANCH   8   9
ENDBRANCH   7   8
ENDBRANCH   6   7
ENDBRANCH   3   6
BRANCH   2  15
HETATM   15  O2  UNL     1      -1.083   0.788  -2.072  1.00  0.00    -0.358 OA
HETATM   16  H13 UNL     1      -1.223   1.446  -1.315  1.00  0.00     0.217 HD
ENDBRANCH   2  15
BRANCH   1  17
HETATM   17  C6  UNL     1       1.704   0.177  -3.045  1.00  0.00     0.115 C 
BRANCH  17  18
HETATM   18  C5  UNL     1       2.953   0.571  -2.396  1.00  0.00     0.132 C 
HETATM   19  O1  UNL     1       2.987   0.087  -1.280  1.00  0.00    -0.298 OA
BRANCH  18  20
HETATM   20  C4  UNL     1       4.275   1.161  -2.094  1.00  0.00     0.108 C 
BRANCH  20  21
HETATM   21  C3  UNL     1       4.744   0.796  -0.701  1.00  0.00     0.279 C 
BRANCH  21  22
HETATM   22  N1  UNL     1       3.881   1.241   0.345  1.00  0.00     0.080 N 
HETATM   23  C1  UNL     1       3.846   2.663   0.508  1.00  0.00     0.309 C 
HETATM   24  C2  UNL     1       3.993   0.487   1.556  1.00  0.00     0.309 C 
ENDBRANCH  21  22
ENDBRANCH  20  21
ENDBRANCH  18  20
ENDBRANCH  17  18
ENDBRANCH   1  17
TORSDOF 10
