REMARK  7 active torsions:
REMARK  status: ('A' for Active; 'I' for Inactive)
REMARK    1  A    between atoms: O1_1  and  C1_2 
REMARK    2  A    between atoms: C1_2  and  C2_3 
REMARK    3  A    between atoms: C3_4  and  O2_5 
REMARK    4  A    between atoms: C7_9  and  O3_10 
REMARK    5  A    between atoms: O3_10  and  C8_11 
REMARK    6  A    between atoms: C9_12  and  C10_13 
REMARK    7  A    between atoms: C13_16  and  O4_17 
ROOT
HETATM    1  O3  UNL     1      -0.964  -1.725   0.924  1.00  0.00    -0.322 OA
ENDROOT
BRANCH   1   2
HETATM    2  C7  UNL     1      -2.246  -1.427   0.594  1.00  0.00     0.086 A 
HETATM    3  C2  UNL     1      -2.878  -0.436  -0.109  1.00  0.00     0.032 A 
HETATM    4  C3  UNL     1      -4.241  -0.395  -0.282  1.00  0.00     0.076 A 
HETATM    5  C4  UNL     1      -5.069  -1.353   0.243  1.00  0.00     0.037 A 
HETATM    6  C5  UNL     1      -4.475  -2.389   0.971  1.00  0.00     0.005 A 
HETATM    7  C6  UNL     1      -3.101  -2.402   1.127  1.00  0.00     0.038 A 
BRANCH   3   8
HETATM    8  C1  UNL     1      -2.033   0.623  -0.694  1.00  0.00     0.208 C 
BRANCH   8   9
HETATM    9  O1  UNL     1      -2.079   1.798   0.072  1.00  0.00    -0.396 OA
HETATM   10  H1  UNL     1      -2.477   1.548   0.934  1.00  0.00     0.209 HD
ENDBRANCH   8   9
ENDBRANCH   3   8
BRANCH   4  11
HETATM   11  O2  UNL     1      -4.763   0.659  -1.014  1.00  0.00    -0.360 OA
HETATM   12  H4  UNL     1      -5.695   0.988  -0.936  1.00  0.00     0.217 HD
ENDBRANCH   4  11
ENDBRANCH   1   2
BRANCH   1  13
HETATM   13  C8  UNL     1       0.188  -1.072   0.640  1.00  0.00     0.141 C 
HETATM   14  C9  UNL     1       0.968  -0.153   1.169  1.00  0.00     0.033 C 
BRANCH  14  15
HETATM   15  C10 UNL     1       2.189   0.301   0.509  1.00  0.00     0.169 C 
HETATM   16  C11 UNL     1       1.878   1.375  -0.477  1.00  0.00     0.011 C 
HETATM   17  C12 UNL     1       2.807   1.895  -1.295  1.00  0.00     0.035 C 
HETATM   18  C13 UNL     1       4.244   1.577  -1.427  1.00  0.00     0.063 C 
HETATM   19  C14 UNL     1       4.852   0.508  -0.884  1.00  0.00     0.035 C 
HETATM   20  C15 UNL     1       4.256  -0.569  -0.052  1.00  0.00     0.199 C 
HETATM   21  O5  UNL     1       2.882  -0.685  -0.186  1.00  0.00    -0.374 OA
BRANCH  18  22
HETATM   22  O4  UNL     1       5.033   2.436  -2.164  1.00  0.00    -0.361 OA
HETATM   23  H13 UNL     1       5.756   2.946  -1.641  1.00  0.00     0.217 HD
ENDBRANCH  18  22
ENDBRANCH  14  15
ENDBRANCH   1  13
TORSDOF 7
