REMARK  5 active torsions:
REMARK  status: ('A' for Active; 'I' for Inactive)
REMARK    1  A    between atoms: C2_3  and  C3_4 
REMARK    2  A    between atoms: C6_7  and  C7_8 
REMARK    3  A    between atoms: C7_8  and  O2_9 
REMARK    4  A    between atoms: C12_15  and  O4_16 
REMARK    5  A    between atoms: C14_18  and  O5_19 
ROOT
HETATM    1  O1  UNL     1       0.586   1.898  -0.325  1.00  0.00    -0.286 OA
HETATM    2  C1  UNL     1       0.898   0.713  -0.193  1.00  0.00     0.200 A 
HETATM    3  C2  UNL     1      -0.055  -0.256  -0.001  1.00  0.00     0.047 A 
HETATM    4  C9  UNL     1       0.453  -1.537   0.130  1.00  0.00     0.159 A 
HETATM    5  O3  UNL     1       1.737  -1.811   0.077  1.00  0.00    -0.321 OA
HETATM    6  C10 UNL     1       2.672  -0.899  -0.106  1.00  0.00     0.094 A 
HETATM    7  C11 UNL     1       4.019  -1.192  -0.161  1.00  0.00     0.074 A 
HETATM    8  C12 UNL     1       4.972  -0.189  -0.357  1.00  0.00     0.071 A 
HETATM    9  C13 UNL     1       4.555   1.127  -0.499  1.00  0.00     0.074 A 
HETATM   10  C14 UNL     1       3.207   1.371  -0.437  1.00  0.00     0.085 A 
HETATM   11  C15 UNL     1       2.239   0.406  -0.245  1.00  0.00     0.082 A 
ENDROOT
BRANCH   3  12
HETATM   12  C3  UNL     1      -1.469   0.010   0.062  1.00  0.00    -0.023 A 
HETATM   13  C4  UNL     1      -2.120   1.134  -0.039  1.00  0.00    -0.010 A 
HETATM   14  C5  UNL     1      -3.599   0.989   0.082  1.00  0.00     0.064 A 
HETATM   15  C6  UNL     1      -3.711  -0.495   0.282  1.00  0.00    -0.052 A 
HETATM   16  C8  UNL     1      -2.492  -1.010   0.265  1.00  0.00     0.017 A 
BRANCH  15  17
HETATM   17  C7  UNL     1      -5.035  -1.127   0.456  1.00  0.00     0.198 C 
BRANCH  17  18
HETATM   18  O2  UNL     1      -5.655  -0.581   1.588  1.00  0.00    -0.397 OA
HETATM   19  H6  UNL     1      -6.092   0.292   1.343  1.00  0.00     0.209 HD
ENDBRANCH  17  18
ENDBRANCH  15  17
ENDBRANCH   3  12
BRANCH  10  20
HETATM   20  O5  UNL     1       2.761   2.689  -0.577  1.00  0.00    -0.360 OA
HETATM   21  H12 UNL     1       2.333   3.002  -1.417  1.00  0.00     0.217 HD
ENDBRANCH  10  20
BRANCH   8  22
HETATM   22  O4  UNL     1       6.329  -0.481  -0.413  1.00  0.00    -0.361 OA
HETATM   23  H10 UNL     1       6.908  -0.269   0.383  1.00  0.00     0.217 HD
ENDBRANCH   8  22
TORSDOF 5
