REMARK  4 active torsions:
REMARK  status: ('A' for Active; 'I' for Inactive)
REMARK    1  A    between atoms: C2_3  and  C3_4 
REMARK    2  A    between atoms: C6_7  and  O2_8 
REMARK    3  A    between atoms: C12_15  and  O4_16 
REMARK    4  A    between atoms: B1_18  and  O5_19 
ROOT
HETATM    1  O1  UNL     1      -0.100  -1.461   0.791  1.00  0.00    -0.286 OA
HETATM    2  C1  UNL     1       0.297  -0.450   0.167  1.00  0.00     0.200 A 
HETATM    3  C2  UNL     1      -0.588   0.517  -0.324  1.00  0.00     0.048 A 
HETATM    4  C9  UNL     1      -0.165   1.634  -1.012  1.00  0.00     0.159 A 
HETATM    5  O3  UNL     1       1.114   1.801  -1.218  1.00  0.00    -0.322 OA
HETATM    6  C10 UNL     1       2.013   0.927  -0.782  1.00  0.00     0.080 A 
HETATM    7  C11 UNL     1       1.632  -0.204  -0.089  1.00  0.00     0.076 A 
HETATM    8  C12 UNL     1       2.523  -1.052   0.332  1.00  0.00     0.054 A 
HETATM    9  C13 UNL     1       4.004  -1.096   0.233  1.00  0.00     0.055 A 
HETATM   10  B1  UNL     1       4.450   0.201  -0.562  1.00  0.00     0.362 B 
HETATM   11  C14 UNL     1       3.297   1.145  -1.017  1.00  0.00    -0.006 A 
ENDROOT
BRANCH   3  12
HETATM   12  C3  UNL     1      -2.009   0.343  -0.103  1.00  0.00    -0.020 A 
HETATM   13  C4  UNL     1      -2.397  -0.038   1.163  1.00  0.00     0.015 A 
HETATM   14  C5  UNL     1      -3.728  -0.229   1.473  1.00  0.00     0.037 A 
HETATM   15  C6  UNL     1      -4.740  -0.046   0.523  1.00  0.00     0.065 A 
HETATM   16  C7  UNL     1      -4.310   0.340  -0.751  1.00  0.00     0.037 A 
HETATM   17  C8  UNL     1      -2.977   0.534  -1.068  1.00  0.00     0.015 A 
BRANCH  15  18
HETATM   18  O2  UNL     1      -6.091  -0.225   0.785  1.00  0.00    -0.361 OA
HETATM   19  H3  UNL     1      -6.376  -0.975   1.436  1.00  0.00     0.217 HD
ENDBRANCH  15  18
ENDBRANCH   3  12
BRANCH   8  20
HETATM   20  O4  UNL     1       2.121  -2.185   1.027  1.00  0.00    -0.365 OA
HETATM   21  H7  UNL     1       2.215  -3.129   0.622  1.00  0.00     0.217 HD
ENDBRANCH   8  20
BRANCH  10  22
HETATM   22  O5  UNL     1       5.856   0.618  -0.629  1.00  0.00    -0.458 OA
HETATM   23  H10 UNL     1       6.102   1.191   0.158  1.00  0.00     0.182 HD
ENDBRANCH  10  22
TORSDOF 4
