REMARK  6 active torsions:
REMARK  status: ('A' for Active; 'I' for Inactive)
REMARK    1  A    between atoms: C2_2  and  C3_3 
REMARK    2  A    between atoms: C2_2  and  C7_8 
REMARK    3  A    between atoms: C3_3  and  C4_4 
REMARK    4  A    between atoms: C4_4  and  C6_6 
REMARK    5  A    between atoms: C10_12  and  C11_13 
REMARK    6  A    between atoms: C11_13  and  C12_14 
ROOT
HETATM    1  C7  UNL     1      -0.953  -0.094  -1.392  1.00  0.00     0.044 A 
HETATM    2  C8  UNL     1      -0.394  -1.230  -2.194  1.00  0.00     0.007 A 
HETATM    3  C9  UNL     1       0.750  -1.866  -1.933  1.00  0.00     0.138 A 
HETATM    4  O2  UNL     1       1.563  -1.513  -0.840  1.00  0.00    -0.327 OA
HETATM    5  C10 UNL     1       1.146  -0.457  -0.006  1.00  0.00     0.053 A 
HETATM    6  C18 UNL     1       0.006   0.152  -0.294  1.00  0.00     0.015 A 
ENDROOT
BRANCH   1   7
HETATM    7  C2  UNL     1      -2.301  -0.380  -0.890  1.00  0.00    -0.021 C 
HETATM    8  C1  UNL     1      -2.941  -1.497  -1.127  1.00  0.00     0.012 C 
BRANCH   7   9
HETATM    9  C3  UNL     1      -2.915   0.687  -0.082  1.00  0.00     0.022 C 
BRANCH   9  10
HETATM   10  C4  UNL     1      -4.301   0.358   0.416  1.00  0.00     0.044 C 
HETATM   11  C5  UNL     1      -4.350  -0.862   1.289  1.00  0.00     0.017 C 
BRANCH  10  12
HETATM   12  C6  UNL     1      -4.763   1.515   1.234  1.00  0.00     0.235 C 
HETATM   13  O1  UNL     1      -5.142   1.920   2.322  1.00  0.00    -0.306 OA
ENDBRANCH  10  12
ENDBRANCH   9  10
ENDBRANCH   7   9
ENDBRANCH   1   7
BRANCH   5  14
HETATM   14  C11 UNL     1       1.976  -0.073   1.138  1.00  0.00     0.103 C 
BRANCH  14  15
HETATM   15  C12 UNL     1       3.346   0.369   0.786  1.00  0.00    -0.052 A 
HETATM   16  C13 UNL     1       4.351  -0.576   0.727  1.00  0.00     0.007 A 
HETATM   17  C14 UNL     1       5.653  -0.276   0.412  1.00  0.00     0.001 A 
HETATM   18  C15 UNL     1       5.988   1.042   0.136  1.00  0.00     0.000 A 
HETATM   19  C16 UNL     1       5.002   2.004   0.188  1.00  0.00     0.001 A 
HETATM   20  C17 UNL     1       3.690   1.690   0.507  1.00  0.00     0.007 A 
ENDBRANCH  14  15
ENDBRANCH   5  14
TORSDOF 6
