REMARK  11 active torsions:
REMARK  status: ('A' for Active; 'I' for Inactive)
REMARK    1  A    between atoms: C2_2  and  N1_3 
REMARK    2  A    between atoms: N1_3  and  C4_5 
REMARK    3  A    between atoms: C4_5  and  C5_6 
REMARK    4  A    between atoms: C5_6  and  C7_8 
REMARK    5  A    between atoms: C7_8  and  C18_20 
REMARK    6  A    between atoms: C8_9  and  C9_10 
REMARK    7  A    between atoms: C9_10  and  C10_11 
REMARK    8  A    between atoms: C10_11  and  O1_12 
REMARK    9  A    between atoms: O1_12  and  C11_13 
REMARK   10  A    between atoms: C11_13  and  C12_14 
REMARK   11  A    between atoms: C18_20  and  O2_21 
ROOT
HETATM    1  C7  UNL     1      -1.431  -1.098  -1.144  1.00  0.00    -0.051 C 
HETATM    2  C8  UNL     1      -0.156  -0.942  -0.735  1.00  0.00     0.007 C 
ENDROOT
BRANCH   1   3
HETATM    3  C5  UNL     1      -2.327   0.011  -1.594  1.00  0.00     0.041 C 
HETATM    4  C6  UNL     1      -1.597   1.312  -1.462  1.00  0.00     0.016 C 
BRANCH   3   5
HETATM    5  C4  UNL     1      -3.723  -0.071  -1.169  1.00  0.00     0.280 C 
BRANCH   5   6
HETATM    6  N1  UNL     1      -4.212   0.124   0.099  1.00  0.00     0.084 NA
HETATM    7  C3  UNL     1      -5.560  -0.522   0.213  1.00  0.00     0.309 C 
BRANCH   6   8
HETATM    8  C2  UNL     1      -4.334   1.288   0.830  1.00  0.00     0.267 C 
HETATM    9  C1  UNL     1      -3.238   2.224   1.101  1.00  0.00     0.037 C 
ENDBRANCH   6   8
ENDBRANCH   5   6
ENDBRANCH   3   5
ENDBRANCH   1   3
BRANCH   1  10
HETATM   10  C18 UNL     1      -1.976  -2.480  -1.156  1.00  0.00     0.198 C 
BRANCH  10  11
HETATM   11  O2  UNL     1      -3.088  -2.572  -0.302  1.00  0.00    -0.397 OA
HETATM   12  H27 UNL     1      -2.891  -3.077   0.534  1.00  0.00     0.209 HD
ENDBRANCH  10  11
ENDBRANCH   1  10
BRANCH   2  13
HETATM   13  C9  UNL     1       0.668  -2.060  -0.305  1.00  0.00     0.024 C 
BRANCH  13  14
HETATM   14  C10 UNL     1       1.902  -1.825   0.077  1.00  0.00     0.135 C 
BRANCH  14  15
HETATM   15  O1  UNL     1       3.111  -1.240   0.404  1.00  0.00    -0.359 OA
BRANCH  15  16
HETATM   16  C11 UNL     1       3.460   0.064  -0.045  1.00  0.00     0.213 C 
BRANCH  16  17
HETATM   17  C12 UNL     1       4.829   0.424   0.327  1.00  0.00    -0.034 A 
HETATM   18  C13 UNL     1       5.205   1.061   1.513  1.00  0.00     0.009 A 
HETATM   19  C14 UNL     1       6.526   1.380   1.822  1.00  0.00     0.001 A 
HETATM   20  C15 UNL     1       7.528   1.053   0.915  1.00  0.00     0.000 A 
HETATM   21  C16 UNL     1       7.226   0.420  -0.281  1.00  0.00     0.001 A 
HETATM   22  C17 UNL     1       5.907   0.137  -0.519  1.00  0.00     0.009 A 
ENDBRANCH  16  17
ENDBRANCH  15  16
ENDBRANCH  14  15
ENDBRANCH  13  14
ENDBRANCH   2  13
TORSDOF 11
