REMARK  6 active torsions:
REMARK  status: ('A' for Active; 'I' for Inactive)
REMARK    1  A    between atoms: N1_2  and  C2_3 
REMARK    2  A    between atoms: N1_2  and  C5_7 
REMARK    3  A    between atoms: C2_3  and  C3_4 
REMARK    4  A    between atoms: C3_4  and  C4_5 
REMARK    5  A    between atoms: C5_7  and  C6_8 
REMARK    6  A    between atoms: C7_9  and  O2_10 
ROOT
HETATM    1  C6  UNL     1       0.390  -0.417  -0.344  1.00  0.00    -0.025 C 
HETATM    2  C7  UNL     1      -0.433   0.490   0.214  1.00  0.00     0.052 C 
HETATM    3  C8  UNL     1      -1.491   0.818   1.163  1.00  0.00     0.103 C 
HETATM    4  C9  UNL     1      -2.824   0.937   0.520  1.00  0.00    -0.044 A 
HETATM    5  C10 UNL     1      -3.321   2.093  -0.009  1.00  0.00     0.008 A 
HETATM    6  C11 UNL     1      -4.568   2.100  -0.599  1.00  0.00     0.001 A 
HETATM    7  C12 UNL     1      -5.306   0.909  -0.638  1.00  0.00     0.001 A 
HETATM    8  C13 UNL     1      -4.720  -0.205  -0.079  1.00  0.00     0.010 A 
HETATM    9  C14 UNL     1      -3.462  -0.304   0.537  1.00  0.00    -0.025 A 
HETATM   10  C15 UNL     1      -3.293  -1.695   0.983  1.00  0.00     0.249 C 
HETATM   11  O3  UNL     1      -2.149  -2.033   1.627  1.00  0.00    -0.236 OA
HETATM   12  O4  UNL     1      -1.080  -1.900   0.878  1.00  0.00     0.000 OA
HETATM   13  C16 UNL     1      -0.292  -2.923   0.396  1.00  0.00    -0.020 A 
HETATM   14  C17 UNL     1       0.198  -1.818  -0.071  1.00  0.00     0.053 A 
ENDROOT
BRANCH   1  15
HETATM   15  C5  UNL     1       1.418  -0.136  -1.383  1.00  0.00     0.153 C 
BRANCH  15  16
HETATM   16  N1  UNL     1       2.749  -0.395  -1.046  1.00  0.00    -0.412 N 
HETATM   17  C1  UNL     1       3.249  -1.686  -0.841  1.00  0.00     0.143 C 
BRANCH  16  18
HETATM   18  C2  UNL     1       3.394   0.590  -0.249  1.00  0.00     0.123 C 
BRANCH  18  19
HETATM   19  C3  UNL     1       4.830   0.869  -0.634  1.00  0.00     0.088 C 
BRANCH  19  20
HETATM   20  C4  UNL     1       5.392   1.916   0.288  1.00  0.00     0.232 C 
HETATM   21  O1  UNL     1       5.303   1.851   1.534  1.00  0.00    -0.307 OA
ENDBRANCH  19  20
ENDBRANCH  18  19
ENDBRANCH  16  18
ENDBRANCH  15  16
ENDBRANCH   1  15
BRANCH   2  22
HETATM   22  O2  UNL     1      -0.086   1.707  -0.425  1.00  0.00    -0.364 OA
HETATM   23  H11 UNL     1      -0.433   1.937  -1.349  1.00  0.00     0.217 HD
ENDBRANCH   2  22
TORSDOF 6
