REMARK  7 active torsions:
REMARK  status: ('A' for Active; 'I' for Inactive)
REMARK    1  A    between atoms: N1_2  and  C3_4 
REMARK    2  A    between atoms: C3_4  and  C4_5 
REMARK    3  A    between atoms: C4_5  and  C5_6 
REMARK    4  A    between atoms: C5_6  and  C6_8 
REMARK    5  A    between atoms: C9_12  and  O3_13 
REMARK    6  A    between atoms: O3_13  and  C10_14 
REMARK    7  A    between atoms: C10_14  and  C11_15 
ROOT
HETATM    1  C6  UNL     1       1.011  -0.387  -0.071  1.00  0.00     0.107 A 
HETATM    2  C7  UNL     1       1.207  -1.025  -1.396  1.00  0.00     0.014 A 
HETATM    3  C8  UNL     1       0.158  -1.276  -2.202  1.00  0.00     0.142 A 
HETATM    4  O2  UNL     1      -1.174  -0.995  -1.933  1.00  0.00    -0.301 OA
HETATM    5  C9  UNL     1      -1.476  -0.396  -0.718  1.00  0.00     0.182 A 
HETATM    6  C17 UNL     1      -0.446  -0.151   0.072  1.00  0.00     0.053 A 
ENDROOT
BRANCH   5   7
HETATM    7  O3  UNL     1      -2.759  -0.067  -0.332  1.00  0.00    -0.326 OA
BRANCH   7   8
HETATM    8  C10 UNL     1      -3.491  -0.961   0.484  1.00  0.00     0.216 C 
BRANCH   8   9
HETATM    9  C11 UNL     1      -4.849  -0.383   0.687  1.00  0.00    -0.034 A 
HETATM   10  C12 UNL     1      -5.265   0.463   1.694  1.00  0.00     0.009 A 
HETATM   11  C13 UNL     1      -6.580   0.897   1.710  1.00  0.00     0.001 A 
HETATM   12  C14 UNL     1      -7.496   0.513   0.753  1.00  0.00     0.000 A 
HETATM   13  C15 UNL     1      -7.111  -0.334  -0.269  1.00  0.00     0.001 A 
HETATM   14  C16 UNL     1      -5.784  -0.752  -0.258  1.00  0.00     0.009 A 
ENDBRANCH   8   9
ENDBRANCH   7   8
ENDBRANCH   5   7
BRANCH   1  15
HETATM   15  C5  UNL     1       1.796   0.847   0.129  1.00  0.00     0.140 C 
HETATM   16  O1  UNL     1       1.097   1.859   0.332  1.00  0.00    -0.297 OA
BRANCH  15  17
HETATM   17  C4  UNL     1       3.184   1.354   0.182  1.00  0.00     0.098 C 
BRANCH  17  18
HETATM   18  C3  UNL     1       4.128   0.205  -0.070  1.00  0.00     0.123 C 
BRANCH  18  19
HETATM   19  N1  UNL     1       5.511   0.604  -0.028  1.00  0.00    -0.420 N 
HETATM   20  C1  UNL     1       6.003   0.990   1.251  1.00  0.00     0.142 C 
HETATM   21  C2  UNL     1       6.373  -0.226  -0.810  1.00  0.00     0.142 C 
ENDBRANCH  18  19
ENDBRANCH  17  18
ENDBRANCH  15  17
ENDBRANCH   1  15
TORSDOF 7
