REMARK  7 active torsions:
REMARK  status: ('A' for Active; 'I' for Inactive)
REMARK    1  A    between atoms: N1_2  and  C3_4 
REMARK    2  A    between atoms: C3_4  and  C4_5 
REMARK    3  A    between atoms: C4_5  and  C5_6 
REMARK    4  A    between atoms: C5_6  and  C6_8 
REMARK    5  A    between atoms: C9_11  and  O2_12 
REMARK    6  A    between atoms: O2_12  and  C10_13 
REMARK    7  A    between atoms: C10_13  and  C11_14 
ROOT
HETATM    1  C6  UNL     1       1.056  -1.270  -0.000  1.00  0.00     0.010 A 
HETATM    2  C7  UNL     1       0.659  -0.121  -0.685  1.00  0.00     0.018 A 
HETATM    3  C8  UNL     1      -0.683   0.197  -0.740  1.00  0.00     0.037 A 
HETATM    4  C9  UNL     1      -1.674  -0.559  -0.154  1.00  0.00     0.068 A 
HETATM    5  C16 UNL     1      -1.286  -1.699   0.526  1.00  0.00     0.037 A 
HETATM    6  C17 UNL     1       0.055  -2.018   0.582  1.00  0.00     0.018 A 
ENDROOT
BRANCH   4   7
HETATM    7  O2  UNL     1      -2.998  -0.135  -0.278  1.00  0.00    -0.351 OA
BRANCH   7   8
HETATM    8  C10 UNL     1      -3.964  -0.958   0.349  1.00  0.00     0.174 C 
BRANCH   8   9
HETATM    9  C11 UNL     1      -5.369  -0.485   0.203  1.00  0.00    -0.010 C 
HETATM   10  B1  UNL     1      -5.614  -0.479  -1.623  1.00  0.00     0.193 B 
HETATM   11  C12 UNL     1      -7.747   0.479  -1.170  1.00  0.00    -0.111 C 
HETATM   12  C13 UNL     1      -7.141   1.625  -1.049  1.00  0.00    -0.007 C 
HETATM   13  C14 UNL     1      -6.357   1.853   0.167  1.00  0.00    -0.005 C 
HETATM   14  C15 UNL     1      -5.581   0.893   0.694  1.00  0.00    -0.030 C 
ENDBRANCH   8   9
ENDBRANCH   7   8
ENDBRANCH   4   7
BRANCH   1  15
HETATM   15  C5  UNL     1       2.431  -1.741   0.149  1.00  0.00     0.161 C 
HETATM   16  O1  UNL     1       2.705  -2.809   0.797  1.00  0.00    -0.292 OA
BRANCH  15  17
HETATM   17  C4  UNL     1       3.595  -1.031  -0.430  1.00  0.00     0.114 C 
BRANCH  17  18
HETATM   18  C3  UNL     1       4.304  -0.176   0.599  1.00  0.00     0.279 C 
BRANCH  18  19
HETATM   19  N1  UNL     1       5.437   0.533   0.093  1.00  0.00     0.080 N 
HETATM   20  C1  UNL     1       6.109   1.351   1.071  1.00  0.00     0.309 C 
HETATM   21  C2  UNL     1       5.222   1.266  -1.115  1.00  0.00     0.309 C 
ENDBRANCH  18  19
ENDBRANCH  17  18
ENDBRANCH  15  17
ENDBRANCH   1  15
TORSDOF 7
