REMARK  2 active torsions:
REMARK  status: ('A' for Active; 'I' for Inactive)
REMARK    1  A    between atoms: C4_5  and  C5_6 
REMARK    2  A    between atoms: C14_19  and  C15_20 
ROOT
HETATM    1  C1  UNL     1       2.082   3.258   0.375  1.00  0.00     0.149 C 
HETATM    2  N1  UNL     1       1.340   2.023   0.417  1.00  0.00    -0.387 N 
HETATM    3  C2  UNL     1      -0.068   1.807   0.338  1.00  0.00     0.125 C 
HETATM    4  C3  UNL     1      -0.678   2.099  -1.025  1.00  0.00     0.059 C 
HETATM    5  C4  UNL     1      -2.126   1.515  -0.880  1.00  0.00     0.191 C 
HETATM    6  O2  UNL     1      -2.028   0.250  -0.358  1.00  0.00    -0.337 OA
HETATM    7  C6  UNL     1      -2.758  -0.840  -0.198  1.00  0.00     0.097 A 
HETATM    8  C7  UNL     1      -4.048  -1.114  -0.173  1.00  0.00     0.125 A 
HETATM    9  N2  UNL     1      -4.553  -2.416   0.023  1.00  0.00    -0.373 N 
HETATM   10  C8  UNL     1      -3.662  -3.507   0.205  1.00  0.00     0.088 A 
HETATM   11  C9  UNL     1      -2.353  -3.325   0.194  1.00  0.00     0.033 A 
HETATM   12  C10 UNL     1      -1.816  -1.964  -0.010  1.00  0.00     0.022 A 
HETATM   13  C11 UNL     1      -0.472  -1.943   0.006  1.00  0.00     0.149 C 
HETATM   14  O3  UNL     1       0.452  -0.938  -0.137  1.00  0.00    -0.356 OA
HETATM   15  C12 UNL     1       1.384  -0.539   0.814  1.00  0.00     0.231 C 
HETATM   16  C13 UNL     1       2.044   0.766   0.540  1.00  0.00     0.031 C 
HETATM   17  C14 UNL     1       3.382   0.805   0.395  1.00  0.00     0.034 C 
HETATM   18  H11 UNL     1      -5.588  -2.522   0.025  1.00  0.00     0.164 HD
ENDROOT
BRANCH  17  19
HETATM   19  C15 UNL     1       4.309  -0.346   0.478  1.00  0.00    -0.056 A 
HETATM   20  C16 UNL     1       5.617  -0.827   0.416  1.00  0.00    -0.015 A 
HETATM   21  C17 UNL     1       4.542  -1.803   0.682  1.00  0.00     0.066 A 
ENDBRANCH  17  19
BRANCH   5  22
HETATM   22  C5  UNL     1      -2.892   1.685  -2.118  1.00  0.00     0.263 C 
HETATM   23  O1  UNL     1      -2.996   2.804  -2.604  1.00  0.00    -0.304 OA
ENDBRANCH   5  22
TORSDOF 2
