REMARK  7 active torsions:
REMARK  status: ('A' for Active; 'I' for Inactive)
REMARK    1  A    between atoms: N1_2  and  C3_4 
REMARK    2  A    between atoms: C3_4  and  C4_5 
REMARK    3  A    between atoms: C4_5  and  C5_6 
REMARK    4  A    between atoms: C5_6  and  C6_8 
REMARK    5  A    between atoms: C9_11  and  O2_12 
REMARK    6  A    between atoms: O2_12  and  S1_13 
REMARK    7  A    between atoms: S1_13  and  C10_14 
ROOT
HETATM    1  C6  UNL     1       1.056  -0.513  -0.965  1.00  0.00     0.010 A 
HETATM    2  C7  UNL     1       0.154   0.529  -0.969  1.00  0.00     0.018 A 
HETATM    3  C8  UNL     1      -1.196   0.156  -0.987  1.00  0.00     0.039 A 
HETATM    4  C9  UNL     1      -1.617  -1.166  -1.001  1.00  0.00     0.085 A 
HETATM    5  C16 UNL     1      -0.650  -2.155  -0.996  1.00  0.00     0.039 A 
HETATM    6  C17 UNL     1       0.683  -1.834  -0.978  1.00  0.00     0.018 A 
ENDROOT
BRANCH   4   7
HETATM    7  O2  UNL     1      -2.959  -1.463  -1.019  1.00  0.00    -0.274 OA
BRANCH   7   8
HETATM    8  S1  UNL     1      -3.782  -1.648   0.503  1.00  0.00     0.035 SA
BRANCH   8   9
HETATM    9  C10 UNL     1      -5.151  -0.508   0.535  1.00  0.00     0.029 A 
HETATM   10  C11 UNL     1      -5.435   0.344  -0.526  1.00  0.00     0.021 A 
HETATM   11  C12 UNL     1      -6.466   1.249  -0.583  1.00  0.00     0.001 A 
HETATM   12  C13 UNL     1      -7.300   1.313   0.528  1.00  0.00     0.000 A 
HETATM   13  C14 UNL     1      -7.065   0.485   1.619  1.00  0.00     0.001 A 
HETATM   14  C15 UNL     1      -6.011  -0.402   1.612  1.00  0.00     0.021 A 
ENDBRANCH   8   9
ENDBRANCH   7   8
ENDBRANCH   4   7
BRANCH   1  15
HETATM   15  C5  UNL     1       2.455  -0.132  -0.947  1.00  0.00     0.161 C 
HETATM   16  O1  UNL     1       2.777   1.093  -0.935  1.00  0.00    -0.292 OA
BRANCH  15  17
HETATM   17  C4  UNL     1       3.657  -0.985  -0.941  1.00  0.00     0.114 C 
BRANCH  17  18
HETATM   18  C3  UNL     1       4.879  -0.099  -0.928  1.00  0.00     0.279 C 
BRANCH  18  19
HETATM   19  N1  UNL     1       4.830   0.709   0.260  1.00  0.00     0.080 N 
HETATM   20  C1  UNL     1       5.003  -0.025   1.481  1.00  0.00     0.309 C 
HETATM   21  C2  UNL     1       5.655   1.893   0.166  1.00  0.00     0.309 C 
ENDBRANCH  18  19
ENDBRANCH  17  18
ENDBRANCH  15  17
ENDBRANCH   1  15
TORSDOF 7
