REMARK  5 active torsions:
REMARK  status: ('A' for Active; 'I' for Inactive)
REMARK    1  A    between atoms: C7_7  and  S1_8 
REMARK    2  A    between atoms: S1_8  and  C8_9 
REMARK    3  A    between atoms: C8_9  and  C9_10 
REMARK    4  A    between atoms: C8_9  and  C12_14 
REMARK    5  A    between atoms: C9_10  and  N1_11 
ROOT
HETATM    1  C12 UNL     1      -0.107   0.657  -0.436  1.00  0.00     0.152 A 
HETATM    2  O1  UNL     1       0.528   0.507  -1.515  1.00  0.00    -0.348 OA
HETATM    3  C13 UNL     1       0.871  -0.252  -0.148  1.00  0.00     0.143 A 
HETATM    4  C14 UNL     1       0.782   0.147   1.157  1.00  0.00    -0.007 C 
HETATM    5  C15 UNL     1       1.903   0.719   1.653  1.00  0.00     0.011 C 
HETATM    6  C16 UNL     1       3.210   0.442   1.055  1.00  0.00    -0.003 C 
HETATM    7  C17 UNL     1       4.366   0.352   0.442  1.00  0.00    -0.025 C 
HETATM    8  C18 UNL     1       5.692  -0.056  -0.101  1.00  0.00     0.053 C 
HETATM    9  C19 UNL     1       5.919  -1.552   0.425  1.00  0.00     0.171 C 
HETATM   10  O2  UNL     1       4.823  -2.121   0.242  1.00  0.00    -0.387 OA
HETATM   11  C20 UNL     1       3.718  -2.695   0.049  1.00  0.00     0.194 C 
HETATM   12  C21 UNL     1       2.964  -1.588  -0.806  1.00  0.00    -0.002 C 
HETATM   13  C22 UNL     1       1.932  -1.127  -0.149  1.00  0.00     0.017 C 
ENDROOT
BRANCH   1  14
HETATM   14  C8  UNL     1      -1.231   1.408   0.058  1.00  0.00     0.122 C 
BRANCH  14  15
HETATM   15  S1  UNL     1      -2.219   0.575   1.301  1.00  0.00    -0.119 SA
BRANCH  15  16
HETATM   16  C7  UNL     1      -3.038  -0.882   0.759  1.00  0.00     0.007 A 
HETATM   17  C2  UNL     1      -3.847  -1.441   1.742  1.00  0.00    -0.045 A 
HETATM   18  C1  UNL     1      -4.021  -0.884   3.105  1.00  0.00     0.049 C 
HETATM   19  C3  UNL     1      -4.583  -2.585   1.509  1.00  0.00     0.008 A 
HETATM   20  C4  UNL     1      -4.520  -3.204   0.255  1.00  0.00     0.001 A 
HETATM   21  C5  UNL     1      -3.706  -2.626  -0.719  1.00  0.00     0.001 A 
HETATM   22  C6  UNL     1      -2.983  -1.493  -0.470  1.00  0.00     0.019 A 
ENDBRANCH  15  16
ENDBRANCH  14  15
BRANCH  14  23
HETATM   23  C9  UNL     1      -2.084   1.984  -1.022  1.00  0.00     0.290 C 
BRANCH  23  24
HETATM   24  N1  UNL     1      -1.387   2.672  -2.066  1.00  0.00     0.081 N 
HETATM   25  C10 UNL     1      -2.428   3.057  -3.051  1.00  0.00     0.309 C 
HETATM   26  C11 UNL     1      -0.937   3.988  -1.550  1.00  0.00     0.309 C 
ENDBRANCH  23  24
ENDBRANCH  14  23
ENDBRANCH   1  14
TORSDOF 5
