REMARK  7 active torsions:
REMARK  status: ('A' for Active; 'I' for Inactive)
REMARK    1  A    between atoms: N1_2  and  C3_4 
REMARK    2  A    between atoms: C3_4  and  C4_5 
REMARK    3  A    between atoms: C4_5  and  C5_6 
REMARK    4  A    between atoms: C5_6  and  C6_8 
REMARK    5  A    between atoms: C9_11  and  O2_12 
REMARK    6  A    between atoms: O2_12  and  C10_13 
REMARK    7  A    between atoms: C10_13  and  C11_14 
ROOT
HETATM    1  C6  UNL     1      -1.071   0.183  -0.134  1.00  0.00     0.010 A 
HETATM    2  C7  UNL     1      -0.428   1.236   0.493  1.00  0.00     0.018 A 
HETATM    3  C8  UNL     1       0.963   1.242   0.575  1.00  0.00     0.037 A 
HETATM    4  C9  UNL     1       1.684   0.191   0.029  1.00  0.00     0.069 A 
HETATM    5  C16 UNL     1       1.026  -0.870  -0.603  1.00  0.00     0.037 A 
HETATM    6  C17 UNL     1      -0.366  -0.867  -0.681  1.00  0.00     0.018 A 
ENDROOT
BRANCH   1   7
HETATM    7  C5  UNL     1      -2.522   0.238  -0.194  1.00  0.00     0.161 C 
HETATM    8  O1  UNL     1      -3.156   1.186   0.291  1.00  0.00    -0.292 OA
BRANCH   7   9
HETATM    9  C4  UNL     1      -3.409  -0.756  -0.801  1.00  0.00     0.114 C 
BRANCH   9  10
HETATM   10  C3  UNL     1      -4.837  -0.269  -0.657  1.00  0.00     0.279 C 
BRANCH  10  11
HETATM   11  N1  UNL     1      -5.220  -0.089   0.721  1.00  0.00     0.080 N 
HETATM   12  C1  UNL     1      -5.321  -1.310   1.468  1.00  0.00     0.309 C 
HETATM   13  C2  UNL     1      -6.506   0.588   0.739  1.00  0.00     0.309 C 
ENDBRANCH  10  11
ENDBRANCH   9  10
ENDBRANCH   7   9
ENDBRANCH   1   7
BRANCH   4  14
HETATM   14  O2  UNL     1       3.056   0.029   0.016  1.00  0.00    -0.347 OA
BRANCH  14  15
HETATM   15  C10 UNL     1       3.961   0.949   0.583  1.00  0.00     0.210 C 
BRANCH  15  16
HETATM   16  C11 UNL     1       5.356   0.437   0.368  1.00  0.00    -0.053 A 
HETATM   17  C12 UNL     1       5.605  -0.713  -0.267  1.00  0.00     0.005 A 
HETATM   18  C13 UNL     1       7.035  -0.962  -0.332  1.00  0.00    -0.003 A 
HETATM   19  C14 UNL     1       7.634   0.065   0.280  1.00  0.00    -0.022 A 
HETATM   20  C15 UNL     1       6.637   1.048   0.781  1.00  0.00     0.063 A 
ENDBRANCH  15  16
ENDBRANCH  14  15
ENDBRANCH   4  14
TORSDOF 7
