REMARK  6 active torsions:
REMARK  status: ('A' for Active; 'I' for Inactive)
REMARK    1  A    between atoms: C2_2  and  C3_3 
REMARK    2  A    between atoms: C2_2  and  C6_7 
REMARK    3  A    between atoms: C3_3  and  N1_4 
REMARK    4  A    between atoms: C9_10  and  O1_11 
REMARK    5  A    between atoms: O1_11  and  C10_12 
REMARK    6  A    between atoms: C10_12  and  C11_13 
ROOT
HETATM    1  C6  UNL     1      -1.667  -0.993   0.033  1.00  0.00    -0.052 A 
HETATM    2  C7  UNL     1      -0.900  -1.682  -0.914  1.00  0.00     0.010 A 
HETATM    3  C8  UNL     1       0.483  -1.470  -0.969  1.00  0.00     0.037 A 
HETATM    4  C9  UNL     1       1.113  -0.600  -0.115  1.00  0.00     0.069 A 
HETATM    5  C17 UNL     1       0.366   0.103   0.844  1.00  0.00     0.037 A 
HETATM    6  C18 UNL     1      -1.017  -0.127   0.879  1.00  0.00     0.010 A 
ENDROOT
BRANCH   4   7
HETATM    7  O1  UNL     1       2.437  -0.282  -0.041  1.00  0.00    -0.347 OA
BRANCH   7   8
HETATM    8  C10 UNL     1       3.492  -0.753  -0.809  1.00  0.00     0.214 C 
BRANCH   8   9
HETATM    9  C11 UNL     1       4.740  -0.070  -0.312  1.00  0.00    -0.034 A 
HETATM   10  C12 UNL     1       5.583  -0.588   0.650  1.00  0.00     0.009 A 
HETATM   11  C13 UNL     1       6.696   0.124   1.044  1.00  0.00     0.001 A 
HETATM   12  C14 UNL     1       6.974   1.364   0.475  1.00  0.00     0.000 A 
HETATM   13  C15 UNL     1       6.141   1.890  -0.485  1.00  0.00     0.001 A 
HETATM   14  C16 UNL     1       5.023   1.179  -0.883  1.00  0.00     0.009 A 
ENDBRANCH   8   9
ENDBRANCH   7   8
ENDBRANCH   4   7
BRANCH   1  15
HETATM   15  C2  UNL     1      -3.140  -1.239   0.056  1.00  0.00     0.043 C 
HETATM   16  C1  UNL     1      -3.585  -1.477   1.444  1.00  0.00     0.016 C 
BRANCH  15  17
HETATM   17  C3  UNL     1      -3.888  -0.287  -0.793  1.00  0.00     0.280 C 
BRANCH  17  18
HETATM   18  N1  UNL     1      -4.003   1.067  -0.390  1.00  0.00     0.080 N 
HETATM   19  C4  UNL     1      -4.565   1.832  -1.538  1.00  0.00     0.309 C 
HETATM   20  C5  UNL     1      -5.051   1.202   0.628  1.00  0.00     0.309 C 
ENDBRANCH  17  18
ENDBRANCH  15  17
ENDBRANCH   1  15
TORSDOF 6
