REMARK  7 active torsions:
REMARK  status: ('A' for Active; 'I' for Inactive)
REMARK    1  A    between atoms: N1_2  and  C3_4 
REMARK    2  A    between atoms: C3_4  and  C4_5 
REMARK    3  A    between atoms: C4_5  and  C5_6 
REMARK    4  A    between atoms: C5_6  and  C6_8 
REMARK    5  A    between atoms: C9_12  and  O2_14 
REMARK    6  A    between atoms: O2_14  and  C11_15 
REMARK    7  A    between atoms: C11_15  and  C12_16 
ROOT
HETATM    1  C6  UNL     1       1.207  -1.387   0.047  1.00  0.00    -0.009 A 
HETATM    2  C7  UNL     1       1.265  -2.682  -0.197  1.00  0.00     0.012 A 
HETATM    3  C8  UNL     1       0.150  -3.272  -0.922  1.00  0.00     0.015 A 
HETATM    4  P1  UNL     1      -1.138  -2.363  -1.419  1.00  0.00    -0.022 P 
HETATM    5  C9  UNL     1      -0.972  -0.579  -0.947  1.00  0.00     0.091 A 
HETATM    6  C10 UNL     1      -1.112   0.219  -2.236  1.00  0.00     0.052 C 
HETATM    7  C18 UNL     1       0.287  -0.302  -0.225  1.00  0.00     0.085 A 
ENDROOT
BRANCH   5   8
HETATM    8  O2  UNL     1      -2.020  -0.132  -0.105  1.00  0.00    -0.370 OA
BRANCH   8   9
HETATM    9  C11 UNL     1      -3.210  -0.299  -0.765  1.00  0.00     0.207 C 
BRANCH   9  10
HETATM   10  C12 UNL     1      -4.371   0.148   0.067  1.00  0.00    -0.035 A 
HETATM   11  C13 UNL     1      -4.856   1.458   0.042  1.00  0.00     0.009 A 
HETATM   12  C14 UNL     1      -5.925   1.799   0.835  1.00  0.00     0.001 A 
HETATM   13  C15 UNL     1      -6.542   0.882   1.662  1.00  0.00     0.000 A 
HETATM   14  C16 UNL     1      -6.100  -0.426   1.723  1.00  0.00     0.001 A 
HETATM   15  C17 UNL     1      -5.025  -0.740   0.917  1.00  0.00     0.009 A 
ENDBRANCH   9  10
ENDBRANCH   8   9
ENDBRANCH   5   8
BRANCH   1  16
HETATM   16  C5  UNL     1       2.386  -0.943   0.778  1.00  0.00     0.157 C 
HETATM   17  O1  UNL     1       3.475  -1.027   1.347  1.00  0.00    -0.293 OA
BRANCH  16  18
HETATM   18  C4  UNL     1       2.670   0.434   1.227  1.00  0.00     0.103 C 
BRANCH  18  19
HETATM   19  C3  UNL     1       4.077   0.808   1.472  1.00  0.00     0.123 C 
BRANCH  19  20
HETATM   20  N1  UNL     1       4.856   0.815   0.321  1.00  0.00    -0.420 N 
HETATM   21  C1  UNL     1       5.258  -0.257  -0.440  1.00  0.00     0.142 C 
HETATM   22  C2  UNL     1       5.502   2.083   0.028  1.00  0.00     0.142 C 
ENDBRANCH  19  20
ENDBRANCH  18  19
ENDBRANCH  16  18
ENDBRANCH   1  16
TORSDOF 7
