REMARK  6 active torsions:
REMARK  status: ('A' for Active; 'I' for Inactive)
REMARK    1  A    between atoms: C7_7  and  O1_8 
REMARK    2  A    between atoms: O1_8  and  C8_9 
REMARK    3  A    between atoms: C10_11  and  C11_12 
REMARK    4  A    between atoms: C11_12  and  C12_14 
REMARK    5  A    between atoms: C12_14  and  C13_15 
REMARK    6  A    between atoms: C13_15  and  N1_16 
ROOT
HETATM    1  C8  UNL     1       1.498  -0.757   0.787  1.00  0.00     0.058 A 
HETATM    2  C9  UNL     1       0.583  -1.130  -0.125  1.00  0.00     0.048 A 
HETATM    3  C10 UNL     1      -0.655  -0.498   0.310  1.00  0.00     0.009 A 
HETATM    4  C16 UNL     1      -0.468   0.203   1.414  1.00  0.00    -0.005 A 
HETATM    5  C17 UNL     1       0.953   0.120   1.858  1.00  0.00     0.093 A 
ENDROOT
BRANCH   1   6
HETATM    6  O1  UNL     1       2.850  -1.139   0.763  1.00  0.00    -0.314 OA
BRANCH   6   7
HETATM    7  C7  UNL     1       3.690  -0.531  -0.189  1.00  0.00     0.081 A 
HETATM    8  C2  UNL     1       5.046  -0.843  -0.294  1.00  0.00    -0.028 A 
HETATM    9  C1  UNL     1       5.633  -1.846   0.623  1.00  0.00     0.051 C 
HETATM   10  C3  UNL     1       5.839  -0.215  -1.254  1.00  0.00     0.009 A 
HETATM   11  C4  UNL     1       5.288   0.713  -2.099  1.00  0.00     0.001 A 
HETATM   12  C5  UNL     1       3.952   1.045  -2.023  1.00  0.00     0.003 A 
HETATM   13  C6  UNL     1       3.193   0.408  -1.065  1.00  0.00     0.038 A 
ENDBRANCH   6   7
ENDBRANCH   1   6
BRANCH   3  14
HETATM   14  C11 UNL     1      -1.882  -0.682  -0.452  1.00  0.00     0.161 C 
HETATM   15  O2  UNL     1      -1.811  -1.414  -1.504  1.00  0.00    -0.292 OA
BRANCH  14  16
HETATM   16  C12 UNL     1      -3.265  -0.241  -0.354  1.00  0.00     0.114 C 
BRANCH  16  17
HETATM   17  C13 UNL     1      -3.594   0.654   0.804  1.00  0.00     0.279 C 
BRANCH  17  18
HETATM   18  N1  UNL     1      -4.990   1.050   0.818  1.00  0.00     0.080 N 
HETATM   19  C14 UNL     1      -5.309   1.928  -0.288  1.00  0.00     0.309 C 
HETATM   20  C15 UNL     1      -5.914  -0.019   1.000  1.00  0.00     0.309 C 
ENDBRANCH  17  18
ENDBRANCH  16  17
ENDBRANCH  14  16
ENDBRANCH   3  14
TORSDOF 6
