REMARK  7 active torsions:
REMARK  status: ('A' for Active; 'I' for Inactive)
REMARK       I    between atoms: N1_2  and  C2_3 
REMARK    1  A    between atoms: C2_3  and  C3_5 
REMARK    2  A    between atoms: N2_9  and  C7_10 
REMARK    3  A    between atoms: C7_10  and  C8_11 
REMARK    4  A    between atoms: C8_11  and  O2_12 
REMARK    5  A    between atoms: O2_12  and  C9_13 
REMARK    6  A    between atoms: C13_17  and  N3_18 
REMARK    7  A    between atoms: N3_18  and  C14_19 
ROOT
HETATM    1  C9  UNL     1      -0.088  -0.024   1.291  1.00  0.00     0.071 A 
HETATM    2  C10 UNL     1      -0.717   0.126   0.073  1.00  0.00     0.038 A 
HETATM    3  C11 UNL     1      -2.000  -0.328  -0.129  1.00  0.00     0.020 A 
HETATM    4  C12 UNL     1      -2.712  -0.947   0.853  1.00  0.00     0.039 A 
HETATM    5  C13 UNL     1      -3.986  -1.362   0.529  1.00  0.00     0.142 A 
HETATM    6  N4  UNL     1      -4.678  -1.979   1.517  1.00  0.00    -0.224 NA
HETATM    7  C20 UNL     1      -4.125  -2.164   2.742  1.00  0.00     0.236 A 
HETATM    8  N5  UNL     1      -2.885  -1.750   3.030  1.00  0.00    -0.241 NA
HETATM    9  C21 UNL     1      -2.146  -1.131   2.094  1.00  0.00     0.074 A 
HETATM   10  C22 UNL     1      -0.842  -0.665   2.288  1.00  0.00     0.069 A 
ENDROOT
BRANCH   1  11
HETATM   11  O2  UNL     1       1.128   0.293   1.823  1.00  0.00    -0.349 OA
BRANCH  11  12
HETATM   12  C8  UNL     1       2.231   0.912   1.263  1.00  0.00     0.206 C 
BRANCH  12  13
HETATM   13  C7  UNL     1       2.809   0.088   0.153  1.00  0.00     0.300 C 
BRANCH  13  14
HETATM   14  N2  UNL     1       3.953   0.698  -0.457  1.00  0.00     0.104 N 
HETATM   15  C3  UNL     1       4.639  -0.234  -1.289  1.00  0.00     0.314 C 
HETATM   16  C4  UNL     1       4.988   0.541  -2.572  1.00  0.00     0.047 C 
HETATM   17  C5  UNL     1       3.785   1.453  -2.673  1.00  0.00     0.033 C 
HETATM   18  C6  UNL     1       3.621   1.865  -1.203  1.00  0.00     0.273 C 
BRANCH  15  19
HETATM   19  C2  UNL     1       5.895  -0.741  -0.662  1.00  0.00     0.251 C 
HETATM   20  N1  UNL     1       6.211  -0.191   0.635  1.00  0.00    -0.364 N 
HETATM   21  C1  UNL     1       7.345  -0.479   1.482  1.00  0.00     0.149 C 
HETATM   22  H4  UNL     1       5.564   0.517   1.062  1.00  0.00     0.161 HD
HETATM   23  O1  UNL     1       6.655  -1.601  -1.212  1.00  0.00    -0.271 OA
ENDBRANCH  15  19
ENDBRANCH  13  14
ENDBRANCH  12  13
ENDBRANCH  11  12
ENDBRANCH   1  11
BRANCH   5  24
HETATM   24  N3  UNL     1      -4.655  -1.205  -0.711  1.00  0.00    -0.338 N 
HETATM   25  H18 UNL     1      -4.330  -1.604  -1.606  1.00  0.00     0.167 HD
BRANCH  24  26
HETATM   26  C14 UNL     1      -5.867  -0.436  -0.733  1.00  0.00     0.074 A 
HETATM   27  C15 UNL     1      -6.395   0.140   0.403  1.00  0.00     0.033 A 
HETATM   28  C16 UNL     1      -7.562   0.878   0.426  1.00  0.00     0.004 A 
HETATM   29  C17 UNL     1      -8.253   1.057  -0.757  1.00  0.00     0.027 A 
HETATM   30  C18 UNL     1      -7.746   0.492  -1.904  1.00  0.00     0.074 A 
HETATM   31 CL1  UNL     1      -8.629   0.720  -3.413  1.00  0.00    -0.081 Cl
HETATM   32  C19 UNL     1      -6.579  -0.245  -1.920  1.00  0.00     0.164 A 
HETATM   33  F1  UNL     1      -6.108  -0.791  -3.090  1.00  0.00    -0.202 F 
ENDBRANCH  24  26
ENDBRANCH   5  24
TORSDOF 7
