REMARK  5 active torsions:
REMARK  status: ('A' for Active; 'I' for Inactive)
REMARK    1  A    between atoms: C1_2  and  C2_3 
REMARK    2  A    between atoms: C1_2  and  C9_11 
REMARK    3  A    between atoms: C2_3  and  C3_4 
REMARK    4  A    between atoms: C3_4  and  N1_5 
REMARK    5  A    between atoms: C12_14  and  C13_15 
ROOT
HETATM    1  C9  UNL     1       0.708  -0.059  -0.650  1.00  0.00     0.010 A 
HETATM    2  C10 UNL     1       1.457  -1.203  -0.911  1.00  0.00     0.016 A 
HETATM    3  C11 UNL     1       2.801  -1.378  -0.566  1.00  0.00     0.013 A 
HETATM    4  C12 UNL     1       3.431  -0.339   0.081  1.00  0.00    -0.026 A 
HETATM    5  C19 UNL     1       2.763   0.827   0.376  1.00  0.00     0.013 A 
HETATM    6  C20 UNL     1       1.448   0.918   0.004  1.00  0.00     0.016 A 
ENDROOT
BRANCH   1   7
HETATM    7  C1  UNL     1      -0.712   0.025  -1.064  1.00  0.00     0.161 C 
HETATM    8  O1  UNL     1      -1.055  -1.034  -1.647  1.00  0.00    -0.292 OA
BRANCH   7   9
HETATM    9  C2  UNL     1      -1.262   1.327  -0.656  1.00  0.00     0.103 C 
BRANCH   9  10
HETATM   10  C3  UNL     1      -2.679   1.610  -0.985  1.00  0.00     0.124 C 
BRANCH  10  11
HETATM   11  N1  UNL     1      -3.693   0.800  -0.455  1.00  0.00    -0.412 N 
HETATM   12  C4  UNL     1      -3.864  -0.521  -0.879  1.00  0.00     0.117 C 
HETATM   13  C5  UNL     1      -5.386  -0.793  -0.824  1.00  0.00     0.019 C 
HETATM   14  C6  UNL     1      -5.716  -0.823   0.634  1.00  0.00     0.003 C 
HETATM   15  C7  UNL     1      -5.461   0.527   1.248  1.00  0.00     0.019 C 
HETATM   16  C8  UNL     1      -4.164   1.144   0.845  1.00  0.00     0.117 C 
ENDBRANCH  10  11
ENDBRANCH   9  10
ENDBRANCH   7   9
ENDBRANCH   1   7
BRANCH   4  17
HETATM   17  C13 UNL     1       4.830  -0.400   0.483  1.00  0.00    -0.026 A 
HETATM   18  C14 UNL     1       5.602  -1.168  -0.389  1.00  0.00     0.012 A 
HETATM   19  C15 UNL     1       6.949  -1.354  -0.190  1.00  0.00     0.001 A 
HETATM   20  C16 UNL     1       7.496  -0.731   0.931  1.00  0.00     0.000 A 
HETATM   21  C17 UNL     1       6.735   0.035   1.804  1.00  0.00     0.001 A 
HETATM   22  C18 UNL     1       5.385   0.207   1.585  1.00  0.00     0.012 A 
ENDBRANCH   4  17
TORSDOF 5
