REMARK  3 active torsions:
REMARK  status: ('A' for Active; 'I' for Inactive)
REMARK    1  A    between atoms: C4_4  and  C5_5 
REMARK    2  A    between atoms: C6_6  and  C7_7 
REMARK       I    between atoms: C7_7  and  N1_9 
REMARK    3  A    between atoms: C13_15  and  C14_16 
ROOT
HETATM    1  C1  UNL     1      -3.909  -1.273   3.353  1.00  0.00     0.020 C 
HETATM    2  C2  UNL     1      -3.089  -1.357   2.356  1.00  0.00    -0.047 A 
HETATM    3  C3  UNL     1      -1.851  -0.852   1.590  1.00  0.00    -0.039 A 
HETATM    4  C4  UNL     1      -0.816  -0.198   1.250  1.00  0.00     0.009 C 
HETATM    5  C13 UNL     1      -2.623  -2.011   1.110  1.00  0.00     0.085 A 
ENDROOT
BRANCH   4   6
HETATM    6  C5  UNL     1      -0.044   0.935   1.829  1.00  0.00     0.006 C 
HETATM    7  C6  UNL     1       1.048   1.511   1.337  1.00  0.00     0.074 C 
BRANCH   7   8
HETATM    8  C7  UNL     1       1.722   1.153   0.118  1.00  0.00     0.243 C 
HETATM    9  O1  UNL     1       1.550   0.289  -0.782  1.00  0.00    -0.268 OA
HETATM   10  N1  UNL     1       2.880   1.864  -0.288  1.00  0.00    -0.348 N 
HETATM   11  C8  UNL     1       3.535   2.968   0.333  1.00  0.00     0.126 C 
HETATM   12  C12 UNL     1       3.828   1.811  -1.371  1.00  0.00     0.130 C 
HETATM   13  C9  UNL     1       4.971   2.538   0.507  1.00  0.00     0.026 C 
HETATM   14  C10 UNL     1       5.116   1.520  -0.588  1.00  0.00     0.001 C 
HETATM   15  C11 UNL     1       6.261   1.940  -1.485  1.00  0.00     0.011 C 
ENDBRANCH   7   8
ENDBRANCH   4   6
BRANCH   5  16
HETATM   16  C14 UNL     1      -3.530  -1.899  -0.022  1.00  0.00    -0.039 A 
HETATM   17  C15 UNL     1      -4.411  -0.841  -0.113  1.00  0.00     0.009 A 
HETATM   18  C16 UNL     1      -5.325  -0.555  -1.075  1.00  0.00     0.001 A 
HETATM   19  C17 UNL     1      -5.343  -1.485  -2.090  1.00  0.00     0.001 A 
HETATM   20  C18 UNL     1      -4.526  -2.627  -2.181  1.00  0.00     0.007 A 
HETATM   21  C19 UNL     1      -3.638  -2.757  -1.090  1.00  0.00    -0.055 A 
HETATM   22  C20 UNL     1      -2.786  -3.971  -1.225  1.00  0.00     0.049 C 
ENDBRANCH   5  16
TORSDOF 3
