REMARK  7 active torsions:
REMARK  status: ('A' for Active; 'I' for Inactive)
REMARK    1  A    between atoms: C2_2  and  C3_3 
REMARK    2  A    between atoms: C3_3  and  C4_4 
REMARK    3  A    between atoms: C4_4  and  O1_5 
REMARK    4  A    between atoms: O1_5  and  C5_6 
REMARK    5  A    between atoms: C9_10  and  C10_11 
REMARK    6  A    between atoms: C10_11  and  C11_12 
REMARK    7  A    between atoms: C11_12  and  N1_13 
ROOT
HETATM    1  C5  UNL     1       3.392   0.835  -0.633  1.00  0.00     0.068 C 
HETATM    2  C6  UNL     1       3.162   1.629  -1.684  1.00  0.00     0.036 C 
HETATM    3  C7  UNL     1       1.877   1.883  -2.339  1.00  0.00    -0.001 C 
HETATM    4  C8  UNL     1       0.673   1.622  -1.856  1.00  0.00    -0.018 C 
HETATM    5  C9  UNL     1       0.149   1.033  -0.600  1.00  0.00     0.032 C 
HETATM    6  C17 UNL     1       1.075   0.151   0.083  1.00  0.00    -0.015 C 
HETATM    7  C18 UNL     1       2.400   0.049   0.088  1.00  0.00     0.033 C 
ENDROOT
BRANCH   5   8
HETATM    8  C10 UNL     1      -1.164   0.396  -0.960  1.00  0.00     0.029 C 
BRANCH   8   9
HETATM    9  C11 UNL     1      -1.880  -0.265   0.162  1.00  0.00     0.121 C 
BRANCH   9  10
HETATM   10  N1  UNL     1      -3.117  -0.816  -0.380  1.00  0.00    -0.197 NA
HETATM   11  C12 UNL     1      -3.892  -1.454   0.505  1.00  0.00     0.120 C 
HETATM   12  C13 UNL     1      -4.770  -2.054   1.399  1.00  0.00     0.017 C 
HETATM   13  C14 UNL     1      -6.134  -1.310   1.225  1.00  0.00     0.003 C 
HETATM   14  C15 UNL     1      -5.891   0.008   0.468  1.00  0.00     0.028 C 
HETATM   15  C16 UNL     1      -5.215   0.049  -0.803  1.00  0.00     0.194 C 
HETATM   16  O2  UNL     1      -3.851   0.202  -0.984  1.00  0.00    -0.303 OA
ENDBRANCH   9  10
ENDBRANCH   8   9
ENDBRANCH   5   8
BRANCH   1  17
HETATM   17  O1  UNL     1       4.732   0.824  -0.267  1.00  0.00    -0.351 OA
BRANCH  17  18
HETATM   18  C4  UNL     1       5.042   0.719   1.107  1.00  0.00     0.179 C 
BRANCH  18  19
HETATM   19  C3  UNL     1       6.562   0.725   1.284  1.00  0.00     0.053 C 
BRANCH  19  20
HETATM   20  C2  UNL     1       7.202  -0.409   0.569  1.00  0.00    -0.035 C 
HETATM   21  C1  UNL     1       6.995  -1.465  -0.188  1.00  0.00     0.007 C 
ENDBRANCH  19  20
ENDBRANCH  18  19
ENDBRANCH  17  18
ENDBRANCH   1  17
TORSDOF 7
