REMARK  3 active torsions:
REMARK  status: ('A' for Active; 'I' for Inactive)
REMARK    1  A    between atoms: C8_9  and  O1_10 
REMARK    2  A    between atoms: O1_10  and  C9_11 
REMARK    3  A    between atoms: C9_11  and  C10_12 
ROOT
HETATM    1  C1  UNL     1       5.431  -1.109   1.485  1.00  0.00     0.309 C 
HETATM    2  N1  UNL     1       4.997   0.135   0.860  1.00  0.00     0.084 N 
HETATM    3  C2  UNL     1       4.533  -0.135  -0.476  1.00  0.00     0.271 C 
HETATM    4  C3  UNL     1       3.248  -0.859  -0.418  1.00  0.00     0.030 C 
HETATM    5  C4  UNL     1       2.645  -0.845  -1.817  1.00  0.00     0.006 C 
HETATM    6  C5  UNL     1       1.170  -0.992  -1.582  1.00  0.00     0.040 C 
HETATM    7  C6  UNL     1       0.615   0.150  -0.803  1.00  0.00    -0.042 A 
HETATM    8  C7  UNL     1      -0.747   0.007  -0.684  1.00  0.00     0.044 A 
HETATM    9  C8  UNL     1      -1.625   0.865  -0.061  1.00  0.00     0.069 A 
HETATM   10  C16 UNL     1      -1.128   2.009   0.524  1.00  0.00     0.038 A 
HETATM   11  C17 UNL     1       0.267   2.142   0.396  1.00  0.00     0.018 A 
HETATM   12  C18 UNL     1       1.194   1.289  -0.229  1.00  0.00     0.016 A 
HETATM   13  C19 UNL     1       2.522   1.937  -0.026  1.00  0.00     0.161 C 
HETATM   14  O2  UNL     1       2.416   2.328  -1.217  1.00  0.00    -0.292 OA
HETATM   15  C20 UNL     1       3.374   1.946   1.190  1.00  0.00     0.114 C 
HETATM   16  C21 UNL     1       3.996   0.739   1.689  1.00  0.00     0.279 C 
ENDROOT
BRANCH   9  17
HETATM   17  O1  UNL     1      -2.997   0.690   0.043  1.00  0.00    -0.347 OA
BRANCH  17  18
HETATM   18  C9  UNL     1      -3.532  -0.473  -0.550  1.00  0.00     0.214 C 
BRANCH  18  19
HETATM   19  C10 UNL     1      -5.017  -0.576  -0.385  1.00  0.00    -0.034 A 
HETATM   20  C11 UNL     1      -5.863   0.001  -1.319  1.00  0.00     0.009 A 
HETATM   21  C12 UNL     1      -7.235  -0.072  -1.211  1.00  0.00     0.001 A 
HETATM   22  C13 UNL     1      -7.746  -0.750  -0.125  1.00  0.00     0.000 A 
HETATM   23  C14 UNL     1      -6.912  -1.338   0.824  1.00  0.00     0.001 A 
HETATM   24  C15 UNL     1      -5.544  -1.254   0.701  1.00  0.00     0.009 A 
ENDBRANCH  18  19
ENDBRANCH  17  18
ENDBRANCH   9  17
TORSDOF 3
