REMARK  9 active torsions:
REMARK  status: ('A' for Active; 'I' for Inactive)
REMARK    1  A    between atoms: C2_2  and  C3_3 
REMARK    2  A    between atoms: C4_4  and  C5_5 
REMARK    3  A    between atoms: C4_4  and  O2_16 
REMARK    4  A    between atoms: C5_5  and  C6_6 
REMARK    5  A    between atoms: C6_6  and  C7_7 
REMARK    6  A    between atoms: C7_7  and  C8_9 
REMARK    7  A    between atoms: C8_9  and  N1_10 
REMARK    8  A    between atoms: O2_16  and  C14_17 
REMARK    9  A    between atoms: C14_17  and  C15_18 
ROOT
HETATM    1  C3  UNL     1       1.788   1.448   1.532  1.00  0.00     0.005 C 
HETATM    2  C4  UNL     1       1.169   0.800   0.529  1.00  0.00     0.043 C 
ENDROOT
BRANCH   2   3
HETATM    3  C5  UNL     1      -0.321   0.706   0.433  1.00  0.00     0.071 C 
BRANCH   3   4
HETATM    4  C6  UNL     1      -0.738   1.354  -0.869  1.00  0.00     0.086 C 
BRANCH   4   5
HETATM    5  C7  UNL     1      -2.219   1.321  -1.075  1.00  0.00     0.155 C 
HETATM    6  O1  UNL     1      -2.501   1.840  -2.132  1.00  0.00    -0.296 OA
BRANCH   5   7
HETATM    7  C8  UNL     1      -3.061   0.705  -0.034  1.00  0.00     0.350 C 
BRANCH   7   8
HETATM    8  N1  UNL     1      -4.459   0.724  -0.328  1.00  0.00     0.095 N 
HETATM    9  C9  UNL     1      -5.140   0.091   0.783  1.00  0.00     0.273 C 
HETATM   10  C10 UNL     1      -4.927  -1.384   0.876  1.00  0.00     0.030 C 
HETATM   11  C11 UNL     1      -5.352  -2.067  -0.417  1.00  0.00     0.003 C 
HETATM   12  C12 UNL     1      -4.522  -1.442  -1.519  1.00  0.00     0.030 C 
HETATM   13  C13 UNL     1      -4.842   0.033  -1.526  1.00  0.00     0.273 C 
ENDBRANCH   7   8
ENDBRANCH   5   7
ENDBRANCH   4   5
ENDBRANCH   3   4
ENDBRANCH   2   3
BRANCH   2  14
HETATM   14  O2  UNL     1       2.320   0.410  -0.129  1.00  0.00    -0.351 OA
BRANCH  14  15
HETATM   15  C14 UNL     1       2.438  -0.613  -1.066  1.00  0.00     0.213 C 
BRANCH  15  16
HETATM   16  C15 UNL     1       3.883  -0.701  -1.454  1.00  0.00    -0.034 A 
HETATM   17  C16 UNL     1       4.463   0.005  -2.496  1.00  0.00     0.009 A 
HETATM   18  C17 UNL     1       5.813  -0.149  -2.775  1.00  0.00     0.001 A 
HETATM   19  C18 UNL     1       6.588  -1.017  -2.002  1.00  0.00     0.000 A 
HETATM   20  C19 UNL     1       6.020  -1.730  -0.956  1.00  0.00     0.001 A 
HETATM   21  C20 UNL     1       4.659  -1.569  -0.682  1.00  0.00     0.009 A 
ENDBRANCH  15  16
ENDBRANCH  14  15
ENDBRANCH   2  14
BRANCH   1  22
HETATM   22  C2  UNL     1       3.118   1.830   2.089  1.00  0.00     0.025 C 
HETATM   23  C1  UNL     1       3.331   1.288   3.481  1.00  0.00     0.009 C 
ENDBRANCH   1  22
TORSDOF 9
