REMARK  3 active torsions:
REMARK  status: ('A' for Active; 'I' for Inactive)
REMARK    1  A    between atoms: C7_7  and  O1_8 
REMARK    2  A    between atoms: O1_8  and  C8_9 
REMARK    3  A    between atoms: C19_21  and  N1_22 
ROOT
HETATM    1  C8  UNL     1      -0.634   0.096   0.483  1.00  0.00     0.077 C 
HETATM    2  C9  UNL     1      -0.075   0.437  -0.677  1.00  0.00     0.017 C 
HETATM    3  C10 UNL     1       0.976   0.601  -1.682  1.00  0.00     0.048 C 
HETATM    4  C11 UNL     1       2.210   0.488  -2.127  1.00  0.00     0.033 C 
HETATM    5  C12 UNL     1       3.606   0.164  -2.163  1.00  0.00     0.146 C 
HETATM    6  O2  UNL     1       4.051   0.563  -3.296  1.00  0.00    -0.294 OA
HETATM    7  C13 UNL     1       4.586  -0.478  -1.266  1.00  0.00     0.083 C 
HETATM    8  C14 UNL     1       5.122   0.471  -0.213  1.00  0.00     0.008 C 
HETATM    9  C15 UNL     1       3.960   1.017   0.594  1.00  0.00     0.000 C 
HETATM   10  C16 UNL     1       3.254  -0.154   1.199  1.00  0.00     0.000 C 
HETATM   11  C17 UNL     1       1.914   0.313   1.722  1.00  0.00     0.002 C 
HETATM   12  C18 UNL     1       1.086  -0.965   1.927  1.00  0.00     0.042 C 
HETATM   13  C19 UNL     1      -0.337  -0.516   1.834  1.00  0.00     0.273 C 
ENDROOT
BRANCH   1  14
HETATM   14  O1  UNL     1      -1.984   0.401   0.498  1.00  0.00    -0.340 OA
BRANCH  14  15
HETATM   15  C7  UNL     1      -2.900   0.094  -0.510  1.00  0.00     0.179 C 
HETATM   16  C2  UNL     1      -4.252   0.524  -0.048  1.00  0.00    -0.054 C 
HETATM   17  C1  UNL     1      -4.522   1.343   1.182  1.00  0.00     0.046 C 
HETATM   18  C3  UNL     1      -5.251   0.108  -0.844  1.00  0.00    -0.018 C 
HETATM   19  C4  UNL     1      -4.941  -0.715  -2.074  1.00  0.00     0.054 C 
HETATM   20  C5  UNL     1      -3.997  -1.774  -1.570  1.00  0.00    -0.024 C 
HETATM   21  C6  UNL     1      -2.996  -1.356  -0.800  1.00  0.00     0.006 C 
ENDBRANCH  14  15
ENDBRANCH   1  14
BRANCH  13  22
HETATM   22  N1  UNL     1      -1.242  -1.605   2.063  1.00  0.00     0.089 N 
HETATM   23  H26 UNL     1      -1.190  -1.842   3.066  1.00  0.00     0.313 HD
HETATM   24  H27 UNL     1      -0.992  -2.479   1.545  1.00  0.00     0.313 HD
ENDBRANCH  13  22
TORSDOF 3
