REMARK  7 active torsions:
REMARK  status: ('A' for Active; 'I' for Inactive)
REMARK    1  A    between atoms: C1_2  and  C2_3 
REMARK    2  A    between atoms: C1_2  and  C9_11 
REMARK    3  A    between atoms: C2_3  and  C3_4 
REMARK    4  A    between atoms: C3_4  and  N1_5 
REMARK    5  A    between atoms: C12_14  and  O2_15 
REMARK    6  A    between atoms: O2_15  and  C13_16 
REMARK    7  A    between atoms: C13_16  and  C14_17 
ROOT
HETATM    1  C9  UNL     1      -0.123   0.054   0.617  1.00  0.00     0.074 A 
HETATM    2  C10 UNL     1       0.424   0.598  -0.457  1.00  0.00     0.035 A 
HETATM    3  C11 UNL     1       1.843   0.572  -0.743  1.00  0.00     0.036 A 
HETATM    4  C12 UNL     1       2.637  -0.028   0.119  1.00  0.00     0.064 A 
HETATM    5  C20 UNL     1       2.228  -0.696   1.377  1.00  0.00     0.184 A 
HETATM    6  N2  UNL     1       0.789  -0.576   1.502  1.00  0.00    -0.381 N 
HETATM    7  H26 UNL     1       0.483  -1.045   2.391  1.00  0.00     0.160 HD
ENDROOT
BRANCH   1   8
HETATM    8  C1  UNL     1      -1.542   0.052   0.950  1.00  0.00     0.177 C 
HETATM    9  O1  UNL     1      -1.987  -0.490   1.997  1.00  0.00    -0.291 OA
BRANCH   8  10
HETATM   10  C2  UNL     1      -2.509   0.709   0.030  1.00  0.00     0.115 C 
BRANCH  10  11
HETATM   11  C3  UNL     1      -3.865   0.534   0.649  1.00  0.00     0.280 C 
BRANCH  11  12
HETATM   12  N1  UNL     1      -4.961   1.085  -0.056  1.00  0.00     0.088 N 
HETATM   13  C4  UNL     1      -6.165   0.787   0.738  1.00  0.00     0.272 C 
HETATM   14  C5  UNL     1      -6.539  -0.686   0.619  1.00  0.00     0.030 C 
HETATM   15  C6  UNL     1      -6.428  -1.191  -0.801  1.00  0.00     0.003 C 
HETATM   16  C7  UNL     1      -6.413   0.023  -1.690  1.00  0.00     0.030 C 
HETATM   17  C8  UNL     1      -5.098   0.768  -1.431  1.00  0.00     0.272 C 
ENDBRANCH  11  12
ENDBRANCH  10  11
ENDBRANCH   8  10
ENDBRANCH   1   8
BRANCH   4  18
HETATM   18  O2  UNL     1       3.998  -0.001  -0.245  1.00  0.00    -0.349 OA
BRANCH  18  19
HETATM   19  C13 UNL     1       4.961  -0.430   0.672  1.00  0.00     0.214 C 
BRANCH  19  20
HETATM   20  C14 UNL     1       6.331  -0.327   0.111  1.00  0.00    -0.034 A 
HETATM   21  C15 UNL     1       6.911  -1.389  -0.589  1.00  0.00     0.009 A 
HETATM   22  C16 UNL     1       8.200  -1.304  -1.121  1.00  0.00     0.001 A 
HETATM   23  C17 UNL     1       8.930  -0.141  -0.955  1.00  0.00     0.000 A 
HETATM   24  C18 UNL     1       8.388   0.939  -0.264  1.00  0.00     0.001 A 
HETATM   25  C19 UNL     1       7.112   0.817   0.246  1.00  0.00     0.009 A 
ENDBRANCH  19  20
ENDBRANCH  18  19
ENDBRANCH   4  18
TORSDOF 7
