REMARK  12 active torsions:
REMARK  status: ('A' for Active; 'I' for Inactive)
REMARK    1  A    between atoms: N1_2  and  C3_4 
REMARK    2  A    between atoms: C3_4  and  C4_5 
REMARK    3  A    between atoms: C4_5  and  C5_6 
REMARK    4  A    between atoms: C4_5  and  O2_22 
REMARK    5  A    between atoms: C5_6  and  C6_7 
REMARK    6  A    between atoms: C6_7  and  C7_8 
REMARK    7  A    between atoms: C9_10  and  O1_11 
REMARK    8  A    between atoms: O1_11  and  C10_12 
REMARK    9  A    between atoms: C10_12  and  C11_13 
REMARK   10  A    between atoms: C11_13  and  C12_14 
REMARK   11  A    between atoms: O2_22  and  C19_23 
REMARK   12  A    between atoms: C19_23  and  N3_24 
ROOT
HETATM    1  C7  UNL     1      -0.393   0.522   1.690  1.00  0.00    -0.074 A 
HETATM    2  C8  UNL     1       0.873   0.336   1.334  1.00  0.00     0.039 A 
HETATM    3  C9  UNL     1       1.854   1.011   2.207  1.00  0.00     0.065 A 
HETATM    4  C17 UNL     1       1.091   1.609   3.104  1.00  0.00     0.014 A 
HETATM    5  C18 UNL     1      -0.352   1.379   2.890  1.00  0.00     0.064 A 
ENDROOT
BRANCH   1   6
HETATM    6  C6  UNL     1      -1.563  -0.058   0.964  1.00  0.00     0.037 C 
BRANCH   6   7
HETATM    7  C5  UNL     1      -2.479   1.020   0.451  1.00  0.00     0.038 C 
BRANCH   7   8
HETATM    8  C4  UNL     1      -3.624   0.406  -0.299  1.00  0.00     0.152 C 
BRANCH   8   9
HETATM    9  C3  UNL     1      -4.409  -0.497   0.602  1.00  0.00     0.303 C 
BRANCH   9  10
HETATM   10  N1  UNL     1      -5.537  -1.093  -0.150  1.00  0.00     0.082 N 
HETATM   11  C1  UNL     1      -6.465  -0.019  -0.453  1.00  0.00     0.309 C 
HETATM   12  C2  UNL     1      -6.204  -2.013   0.765  1.00  0.00     0.309 C 
ENDBRANCH   9  10
ENDBRANCH   8   9
BRANCH   8  13
HETATM   13  O2  UNL     1      -3.085  -0.269  -1.392  1.00  0.00    -0.361 OA
BRANCH  13  14
HETATM   14  C19 UNL     1      -3.484   0.199  -2.616  1.00  0.00     0.350 C 
BRANCH  14  15
HETATM   15  N3  UNL     1      -2.813  -0.634  -3.605  1.00  0.00    -0.115 NA
HETATM   16  O3  UNL     1      -3.229  -1.722  -3.907  1.00  0.00    -0.065 OA
ENDBRANCH  14  15
ENDBRANCH  13  14
ENDBRANCH   8  13
ENDBRANCH   7   8
ENDBRANCH   6   7
ENDBRANCH   1   6
BRANCH   3  17
HETATM   17  O1  UNL     1       3.224   0.942   2.006  1.00  0.00    -0.351 OA
BRANCH  17  18
HETATM   18  C10 UNL     1       3.753   0.524   0.782  1.00  0.00     0.180 C 
BRANCH  18  19
HETATM   19  C11 UNL     1       5.252   0.483   0.868  1.00  0.00     0.062 C 
BRANCH  19  20
HETATM   20  C12 UNL     1       5.877   0.043  -0.410  1.00  0.00    -0.060 A 
HETATM   21  C13 UNL     1       6.706   0.893  -0.990  1.00  0.00     0.006 A 
HETATM   22  C14 UNL     1       7.294   0.405  -2.252  1.00  0.00     0.017 A 
HETATM   23  C15 UNL     1       7.026  -0.780  -2.775  1.00  0.00     0.083 A 
HETATM   24  N2  UNL     1       6.123  -1.641  -2.094  1.00  0.00    -0.395 N 
HETATM   25  C16 UNL     1       5.462  -1.314  -0.847  1.00  0.00     0.153 A 
HETATM   26  H22 UNL     1       5.900  -2.580  -2.493  1.00  0.00     0.159 HD
ENDBRANCH  19  20
ENDBRANCH  18  19
ENDBRANCH  17  18
ENDBRANCH   3  17
TORSDOF 12
