REMARK  5 active torsions:
REMARK  status: ('A' for Active; 'I' for Inactive)
REMARK    1  A    between atoms: C1_2  and  C2_3 
REMARK    2  A    between atoms: C1_2  and  C9_11 
REMARK    3  A    between atoms: C2_3  and  C3_4 
REMARK    4  A    between atoms: C3_4  and  N1_5 
REMARK    5  A    between atoms: C19_21  and  O2_22 
ROOT
HETATM    1  C9  UNL     1       0.403  -0.404  -0.418  1.00  0.00     0.006 C 
HETATM    2  C10 UNL     1       1.090   0.715  -0.021  1.00  0.00    -0.007 C 
HETATM    3  C11 UNL     1       2.453   0.715   0.151  1.00  0.00     0.067 C 
HETATM    4  C12 UNL     1       3.751   1.190  -0.019  1.00  0.00    -0.048 A 
HETATM    5  C13 UNL     1       3.977   2.477  -0.332  1.00  0.00     0.008 A 
HETATM    6  C14 UNL     1       5.249   2.942  -0.526  1.00  0.00     0.001 A 
HETATM    7  C15 UNL     1       6.251   2.014  -0.380  1.00  0.00     0.001 A 
HETATM    8  C16 UNL     1       6.015   0.697  -0.059  1.00  0.00     0.007 A 
HETATM    9  C17 UNL     1       4.772   0.203   0.141  1.00  0.00    -0.049 A 
HETATM   10  C18 UNL     1       4.488  -1.195   0.503  1.00  0.00     0.075 C 
HETATM   11  C19 UNL     1       3.778  -2.160  -0.338  1.00  0.00     0.145 C 
HETATM   12  C20 UNL     1       2.351  -2.186  -0.578  1.00  0.00     0.006 C 
HETATM   13  C21 UNL     1       1.170  -1.630  -0.621  1.00  0.00     0.013 C 
ENDROOT
BRANCH   1  14
HETATM   14  C1  UNL     1      -0.959   0.029  -0.477  1.00  0.00     0.161 C 
HETATM   15  O1  UNL     1      -1.063   1.235  -0.160  1.00  0.00    -0.292 OA
BRANCH  14  16
HETATM   16  C2  UNL     1      -1.811  -1.092  -0.896  1.00  0.00     0.114 C 
BRANCH  16  17
HETATM   17  C3  UNL     1      -3.272  -0.899  -0.918  1.00  0.00     0.280 C 
BRANCH  17  18
HETATM   18  N1  UNL     1      -3.988  -0.653   0.262  1.00  0.00     0.088 N 
HETATM   19  C4  UNL     1      -3.849   0.559   0.968  1.00  0.00     0.272 C 
HETATM   20  C5  UNL     1      -4.233   1.776   0.147  1.00  0.00     0.030 C 
HETATM   21  C6  UNL     1      -5.704   1.596  -0.214  1.00  0.00     0.003 C 
HETATM   22  C7  UNL     1      -5.996   0.239  -0.772  1.00  0.00     0.030 C 
HETATM   23  C8  UNL     1      -5.423  -0.904   0.044  1.00  0.00     0.272 C 
ENDBRANCH  17  18
ENDBRANCH  16  17
ENDBRANCH  14  16
ENDBRANCH   1  14
BRANCH  11  24
HETATM   24  O2  UNL     1       3.928  -3.376   0.462  1.00  0.00    -0.391 OA
HETATM   25  H25 UNL     1       3.468  -4.090  -0.053  1.00  0.00     0.210 HD
ENDBRANCH  11  24
TORSDOF 5
