REMARK  0 active torsions:
REMARK  status: ('A' for Active; 'I' for Inactive)
ROOT
HETATM    1  O1  UNL     1       5.360   1.786   0.321  1.00  0.00    -0.292 OA
HETATM    2  C1  UNL     1       4.203   1.307   0.179  1.00  0.00     0.159 C 
HETATM    3  C2  UNL     1       4.213  -0.233   0.079  1.00  0.00     0.084 C 
HETATM    4  C3  UNL     1       2.833  -0.679  -0.023  1.00  0.00     0.008 C 
HETATM    5  C4  UNL     1       2.532  -2.187  -0.186  1.00  0.00     0.000 C 
HETATM    6  C5  UNL     1       0.988  -2.098  -0.296  1.00  0.00     0.002 C 
HETATM    7  C6  UNL     1       0.259  -3.337  -0.489  1.00  0.00     0.030 C 
HETATM    8  C7  UNL     1      -1.223  -2.989  -0.652  1.00  0.00     0.269 C 
HETATM    9  N1  UNL     1      -1.746  -2.347   0.531  1.00  0.00     0.083 N 
HETATM   10  C8  UNL     1      -3.152  -2.022   0.359  1.00  0.00     0.273 C 
HETATM   11  C9  UNL     1      -3.397  -0.898  -0.612  1.00  0.00     0.056 C 
HETATM   12  C10 UNL     1      -2.890   0.421  -0.068  1.00  0.00    -0.029 C 
HETATM   13  C11 UNL     1      -3.638   1.527   0.122  1.00  0.00    -0.028 C 
HETATM   14  C12 UNL     1      -3.320   2.922   0.651  1.00  0.00     0.053 C 
HETATM   15  C13 UNL     1      -1.827   2.899   1.041  1.00  0.00     0.179 C 
HETATM   16  O2  UNL     1      -1.066   2.586  -0.091  1.00  0.00    -0.351 OA
HETATM   17  C14 UNL     1       0.271   2.352  -0.118  1.00  0.00     0.068 A 
HETATM   18  C15 UNL     1       0.973   2.329  -1.295  1.00  0.00     0.037 A 
HETATM   19  C16 UNL     1       2.316   2.050  -1.184  1.00  0.00     0.018 A 
HETATM   20  C17 UNL     1       2.813   1.826   0.080  1.00  0.00     0.010 A 
HETATM   21  C18 UNL     1       2.147   1.850   1.279  1.00  0.00     0.018 A 
HETATM   22  C19 UNL     1       0.810   2.130   1.128  1.00  0.00     0.037 A 
HETATM   23  H13 UNL     1      -1.287  -1.457   0.764  1.00  0.00     0.315 HD
ENDROOT
TORSDOF 0
