REMARK  9 active torsions:
REMARK  status: ('A' for Active; 'I' for Inactive)
REMARK    1  A    between atoms: N1_2  and  C3_4 
REMARK    2  A    between atoms: C3_4  and  C4_5 
REMARK    3  A    between atoms: C4_5  and  N2_6 
REMARK    4  A    between atoms: C4_5  and  C13_19 
REMARK    5  A    between atoms: N2_6  and  N3_7 
REMARK       I    between atoms: N3_7  and  C5_8 
REMARK       I    between atoms: C5_8  and  N4_10 
REMARK    6  A    between atoms: N4_10  and  O2_11 
REMARK    7  A    between atoms: O2_11  and  C6_12 
REMARK    8  A    between atoms: C6_12  and  C7_13 
REMARK    9  A    between atoms: C13_19  and  C14_21 
ROOT
HETATM    1  N2  UNL     1      -0.445   0.371  -1.758  1.00  0.00    -0.318 N 
HETATM    2  H10 UNL     1      -0.459   1.010  -2.548  1.00  0.00     0.181 HD
ENDROOT
BRANCH   1   3
HETATM    3  C4  UNL     1      -1.717  -0.188  -1.354  1.00  0.00     0.202 C 
BRANCH   3   4
HETATM    4  C3  UNL     1      -1.584  -1.449  -0.586  1.00  0.00     0.306 C 
BRANCH   4   5
HETATM    5  N1  UNL     1      -2.782  -2.078  -0.147  1.00  0.00     0.082 N 
HETATM    6  C1  UNL     1      -2.422  -3.299   0.594  1.00  0.00     0.309 C 
HETATM    7  C2  UNL     1      -3.582  -2.576  -1.278  1.00  0.00     0.309 C 
ENDBRANCH   4   5
ENDBRANCH   3   4
BRANCH   3   8
HETATM    8  C13 UNL     1      -2.524   0.876  -0.747  1.00  0.00     0.181 C 
HETATM    9  O3  UNL     1      -1.511   1.548  -1.053  1.00  0.00    -0.290 OA
BRANCH   8  10
HETATM   10  C14 UNL     1      -3.743   1.305  -0.098  1.00  0.00    -0.007 A 
HETATM   11  C15 UNL     1      -4.814   0.604   0.223  1.00  0.00     0.011 A 
HETATM   12  C16 UNL     1      -5.702   1.566   0.847  1.00  0.00    -0.003 A 
HETATM   13  C17 UNL     1      -5.171   2.777   0.888  1.00  0.00    -0.022 A 
HETATM   14  C18 UNL     1      -3.822   2.750   0.273  1.00  0.00     0.069 A 
ENDBRANCH   8  10
ENDBRANCH   3   8
ENDBRANCH   1   3
BRANCH   1  15
HETATM   15  N3  UNL     1       0.449   0.599  -0.745  1.00  0.00    -0.254 N 
HETATM   16  C5  UNL     1       1.215   1.145   0.313  1.00  0.00     0.358 C 
HETATM   17  O1  UNL     1       0.882   2.298   0.604  1.00  0.00    -0.243 OA
HETATM   18  N4  UNL     1       2.244   0.416   0.943  1.00  0.00    -0.215 N 
HETATM   19  H12 UNL     1       2.518  -0.558   0.690  1.00  0.00     0.199 HD
HETATM   20  H11 UNL     1       0.689  -0.393  -1.047  1.00  0.00     0.191 HD
BRANCH  18  21
HETATM   21  O2  UNL     1       2.793   1.203   1.915  1.00  0.00    -0.272 OA
BRANCH  21  22
HETATM   22  C6  UNL     1       3.832   1.884   1.238  1.00  0.00     0.240 C 
BRANCH  22  23
HETATM   23  C7  UNL     1       4.761   0.831   0.722  1.00  0.00    -0.032 A 
HETATM   24  C8  UNL     1       5.779   0.478   1.585  1.00  0.00     0.009 A 
HETATM   25  C9  UNL     1       6.739  -0.484   1.279  1.00  0.00     0.001 A 
HETATM   26  C10 UNL     1       6.623  -1.088   0.032  1.00  0.00     0.000 A 
HETATM   27  C11 UNL     1       5.612  -0.755  -0.855  1.00  0.00     0.001 A 
HETATM   28  C12 UNL     1       4.682   0.209  -0.501  1.00  0.00     0.009 A 
ENDBRANCH  22  23
ENDBRANCH  21  22
ENDBRANCH  18  21
ENDBRANCH   1  15
TORSDOF 9
