REMARK  7 active torsions:
REMARK  status: ('A' for Active; 'I' for Inactive)
REMARK    1  A    between atoms: O1_2  and  C2_3 
REMARK    2  A    between atoms: C7_8  and  O2_9 
REMARK    3  A    between atoms: O2_9  and  C8_10 
REMARK    4  A    between atoms: N2_17  and  C13_18 
REMARK    5  A    between atoms: C13_18  and  N3_19 
REMARK    6  A    between atoms: N3_19  and  C14_20 
REMARK    7  A    between atoms: C14_20  and  C15_21 
ROOT
HETATM    1  C2  UNL     1      -1.901   2.131   0.801  1.00  0.00     0.103 A 
HETATM    2  C3  UNL     1      -2.669   1.263   1.547  1.00  0.00     0.072 A 
HETATM    3  C4  UNL     1      -2.751  -0.039   1.164  1.00  0.00     0.073 A 
HETATM    4  C5  UNL     1      -1.979  -0.297  -0.015  1.00  0.00     0.020 A 
HETATM    5  C6  UNL     1      -1.174   0.466  -0.852  1.00  0.00     0.055 A 
HETATM    6  C7  UNL     1      -1.182   1.804  -0.330  1.00  0.00     0.104 A 
HETATM    7  C9  UNL     1      -1.869  -1.481  -0.603  1.00  0.00     0.041 C 
HETATM    8  C10 UNL     1      -2.768  -2.670  -0.991  1.00  0.00     0.202 C 
HETATM    9  N1  UNL     1      -2.163  -3.446   0.148  1.00  0.00    -0.297 N 
HETATM   10  C11 UNL     1      -0.994  -3.969  -0.484  1.00  0.00     0.165 C 
HETATM   11  C12 UNL     1      -0.268  -2.947  -1.412  1.00  0.00     0.146 C 
HETATM   12  N2  UNL     1      -0.405  -1.589  -0.774  1.00  0.00    -0.355 N 
HETATM   13  N4  UNL     1      -2.801  -3.379   1.421  1.00  0.00    -0.170 NA
HETATM   14  C21 UNL     1      -3.068  -2.297   2.185  1.00  0.00     0.255 C 
HETATM   15  N5  UNL     1      -3.472  -0.871   1.921  1.00  0.00    -0.239 NA
ENDROOT
BRANCH  12  16
HETATM   16  C13 UNL     1       0.391  -0.459  -0.260  1.00  0.00     0.395 C 
BRANCH  16  17
HETATM   17  N3  UNL     1       1.447  -1.308   0.443  1.00  0.00     0.104 NA
HETATM   18  H15 UNL     1       1.885  -1.919  -0.220  1.00  0.00     0.318 HD
BRANCH  17  19
HETATM   19  C14 UNL     1       2.372  -0.449   1.086  1.00  0.00     0.310 C 
BRANCH  19  20
HETATM   20  C15 UNL     1       3.186   0.452   0.314  1.00  0.00    -0.030 A 
HETATM   21  C16 UNL     1       2.809   1.752  -0.014  1.00  0.00     0.009 A 
HETATM   22  C17 UNL     1       3.584   2.609  -0.750  1.00  0.00     0.001 A 
HETATM   23  C18 UNL     1       4.817   2.168  -1.199  1.00  0.00     0.000 A 
HETATM   24  C19 UNL     1       5.236   0.870  -0.893  1.00  0.00     0.001 A 
HETATM   25  C20 UNL     1       4.422   0.043  -0.149  1.00  0.00     0.009 A 
ENDBRANCH  19  20
ENDBRANCH  17  19
ENDBRANCH  16  17
ENDBRANCH  12  16
BRANCH   6  26
HETATM   26  O2  UNL     1      -0.431   2.702  -1.045  1.00  0.00    -0.328 OA
BRANCH  26  27
HETATM   27  C8  UNL     1       0.236   2.296  -2.180  1.00  0.00     0.348 C 
HETATM   28  S1  UNL     1      -0.383   2.233  -3.697  1.00  0.00    -0.165 SA
ENDBRANCH  26  27
ENDBRANCH   6  26
BRANCH   1  29
HETATM   29  O1  UNL     1      -1.859   3.443   1.244  1.00  0.00    -0.353 OA
HETATM   30  C1  UNL     1      -2.572   3.830   2.391  1.00  0.00     0.210 C 
ENDBRANCH   1  29
TORSDOF 7
