REMARK  8 active torsions:
REMARK  status: ('A' for Active; 'I' for Inactive)
REMARK    1  A    between atoms: C2_2  and  C3_3 
REMARK    2  A    between atoms: C2_2  and  C6_7 
REMARK    3  A    between atoms: C3_3  and  C4_4 
REMARK    4  A    between atoms: C6_7  and  C7_8 
REMARK    5  A    between atoms: C10_11  and  O2_12 
REMARK    6  A    between atoms: O2_12  and  S1_13 
REMARK    7  A    between atoms: S1_13  and  C11_16 
REMARK    8  A    between atoms: C14_19  and  C15_20 
REMARK       I    between atoms: C15_20  and  N1_22 
ROOT
HETATM    1  O2  UNL     1       0.217  -0.385   0.634  1.00  0.00    -0.229 OA
ENDROOT
BRANCH   1   2
HETATM    2  C10 UNL     1      -1.180  -0.396   0.592  1.00  0.00     0.089 A 
HETATM    3  C9  UNL     1      -1.744  -0.252  -0.668  1.00  0.00     0.039 A 
HETATM    4  C8  UNL     1      -3.122  -0.265  -0.742  1.00  0.00     0.010 A 
HETATM    5  C7  UNL     1      -3.920  -0.415   0.372  1.00  0.00    -0.054 A 
HETATM    6  C21 UNL     1      -3.300  -0.553   1.594  1.00  0.00     0.010 A 
HETATM    7  C20 UNL     1      -1.931  -0.548   1.748  1.00  0.00     0.039 A 
BRANCH   5   8
HETATM    8  C6  UNL     1      -5.399  -0.467   0.377  1.00  0.00     0.072 C 
BRANCH   8   9
HETATM    9  C2  UNL     1      -6.070   0.841   0.441  1.00  0.00    -0.078 C 
HETATM   10  C1  UNL     1      -6.840   1.165   1.454  1.00  0.00     0.015 C 
BRANCH   9  11
HETATM   11  C3  UNL     1      -5.963   1.890  -0.614  1.00  0.00     0.111 C 
BRANCH  11  12
HETATM   12  C4  UNL     1      -6.458   1.227  -1.874  1.00  0.00     0.127 C 
HETATM   13  C5  UNL     1      -7.956   1.017  -1.948  1.00  0.00     0.091 C 
HETATM   14  O1  UNL     1      -5.856   0.814  -2.874  1.00  0.00    -0.298 OA
ENDBRANCH  11  12
ENDBRANCH   9  11
ENDBRANCH   8   9
ENDBRANCH   5   8
ENDBRANCH   1   2
BRANCH   1  15
HETATM   15  S1  UNL     1       1.121  -1.811   0.475  1.00  0.00     0.303 S 
HETATM   16  O3  UNL     1       0.621  -2.654  -0.665  1.00  0.00    -0.193 OA
HETATM   17  O4  UNL     1       0.920  -2.633   1.715  1.00  0.00    -0.193 OA
BRANCH  15  18
HETATM   18  C11 UNL     1       2.790  -1.419   0.298  1.00  0.00     0.086 A 
HETATM   19  C12 UNL     1       3.201  -1.290  -1.003  1.00  0.00     0.027 A 
HETATM   20  C13 UNL     1       4.516  -0.992  -1.338  1.00  0.00     0.018 A 
HETATM   21  C14 UNL     1       5.454  -0.816  -0.313  1.00  0.00     0.032 A 
HETATM   22  C18 UNL     1       5.032  -0.945   0.997  1.00  0.00     0.018 A 
HETATM   23  C19 UNL     1       3.709  -1.245   1.315  1.00  0.00     0.027 A 
BRANCH  21  24
HETATM   24  C15 UNL     1       6.866  -0.507  -0.515  1.00  0.00     0.253 C 
HETATM   25  O5  UNL     1       7.257  -1.514  -1.187  1.00  0.00    -0.267 OA
HETATM   26  N1  UNL     1       7.693   0.578  -0.121  1.00  0.00    -0.357 N 
HETATM   27  C16 UNL     1       7.207   1.723   0.648  1.00  0.00     0.152 C 
HETATM   28  C17 UNL     1       9.075   0.460  -0.542  1.00  0.00     0.152 C 
ENDBRANCH  21  24
ENDBRANCH  15  18
ENDBRANCH   1  15
TORSDOF 8
