REMARK  4 active torsions:
REMARK  status: ('A' for Active; 'I' for Inactive)
REMARK    1  A    between atoms: N1_2  and  C2_3 
REMARK    2  A    between atoms: C7_8  and  C8_9 
REMARK    3  A    between atoms: C8_9  and  N2_11 
REMARK    4  A    between atoms: N3_14  and  C12_15 
ROOT
HETATM    1  N2  UNL     1      -0.790   0.123   0.670  1.00  0.00     0.100 N 
HETATM    2  C10 UNL     1      -0.240   0.324  -0.657  1.00  0.00     0.293 C 
HETATM    3  C11 UNL     1       1.211   0.771  -0.569  1.00  0.00     0.154 C 
HETATM    4  N3  UNL     1       2.010  -0.307  -0.019  1.00  0.00    -0.372 N 
HETATM    5  C17 UNL     1       1.189  -1.242   0.687  1.00  0.00     0.154 C 
HETATM    6  C18 UNL     1       0.243  -0.407   1.572  1.00  0.00     0.293 C 
ENDROOT
BRANCH   1   7
HETATM    7  C8  UNL     1      -1.873  -0.803   0.709  1.00  0.00     0.254 C 
HETATM    8  C9  UNL     1      -2.335  -0.995   2.131  1.00  0.00     0.048 C 
BRANCH   7   9
HETATM    9  C7  UNL     1      -3.025  -0.442  -0.168  1.00  0.00     0.003 A 
HETATM   10  C2  UNL     1      -3.448   0.870  -0.230  1.00  0.00     0.064 A 
HETATM   11  C3  UNL     1      -4.519   1.223  -1.051  1.00  0.00     0.032 A 
HETATM   12  C4  UNL     1      -5.189   0.280  -1.823  1.00  0.00     0.002 A 
HETATM   13  C5  UNL     1      -4.756  -1.044  -1.754  1.00  0.00     0.001 A 
HETATM   14  C6  UNL     1      -3.692  -1.382  -0.936  1.00  0.00     0.012 A 
BRANCH  10  15
HETATM   15  N1  UNL     1      -2.856   1.927   0.514  1.00  0.00    -0.271 NA
HETATM   16  C1  UNL     1      -3.578   2.942   0.894  1.00  0.00     0.149 C 
ENDBRANCH  10  15
ENDBRANCH   7   9
ENDBRANCH   1   7
BRANCH   4  17
HETATM   17  C12 UNL     1       3.418  -0.250  -0.257  1.00  0.00     0.078 C 
HETATM   18  S1  UNL     1       3.880   1.088  -1.122  1.00  0.00    -0.060 SA
HETATM   19  N4  UNL     1       5.518   1.606  -1.669  1.00  0.00    -0.220 NA
HETATM   20  H15 UNL     1       2.974   2.184  -0.850  1.00  0.00     0.122 HD
HETATM   21  C13 UNL     1       6.658   1.018  -1.509  1.00  0.00     0.117 C 
HETATM   22  C14 UNL     1       6.996   0.380  -0.439  1.00  0.00     0.175 C 
HETATM   23  O1  UNL     1       6.684  -0.883   0.046  1.00  0.00    -0.332 OA
HETATM   24  C15 UNL     1       5.549  -1.571   0.399  1.00  0.00     0.144 C 
HETATM   25  C16 UNL     1       4.217  -1.370   0.305  1.00  0.00     0.062 C 
ENDBRANCH   4  17
TORSDOF 4
