REMARK  5 active torsions:
REMARK  status: ('A' for Active; 'I' for Inactive)
REMARK    1  A    between atoms: O1_2  and  C2_3 
REMARK    2  A    between atoms: C6_9  and  N3_10 
REMARK    3  A    between atoms: N3_10  and  C7_11 
REMARK    4  A    between atoms: C15_21  and  N4_22 
REMARK    5  A    between atoms: C19_26  and  C20_27 
REMARK       I    between atoms: C20_27  and  N5_29 
ROOT
HETATM    1  C2  UNL     1      -0.684  -2.171   0.638  1.00  0.00     0.135 C 
HETATM    2  C3  UNL     1       0.018  -2.256   1.724  1.00  0.00     0.062 C 
HETATM    3  C4  UNL     1       0.615  -2.576   2.982  1.00  0.00     0.307 C 
HETATM    4  N1  UNL     1       1.600  -1.773   3.196  1.00  0.00    -0.402 NA
HETATM    5  C5  UNL     1       2.012  -0.743   2.308  1.00  0.00     0.195 C 
HETATM    6  N2  UNL     1       1.959  -1.198   1.090  1.00  0.00    -0.227 NA
HETATM    7  C6  UNL     1       2.322  -0.371  -0.015  1.00  0.00     0.140 C 
HETATM    8  C13 UNL     1       1.976  -1.492  -0.630  1.00  0.00     0.022 C 
HETATM    9  C14 UNL     1       0.805  -1.373  -1.194  1.00  0.00     0.028 C 
HETATM   10  C15 UNL     1      -0.129  -1.047  -0.096  1.00  0.00     0.285 C 
ENDROOT
BRANCH   7  11
HETATM   11  N3  UNL     1       2.790   0.866  -0.576  1.00  0.00    -0.338 N 
HETATM   12  H7  UNL     1       2.041   1.288  -1.190  1.00  0.00     0.167 HD
BRANCH  11  13
HETATM   13  C7  UNL     1       4.055   1.487  -0.376  1.00  0.00     0.074 A 
HETATM   14  C8  UNL     1       4.074   2.348   0.694  1.00  0.00     0.033 A 
HETATM   15  C9  UNL     1       5.224   3.033   1.026  1.00  0.00     0.004 A 
HETATM   16  C10 UNL     1       6.344   2.831   0.261  1.00  0.00     0.027 A 
HETATM   17  C11 UNL     1       6.337   1.968  -0.817  1.00  0.00     0.074 A 
HETATM   18 CL1  UNL     1       7.738   1.658  -1.847  1.00  0.00    -0.081 Cl
HETATM   19  C12 UNL     1       5.183   1.278  -1.154  1.00  0.00     0.164 A 
HETATM   20  F1  UNL     1       5.060   0.406  -2.190  1.00  0.00    -0.202 F 
ENDBRANCH  11  13
ENDBRANCH   7  11
BRANCH  10  21
HETATM   21  N4  UNL     1      -1.284  -0.584  -0.924  1.00  0.00     0.113 N 
HETATM   22  C16 UNL     1      -1.738  -1.490  -1.886  1.00  0.00     0.275 C 
HETATM   23  C17 UNL     1      -3.242  -1.532  -1.798  1.00  0.00     0.033 C 
HETATM   24  C18 UNL     1      -3.631  -0.785  -0.555  1.00  0.00     0.047 C 
HETATM   25  C19 UNL     1      -2.360  -0.101  -0.112  1.00  0.00     0.315 C 
BRANCH  25  26
HETATM   26  C20 UNL     1      -2.410   1.363  -0.310  1.00  0.00     0.252 C 
HETATM   27  O2  UNL     1      -1.445   1.349  -1.116  1.00  0.00    -0.271 OA
HETATM   28  N5  UNL     1      -3.212   2.423   0.189  1.00  0.00    -0.359 N 
HETATM   29  C21 UNL     1      -4.318   2.238   1.146  1.00  0.00     0.152 C 
HETATM   30  C22 UNL     1      -2.752   3.690  -0.402  1.00  0.00     0.152 C 
ENDBRANCH  25  26
ENDBRANCH  10  21
BRANCH   1  31
HETATM   31  O1  UNL     1      -1.747  -2.959   0.220  1.00  0.00    -0.379 OA
HETATM   32  C1  UNL     1      -2.018  -4.245   0.678  1.00  0.00     0.202 C 
ENDBRANCH   1  31
TORSDOF 5
