REMARK  1 active torsions:
REMARK  status: ('A' for Active; 'I' for Inactive)
REMARK    1  A    between atoms: O1_2  and  C2_3 
ROOT
HETATM    1  C2  UNL     1      -2.388  -2.180  -0.009  1.00  0.00     0.043 C 
HETATM    2  C3  UNL     1      -1.443  -3.102  -0.116  1.00  0.00     0.013 C 
HETATM    3  C4  UNL     1      -0.153  -3.557   0.394  1.00  0.00     0.109 C 
HETATM    4  C5  UNL     1       0.709  -2.505   0.966  1.00  0.00     0.125 C 
HETATM    5  N1  UNL     1       1.874  -3.043   0.868  1.00  0.00    -0.244 NA
HETATM    6  C6  UNL     1       3.035  -2.318   1.331  1.00  0.00     0.422 C 
HETATM    7  N2  UNL     1       3.116  -1.078   0.607  1.00  0.00     0.110 N 
HETATM    8  C7  UNL     1       3.542   0.020   1.467  1.00  0.00     0.294 C 
HETATM    9  C8  UNL     1       3.774   1.201   0.521  1.00  0.00     0.155 C 
HETATM   10  N3  UNL     1       2.994   1.018  -0.689  1.00  0.00    -0.355 N 
HETATM   11  C9  UNL     1       3.649  -0.012  -1.470  1.00  0.00     0.155 C 
HETATM   12  C10 UNL     1       3.983  -1.154  -0.540  1.00  0.00     0.294 C 
HETATM   13  C11 UNL     1       1.788   1.715  -1.065  1.00  0.00     0.170 C 
HETATM   14  S1  UNL     1       1.537   3.286  -0.704  1.00  0.00    -0.041 SA
HETATM   15  N4  UNL     1       0.763   1.000  -1.786  1.00  0.00    -0.363 N 
HETATM   16  C12 UNL     1      -0.454   1.636  -2.182  1.00  0.00     0.161 C 
HETATM   17  C13 UNL     1      -1.256   2.187  -1.058  1.00  0.00    -0.031 A 
HETATM   18  C14 UNL     1      -1.618   3.531  -1.082  1.00  0.00     0.012 A 
HETATM   19  C15 UNL     1      -2.359   4.187  -0.118  1.00  0.00     0.040 A 
HETATM   20  C16 UNL     1      -2.758   3.405   0.947  1.00  0.00     0.105 A 
HETATM   21  C17 UNL     1      -2.423   2.060   1.017  1.00  0.00     0.112 A 
HETATM   22  C18 UNL     1      -1.669   1.428   0.020  1.00  0.00    -0.004 A 
HETATM   23  C19 UNL     1      -1.348  -0.003   0.161  1.00  0.00     0.069 C 
HETATM   24  C20 UNL     1      -0.117  -0.187   1.002  1.00  0.00     0.101 C 
HETATM   25  N5  UNL     1       0.469  -1.213   1.511  1.00  0.00    -0.249 NA
HETATM   26  C21 UNL     1      -2.402  -0.871   0.715  1.00  0.00     0.079 C 
HETATM   27  O2  UNL     1      -2.946   1.524   2.179  1.00  0.00    -0.322 OA
HETATM   28  C22 UNL     1      -3.901   2.458   2.651  1.00  0.00     0.352 C 
HETATM   29  O3  UNL     1      -3.499   3.713   2.078  1.00  0.00    -0.323 OA
HETATM   30  H17 UNL     1       0.949  -0.021  -2.016  1.00  0.00     0.162 HD
ENDROOT
BRANCH   1  31
HETATM   31  O1  UNL     1      -3.565  -2.496  -0.690  1.00  0.00    -0.360 OA
HETATM   32  C1  UNL     1      -3.645  -2.472  -2.102  1.00  0.00     0.209 C 
ENDBRANCH   1  31
TORSDOF 1
