REMARK  6 active torsions:
REMARK  status: ('A' for Active; 'I' for Inactive)
REMARK    1  A    between atoms: O1_2  and  C2_3 
REMARK    2  A    between atoms: C9_12  and  O2_13 
REMARK    3  A    between atoms: N3_17  and  C13_18 
REMARK    4  A    between atoms: C13_18  and  N4_20 
REMARK    5  A    between atoms: N4_20  and  C14_21 
REMARK    6  A    between atoms: C14_21  and  C15_22 
ROOT
HETATM    1  C2  UNL     1      -5.119   0.741   0.362  1.00  0.00     0.104 A 
HETATM    2  C3  UNL     1      -5.454   0.153  -0.838  1.00  0.00     0.072 A 
HETATM    3  C4  UNL     1      -4.483  -0.514  -1.557  1.00  0.00     0.075 A 
HETATM    4  N1  UNL     1      -4.961  -1.042  -2.720  1.00  0.00    -0.241 NA
HETATM    5  C5  UNL     1      -4.138  -1.715  -3.521  1.00  0.00     0.236 A 
HETATM    6  N2  UNL     1      -2.860  -1.879  -3.205  1.00  0.00    -0.224 NA
HETATM    7  C6  UNL     1      -2.366  -1.356  -2.045  1.00  0.00     0.139 A 
HETATM    8  C7  UNL     1      -3.168  -0.635  -1.149  1.00  0.00     0.048 A 
HETATM    9  C8  UNL     1      -2.843  -0.042   0.055  1.00  0.00    -0.004 A 
HETATM   10  C9  UNL     1      -3.817   0.622   0.770  1.00  0.00     0.108 A 
HETATM   11  C11 UNL     1      -1.621   0.122   0.923  1.00  0.00     0.062 C 
HETATM   12  C12 UNL     1      -0.430   0.529   0.046  1.00  0.00     0.132 C 
HETATM   13  N3  UNL     1       0.243  -0.661  -0.384  1.00  0.00    -0.342 N 
HETATM   14  C22 UNL     1       0.116  -1.799  -1.231  1.00  0.00     0.250 C 
HETATM   15  N5  UNL     1      -0.990  -1.777  -2.136  1.00  0.00    -0.358 N 
HETATM   16  H23 UNL     1      -0.732  -2.154  -3.076  1.00  0.00     0.162 HD
ENDROOT
BRANCH  13  17
HETATM   17  C13 UNL     1       1.493  -0.710   0.290  1.00  0.00     0.171 C 
HETATM   18  S1  UNL     1       1.986   0.445   1.361  1.00  0.00    -0.041 SA
BRANCH  17  19
HETATM   19  N4  UNL     1       2.681  -1.421   0.477  1.00  0.00    -0.363 N 
HETATM   20  H13 UNL     1       2.349  -2.159  -0.209  1.00  0.00     0.162 HD
BRANCH  19  21
HETATM   21  C14 UNL     1       3.970  -1.726   0.997  1.00  0.00     0.160 C 
BRANCH  21  22
HETATM   22  C15 UNL     1       4.908  -0.633   0.633  1.00  0.00    -0.038 A 
HETATM   23  C16 UNL     1       5.557  -0.703  -0.606  1.00  0.00     0.012 A 
HETATM   24  C17 UNL     1       6.458   0.214  -1.092  1.00  0.00     0.040 A 
HETATM   25  C18 UNL     1       6.757   1.294  -0.311  1.00  0.00     0.105 A 
HETATM   26  C19 UNL     1       6.145   1.404   0.911  1.00  0.00     0.105 A 
HETATM   27  O4  UNL     1       7.589   2.397  -0.448  1.00  0.00    -0.323 OA
HETATM   28  C20 UNL     1       5.244   0.471   1.379  1.00  0.00     0.048 A 
HETATM   29  O3  UNL     1       6.571   2.560   1.559  1.00  0.00    -0.323 OA
HETATM   30  C21 UNL     1       7.712   3.017   0.837  1.00  0.00     0.352 C 
ENDBRANCH  21  22
ENDBRANCH  19  21
ENDBRANCH  17  19
ENDBRANCH  13  17
BRANCH  10  31
HETATM   31  O2  UNL     1      -3.485   1.226   1.997  1.00  0.00    -0.353 OA
HETATM   32  C10 UNL     1      -3.632   0.400   3.148  1.00  0.00     0.210 C 
ENDBRANCH  10  31
BRANCH   1  33
HETATM   33  O1  UNL     1      -6.047   1.426   1.136  1.00  0.00    -0.353 OA
HETATM   34  C1  UNL     1      -7.370   1.498   0.637  1.00  0.00     0.210 C 
ENDBRANCH   1  33
TORSDOF 6
