REMARK  9 active torsions:
REMARK  status: ('A' for Active; 'I' for Inactive)
REMARK    1  A    between atoms: O1_2  and  C2_3 
REMARK    2  A    between atoms: C6_9  and  N3_10 
REMARK    3  A    between atoms: N4_13  and  C9_14 
REMARK    4  A    between atoms: C9_14  and  N5_16 
REMARK    5  A    between atoms: N5_16  and  C10_17 
REMARK    6  A    between atoms: C10_17  and  C11_18 
REMARK    7  A    between atoms: C15_22  and  C16_23 
REMARK    8  A    between atoms: C16_23  and  O2_24 
REMARK    9  A    between atoms: C22_30  and  O3_31 
ROOT
HETATM    1  N3  UNL     1      -1.523   0.385   0.382  1.00  0.00    -0.362 N 
HETATM    2  C7  UNL     1      -1.129  -0.521  -0.705  1.00  0.00     0.144 C 
HETATM    3  C8  UNL     1       0.298  -0.260  -1.119  1.00  0.00     0.145 C 
HETATM    4  N4  UNL     1       1.241  -0.315  -0.035  1.00  0.00    -0.355 N 
HETATM    5  C18 UNL     1       0.778   0.607   0.981  1.00  0.00     0.145 C 
HETATM    6  C19 UNL     1      -0.577   0.134   1.451  1.00  0.00     0.144 C 
ENDROOT
BRANCH   1   7
HETATM    7  C6  UNL     1      -2.583   1.322   0.439  1.00  0.00     0.139 A 
HETATM    8  N2  UNL     1      -2.177   2.590   0.639  1.00  0.00    -0.224 NA
HETATM    9  C5  UNL     1      -3.061   3.601   0.718  1.00  0.00     0.236 A 
HETATM   10  N1  UNL     1      -4.402   3.381   0.598  1.00  0.00    -0.241 NA
HETATM   11  C4  UNL     1      -4.848   2.116   0.395  1.00  0.00     0.075 A 
HETATM   12  C3  UNL     1      -6.183   1.853   0.269  1.00  0.00     0.072 A 
HETATM   13  C20 UNL     1      -3.935   1.085   0.316  1.00  0.00     0.041 A 
HETATM   14  C2  UNL     1      -6.545   0.531   0.065  1.00  0.00     0.103 A 
HETATM   15  C22 UNL     1      -5.639  -0.506  -0.016  1.00  0.00     0.102 A 
HETATM   16  C21 UNL     1      -4.280  -0.236   0.112  1.00  0.00     0.057 A 
BRANCH  14  17
HETATM   17  O1  UNL     1      -7.895   0.241  -0.066  1.00  0.00    -0.353 OA
HETATM   18  C1  UNL     1      -8.853   1.307   0.016  1.00  0.00     0.210 C 
ENDBRANCH  14  17
BRANCH  15  19
HETATM   19  O3  UNL     1      -6.115  -1.792  -0.224  1.00  0.00    -0.353 OA
HETATM   20  C23 UNL     1      -5.299  -2.921  -0.323  1.00  0.00     0.210 C 
ENDBRANCH  15  19
ENDBRANCH   1   7
BRANCH   4  21
HETATM   21  C9  UNL     1       2.406  -1.169  -0.055  1.00  0.00     0.170 C 
HETATM   22  S1  UNL     1       2.533  -2.069  -1.435  1.00  0.00    -0.041 SA
BRANCH  21  23
HETATM   23  N5  UNL     1       3.357  -1.250   0.994  1.00  0.00    -0.363 N 
HETATM   24  H10 UNL     1       3.084  -0.593   1.791  1.00  0.00     0.162 HD
BRANCH  23  25
HETATM   25  C10 UNL     1       4.571  -2.001   1.207  1.00  0.00     0.160 C 
BRANCH  25  26
HETATM   26  C11 UNL     1       5.547  -1.598   0.160  1.00  0.00    -0.040 A 
HETATM   27  C12 UNL     1       5.862  -2.150  -1.062  1.00  0.00     0.009 A 
HETATM   28  C13 UNL     1       6.804  -1.565  -1.858  1.00  0.00     0.001 A 
HETATM   29  C14 UNL     1       7.485  -0.417  -1.509  1.00  0.00     0.009 A 
HETATM   30  C15 UNL     1       7.187   0.155  -0.289  1.00  0.00    -0.034 A 
HETATM   31  C17 UNL     1       6.243  -0.432   0.508  1.00  0.00     0.018 A 
BRANCH  30  32
HETATM   32  C16 UNL     1       7.929   1.379   0.057  1.00  0.00     0.202 C 
BRANCH  32  33
HETATM   33  O2  UNL     1       7.224   2.498  -0.406  1.00  0.00    -0.396 OA
HETATM   34  H18 UNL     1       6.383   2.604   0.099  1.00  0.00     0.209 HD
ENDBRANCH  32  33
ENDBRANCH  30  32
ENDBRANCH  25  26
ENDBRANCH  23  25
ENDBRANCH  21  23
ENDBRANCH   4  21
TORSDOF 9
