REMARK  6 active torsions:
REMARK  status: ('A' for Active; 'I' for Inactive)
REMARK    1  A    between atoms: O1_2  and  C2_3 
REMARK    2  A    between atoms: C6_9  and  N3_10 
REMARK    3  A    between atoms: N4_13  and  C9_14 
REMARK    4  A    between atoms: C9_14  and  N5_15 
REMARK    5  A    between atoms: N5_15  and  C10_16 
REMARK    6  A    between atoms: C15_21  and  S1_22 
ROOT
HETATM    1  N3  UNL     1       0.922  -0.334   0.176  1.00  0.00    -0.362 N 
HETATM    2  C7  UNL     1       0.623  -0.377   1.589  1.00  0.00     0.144 C 
HETATM    3  C8  UNL     1      -0.888  -0.134   1.696  1.00  0.00     0.138 C 
HETATM    4  N4  UNL     1      -1.520  -1.297   1.190  1.00  0.00    -0.394 N 
HETATM    5  C16 UNL     1      -1.009  -1.868   0.008  1.00  0.00     0.138 C 
HETATM    6  C17 UNL     1       0.075  -1.114  -0.686  1.00  0.00     0.144 C 
ENDROOT
BRANCH   1   7
HETATM    7  C6  UNL     1       1.908   0.328  -0.643  1.00  0.00     0.138 A 
HETATM    8  N2  UNL     1       1.467   1.178  -1.599  1.00  0.00    -0.224 NA
HETATM    9  C5  UNL     1       2.341   1.834  -2.405  1.00  0.00     0.235 A 
HETATM   10  N1  UNL     1       3.679   1.645  -2.261  1.00  0.00    -0.241 NA
HETATM   11  C4  UNL     1       4.162   0.809  -1.323  1.00  0.00     0.075 A 
HETATM   12  C3  UNL     1       5.602   0.614  -1.177  1.00  0.00     0.096 A 
HETATM   13  C18 UNL     1       3.268   0.145  -0.506  1.00  0.00     0.041 A 
HETATM   14  C2  UNL     1       6.009  -0.227  -0.228  1.00  0.00     0.182 A 
HETATM   15  O2  UNL     1       5.130  -0.896   0.592  1.00  0.00    -0.326 OA
HETATM   16  C19 UNL     1       3.726  -0.782   0.538  1.00  0.00     0.223 A 
BRANCH  14  17
HETATM   17  O1  UNL     1       7.383  -0.410  -0.094  1.00  0.00    -0.336 OA
HETATM   18  C1  UNL     1       8.203   0.667   0.348  1.00  0.00     0.212 C 
ENDBRANCH  14  17
ENDBRANCH   1   7
BRANCH   4  19
HETATM   19  C9  UNL     1      -2.968  -1.218   1.213  1.00  0.00     0.241 C 
BRANCH  19  20
HETATM   20  N5  UNL     1      -3.350  -0.084   0.392  1.00  0.00    -0.373 N 
HETATM   21  H12 UNL     1      -2.704   0.539  -0.107  1.00  0.00     0.161 HD
BRANCH  20  22
HETATM   22  C10 UNL     1      -4.738   0.205   0.255  1.00  0.00     0.045 A 
HETATM   23  C11 UNL     1      -5.711  -0.569   0.885  1.00  0.00     0.030 A 
HETATM   24  C12 UNL     1      -7.069  -0.346   0.796  1.00  0.00     0.002 A 
HETATM   25  C13 UNL     1      -7.496   0.717   0.030  1.00  0.00     0.002 A 
HETATM   26  C14 UNL     1      -6.572   1.521  -0.619  1.00  0.00     0.021 A 
HETATM   27  C15 UNL     1      -5.225   1.256  -0.498  1.00  0.00     0.024 A 
BRANCH  27  28
HETATM   28  S1  UNL     1      -4.079   2.304  -1.341  1.00  0.00    -0.141 SA
HETATM   29  H17 UNL     1      -3.696   1.719  -2.557  1.00  0.00     0.107 HD
ENDBRANCH  27  28
ENDBRANCH  20  22
ENDBRANCH  19  20
ENDBRANCH   4  19
TORSDOF 6
