REMARK  0 active torsions:
REMARK  status: ('A' for Active; 'I' for Inactive)
ROOT
HETATM    1  O1  UNL     1      -1.254   1.975   0.843  1.00  0.00    -0.247 OA
HETATM    2  C1  UNL     1      -1.791   2.332  -0.175  1.00  0.00     0.320 C 
HETATM    3  N1  UNL     1      -3.067   1.877  -0.149  1.00  0.00    -0.341 N 
HETATM    4  C2  UNL     1      -4.199   1.227   0.395  1.00  0.00     0.144 C 
HETATM    5  C3  UNL     1      -4.122  -0.195   0.802  1.00  0.00     0.141 C 
HETATM    6  N2  UNL     1      -3.840  -1.191  -0.168  1.00  0.00    -0.373 N 
HETATM    7  C4  UNL     1      -2.852  -1.732  -0.990  1.00  0.00     0.127 A 
HETATM    8  C5  UNL     1      -1.641  -2.004  -0.321  1.00  0.00     0.081 A 
HETATM    9  C6  UNL     1      -0.491  -2.578  -0.924  1.00  0.00     0.061 A 
HETATM   10  N3  UNL     1      -0.596  -2.872  -2.226  1.00  0.00    -0.242 NA
HETATM   11  C7  UNL     1      -1.782  -2.600  -2.862  1.00  0.00     0.235 A 
HETATM   12  N4  UNL     1      -2.893  -2.047  -2.290  1.00  0.00    -0.225 NA
HETATM   13  C8  UNL     1       0.578  -2.713   0.075  1.00  0.00     0.030 C 
HETATM   14  C9  UNL     1       1.116  -3.312   1.095  1.00  0.00     0.001 C 
HETATM   15  C10 UNL     1       2.422  -2.566   1.439  1.00  0.00     0.195 C 
HETATM   16  O2  UNL     1       2.554  -1.555   0.522  1.00  0.00    -0.387 OA
HETATM   17  C11 UNL     1       3.438  -0.555   0.695  1.00  0.00     0.168 C 
HETATM   18  C12 UNL     1       3.501   0.276  -0.608  1.00  0.00     0.031 C 
HETATM   19  C13 UNL     1       4.069   1.631  -0.361  1.00  0.00     0.048 C 
HETATM   20  C14 UNL     1       3.020   2.357   0.455  1.00  0.00    -0.015 A 
HETATM   21  C15 UNL     1       1.789   2.303  -0.312  1.00  0.00     0.044 A 
HETATM   22  C16 UNL     1       0.683   2.914   0.247  1.00  0.00     0.043 A 
HETATM   23  C17 UNL     1       0.871   3.532   1.511  1.00  0.00     0.079 A 
HETATM   24  S1  UNL     1       2.602   3.246   1.907  1.00  0.00    -0.104 SA
HETATM   25  N5  UNL     1      -0.563   2.891  -0.426  1.00  0.00    -0.308 N 
HETATM   26  H1  UNL     1      -3.045   2.334  -1.102  1.00  0.00     0.164 HD
HETATM   27  H6  UNL     1      -4.646  -1.836  -0.445  1.00  0.00     0.161 HD
HETATM   28  H21 UNL     1      -0.336   3.487  -1.224  1.00  0.00     0.170 HD
ENDROOT
TORSDOF 0
