REMARK  4 active torsions:
REMARK  status: ('A' for Active; 'I' for Inactive)
REMARK    1  A    between atoms: C2_3  and  C4_6 
REMARK    2  A    between atoms: C4_6  and  O2_7 
REMARK    3  A    between atoms: C4_6  and  C6_9 
REMARK       I    between atoms: N3_16  and  C12_17 
REMARK       I    between atoms: C12_17  and  N4_19 
REMARK    4  A    between atoms: N4_19  and  C13_20 
ROOT
HETATM    1  C6  UNL     1      -1.506  -1.446  -0.284  1.00  0.00     0.111 C 
HETATM    2  C7  UNL     1      -1.743  -2.874  -0.733  1.00  0.00     0.128 C 
HETATM    3  N2  UNL     1      -0.558  -2.955  -1.293  1.00  0.00    -0.267 NA
HETATM    4  C8  UNL     1      -0.253  -1.685  -1.911  1.00  0.00     0.034 C 
HETATM    5  C9  UNL     1      -1.315  -0.883  -1.679  1.00  0.00     0.039 C 
HETATM    6  C10 UNL     1       0.923  -1.178  -2.672  1.00  0.00     0.079 C 
HETATM    7  C11 UNL     1       1.203   0.244  -2.377  1.00  0.00     0.134 C 
HETATM    8  N3  UNL     1       1.581   0.518  -1.007  1.00  0.00    -0.332 N 
HETATM    9  C12 UNL     1       2.994   0.466  -0.847  1.00  0.00     0.323 C 
HETATM   10  O3  UNL     1       3.473   0.199  -1.958  1.00  0.00    -0.247 OA
HETATM   11  N4  UNL     1       3.724   0.673   0.327  1.00  0.00    -0.308 N 
HETATM   12  C17 UNL     1       0.673   0.846   0.057  1.00  0.00     0.147 C 
HETATM   13  C18 UNL     1       0.248  -0.261   0.938  1.00  0.00     0.135 C 
HETATM   14  N5  UNL     1      -0.284  -1.423   0.395  1.00  0.00    -0.401 N 
HETATM   15  H17 UNL     1       3.069   0.880   1.110  1.00  0.00     0.170 HD
HETATM   16  H25 UNL     1      -0.046  -2.262   0.964  1.00  0.00     0.154 HD
ENDROOT
BRANCH   1  17
HETATM   17  C4  UNL     1      -2.729  -0.960   0.364  1.00  0.00     0.193 C 
BRANCH  17  18
HETATM   18  C2  UNL     1      -2.817   0.511   0.560  1.00  0.00     0.009 A 
HETATM   19  O1  UNL     1      -2.807   1.895   0.446  1.00  0.00     0.000 OA
HETATM   20  C1  UNL     1      -3.785   2.411  -0.471  1.00  0.00     0.000 C 
HETATM   21  N1  UNL     1      -3.250   2.349   1.835  1.00  0.00     0.103 N 
HETATM   22  C3  UNL     1      -3.207   0.932   1.778  1.00  0.00     0.242 A 
HETATM   23  H5  UNL     1      -3.054   3.219   2.392  1.00  0.00     0.319 HD
HETATM   24  H6  UNL     1      -3.183   3.335   2.105  1.00  0.00     0.319 HD
ENDBRANCH  17  18
BRANCH  17  25
HETATM   25  O2  UNL     1      -3.026  -1.663   1.507  1.00  0.00    -0.383 OA
HETATM   26  C5  UNL     1      -4.227  -2.366   1.449  1.00  0.00     0.202 C 
ENDBRANCH  17  25
ENDBRANCH   1  17
BRANCH  11  27
HETATM   27  C13 UNL     1       5.135   0.593   0.353  1.00  0.00     0.043 A 
HETATM   28  C14 UNL     1       5.722   0.816   1.560  1.00  0.00     0.037 A 
HETATM   29  C15 UNL     1       7.127   0.742   1.618  1.00  0.00     0.052 A 
HETATM   30  S1  UNL     1       7.664   0.355  -0.026  1.00  0.00    -0.111 SA
HETATM   31  C16 UNL     1       5.907   0.315  -0.717  1.00  0.00     0.079 A 
ENDBRANCH  11  27
TORSDOF 4
