REMARK  3 active torsions:
REMARK  status: ('A' for Active; 'I' for Inactive)
REMARK    1  A    between atoms: O1_2  and  C2_3 
REMARK    2  A    between atoms: C2_3  and  O2_4 
REMARK    3  A    between atoms: O2_4  and  C3_5 
ROOT
HETATM    1  C3  UNL     1       1.865   0.398  -0.976  1.00  0.00     0.224 C 
HETATM    2  C4  UNL     1       1.127  -0.832  -0.572  1.00  0.00    -0.045 C 
HETATM    3  C5  UNL     1       0.170  -1.171  -1.687  1.00  0.00     0.046 C 
HETATM    4  C6  UNL     1       1.284  -1.495   0.565  1.00  0.00     0.035 C 
HETATM    5  C7  UNL     1       0.404  -2.660   0.665  1.00  0.00     0.046 C 
HETATM    6  C8  UNL     1       0.656  -3.906   0.347  1.00  0.00     0.076 C 
HETATM    7  S1  UNL     1      -0.833  -4.889   0.705  1.00  0.00    -0.119 SA
HETATM    8  C9  UNL     1      -1.458  -3.619   1.911  1.00  0.00     0.212 C 
HETATM    9  N1  UNL     1      -0.968  -2.443   1.151  1.00  0.00    -0.290 N 
HETATM   10  C10 UNL     1      -1.718  -1.271   0.897  1.00  0.00     0.326 C 
HETATM   11  O3  UNL     1      -0.898  -0.405   1.186  1.00  0.00    -0.247 OA
HETATM   12  N2  UNL     1      -2.552  -0.185   0.614  1.00  0.00    -0.331 N 
HETATM   13  C11 UNL     1      -2.921   1.001   1.444  1.00  0.00     0.147 C 
HETATM   14  C12 UNL     1      -2.309   2.253   0.792  1.00  0.00     0.139 C 
HETATM   15  N3  UNL     1      -2.019   2.044  -0.565  1.00  0.00    -0.384 N 
HETATM   16  C13 UNL     1      -3.107   1.411  -1.186  1.00  0.00     0.139 C 
HETATM   17  C14 UNL     1      -3.278   0.056  -0.623  1.00  0.00     0.147 C 
HETATM   18  C15 UNL     1      -1.018   2.656  -1.269  1.00  0.00     0.247 C 
HETATM   19  C16 UNL     1      -0.106   3.501  -0.457  1.00  0.00     0.139 C 
HETATM   20  N4  UNL     1       0.852   2.678  -0.115  1.00  0.00    -0.243 NA
HETATM   21  C17 UNL     1       0.923   1.571  -1.039  1.00  0.00     0.156 C 
HETATM   22  N5  UNL     1      -0.019   1.800  -1.905  1.00  0.00    -0.241 NA
ENDROOT
BRANCH   1  23
HETATM   23  O2  UNL     1       2.886   0.600  -0.086  1.00  0.00    -0.350 OA
BRANCH  23  24
HETATM   24  C2  UNL     1       4.141   0.625  -0.669  1.00  0.00     0.338 C 
BRANCH  24  25
HETATM   25  O1  UNL     1       5.078   0.836   0.336  1.00  0.00    -0.372 OA
HETATM   26  C1  UNL     1       5.066  -0.139   1.301  1.00  0.00     0.204 C 
ENDBRANCH  24  25
ENDBRANCH  23  24
ENDBRANCH   1  23
TORSDOF 3
