REMARK  4 active torsions:
REMARK  status: ('A' for Active; 'I' for Inactive)
REMARK    1  A    between atoms: C7_7  and  C8_8 
REMARK    2  A    between atoms: C8_8  and  O1_9 
REMARK    3  A    between atoms: C13_15  and  C14_16 
REMARK       I    between atoms: C14_16  and  N2_18 
REMARK    4  A    between atoms: N2_18  and  C15_19 
ROOT
HETATM    1  C1  UNL     1       4.566   0.478   1.972  1.00  0.00     0.049 C 
HETATM    2  C2  UNL     1       3.339   0.002   1.236  1.00  0.00    -0.051 A 
HETATM    3  C3  UNL     1       2.719  -1.247   1.320  1.00  0.00     0.039 A 
HETATM    4  C4  UNL     1       1.570  -1.615   0.594  1.00  0.00     0.068 A 
HETATM    5  C5  UNL     1       1.072  -0.643  -0.237  1.00  0.00    -0.010 A 
HETATM    6  C6  UNL     1       1.687   0.585  -0.315  1.00  0.00     0.023 A 
HETATM    7  C7  UNL     1       2.805   0.946   0.392  1.00  0.00    -0.028 A 
HETATM    8  C9  UNL     1       0.039  -0.736  -1.035  1.00  0.00    -0.006 C 
HETATM    9  C10 UNL     1      -1.027  -1.619  -1.516  1.00  0.00     0.043 C 
HETATM   10  C11 UNL     1      -0.737  -3.083  -1.139  1.00  0.00     0.154 C 
HETATM   11  N1  UNL     1      -1.178  -3.141   0.214  1.00  0.00    -0.303 N 
HETATM   12  C12 UNL     1      -2.118  -2.088   0.508  1.00  0.00     0.159 C 
HETATM   13  C13 UNL     1      -2.329  -1.406  -0.797  1.00  0.00     0.107 C 
HETATM   14  N3  UNL     1      -0.450  -4.271   0.693  1.00  0.00    -0.170 NA
HETATM   15  C19 UNL     1       0.769  -3.901   1.037  1.00  0.00     0.255 C 
HETATM   16  N4  UNL     1       1.462  -2.764   1.046  1.00  0.00    -0.240 NA
ENDROOT
BRANCH  13  17
HETATM   17  C14 UNL     1      -2.673   0.030  -0.643  1.00  0.00     0.228 C 
HETATM   18  O2  UNL     1      -2.810   0.456   0.557  1.00  0.00    -0.273 OA
HETATM   19  N2  UNL     1      -2.873   0.999  -1.628  1.00  0.00    -0.326 N 
HETATM   20  H16 UNL     1      -2.772   0.693  -2.615  1.00  0.00     0.169 HD
BRANCH  19  21
HETATM   21  C15 UNL     1      -3.183   2.227  -0.984  1.00  0.00     0.041 A 
HETATM   22  C16 UNL     1      -4.477   2.565  -0.713  1.00  0.00     0.037 A 
HETATM   23  C17 UNL     1      -4.644   3.846  -0.040  1.00  0.00     0.052 A 
HETATM   24  S1  UNL     1      -2.910   4.501   0.167  1.00  0.00    -0.111 SA
HETATM   25  C18 UNL     1      -2.111   3.032  -0.650  1.00  0.00     0.079 A 
ENDBRANCH  19  21
ENDBRANCH  13  17
BRANCH   7  26
HETATM   26  C8  UNL     1       3.404   2.307   0.242  1.00  0.00     0.203 C 
BRANCH  26  27
HETATM   27  O1  UNL     1       3.100   3.135   1.338  1.00  0.00    -0.396 OA
HETATM   28  H8  UNL     1       3.722   3.921   1.240  1.00  0.00     0.209 HD
ENDBRANCH  26  27
ENDBRANCH   7  26
TORSDOF 4
