REMARK  7 active torsions:
REMARK  status: ('A' for Active; 'I' for Inactive)
REMARK    1  A    between atoms: O1_2  and  C2_3 
REMARK    2  A    between atoms: C6_9  and  N3_10 
REMARK    3  A    between atoms: N3_10  and  C7_11 
REMARK    4  A    between atoms: C7_11  and  C8_12 
REMARK    5  A    between atoms: C13_19  and  C14_20 
REMARK    6  A    between atoms: C14_20  and  C15_21 
REMARK    7  A    between atoms: C18_24  and  C19_25 
REMARK       I    between atoms: C19_25  and  N4_27 
ROOT
HETATM    1  C2  UNL     1      -0.804  -1.039  -1.503  1.00  0.00     0.076 A 
HETATM    2  C3  UNL     1       0.136  -2.066  -1.634  1.00  0.00     0.070 A 
HETATM    3  C4  UNL     1       1.484  -1.883  -1.441  1.00  0.00     0.074 A 
HETATM    4  N1  UNL     1       2.344  -2.883  -1.575  1.00  0.00    -0.241 NA
HETATM    5  C5  UNL     1       3.658  -2.674  -1.380  1.00  0.00     0.235 A 
HETATM    6  N2  UNL     1       4.091  -1.447  -1.049  1.00  0.00    -0.224 NA
HETATM    7  C6  UNL     1       3.310  -0.373  -0.889  1.00  0.00     0.137 A 
HETATM    8  C11 UNL     1       1.974  -0.641  -1.100  1.00  0.00     0.039 A 
HETATM    9  C12 UNL     1       1.061   0.383  -0.966  1.00  0.00     0.027 A 
HETATM   10  C13 UNL     1      -0.306   0.224  -1.155  1.00  0.00    -0.023 A 
ENDROOT
BRANCH  10  11
HETATM   11  C14 UNL     1      -1.252   1.336  -0.971  1.00  0.00     0.047 C 
BRANCH  11  12
HETATM   12  C15 UNL     1      -1.916   1.440   0.351  1.00  0.00     0.003 C 
HETATM   13  C16 UNL     1      -1.002   1.652   1.558  1.00  0.00     0.006 C 
HETATM   14  C17 UNL     1      -2.044   0.827   2.346  1.00  0.00     0.015 C 
HETATM   15  C18 UNL     1      -2.445   0.173   0.992  1.00  0.00     0.082 C 
BRANCH  15  16
HETATM   16  C19 UNL     1      -3.892  -0.073   0.860  1.00  0.00     0.223 C 
HETATM   17  O2  UNL     1      -4.119   0.964   0.196  1.00  0.00    -0.273 OA
HETATM   18  N4  UNL     1      -5.266  -0.356   0.764  1.00  0.00    -0.360 N 
HETATM   19  C20 UNL     1      -6.012   0.641   0.023  1.00  0.00     0.152 C 
HETATM   20  C21 UNL     1      -5.911  -1.500   1.326  1.00  0.00     0.152 C 
ENDBRANCH  15  16
ENDBRANCH  11  12
ENDBRANCH  10  11
BRANCH   1  21
HETATM   21  O1  UNL     1      -2.145  -1.318  -1.723  1.00  0.00    -0.355 OA
HETATM   22  C1  UNL     1      -2.544  -2.629  -2.070  1.00  0.00     0.210 C 
ENDBRANCH   1  21
BRANCH   7  23
HETATM   23  N3  UNL     1       3.843   0.902  -0.546  1.00  0.00    -0.368 N 
HETATM   24  H6  UNL     1       3.244   1.734  -0.433  1.00  0.00     0.161 HD
BRANCH  23  25
HETATM   25  C7  UNL     1       5.264   1.086  -0.338  1.00  0.00     0.193 C 
BRANCH  25  26
HETATM   26  C8  UNL     1       5.707   0.301   0.843  1.00  0.00     0.128 C 
HETATM   27  F1  UNL     1       5.623  -1.040   1.001  1.00  0.00    -0.208 F 
HETATM   28  C9  UNL     1       6.259   0.923   1.896  1.00  0.00     0.044 C 
HETATM   29  C10 UNL     1       6.425   2.402   1.876  1.00  0.00     0.065 C 
HETATM   30 CL1  UNL     1       6.818   0.102   3.342  1.00  0.00    -0.086 Cl
ENDBRANCH  25  26
ENDBRANCH  23  25
ENDBRANCH   7  23
TORSDOF 7
