REMARK  9 active torsions:
REMARK  status: ('A' for Active; 'I' for Inactive)
REMARK    1  A    between atoms: C2_2  and  O1_3 
REMARK    2  A    between atoms: C2_2  and  C4_5 
REMARK    3  A    between atoms: C4_5  and  O2_6 
REMARK    4  A    between atoms: C4_5  and  C6_8 
REMARK    5  A    between atoms: C9_13  and  N3_14 
REMARK    6  A    between atoms: N3_14  and  C10_15 
REMARK    7  A    between atoms: C10_15  and  C11_16 
REMARK    8  A    between atoms: C10_15  and  C13_18 
REMARK       I    between atoms: C13_18  and  N4_20 
REMARK    9  A    between atoms: N4_20  and  C14_21 
ROOT
HETATM    1  N3  UNL     1       0.190  -0.016   0.504  1.00  0.00    -0.361 N 
HETATM    2  H12 UNL     1       0.256   0.236  -0.483  1.00  0.00     0.162 HD
ENDROOT
BRANCH   1   3
HETATM    3  C9  UNL     1      -0.863  -0.099   1.432  1.00  0.00     0.136 A 
HETATM    4  C6  UNL     1      -2.091   0.226   0.920  1.00  0.00     0.036 A 
HETATM    5  C7  UNL     1      -3.162   0.163   1.825  1.00  0.00     0.131 A 
HETATM    6  N1  UNL     1      -2.976  -0.200   3.127  1.00  0.00    -0.253 NA
HETATM    7  C8  UNL     1      -1.732  -0.508   3.566  1.00  0.00     0.234 A 
HETATM    8  N2  UNL     1      -0.711  -0.449   2.704  1.00  0.00    -0.224 NA
BRANCH   4   9
HETATM    9  C4  UNL     1      -2.593   0.647  -0.396  1.00  0.00     0.188 C 
BRANCH   9  10
HETATM   10  C2  UNL     1      -3.833  -0.110  -0.770  1.00  0.00     0.072 C 
HETATM   11  C1  UNL     1      -4.293  -1.187  -0.157  1.00  0.00     0.119 C 
BRANCH  10  12
HETATM   12  O1  UNL     1      -4.467   0.477  -1.883  1.00  0.00    -0.387 OA
HETATM   13  C3  UNL     1      -5.329   1.571  -1.608  1.00  0.00     0.202 C 
ENDBRANCH  10  12
ENDBRANCH   9  10
BRANCH   9  14
HETATM   14  O2  UNL     1      -1.724   0.581  -1.442  1.00  0.00    -0.383 OA
HETATM   15  C5  UNL     1      -1.591   1.885  -1.967  1.00  0.00     0.202 C 
ENDBRANCH   9  14
ENDBRANCH   4   9
ENDBRANCH   1   3
BRANCH   1  16
HETATM   16  C10 UNL     1       1.512  -0.349   0.972  1.00  0.00     0.175 C 
BRANCH  16  17
HETATM   17  C11 UNL     1       1.659  -1.782   1.374  1.00  0.00     0.030 C 
HETATM   18  C12 UNL     1       1.374  -2.733   0.229  1.00  0.00     0.007 C 
ENDBRANCH  16  17
BRANCH  16  19
HETATM   19  C13 UNL     1       2.607   0.119   0.092  1.00  0.00     0.244 C 
HETATM   20  O3  UNL     1       2.540   0.756  -1.015  1.00  0.00    -0.271 OA
HETATM   21  N4  UNL     1       3.941  -0.154   0.487  1.00  0.00    -0.325 N 
HETATM   22  H19 UNL     1       4.159  -0.665   1.368  1.00  0.00     0.169 HD
BRANCH  21  23
HETATM   23  C14 UNL     1       5.056   0.255  -0.294  1.00  0.00     0.041 A 
HETATM   24  C15 UNL     1       5.625  -0.511  -1.282  1.00  0.00     0.037 A 
HETATM   25  C16 UNL     1       6.702  -0.008  -1.971  1.00  0.00     0.052 A 
HETATM   26  S1  UNL     1       7.022   1.622  -1.279  1.00  0.00    -0.111 SA
HETATM   27  C17 UNL     1       5.590   1.492  -0.038  1.00  0.00     0.079 A 
ENDBRANCH  21  23
ENDBRANCH  16  19
ENDBRANCH   1  16
TORSDOF 9
