REMARK  7 active torsions:
REMARK  status: ('A' for Active; 'I' for Inactive)
REMARK    1  A    between atoms: C2_2  and  C3_3 
REMARK    2  A    between atoms: C4_4  and  N1_5 
REMARK    3  A    between atoms: C4_4  and  C15_20 
REMARK    4  A    between atoms: N1_5  and  C5_6 
REMARK    5  A    between atoms: C9_12  and  O1_13 
REMARK    6  A    between atoms: C11_15  and  C12_16 
REMARK    7  A    between atoms: C12_16  and  N4_17 
ROOT
HETATM    1  C5  UNL     1      -0.743   0.272  -0.643  1.00  0.00     0.142 A 
HETATM    2  N2  UNL     1      -1.275   0.671  -1.813  1.00  0.00    -0.224 NA
HETATM    3  C6  UNL     1      -0.432   1.092  -2.803  1.00  0.00     0.236 A 
HETATM    4  N3  UNL     1       0.903   1.092  -2.570  1.00  0.00    -0.241 NA
HETATM    5  C7  UNL     1       1.449   0.693  -1.395  1.00  0.00     0.074 A 
HETATM    6  C8  UNL     1       2.812   0.703  -1.186  1.00  0.00     0.070 A 
HETATM    7  C9  UNL     1       3.368   0.292   0.019  1.00  0.00     0.078 A 
HETATM    8  C11 UNL     1       2.465  -0.128   0.998  1.00  0.00     0.004 A 
HETATM    9  C13 UNL     1       1.086  -0.146   0.806  1.00  0.00     0.029 A 
HETATM   10  C14 UNL     1       0.607   0.271  -0.401  1.00  0.00     0.039 A 
ENDROOT
BRANCH   1  11
HETATM   11  N1  UNL     1      -1.663  -0.155   0.346  1.00  0.00    -0.338 N 
HETATM   12  H5  UNL     1      -1.549  -0.507   1.317  1.00  0.00     0.167 HD
BRANCH  11  13
HETATM   13  C4  UNL     1      -3.041  -0.170   0.134  1.00  0.00     0.069 C 
HETATM   14  C3  UNL     1      -4.026   0.232   0.908  1.00  0.00     0.028 C 
BRANCH  14  15
HETATM   15  C2  UNL     1      -5.473   0.265   0.798  1.00  0.00    -0.024 C 
HETATM   16  C1  UNL     1      -6.283   0.722   1.717  1.00  0.00     0.031 C 
ENDBRANCH  14  15
BRANCH  13  17
HETATM   17  C15 UNL     1      -3.563  -0.685  -1.108  1.00  0.00     0.127 A 
HETATM   18  F1  UNL     1      -4.810  -0.824  -1.605  1.00  0.00    -0.341 F 
HETATM   19  C16 UNL     1      -3.558  -1.213  -2.305  1.00  0.00     0.425 A 
HETATM   20 CL1  UNL     1      -2.676  -1.869  -3.665  1.00  0.00    -0.220 Cl
ENDBRANCH  13  17
ENDBRANCH  11  13
ENDBRANCH   1  11
BRANCH   8  21
HETATM   21  C12 UNL     1       2.977  -0.592   2.332  1.00  0.00     0.308 C 
BRANCH  21  22
HETATM   22  N4  UNL     1       3.538  -1.928   2.250  1.00  0.00     0.082 N 
HETATM   23  H13 UNL     1       4.567  -1.903   2.118  1.00  0.00     0.313 HD
HETATM   24  H14 UNL     1       3.151  -2.426   1.418  1.00  0.00     0.313 HD
ENDBRANCH  21  22
ENDBRANCH   8  21
BRANCH   7  25
HETATM   25  O1  UNL     1       4.736   0.296   0.245  1.00  0.00    -0.355 OA
HETATM   26  C10 UNL     1       5.569   0.741  -0.811  1.00  0.00     0.210 C 
ENDBRANCH   7  25
TORSDOF 7
