REMARK  4 active torsions:
REMARK  status: ('A' for Active; 'I' for Inactive)
REMARK    1  A    between atoms: C1_2  and  C2_3 
REMARK       I    between atoms: C1_2  and  N2_12 
REMARK    2  A    between atoms: C3_4  and  C4_5 
REMARK    3  A    between atoms: C4_5  and  N1_6 
REMARK    4  A    between atoms: N2_12  and  C9_13 
ROOT
HETATM    1  O1  UNL     1       0.464  -0.847   0.160  1.00  0.00    -0.268 OA
HETATM    2  C1  UNL     1       0.274  -0.246  -0.923  1.00  0.00     0.245 C 
HETATM    3  N2  UNL     1       1.493   0.357  -1.352  1.00  0.00    -0.327 N 
HETATM    4  H13 UNL     1       1.587   0.915  -2.232  1.00  0.00     0.169 HD
ENDROOT
BRANCH   2   5
HETATM    5  C2  UNL     1      -0.930  -0.102  -1.725  1.00  0.00     0.072 C 
HETATM    6  C3  UNL     1      -2.089  -0.629  -1.396  1.00  0.00     0.008 C 
BRANCH   6   7
HETATM    7  C4  UNL     1      -2.548  -1.439  -0.271  1.00  0.00     0.300 C 
BRANCH   7   8
HETATM    8  N1  UNL     1      -3.615  -0.825   0.498  1.00  0.00     0.096 N 
HETATM    9  C5  UNL     1      -4.842  -0.734  -0.230  1.00  0.00     0.299 C 
HETATM   10  C6  UNL     1      -5.917  -0.200   0.676  1.00  0.00     0.198 C 
HETATM   11  O2  UNL     1      -5.581   0.937   1.363  1.00  0.00    -0.388 OA
HETATM   12  C7  UNL     1      -4.329   1.446   1.094  1.00  0.00     0.198 C 
HETATM   13  C8  UNL     1      -3.248   0.394   1.142  1.00  0.00     0.299 C 
ENDBRANCH   7   8
ENDBRANCH   6   7
ENDBRANCH   2   5
BRANCH   3  14
HETATM   14  C9  UNL     1       2.736   0.301  -0.679  1.00  0.00     0.019 A 
HETATM   15  C10 UNL     1       3.466   1.326  -0.210  1.00  0.00     0.039 A 
HETATM   16  C11 UNL     1       4.685   0.773   0.416  1.00  0.00    -0.009 A 
HETATM   17  C12 UNL     1       5.712   1.464   1.022  1.00  0.00     0.015 A 
HETATM   18  C15 UNL     1       4.655  -0.597   0.305  1.00  0.00     0.050 A 
HETATM   19  C13 UNL     1       6.756   0.722   1.537  1.00  0.00     0.020 A 
HETATM   20  C14 UNL     1       6.710  -0.670   1.415  1.00  0.00     0.117 A 
HETATM   21  N3  UNL     1       5.685  -1.303   0.815  1.00  0.00    -0.264 NA
HETATM   22  C16 UNL     1       3.412  -1.008  -0.400  1.00  0.00     0.117 A 
ENDBRANCH   3  14
TORSDOF 4
