REMARK  4 active torsions:
REMARK  status: ('A' for Active; 'I' for Inactive)
REMARK    1  A    between atoms: O1_2  and  C2_3 
REMARK    2  A    between atoms: C2_3  and  O2_4 
REMARK    3  A    between atoms: O2_4  and  C3_5 
REMARK       I    between atoms: N4_17  and  C12_18 
REMARK       I    between atoms: C12_18  and  N5_20 
REMARK    4  A    between atoms: N5_20  and  C13_21 
ROOT
HETATM    1  C3  UNL     1      -1.687   0.184  -0.160  1.00  0.00     0.157 C 
HETATM    2  C4  UNL     1      -2.640   1.323  -0.406  1.00  0.00     0.035 C 
HETATM    3  C5  UNL     1      -2.724   2.253   0.789  1.00  0.00    -0.019 C 
HETATM    4  C6  UNL     1      -2.738   3.172   1.787  1.00  0.00     0.040 C 
HETATM    5  C7  UNL     1      -2.085   4.506   1.565  1.00  0.00     0.236 C 
HETATM    6  N1  UNL     1      -1.321   5.143   0.633  1.00  0.00    -0.299 NA
HETATM    7  C8  UNL     1      -1.027   4.259  -0.514  1.00  0.00     0.162 C 
HETATM    8  N2  UNL     1      -0.541   3.120  -0.799  1.00  0.00    -0.288 NA
HETATM    9  C9  UNL     1      -0.001   2.077   0.011  1.00  0.00     0.186 C 
HETATM   10  C10 UNL     1      -0.318   0.744  -0.545  1.00  0.00     0.110 C 
HETATM   11  C11 UNL     1      -0.199   0.673  -2.081  1.00  0.00     0.148 C 
HETATM   12  N3  UNL     1       0.309  -0.642  -1.805  1.00  0.00    -0.231 NA
HETATM   13  N4  UNL     1       0.764  -0.222  -0.547  1.00  0.00    -0.248 N 
HETATM   14  C12 UNL     1       1.820  -0.569   0.349  1.00  0.00     0.338 C 
HETATM   15  O3  UNL     1       2.046  -0.038   1.487  1.00  0.00    -0.245 OA
HETATM   16  N5  UNL     1       2.712  -1.605  -0.055  1.00  0.00    -0.307 N 
HETATM   17  H17 UNL     1       1.076  -0.975  -2.430  1.00  0.00     0.146 HD
HETATM   18  H18 UNL     1       2.563  -2.077  -0.996  1.00  0.00     0.170 HD
ENDROOT
BRANCH   1  19
HETATM   19  O2  UNL     1      -1.924  -0.852  -1.093  1.00  0.00    -0.359 OA
BRANCH  19  20
HETATM   20  C2  UNL     1      -2.043  -2.062  -0.408  1.00  0.00     0.337 C 
BRANCH  20  21
HETATM   21  O1  UNL     1      -2.277  -3.061  -1.341  1.00  0.00    -0.372 OA
HETATM   22  C1  UNL     1      -2.401  -4.298  -0.681  1.00  0.00     0.204 C 
ENDBRANCH  20  21
ENDBRANCH  19  20
ENDBRANCH   1  19
BRANCH  16  23
HETATM   23  C13 UNL     1       3.836  -2.102   0.702  1.00  0.00     0.043 A 
HETATM   24  C14 UNL     1       4.878  -1.328   0.336  1.00  0.00     0.037 A 
HETATM   25  C15 UNL     1       6.104  -1.716   1.015  1.00  0.00     0.052 A 
HETATM   26  S1  UNL     1       5.632  -3.171   2.124  1.00  0.00    -0.111 SA
HETATM   27  C16 UNL     1       3.858  -3.119   1.577  1.00  0.00     0.079 A 
ENDBRANCH  16  23
TORSDOF 4
