REMARK  5 active torsions:
REMARK  status: ('A' for Active; 'I' for Inactive)
REMARK    1  A    between atoms: C2_2  and  C3_4 
REMARK    2  A    between atoms: C3_4  and  O1_5 
REMARK    3  A    between atoms: C3_4  and  C5_7 
REMARK    4  A    between atoms: C8_12  and  N3_13 
REMARK    5  A    between atoms: N4_16  and  C11_17 
ROOT
HETATM    1  C5  UNL     1       1.706  -0.421  -1.127  1.00  0.00     0.039 A 
HETATM    2  C6  UNL     1       2.565  -0.783  -2.170  1.00  0.00     0.132 A 
HETATM    3  N1  UNL     1       2.084  -1.129  -3.355  1.00  0.00    -0.253 NA
HETATM    4  C7  UNL     1       0.770  -1.145  -3.593  1.00  0.00     0.234 A 
HETATM    5  N2  UNL     1      -0.097  -0.801  -2.609  1.00  0.00    -0.224 NA
HETATM    6  C8  UNL     1       0.350  -0.437  -1.372  1.00  0.00     0.137 A 
ENDROOT
BRANCH   6   7
HETATM    7  N3  UNL     1      -0.633  -0.097  -0.399  1.00  0.00    -0.362 N 
HETATM    8  C9  UNL     1      -1.058  -0.561   0.913  1.00  0.00     0.144 C 
HETATM    9  C10 UNL     1      -2.534  -0.985   0.802  1.00  0.00     0.145 C 
HETATM   10  N4  UNL     1      -3.237   0.250   0.511  1.00  0.00    -0.356 N 
HETATM   11  C12 UNL     1      -2.575   1.405  -0.062  1.00  0.00     0.145 C 
HETATM   12  C13 UNL     1      -1.408   1.040  -0.921  1.00  0.00     0.144 C 
BRANCH  10  13
HETATM   13  C11 UNL     1      -4.611   0.181   0.850  1.00  0.00     0.350 C 
HETATM   14  O2  UNL     1      -4.864  -0.963   1.326  1.00  0.00    -0.284 OA
ENDBRANCH  10  13
ENDBRANCH   6   7
BRANCH   1  15
HETATM   15  C3  UNL     1       2.248  -0.032   0.189  1.00  0.00     0.196 C 
BRANCH  15  16
HETATM   16  C2  UNL     1       1.635   1.194   0.763  1.00  0.00    -0.007 C 
HETATM   17  C1  UNL     1       1.135   2.288   1.325  1.00  0.00     0.154 C 
HETATM   18  I1  UNL     1       2.690   1.819   2.505  1.00  0.00    -0.155 I 
ENDBRANCH  15  16
BRANCH  15  19
HETATM   19  O1  UNL     1       2.241  -1.089   1.091  1.00  0.00    -0.381 OA
HETATM   20  C4  UNL     1       3.521  -1.463   1.483  1.00  0.00     0.202 C 
ENDBRANCH  15  19
ENDBRANCH   1  15
TORSDOF 5
