REMARK  5 active torsions:
REMARK  status: ('A' for Active; 'I' for Inactive)
REMARK    1  A    between atoms: N1_2  and  C3_4 
REMARK    2  A    between atoms: C3_4  and  C4_5 
REMARK    3  A    between atoms: C5_6  and  C6_7 
REMARK       I    between atoms: C6_7  and  N2_9 
REMARK    4  A    between atoms: N2_9  and  C7_10 
REMARK    5  A    between atoms: C8_11  and  C9_12 
ROOT
HETATM    1  C9  UNL     1      -1.135  -0.914   1.190  1.00  0.00     0.005 C 
HETATM    2  C10 UNL     1      -2.400  -0.980   1.376  1.00  0.00    -0.064 C 
HETATM    3  C11 UNL     1      -3.460  -0.809   2.515  1.00  0.00     0.052 C 
HETATM    4  C12 UNL     1      -4.624  -0.725   1.499  1.00  0.00     0.017 A 
HETATM    5  C13 UNL     1      -5.483   0.318   1.252  1.00  0.00     0.073 C 
HETATM    6  N3  UNL     1      -5.564   0.838  -0.139  1.00  0.00    -0.368 N 
HETATM    7  C14 UNL     1      -4.438   0.702  -1.102  1.00  0.00     0.040 A 
HETATM    8  C15 UNL     1      -4.335   1.515  -2.180  1.00  0.00     0.049 A 
HETATM    9  C16 UNL     1      -3.161   1.327  -2.870  1.00  0.00     0.013 A 
HETATM   10 BR1  UNL     1      -3.000   2.464  -4.390  1.00  0.00    -0.051 Br
HETATM   11  C17 UNL     1      -2.186   0.417  -2.520  1.00  0.00     0.020 A 
HETATM   12  C18 UNL     1      -2.197  -0.439  -1.465  1.00  0.00     0.012 A 
HETATM   13  C19 UNL     1      -3.375  -0.244  -0.783  1.00  0.00    -0.017 A 
HETATM   14  C20 UNL     1      -3.529  -1.180   0.452  1.00  0.00     0.031 A 
HETATM   15  C21 UNL     1      -4.541  -2.048   0.786  1.00  0.00     0.026 A 
HETATM   16  H18 UNL     1      -6.348   1.342  -0.566  1.00  0.00     0.165 HD
ENDROOT
BRANCH   1  17
HETATM   17  C8  UNL     1      -0.990  -0.577   2.572  1.00  0.00     0.017 C 
HETATM   18  C7  UNL     1       0.242  -0.352   3.062  1.00  0.00     0.091 C 
BRANCH  18  19
HETATM   19  N2  UNL     1       1.328  -0.471   2.134  1.00  0.00    -0.334 N 
HETATM   20  C6  UNL     1       2.492  -1.281   1.999  1.00  0.00     0.244 C 
HETATM   21  O1  UNL     1       2.613  -2.128   2.949  1.00  0.00    -0.268 OA
HETATM   22  H11 UNL     1       1.200   0.253   1.365  1.00  0.00     0.168 HD
BRANCH  20  23
HETATM   23  C5  UNL     1       3.399  -1.097   0.862  1.00  0.00     0.072 C 
HETATM   24  C4  UNL     1       3.308  -0.240  -0.131  1.00  0.00     0.008 C 
BRANCH  24  25
HETATM   25  C3  UNL     1       4.343  -0.218  -1.192  1.00  0.00     0.299 C 
BRANCH  25  26
HETATM   26  N1  UNL     1       5.009   1.050  -1.282  1.00  0.00     0.083 N 
HETATM   27  C1  UNL     1       6.020   1.088  -2.314  1.00  0.00     0.309 C 
HETATM   28  C2  UNL     1       5.593   1.379  -0.017  1.00  0.00     0.309 C 
ENDBRANCH  25  26
ENDBRANCH  24  25
ENDBRANCH  20  23
ENDBRANCH  18  19
ENDBRANCH   1  17
TORSDOF 5
