REMARK  1 active torsions:
REMARK  status: ('A' for Active; 'I' for Inactive)
REMARK    1  A    between atoms: C8_9  and  C9_10 
ROOT
HETATM    1  C1  UNL     1      -4.348   1.573  -1.801  1.00  0.00     0.045 C 
HETATM    2  C2  UNL     1      -3.381   1.940  -0.996  1.00  0.00     0.050 A 
HETATM    3  N1  UNL     1      -2.961   3.187  -0.772  1.00  0.00    -0.270 NA
HETATM    4  C3  UNL     1      -1.938   3.036   0.139  1.00  0.00     0.129 A 
HETATM    5  C4  UNL     1      -0.872   2.657   1.123  1.00  0.00    -0.028 A 
HETATM    6  C5  UNL     1      -1.590   1.699   0.592  1.00  0.00     0.068 A 
HETATM    7  C6  UNL     1      -2.555   1.192  -0.191  1.00  0.00    -0.016 A 
HETATM    8  C7  UNL     1      -2.545  -0.127  -0.081  1.00  0.00    -0.003 C 
HETATM    9  C8  UNL     1      -2.035  -1.368   0.477  1.00  0.00     0.096 C 
HETATM   10  C10 UNL     1      -1.296  -2.240  -0.471  1.00  0.00     0.157 C 
HETATM   11  O1  UNL     1      -1.221  -3.147  -1.329  1.00  0.00    -0.293 OA
HETATM   12  C11 UNL     1       0.123  -2.274  -0.742  1.00  0.00     0.048 C 
HETATM   13  C12 UNL     1       1.257  -2.639  -1.281  1.00  0.00     0.007 C 
HETATM   14  C13 UNL     1       2.671  -2.131  -1.022  1.00  0.00     0.299 C 
HETATM   15  N2  UNL     1       2.564  -1.050  -0.034  1.00  0.00     0.088 N 
HETATM   16  C14 UNL     1       3.945  -1.074   0.569  1.00  0.00     0.310 C 
HETATM   17  C15 UNL     1       2.634   0.233  -0.783  1.00  0.00     0.292 C 
HETATM   18  C16 UNL     1       2.202   1.270   0.138  1.00  0.00     0.119 A 
HETATM   19  C17 UNL     1       2.008   2.254   0.947  1.00  0.00    -0.005 A 
HETATM   20 BR1  UNL     1       3.840   2.286   0.435  1.00  0.00    -0.120 Br
HETATM   21  C18 UNL     1       1.349   3.228   1.742  1.00  0.00     0.015 C 
HETATM   22  C19 UNL     1       0.028   3.453   1.867  1.00  0.00     0.008 C 
ENDROOT
BRANCH   9  23
HETATM   23  C9  UNL     1      -3.143  -2.197   1.086  1.00  0.00     0.131 C 
HETATM   24 CL1  UNL     1      -2.436  -3.694   1.736  1.00  0.00    -0.129 Cl
ENDBRANCH   9  23
TORSDOF 1
