REMARK  7 active torsions:
REMARK  status: ('A' for Active; 'I' for Inactive)
REMARK    1  A    between atoms: O1_2  and  C2_3 
REMARK    2  A    between atoms: C6_9  and  N3_10 
REMARK    3  A    between atoms: N3_10  and  C7_11 
REMARK    4  A    between atoms: C15_21  and  C16_22 
REMARK    5  A    between atoms: C16_22  and  N4_23 
REMARK    6  A    between atoms: C20_27  and  C21_28 
REMARK    7  A    between atoms: C21_28  and  N5_31 
ROOT
HETATM    1  C21 UNL     1      -4.404   0.409  -0.003  1.00  0.00     0.095 C 
HETATM    2  C22 UNL     1      -4.420  -0.822   0.429  1.00  0.00     0.248 C 
HETATM    3  O2  UNL     1      -4.593  -2.027   0.742  1.00  0.00    -0.282 OA
ENDROOT
BRANCH   1   4
HETATM    4  C20 UNL     1      -3.108   0.956  -0.477  1.00  0.00     0.277 C 
HETATM    5  N4  UNL     1      -2.043  -0.023  -0.357  1.00  0.00     0.103 N 
HETATM    6  C17 UNL     1      -1.164   0.257  -1.504  1.00  0.00     0.273 C 
HETATM    7  C18 UNL     1      -2.195   0.399  -2.595  1.00  0.00     0.033 C 
HETATM    8  C19 UNL     1      -3.239   1.273  -1.936  1.00  0.00     0.044 C 
BRANCH   5   9
HETATM    9  C16 UNL     1      -1.296   0.230   0.872  1.00  0.00     0.315 C 
BRANCH   9  10
HETATM   10  C15 UNL     1      -0.103  -0.659   0.912  1.00  0.00     0.004 A 
HETATM   11  C2  UNL     1      -0.264  -2.013   1.225  1.00  0.00     0.078 A 
HETATM   12  C3  UNL     1       0.838  -2.852   1.266  1.00  0.00     0.070 A 
HETATM   13  C4  UNL     1       2.121  -2.379   1.000  1.00  0.00     0.074 A 
HETATM   14  N1  UNL     1       3.200  -3.183   1.037  1.00  0.00    -0.241 NA
HETATM   15  C13 UNL     1       2.249  -1.022   0.691  1.00  0.00     0.039 A 
HETATM   16  C5  UNL     1       4.452  -2.716   0.776  1.00  0.00     0.236 A 
HETATM   17  N2  UNL     1       4.609  -1.403   0.472  1.00  0.00    -0.224 NA
HETATM   18  C6  UNL     1       3.540  -0.610   0.437  1.00  0.00     0.142 A 
HETATM   19  C14 UNL     1       1.167  -0.173   0.645  1.00  0.00     0.029 A 
BRANCH  11  20
HETATM   20  O1  UNL     1      -1.558  -2.446   1.484  1.00  0.00    -0.355 OA
HETATM   21  C1  UNL     1      -1.737  -3.815   1.803  1.00  0.00     0.210 C 
ENDBRANCH  11  20
BRANCH  18  22
HETATM   22  N3  UNL     1       3.801   0.749   0.110  1.00  0.00    -0.338 N 
HETATM   23  H6  UNL     1       3.192   1.589   0.007  1.00  0.00     0.167 HD
BRANCH  22  24
HETATM   24  C7  UNL     1       5.129   1.186  -0.155  1.00  0.00     0.074 A 
HETATM   25  C8  UNL     1       5.653   1.756  -1.291  1.00  0.00     0.033 A 
HETATM   26  C9  UNL     1       6.988   2.106  -1.327  1.00  0.00     0.004 A 
HETATM   27  C10 UNL     1       7.805   1.898  -0.252  1.00  0.00     0.027 A 
HETATM   28  C11 UNL     1       7.302   1.324   0.909  1.00  0.00     0.074 A 
HETATM   29 CL1  UNL     1       8.383   1.076   2.259  1.00  0.00    -0.081 Cl
HETATM   30  C12 UNL     1       5.956   0.969   0.950  1.00  0.00     0.164 A 
HETATM   31  F1  UNL     1       5.569   0.415   2.133  1.00  0.00    -0.202 F 
ENDBRANCH  22  24
ENDBRANCH  18  22
ENDBRANCH   9  10
ENDBRANCH   5   9
ENDBRANCH   1   4
BRANCH   1  32
HETATM   32  N5  UNL     1      -5.601   1.179  -0.011  1.00  0.00    -0.388 N 
HETATM   33  C23 UNL     1      -5.769   2.391  -0.753  1.00  0.00     0.149 C 
HETATM   34  C24 UNL     1      -6.735   0.704   0.792  1.00  0.00     0.149 C 
ENDBRANCH   1  32
TORSDOF 7
