REMARK  6 active torsions:
REMARK  status: ('A' for Active; 'I' for Inactive)
REMARK    1  A    between atoms: N1_2  and  C3_4 
REMARK    2  A    between atoms: C3_4  and  C4_5 
REMARK    3  A    between atoms: C5_6  and  C6_7 
REMARK       I    between atoms: C6_7  and  N2_9 
REMARK    4  A    between atoms: N2_9  and  C7_10 
REMARK    5  A    between atoms: C14_19  and  N5_20 
REMARK    6  A    between atoms: N5_20  and  C15_21 
ROOT
HETATM    1  C7  UNL     1      -0.040  -1.147  -0.294  1.00  0.00     0.046 C 
HETATM    2  C8  UNL     1       0.349  -2.407  -0.169  1.00  0.00     0.002 C 
HETATM    3  C9  UNL     1      -0.526  -3.372  -0.065  1.00  0.00     0.019 C 
HETATM    4  C10 UNL     1      -1.734  -2.887   0.598  1.00  0.00     0.166 C 
HETATM    5  N3  UNL     1      -2.717  -3.907   0.852  1.00  0.00    -0.286 NA
HETATM    6  C11 UNL     1      -3.963  -3.837   0.481  1.00  0.00     0.136 C 
HETATM    7  C12 UNL     1      -4.519  -2.706  -0.253  1.00  0.00     0.089 C 
HETATM    8  C13 UNL     1      -5.916  -2.637  -0.655  1.00  0.00     0.103 C 
HETATM    9  N4  UNL     1      -7.021  -2.586  -0.975  1.00  0.00    -0.191 NA
HETATM   10  C14 UNL     1      -3.784  -1.660  -0.602  1.00  0.00     0.064 C 
HETATM   11  C21 UNL     1      -2.381  -1.828  -0.236  1.00  0.00     0.001 C 
HETATM   12  C22 UNL     1      -1.451  -0.971  -0.663  1.00  0.00     0.042 C 
ENDROOT
BRANCH  10  13
HETATM   13  N5  UNL     1      -4.182  -0.492  -1.306  1.00  0.00    -0.354 N 
HETATM   14  H15 UNL     1      -4.450  -0.562  -2.321  1.00  0.00     0.166 HD
BRANCH  13  15
HETATM   15  C15 UNL     1      -4.199   0.736  -0.589  1.00  0.00     0.033 A 
HETATM   16  C16 UNL     1      -3.842   0.735   0.724  1.00  0.00     0.029 A 
HETATM   17  C17 UNL     1      -3.845   1.923   1.460  1.00  0.00     0.004 A 
HETATM   18  C18 UNL     1      -4.212   3.086   0.839  1.00  0.00     0.019 A 
HETATM   19  C19 UNL     1      -4.570   3.042  -0.504  1.00  0.00     0.013 A 
HETATM   20 BR1  UNL     1      -5.090   4.652  -1.404  1.00  0.00    -0.051 Br
HETATM   21  C20 UNL     1      -4.577   1.877  -1.262  1.00  0.00     0.048 A 
ENDBRANCH  13  15
ENDBRANCH  10  13
BRANCH   1  22
HETATM   22  N2  UNL     1       0.834  -0.052  -0.081  1.00  0.00    -0.323 N 
HETATM   23  C6  UNL     1       2.160  -0.327   0.276  1.00  0.00     0.245 C 
HETATM   24  O1  UNL     1       2.645  -1.459   0.424  1.00  0.00    -0.268 OA
HETATM   25  H11 UNL     1       0.436   0.904  -0.204  1.00  0.00     0.169 HD
BRANCH  23  26
HETATM   26  C5  UNL     1       3.097   0.789   0.507  1.00  0.00     0.072 C 
HETATM   27  C4  UNL     1       4.371   0.549   0.851  1.00  0.00     0.008 C 
BRANCH  27  28
HETATM   28  C3  UNL     1       5.271   1.709   1.072  1.00  0.00     0.299 C 
BRANCH  28  29
HETATM   29  N1  UNL     1       6.374   1.675   0.174  1.00  0.00     0.083 N 
HETATM   30  C1  UNL     1       6.066   1.882  -1.200  1.00  0.00     0.309 C 
HETATM   31  C2  UNL     1       7.139   0.476   0.361  1.00  0.00     0.309 C 
ENDBRANCH  28  29
ENDBRANCH  27  28
ENDBRANCH  23  26
ENDBRANCH   1  22
TORSDOF 6
