REMARK  6 active torsions:
REMARK  status: ('A' for Active; 'I' for Inactive)
REMARK    1  A    between atoms: C3_3  and  C4_4 
REMARK       I    between atoms: C4_4  and  N1_6 
REMARK    2  A    between atoms: N1_6  and  C5_7 
REMARK    3  A    between atoms: C12_16  and  C13_17 
REMARK    4  A    between atoms: C15_19  and  C16_20 
REMARK    5  A    between atoms: C17_21  and  C18_22 
REMARK    6  A    between atoms: C18_22  and  N4_23 
ROOT
HETATM    1  C1  UNL     1       7.136   2.992  -0.932  1.00  0.00     0.112 C 
HETATM    2  C2  UNL     1       6.301   1.801  -0.772  1.00  0.00    -0.101 C 
HETATM    3  C3  UNL     1       5.620   0.815  -0.643  1.00  0.00    -0.006 C 
ENDROOT
BRANCH   3   4
HETATM    4  C4  UNL     1       4.789  -0.345  -0.495  1.00  0.00     0.300 C 
HETATM    5  O1  UNL     1       5.349  -1.440  -0.576  1.00  0.00    -0.258 OA
HETATM    6  N1  UNL     1       3.403  -0.335  -0.267  1.00  0.00    -0.316 N 
HETATM    7  H4  UNL     1       3.059   0.665  -0.220  1.00  0.00     0.170 HD
BRANCH   6   8
HETATM    8  C5  UNL     1       2.495  -1.399  -0.107  1.00  0.00     0.036 A 
HETATM    9  C6  UNL     1       2.852  -2.722  -0.147  1.00  0.00     0.032 A 
HETATM   10  C7  UNL     1       1.934  -3.725   0.013  1.00  0.00     0.035 A 
HETATM   11  C8  UNL     1       0.614  -3.367   0.221  1.00  0.00     0.067 A 
HETATM   12  N2  UNL     1      -0.263  -4.386   0.345  1.00  0.00    -0.259 NA
HETATM   13  C19 UNL     1       0.165  -2.045   0.278  1.00  0.00     0.007 A 
HETATM   14  C9  UNL     1      -1.554  -4.085   0.523  1.00  0.00     0.140 A 
HETATM   15  C10 UNL     1      -1.966  -2.771   0.578  1.00  0.00     0.073 A 
HETATM   16  C11 UNL     1      -3.372  -2.659   0.852  1.00  0.00     0.102 C 
HETATM   17  C12 UNL     1      -1.138  -1.682   0.459  1.00  0.00     0.005 A 
HETATM   18  N3  UNL     1      -4.524  -2.570   1.097  1.00  0.00    -0.191 NA
HETATM   19  C20 UNL     1       1.169  -1.141   0.104  1.00  0.00     0.044 A 
BRANCH  17  20
HETATM   20  C13 UNL     1      -1.618  -0.325   0.430  1.00  0.00    -0.049 C 
HETATM   21  C14 UNL     1      -1.022   0.933   0.949  1.00  0.00     0.049 C 
HETATM   22  C15 UNL     1      -2.822  -0.024  -0.025  1.00  0.00     0.007 C 
BRANCH  22  23
HETATM   23  C16 UNL     1      -3.514   1.249  -0.149  1.00  0.00    -0.002 C 
HETATM   24  C17 UNL     1      -4.716   1.547  -0.600  1.00  0.00     0.003 C 
BRANCH  24  25
HETATM   25  C18 UNL     1      -5.297   2.903  -0.669  1.00  0.00     0.294 C 
BRANCH  25  26
HETATM   26  N4  UNL     1      -4.379   3.903  -0.175  1.00  0.00     0.081 N 
HETATM   27  H16 UNL     1      -4.526   4.794  -0.695  1.00  0.00     0.313 HD
HETATM   28  H17 UNL     1      -4.588   4.101   0.846  1.00  0.00     0.313 HD
ENDBRANCH  25  26
ENDBRANCH  24  25
ENDBRANCH  22  23
ENDBRANCH  17  20
ENDBRANCH   6   8
ENDBRANCH   3   4
TORSDOF 6
