REMARK  4 active torsions:
REMARK  status: ('A' for Active; 'I' for Inactive)
REMARK    1  A    between atoms: C3_3  and  C4_4 
REMARK       I    between atoms: C4_4  and  N1_6 
REMARK    2  A    between atoms: N1_6  and  C5_7 
REMARK    3  A    between atoms: C14_18  and  N4_19 
REMARK    4  A    between atoms: N4_19  and  C15_20 
ROOT
HETATM    1  C1  UNL     1      -2.356   4.298   2.268  1.00  0.00     0.112 C 
HETATM    2  C2  UNL     1      -2.300   2.864   1.906  1.00  0.00    -0.101 C 
HETATM    3  C3  UNL     1      -2.232   1.686   1.606  1.00  0.00    -0.006 C 
ENDROOT
BRANCH   3   4
HETATM    4  C4  UNL     1      -2.144   0.310   1.236  1.00  0.00     0.297 C 
HETATM    5  O1  UNL     1      -3.160  -0.369   1.411  1.00  0.00    -0.258 OA
HETATM    6  N1  UNL     1      -0.914  -0.129   0.712  1.00  0.00    -0.326 N 
HETATM    7  H4  UNL     1      -0.119   0.573   0.610  1.00  0.00     0.165 HD
BRANCH   6   8
HETATM    8  C5  UNL     1      -0.626  -1.628   0.246  1.00  0.00     0.146 A 
HETATM    9  C6  UNL     1      -1.639  -1.750  -0.768  1.00  0.00    -0.043 A 
HETATM   10  C7  UNL     1      -1.960  -1.345  -2.173  1.00  0.00     0.047 C 
HETATM   11  C8  UNL     1      -2.634  -2.508  -0.245  1.00  0.00     0.008 A 
HETATM   12  C9  UNL     1      -2.330  -2.947   1.137  1.00  0.00     0.031 A 
HETATM   13  C10 UNL     1      -1.117  -2.413   1.377  1.00  0.00     0.073 A 
HETATM   14  N2  UNL     1      -0.327  -2.815   2.524  1.00  0.00    -0.261 NA
HETATM   15  C11 UNL     1       0.989  -2.699   2.385  1.00  0.00     0.141 C 
HETATM   16  C12 UNL     1       1.451  -2.120   1.102  1.00  0.00     0.087 C 
HETATM   17  C13 UNL     1       2.912  -2.170   1.046  1.00  0.00     0.103 C 
HETATM   18  C14 UNL     1       0.793  -1.616   0.032  1.00  0.00     0.071 C 
HETATM   19  N3  UNL     1       4.092  -2.208   0.981  1.00  0.00    -0.191 NA
BRANCH  18  20
HETATM   20  N4  UNL     1       1.605  -1.163  -1.035  1.00  0.00    -0.356 N 
HETATM   21  H11 UNL     1       1.850  -2.069  -1.545  1.00  0.00     0.166 HD
BRANCH  20  22
HETATM   22  C15 UNL     1       2.022   0.164  -1.390  1.00  0.00     0.033 A 
HETATM   23  C16 UNL     1       1.434   0.948  -2.355  1.00  0.00     0.029 A 
HETATM   24  C17 UNL     1       1.806   2.227  -2.707  1.00  0.00     0.004 A 
HETATM   25  C18 UNL     1       2.868   2.800  -2.043  1.00  0.00     0.019 A 
HETATM   26  C19 UNL     1       3.512   2.076  -1.059  1.00  0.00     0.013 A 
HETATM   27 BR1  UNL     1       4.966   2.934  -0.182  1.00  0.00    -0.051 Br
HETATM   28  C20 UNL     1       3.073   0.803  -0.772  1.00  0.00     0.048 A 
ENDBRANCH  20  22
ENDBRANCH  18  20
ENDBRANCH   6   8
ENDBRANCH   3   4
TORSDOF 4
