REMARK  6 active torsions:
REMARK  status: ('A' for Active; 'I' for Inactive)
REMARK    1  A    between atoms: C2_2  and  C3_3 
REMARK    2  A    between atoms: C2_2  and  N1_6 
REMARK    3  A    between atoms: C4_4  and  O1_5 
REMARK    4  A    between atoms: N1_6  and  C5_7 
REMARK    5  A    between atoms: C12_16  and  N4_17 
REMARK    6  A    between atoms: N4_17  and  C13_18 
ROOT
HETATM    1  C5  UNL     1       1.543  -0.539  -0.441  1.00  0.00     0.029 A 
HETATM    2  C6  UNL     1       1.759  -1.241  -1.604  1.00  0.00     0.031 A 
HETATM    3  C7  UNL     1       0.831  -2.062  -2.211  1.00  0.00     0.035 A 
HETATM    4  C8  UNL     1      -0.409  -2.188  -1.603  1.00  0.00     0.069 A 
HETATM    5  N2  UNL     1      -1.359  -2.964  -2.132  1.00  0.00    -0.259 NA
HETATM    6  C9  UNL     1      -2.551  -3.063  -1.517  1.00  0.00     0.142 A 
HETATM    7  C10 UNL     1      -2.904  -2.418  -0.350  1.00  0.00     0.089 A 
HETATM    8  C11 UNL     1      -4.163  -2.528   0.289  1.00  0.00     0.103 C 
HETATM    9  N3  UNL     1      -5.192  -2.631   0.799  1.00  0.00    -0.191 NA
HETATM   10  C12 UNL     1      -1.941  -1.610   0.217  1.00  0.00     0.067 A 
HETATM   11  C18 UNL     1      -0.704  -1.504  -0.416  1.00  0.00     0.023 A 
HETATM   12  C19 UNL     1       0.287  -0.720   0.096  1.00  0.00     0.045 A 
ENDROOT
BRANCH  10  13
HETATM   13  N4  UNL     1      -2.126  -0.859   1.431  1.00  0.00    -0.356 N 
HETATM   14  H10 UNL     1      -1.902  -1.282   2.373  1.00  0.00     0.166 HD
BRANCH  13  15
HETATM   15  C13 UNL     1      -2.616   0.474   1.388  1.00  0.00     0.028 A 
HETATM   16  C14 UNL     1      -2.350   1.406   2.287  1.00  0.00     0.026 A 
HETATM   17  C15 UNL     1      -3.002   2.652   1.951  1.00  0.00    -0.001 A 
HETATM   18  C16 UNL     1      -3.668   2.480   0.845  1.00  0.00    -0.005 A 
HETATM   19  C17 UNL     1      -3.490   1.066   0.368  1.00  0.00     0.130 A 
HETATM   20 BR1  UNL     1      -2.634   1.102  -1.347  1.00  0.00    -0.080 Br
ENDBRANCH  13  15
ENDBRANCH  10  13
BRANCH   1  21
HETATM   21  N1  UNL     1       2.499   0.307   0.178  1.00  0.00    -0.375 N 
HETATM   22  H6  UNL     1       2.226   0.786   1.063  1.00  0.00     0.161 HD
BRANCH  21  23
HETATM   23  C2  UNL     1       3.818   0.514  -0.385  1.00  0.00     0.159 C 
HETATM   24  C1  UNL     1       3.794   1.125  -1.751  1.00  0.00     0.046 C 
BRANCH  23  25
HETATM   25  C3  UNL     1       4.616   1.328   0.561  1.00  0.00    -0.051 C 
HETATM   26  C4  UNL     1       5.267   2.005   1.317  1.00  0.00     0.053 C 
BRANCH  26  27
HETATM   27  O1  UNL     1       6.027   2.766   2.172  1.00  0.00    -0.314 OA
HETATM   28  H5  UNL     1       5.718   2.965   3.135  1.00  0.00     0.230 HD
ENDBRANCH  26  27
ENDBRANCH  23  25
ENDBRANCH  21  23
ENDBRANCH   1  21
TORSDOF 6
