REMARK  3 active torsions:
REMARK  status: ('A' for Active; 'I' for Inactive)
REMARK    1  A    between atoms: O1_2  and  C2_3 
REMARK    2  A    between atoms: C8_9  and  N1_10 
REMARK    3  A    between atoms: N1_10  and  C9_11 
ROOT
HETATM    1  C2  UNL     1       0.613   2.141  -0.110  1.00  0.00     0.073 A 
HETATM    2  C3  UNL     1       0.789   0.924  -0.661  1.00  0.00     0.049 A 
HETATM    3  C4  UNL     1      -0.046  -0.093   0.004  1.00  0.00     0.108 A 
HETATM    4  C5  UNL     1      -0.741   0.707   1.044  1.00  0.00     0.021 A 
HETATM    5  C6  UNL     1      -0.366   1.986   0.976  1.00  0.00    -0.030 A 
HETATM    6  C7  UNL     1      -0.793   3.158   1.805  1.00  0.00     0.050 C 
HETATM    7  C8  UNL     1       0.782  -1.206   0.642  1.00  0.00     0.242 C 
HETATM    8  N2  UNL     1       0.023  -2.462   0.500  1.00  0.00    -0.262 NA
HETATM    9  C15 UNL     1      -0.965  -2.645   1.360  1.00  0.00     0.166 C 
HETATM   10  N3  UNL     1      -1.898  -3.761   1.470  1.00  0.00    -0.271 NA
HETATM   11  C16 UNL     1      -2.970  -3.567   0.805  1.00  0.00     0.503 A 
HETATM   12  N4  UNL     1      -3.580  -2.601  -0.032  1.00  0.00     0.125 N 
HETATM   13  C17 UNL     1      -4.728  -3.502  -0.134  1.00  0.00     0.313 C 
HETATM   14  C18 UNL     1      -3.361  -1.319  -0.612  1.00  0.00     0.262 A 
HETATM   15  O2  UNL     1      -2.907  -2.183   0.099  1.00  0.00     0.000 OA
HETATM   16  C19 UNL     1      -2.391  -0.203  -0.704  1.00  0.00     0.125 C 
HETATM   17  C20 UNL     1      -2.686   0.611  -1.970  1.00  0.00     0.029 C 
HETATM   18  C21 UNL     1      -1.907  -0.219  -2.987  1.00  0.00     0.022 C 
HETATM   19  C22 UNL     1      -0.735  -0.793  -2.230  1.00  0.00     0.119 C 
HETATM   20  N5  UNL     1      -1.055  -0.650  -0.871  1.00  0.00    -0.387 N 
ENDROOT
BRANCH   7  21
HETATM   21  N1  UNL     1       2.088  -1.309   0.132  1.00  0.00    -0.362 N 
HETATM   22  H10 UNL     1       2.237  -2.122  -0.535  1.00  0.00     0.162 HD
BRANCH  21  23
HETATM   23  C9  UNL     1       3.216  -0.499   0.373  1.00  0.00     0.070 A 
HETATM   24  C10 UNL     1       3.267   0.569   1.220  1.00  0.00     0.032 A 
HETATM   25  C11 UNL     1       4.328   1.391   1.525  1.00  0.00     0.004 A 
HETATM   26  C12 UNL     1       5.517   1.070   0.860  1.00  0.00     0.027 A 
HETATM   27  C13 UNL     1       5.566   0.012  -0.013  1.00  0.00     0.074 A 
HETATM   28 CL1  UNL     1       7.068  -0.362  -0.825  1.00  0.00    -0.081 Cl
HETATM   29  C14 UNL     1       4.443  -0.748  -0.245  1.00  0.00     0.164 A 
HETATM   30  F1  UNL     1       4.571  -1.782  -1.127  1.00  0.00    -0.202 F 
ENDBRANCH  21  23
ENDBRANCH   7  21
BRANCH   1  31
HETATM   31  O1  UNL     1       1.316   3.228  -0.610  1.00  0.00    -0.356 OA
HETATM   32  C1  UNL     1       1.583   4.388   0.118  1.00  0.00     0.210 C 
ENDBRANCH   1  31
TORSDOF 3
