REMARK  8 active torsions:
REMARK  status: ('A' for Active; 'I' for Inactive)
REMARK    1  A    between atoms: O1_2  and  C2_3 
REMARK    2  A    between atoms: C5_6  and  N1_7 
REMARK    3  A    between atoms: C5_6  and  N2_8 
REMARK    4  A    between atoms: N2_8  and  C6_9 
REMARK    5  A    between atoms: C7_10  and  C8_11 
REMARK    6  A    between atoms: C8_11  and  C9_12 
REMARK    7  A    between atoms: C9_12  and  C11_14 
REMARK    8  A    between atoms: C16_20  and  N3_22 
ROOT
HETATM    1  C2  UNL     1      -1.295   2.802  -0.952  1.00  0.00     0.154 C 
HETATM    2  C3  UNL     1      -0.726   1.557  -1.684  1.00  0.00     0.079 C 
HETATM    3  C4  UNL     1      -0.698   0.590  -0.523  1.00  0.00    -0.008 C 
HETATM    4  C5  UNL     1       0.257  -0.220  -0.277  1.00  0.00     0.084 C 
HETATM    5  C13 UNL     1      -2.008   0.926   0.089  1.00  0.00    -0.015 A 
HETATM    6  C14 UNL     1      -2.334   2.132  -0.148  1.00  0.00    -0.039 A 
HETATM    7  C15 UNL     1      -3.593   2.060   0.534  1.00  0.00     0.073 A 
HETATM    8  C16 UNL     1      -3.224   0.671   0.876  1.00  0.00     0.064 A 
HETATM    9  C17 UNL     1      -2.912   0.496   2.361  1.00  0.00     0.044 C 
ENDROOT
BRANCH   4  10
HETATM   10  N1  UNL     1       1.017   0.234  -1.421  1.00  0.00    -0.288 NA
HETATM   11  H7  UNL     1       0.842  -0.163  -2.395  1.00  0.00     0.125 HD
HETATM   12  H8  UNL     1       0.968  -0.044  -2.433  1.00  0.00     0.125 HD
ENDBRANCH   4  10
BRANCH   4  13
HETATM   13  N2  UNL     1       1.069  -1.224   0.273  1.00  0.00    -0.357 N 
HETATM   14  H9  UNL     1       0.203  -1.829   0.151  1.00  0.00     0.166 HD
BRANCH  13  15
HETATM   15  C6  UNL     1       2.419  -1.230   0.715  1.00  0.00     0.085 C 
HETATM   16  C7  UNL     1       3.281  -1.105  -0.342  1.00  0.00    -0.003 C 
BRANCH  16  17
HETATM   17  C8  UNL     1       4.595  -1.135   0.378  1.00  0.00     0.061 C 
BRANCH  17  18
HETATM   18  C9  UNL     1       5.805  -1.051   0.164  1.00  0.00    -0.015 C 
HETATM   19  C10 UNL     1       7.329  -0.958  -0.013  1.00  0.00     0.014 C 
BRANCH  18  20
HETATM   20  C11 UNL     1       5.949  -1.134   1.678  1.00  0.00     0.171 C 
HETATM   21  C12 UNL     1       6.835  -2.280   2.113  1.00  0.00     0.045 C 
HETATM   22  F1  UNL     1       6.485   0.099   2.095  1.00  0.00    -0.249 F 
ENDBRANCH  18  20
ENDBRANCH  17  18
ENDBRANCH  16  17
ENDBRANCH  13  15
ENDBRANCH   4  13
BRANCH   1  23
HETATM   23  O1  UNL     1      -1.778   3.705  -1.886  1.00  0.00    -0.386 OA
HETATM   24  C1  UNL     1      -1.075   4.921  -1.821  1.00  0.00     0.202 C 
ENDBRANCH   1  23
BRANCH   8  25
HETATM   25  N3  UNL     1      -4.102  -0.335   0.361  1.00  0.00    -0.335 N 
HETATM   26  C18 UNL     1      -3.717  -1.542  -0.412  1.00  0.00     0.153 C 
HETATM   27  C19 UNL     1      -4.525  -2.720   0.119  1.00  0.00     0.188 C 
HETATM   28  O2  UNL     1      -5.845  -2.658  -0.218  1.00  0.00    -0.380 OA
HETATM   29  C20 UNL     1      -6.471  -1.420  -0.110  1.00  0.00     0.270 C 
HETATM   30  C21 UNL     1      -5.507  -0.471   0.497  1.00  0.00     0.244 C 
HETATM   31  O3  UNL     1      -6.054   0.383   1.291  1.00  0.00    -0.271 OA
ENDBRANCH   8  25
TORSDOF 8
