REMARK  6 active torsions:
REMARK  status: ('A' for Active; 'I' for Inactive)
REMARK    1  A    between atoms: C2_2  and  C3_3 
REMARK    2  A    between atoms: C9_10  and  N2_11 
REMARK    3  A    between atoms: N2_11  and  C10_12 
REMARK       I    between atoms: N3_21  and  C18_22 
REMARK    4  A    between atoms: C18_22  and  C19_24 
REMARK    5  A    between atoms: C20_25  and  C21_26 
REMARK    6  A    between atoms: C21_26  and  N4_27 
ROOT
HETATM    1  C3  UNL     1       0.096   2.440  -0.144  1.00  0.00    -0.055 C 
HETATM    2  C4  UNL     1      -1.172   2.110  -0.325  1.00  0.00    -0.041 A 
HETATM    3  C5  UNL     1      -2.127   3.238  -0.348  1.00  0.00     0.068 A 
HETATM    4  C6  UNL     1      -3.480   2.686  -0.605  1.00  0.00     0.003 A 
HETATM    5  C7  UNL     1      -3.795   1.407  -0.762  1.00  0.00     0.068 A 
HETATM    6  C8  UNL     1      -5.181   1.097  -1.001  1.00  0.00     0.101 C 
HETATM    7  N1  UNL     1      -6.282   0.850  -1.176  1.00  0.00    -0.191 NA
HETATM    8  C9  UNL     1      -2.727   0.398  -0.694  1.00  0.00     0.061 A 
HETATM    9  C16 UNL     1      -1.460   0.703  -0.485  1.00  0.00    -0.005 A 
HETATM   10  C17 UNL     1      -0.446  -0.380  -0.429  1.00  0.00     0.168 C 
HETATM   11  N3  UNL     1       0.898   0.209  -0.351  1.00  0.00    -0.333 N 
HETATM   12  C18 UNL     1       1.874  -0.791  -0.605  1.00  0.00     0.299 C 
HETATM   13  O1  UNL     1       1.383  -1.911  -0.826  1.00  0.00    -0.258 OA
HETATM   14  C23 UNL     1       1.296   1.572  -0.068  1.00  0.00     0.161 C 
ENDROOT
BRANCH   8  15
HETATM   15  N2  UNL     1      -3.207  -0.905  -0.873  1.00  0.00    -0.354 N 
HETATM   16  H9  UNL     1      -3.750  -1.141  -1.744  1.00  0.00     0.166 HD
BRANCH  15  17
HETATM   17  C10 UNL     1      -3.208  -2.134  -0.211  1.00  0.00     0.033 A 
HETATM   18  C11 UNL     1      -4.265  -2.286   0.689  1.00  0.00     0.029 A 
HETATM   19  C12 UNL     1      -4.389  -3.473   1.416  1.00  0.00     0.004 A 
HETATM   20  C13 UNL     1      -3.477  -4.492   1.250  1.00  0.00     0.019 A 
HETATM   21  C14 UNL     1      -2.427  -4.372   0.371  1.00  0.00     0.013 A 
HETATM   22 BR1  UNL     1      -1.126  -5.745   0.094  1.00  0.00    -0.051 Br
HETATM   23  C15 UNL     1      -2.328  -3.187  -0.335  1.00  0.00     0.048 A 
ENDBRANCH  15  17
ENDBRANCH   8  15
BRANCH   1  24
HETATM   24  C2  UNL     1       0.522   3.851   0.023  1.00  0.00     0.032 C 
HETATM   25  C1  UNL     1       1.201   4.095   1.353  1.00  0.00     0.010 C 
ENDBRANCH   1  24
BRANCH  12  26
HETATM   26  C19 UNL     1       3.282  -0.649  -0.630  1.00  0.00    -0.004 C 
HETATM   27  C20 UNL     1       4.475  -0.519  -0.670  1.00  0.00    -0.066 C 
BRANCH  27  28
HETATM   28  C21 UNL     1       5.944  -0.350  -0.708  1.00  0.00     0.362 C 
BRANCH  28  29
HETATM   29  N4  UNL     1       6.453  -1.045   0.463  1.00  0.00     0.089 N 
HETATM   30  C22 UNL     1       6.234  -2.468   0.259  1.00  0.00     0.307 C 
HETATM   31  H18 UNL     1       6.009  -0.735   1.335  1.00  0.00     0.316 HD
ENDBRANCH  28  29
ENDBRANCH  27  28
ENDBRANCH  12  26
TORSDOF 6
