REMARK  9 active torsions:
REMARK  status: ('A' for Active; 'I' for Inactive)
REMARK    1  A    between atoms: C2_2  and  C3_3 
REMARK    2  A    between atoms: C3_3  and  C4_4 
REMARK    3  A    between atoms: C4_4  and  C5_5 
REMARK    4  A    between atoms: C5_5  and  N4_22 
REMARK    5  A    between atoms: C6_6  and  C7_7 
REMARK    6  A    between atoms: N3_14  and  C12_15 
REMARK       I    between atoms: N4_22  and  C18_23 
REMARK    7  A    between atoms: C18_23  and  C19_25 
REMARK    8  A    between atoms: C20_26  and  C21_27 
REMARK    9  A    between atoms: C21_27  and  N5_28 
ROOT
HETATM    1  C7  UNL     1       1.831   1.334  -0.877  1.00  0.00     0.209 C 
HETATM    2  N1  UNL     1       1.634   1.457  -2.313  1.00  0.00    -0.374 N 
HETATM    3  C8  UNL     1       2.608   0.787  -3.144  1.00  0.00     0.105 C 
HETATM    4  C9  UNL     1       3.888   0.985  -2.778  1.00  0.00     0.055 C 
HETATM    5  C10 UNL     1       4.911   0.333  -3.579  1.00  0.00     0.098 C 
HETATM    6  N2  UNL     1       5.749  -0.178  -4.229  1.00  0.00    -0.192 NA
HETATM    7  C11 UNL     1       4.244   1.837  -1.623  1.00  0.00     0.177 C 
HETATM    8  N3  UNL     1       3.219   1.667  -0.605  1.00  0.00    -0.351 N 
HETATM    9  H12 UNL     1       0.857   1.977  -2.783  1.00  0.00     0.161 HD
ENDROOT
BRANCH   8  10
HETATM   10  C12 UNL     1       3.527   1.832   0.785  1.00  0.00     0.033 A 
HETATM   11  C13 UNL     1       2.599   1.684   1.800  1.00  0.00     0.029 A 
HETATM   12  C14 UNL     1       2.876   1.841   3.141  1.00  0.00     0.004 A 
HETATM   13  C15 UNL     1       4.159   2.169   3.520  1.00  0.00     0.019 A 
HETATM   14  C16 UNL     1       5.131   2.333   2.560  1.00  0.00     0.013 A 
HETATM   15 BR1  UNL     1       6.866   2.784   3.151  1.00  0.00    -0.051 Br
HETATM   16  C17 UNL     1       4.785   2.161   1.238  1.00  0.00     0.048 A 
ENDBRANCH   8  10
BRANCH   1  17
HETATM   17  C6  UNL     1       1.486  -0.021  -0.397  1.00  0.00     0.044 C 
HETATM   18  C5  UNL     1       0.586  -0.961  -0.016  1.00  0.00     0.013 C 
BRANCH  18  19
HETATM   19  C4  UNL     1       1.018  -2.317   0.409  1.00  0.00     0.057 C 
BRANCH  19  20
HETATM   20  C3  UNL     1       0.741  -3.419  -0.548  1.00  0.00     0.006 C 
BRANCH  20  21
HETATM   21  C2  UNL     1      -0.711  -3.578  -0.854  1.00  0.00    -0.004 C 
HETATM   22  C1  UNL     1      -0.888  -4.747  -1.832  1.00  0.00     0.005 C 
ENDBRANCH  20  21
ENDBRANCH  19  20
ENDBRANCH  18  19
BRANCH  18  23
HETATM   23  N4  UNL     1      -0.822  -0.775   0.032  1.00  0.00    -0.320 N 
HETATM   24  C18 UNL     1      -1.672   0.256  -0.395  1.00  0.00     0.300 C 
HETATM   25  O1  UNL     1      -1.163   1.261  -0.948  1.00  0.00    -0.258 OA
HETATM   26  H20 UNL     1      -1.456  -1.488   0.489  1.00  0.00     0.169 HD
BRANCH  24  27
HETATM   27  C19 UNL     1      -3.097   0.317  -0.278  1.00  0.00    -0.004 C 
HETATM   28  C20 UNL     1      -4.295   0.349  -0.171  1.00  0.00    -0.066 C 
BRANCH  28  29
HETATM   29  C21 UNL     1      -5.753   0.377  -0.058  1.00  0.00     0.365 C 
BRANCH  29  30
HETATM   30  N5  UNL     1      -6.084   1.318   0.998  1.00  0.00     0.090 N 
HETATM   31  C22 UNL     1      -7.539   1.333   1.104  1.00  0.00     0.310 C 
HETATM   32  C23 UNL     1      -5.612   0.792   2.288  1.00  0.00     0.310 C 
ENDBRANCH  29  30
ENDBRANCH  28  29
ENDBRANCH  24  27
ENDBRANCH  18  23
ENDBRANCH   1  17
TORSDOF 9
