REMARK  4 active torsions:
REMARK  status: ('A' for Active; 'I' for Inactive)
REMARK    1  A    between atoms: O1_2  and  C2_3 
REMARK    2  A    between atoms: C6_7  and  N1_8 
REMARK    3  A    between atoms: N1_8  and  C7_9 
REMARK    4  A    between atoms: C15_20  and  C16_21 
ROOT
HETATM    1  C2  UNL     1      -1.350   1.151  -0.323  1.00  0.00     0.097 C 
HETATM    2  C3  UNL     1      -0.446   2.106  -0.156  1.00  0.00     0.044 C 
HETATM    3  C4  UNL     1      -0.236   2.532   1.359  1.00  0.00     0.100 C 
HETATM    4  C5  UNL     1       0.725   1.299   1.233  1.00  0.00    -0.028 C 
HETATM    5  C6  UNL     1       1.906   1.672   0.766  1.00  0.00     0.034 C 
HETATM    6  C13 UNL     1       1.858   2.890  -0.178  1.00  0.00     0.177 C 
HETATM    7  N2  UNL     1       0.558   2.736  -0.940  1.00  0.00    -0.385 N 
HETATM    8  C14 UNL     1       0.014   0.036   1.434  1.00  0.00     0.020 C 
HETATM    9  C15 UNL     1      -1.094  -0.039   0.601  1.00  0.00    -0.011 C 
HETATM   10  H12 UNL     1      -0.024   2.858  -1.846  1.00  0.00     0.159 HD
ENDROOT
BRANCH   5  11
HETATM   11  N1  UNL     1       2.791   0.689   1.337  1.00  0.00    -0.358 N 
HETATM   12  H6  UNL     1       3.097   0.714   2.327  1.00  0.00     0.166 HD
BRANCH  11  13
HETATM   13  C7  UNL     1       3.380  -0.424   0.664  1.00  0.00     0.034 A 
HETATM   14  C8  UNL     1       3.000  -1.740   0.502  1.00  0.00     0.032 A 
HETATM   15  C9  UNL     1       3.809  -2.584  -0.226  1.00  0.00     0.046 A 
HETATM   16  C10 UNL     1       4.990  -2.187  -0.807  1.00  0.00     0.138 A 
HETATM   17  F1  UNL     1       5.720  -3.094  -1.507  1.00  0.00    -0.204 F 
HETATM   18  C11 UNL     1       5.384  -0.872  -0.653  1.00  0.00     0.074 A 
HETATM   19 CL1  UNL     1       6.896  -0.425  -1.416  1.00  0.00    -0.081 Cl
HETATM   20  C12 UNL     1       4.579   0.003   0.082  1.00  0.00     0.056 A 
ENDBRANCH  11  13
ENDBRANCH   5  11
BRANCH   9  21
HETATM   21  C16 UNL     1      -2.004  -1.142   0.521  1.00  0.00     0.095 C 
HETATM   22  C17 UNL     1      -2.100  -1.813  -0.825  1.00  0.00     0.043 C 
HETATM   23  C18 UNL     1      -3.039  -3.003  -0.665  1.00  0.00     0.169 C 
HETATM   24  O2  UNL     1      -3.818  -2.903   0.466  1.00  0.00    -0.384 OA
HETATM   25  C19 UNL     1      -4.455  -1.661   0.560  1.00  0.00     0.246 C 
HETATM   26  C20 UNL     1      -3.391  -0.673   0.893  1.00  0.00     0.159 C 
HETATM   27  O3  UNL     1      -3.745   0.366   1.410  1.00  0.00    -0.295 OA
ENDBRANCH   9  21
BRANCH   1  28
HETATM   28  O1  UNL     1      -2.230   1.478  -1.262  1.00  0.00    -0.353 OA
HETATM   29  C1  UNL     1      -3.294   2.359  -1.293  1.00  0.00     0.210 C 
ENDBRANCH   1  28
TORSDOF 4
