REMARK  8 active torsions:
REMARK  status: ('A' for Active; 'I' for Inactive)
REMARK    1  A    between atoms: C2_2  and  C3_3 
REMARK    2  A    between atoms: C3_3  and  C4_4 
REMARK    3  A    between atoms: C5_5  and  C6_6 
REMARK    4  A    between atoms: C5_5  and  N1_9 
REMARK    5  A    between atoms: C6_6  and  O1_7 
REMARK       I    between atoms: N1_9  and  C8_10 
REMARK    6  A    between atoms: C8_10  and  C9_12 
REMARK    7  A    between atoms: C10_13  and  C11_14 
REMARK    8  A    between atoms: C11_14  and  N2_16 
ROOT
HETATM    1  N1  UNL     1       1.818   0.309  -1.349  1.00  0.00    -0.326 N 
HETATM    2  C8  UNL     1       0.516   0.227  -0.797  1.00  0.00     0.245 C 
HETATM    3  O2  UNL     1       0.387  -0.312   0.328  1.00  0.00    -0.268 OA
HETATM    4  H14 UNL     1       1.976   0.753  -2.290  1.00  0.00     0.169 HD
ENDROOT
BRANCH   2   5
HETATM    5  C9  UNL     1      -0.597   0.768  -1.559  1.00  0.00     0.072 C 
HETATM    6  C10 UNL     1      -1.844   0.736  -1.126  1.00  0.00     0.003 C 
BRANCH   6   7
HETATM    7  C11 UNL     1      -2.626   0.281   0.024  1.00  0.00     0.098 C 
HETATM    8  C12 UNL     1      -3.013   1.526   0.812  1.00  0.00     0.036 C 
BRANCH   7   9
HETATM    9  N2  UNL     1      -3.669  -0.622  -0.199  1.00  0.00    -0.401 N 
HETATM   10  C13 UNL     1      -4.749  -0.284  -1.037  1.00  0.00     0.143 C 
HETATM   11  C14 UNL     1      -5.841   0.388  -0.255  1.00  0.00     0.187 C 
HETATM   12  O3  UNL     1      -5.794   0.110   1.093  1.00  0.00    -0.388 OA
HETATM   13  C15 UNL     1      -5.409  -1.208   1.352  1.00  0.00     0.187 C 
HETATM   14  C16 UNL     1      -4.040  -1.516   0.827  1.00  0.00     0.143 C 
ENDBRANCH   7   9
ENDBRANCH   6   7
ENDBRANCH   2   5
BRANCH   1  15
HETATM   15  C5  UNL     1       3.055  -0.133  -0.825  1.00  0.00     0.032 C 
HETATM   16  C4  UNL     1       4.008   0.760  -0.616  1.00  0.00     0.001 C 
BRANCH  16  17
HETATM   17  C3  UNL     1       5.369   0.609  -0.097  1.00  0.00     0.029 C 
BRANCH  17  18
HETATM   18  C2  UNL     1       5.452   1.472   1.158  1.00  0.00    -0.001 C 
HETATM   19  C1  UNL     1       5.177   2.905   0.845  1.00  0.00     0.005 C 
ENDBRANCH  17  18
ENDBRANCH  16  17
BRANCH  15  20
HETATM   20  C6  UNL     1       3.230  -1.576  -0.539  1.00  0.00     0.223 C 
BRANCH  20  21
HETATM   21  O1  UNL     1       2.331  -2.073   0.393  1.00  0.00    -0.390 OA
HETATM   22  C7  UNL     1       2.528  -3.431   0.635  1.00  0.00     0.201 C 
ENDBRANCH  20  21
ENDBRANCH  15  20
ENDBRANCH   1  15
TORSDOF 8
