REMARK  2 active torsions:
REMARK  status: ('A' for Active; 'I' for Inactive)
REMARK    1  A    between atoms: C8_11  and  N4_12 
REMARK    2  A    between atoms: N4_12  and  C9_13 
ROOT
HETATM    1  C1  UNL     1      -3.858   1.044  -1.694  1.00  0.00     0.044 C 
HETATM    2  C2  UNL     1      -3.022   0.568  -0.561  1.00  0.00    -0.077 A 
HETATM    3  C3  UNL     1      -1.821   0.020  -0.652  1.00  0.00     0.019 A 
HETATM    4  C4  UNL     1      -1.333  -0.309   0.677  1.00  0.00     0.021 A 
HETATM    5  C5  UNL     1      -2.305   0.069   1.580  1.00  0.00     0.073 A 
HETATM    6  N1  UNL     1      -2.047  -0.152   2.880  1.00  0.00    -0.152 NA
HETATM    7  N2  UNL     1      -0.910  -0.707   3.261  1.00  0.00    -0.137 NA
HETATM    8  C6  UNL     1       0.057  -1.087   2.399  1.00  0.00     0.186 A 
HETATM    9  C7  UNL     1       1.285  -1.689   2.834  1.00  0.00     0.124 C 
HETATM   10  N3  UNL     1       2.278  -2.182   3.167  1.00  0.00    -0.190 NA
HETATM   11  C8  UNL     1      -0.136  -0.891   1.043  1.00  0.00     0.086 A 
HETATM   12  C15 UNL     1      -3.464   0.661   0.869  1.00  0.00     0.096 A 
ENDROOT
BRANCH  11  13
HETATM   13  N4  UNL     1       0.873  -1.287   0.127  1.00  0.00    -0.353 N 
HETATM   14  H5  UNL     1       0.663  -2.265  -0.129  1.00  0.00     0.166 HD
BRANCH  13  15
HETATM   15  C9  UNL     1       1.946  -0.523  -0.347  1.00  0.00     0.033 A 
HETATM   16  C10 UNL     1       2.089   0.778   0.095  1.00  0.00     0.029 A 
HETATM   17  C11 UNL     1       3.181   1.460  -0.428  1.00  0.00     0.004 A 
HETATM   18  C12 UNL     1       4.062   0.897  -1.319  1.00  0.00     0.019 A 
HETATM   19  C13 UNL     1       3.869  -0.421  -1.731  1.00  0.00     0.013 A 
HETATM   20 BR1  UNL     1       5.082  -1.211  -2.965  1.00  0.00    -0.051 Br
HETATM   21  C14 UNL     1       2.793  -1.146  -1.239  1.00  0.00     0.048 A 
ENDBRANCH  13  15
ENDBRANCH  11  13
TORSDOF 2
