REMARK  6 active torsions:
REMARK  status: ('A' for Active; 'I' for Inactive)
REMARK    1  A    between atoms: C7_9  and  N3_10 
REMARK       I    between atoms: N3_10  and  C8_11 
REMARK    2  A    between atoms: C8_11  and  C9_13 
REMARK    3  A    between atoms: C10_14  and  C11_15 
REMARK    4  A    between atoms: C11_15  and  N4_16 
REMARK    5  A    between atoms: C18_24  and  N5_25 
REMARK    6  A    between atoms: N5_25  and  C19_26 
ROOT
HETATM    1  N1  UNL     1      -7.575   2.083   1.115  1.00  0.00    -0.191 NA
HETATM    2  C1  UNL     1      -6.489   2.146   0.744  1.00  0.00     0.103 C 
HETATM    3  C2  UNL     1      -5.112   2.234   0.295  1.00  0.00     0.089 A 
HETATM    4  C3  UNL     1      -4.766   3.411  -0.327  1.00  0.00     0.142 A 
HETATM    5  N2  UNL     1      -3.501   3.515  -0.750  1.00  0.00    -0.259 NA
HETATM    6  C4  UNL     1      -2.623   2.511  -0.570  1.00  0.00     0.069 A 
HETATM    7  C5  UNL     1      -1.337   2.699  -1.035  1.00  0.00     0.035 A 
HETATM    8  C6  UNL     1      -0.426   1.682  -0.858  1.00  0.00     0.032 A 
HETATM    9  C7  UNL     1      -0.675   0.476  -0.253  1.00  0.00     0.035 A 
HETATM   10  C16 UNL     1      -1.971   0.339   0.192  1.00  0.00     0.045 A 
HETATM   11  C17 UNL     1      -2.917   1.327   0.038  1.00  0.00     0.023 A 
HETATM   12  C18 UNL     1      -4.207   1.185   0.486  1.00  0.00     0.067 A 
ENDROOT
BRANCH  12  13
HETATM   13  N5  UNL     1      -4.626  -0.008   1.133  1.00  0.00    -0.357 N 
HETATM   14  H18 UNL     1      -4.231  -0.490   1.967  1.00  0.00     0.166 HD
BRANCH  13  15
HETATM   15  C19 UNL     1      -5.780  -0.560   0.464  1.00  0.00     0.014 A 
HETATM   16  C20 UNL     1      -6.083  -0.599  -0.842  1.00  0.00     0.026 A 
HETATM   17  C21 UNL     1      -7.365  -1.263  -1.045  1.00  0.00     0.021 A 
HETATM   18  C22 UNL     1      -7.813  -1.613   0.148  1.00  0.00     0.017 A 
HETATM   19 CL1  UNL     1      -9.363  -2.454   0.308  1.00  0.00    -0.089 Cl
HETATM   20  C23 UNL     1      -6.874  -1.215   1.229  1.00  0.00     0.108 A 
ENDBRANCH  13  15
ENDBRANCH  12  13
BRANCH   9  21
HETATM   21  N3  UNL     1       0.223  -0.589  -0.047  1.00  0.00    -0.324 N 
HETATM   22  C8  UNL     1       1.592  -0.660  -0.399  1.00  0.00     0.245 C 
HETATM   23  O1  UNL     1       2.126   0.320  -0.966  1.00  0.00    -0.268 OA
HETATM   24  H4  UNL     1      -0.093  -1.454   0.414  1.00  0.00     0.169 HD
BRANCH  22  25
HETATM   25  C9  UNL     1       2.464  -1.773  -0.168  1.00  0.00     0.072 C 
HETATM   26  C10 UNL     1       3.738  -1.855  -0.489  1.00  0.00    -0.002 C 
BRANCH  26  27
HETATM   27  C11 UNL     1       4.762  -1.024  -1.128  1.00  0.00     0.144 C 
BRANCH  27  28
HETATM   28  N4  UNL     1       5.911  -0.727  -0.361  1.00  0.00    -0.405 N 
HETATM   29  C12 UNL     1       5.773   0.104   0.776  1.00  0.00     0.143 C 
HETATM   30  C13 UNL     1       7.144   0.719   1.053  1.00  0.00     0.187 C 
HETATM   31  O2  UNL     1       8.142  -0.253   1.111  1.00  0.00    -0.388 OA
HETATM   32  C14 UNL     1       8.251  -0.999  -0.054  1.00  0.00     0.187 C 
HETATM   33  C15 UNL     1       6.900  -1.723  -0.193  1.00  0.00     0.143 C 
ENDBRANCH  27  28
ENDBRANCH  26  27
ENDBRANCH  22  25
ENDBRANCH   9  21
TORSDOF 6
