REMARK  2 active torsions:
REMARK  status: ('A' for Active; 'I' for Inactive)
REMARK    1  A    between atoms: C14_18  and  N4_19 
REMARK    2  A    between atoms: N4_19  and  C15_20 
ROOT
HETATM    1  N1  UNL     1      -1.897   5.187  -2.454  1.00  0.00    -0.192 NA
HETATM    2  C1  UNL     1      -1.746   4.328  -1.712  1.00  0.00     0.097 C 
HETATM    3  C2  UNL     1      -1.528   3.222  -0.753  1.00  0.00     0.046 C 
HETATM    4  C3  UNL     1      -0.746   3.593   0.379  1.00  0.00     0.107 C 
HETATM    5  N2  UNL     1      -0.282   2.467   1.358  1.00  0.00    -0.364 N 
HETATM    6  C4  UNL     1      -0.985   1.191   0.787  1.00  0.00     0.037 C 
HETATM    7  C5  UNL     1      -2.139   1.348   1.397  1.00  0.00     0.009 C 
HETATM    8  C6  UNL     1      -2.953   1.318   0.117  1.00  0.00     0.025 C 
HETATM    9  C7  UNL     1      -2.974  -0.200  -0.192  1.00  0.00     0.036 C 
HETATM   10  C8  UNL     1      -3.870  -0.953   0.688  1.00  0.00     0.168 C 
HETATM   11  O1  UNL     1      -3.943  -2.310   0.542  1.00  0.00    -0.389 OA
HETATM   12  C9  UNL     1      -2.828  -3.071   0.660  1.00  0.00     0.197 C 
HETATM   13  C10 UNL     1      -1.841  -2.992  -0.434  1.00  0.00     0.295 C 
HETATM   14  N3  UNL     1      -0.602  -3.725  -0.230  1.00  0.00     0.088 N 
HETATM   15  C11 UNL     1       0.436  -3.337  -1.165  1.00  0.00     0.296 C 
HETATM   16  C12 UNL     1       0.987  -1.976  -0.917  1.00  0.00     0.001 C 
HETATM   17  C13 UNL     1       1.614  -0.830  -0.680  1.00  0.00     0.011 C 
HETATM   18  C14 UNL     1       1.341   0.668  -0.556  1.00  0.00     0.281 C 
HETATM   19  C20 UNL     1      -0.077   0.905  -0.333  1.00  0.00     0.002 C 
HETATM   20  C21 UNL     1      -1.095   0.752  -1.230  1.00  0.00    -0.004 C 
HETATM   21  C22 UNL     1      -2.147   1.870  -1.074  1.00  0.00     0.061 C 
HETATM   22  H2  UNL     1       0.295   3.252   1.908  1.00  0.00     0.165 HD
HETATM   23  H13 UNL     1      -0.763  -4.735  -0.344  1.00  0.00     0.316 HD
ENDROOT
BRANCH  18  24
HETATM   24  N4  UNL     1       2.154   1.205   0.513  1.00  0.00     0.129 N 
HETATM   25  H19 UNL     1       1.883   0.798   1.433  1.00  0.00     0.321 HD
BRANCH  24  26
HETATM   26  C15 UNL     1       3.556   1.061   0.276  1.00  0.00     0.388 A 
HETATM   27  C16 UNL     1       4.264   1.685   1.446  1.00  0.00     0.063 A 
HETATM   28  C17 UNL     1       5.179   1.183   2.276  1.00  0.00     0.075 A 
HETATM   29 CL1  UNL     1       5.869   2.103   3.580  1.00  0.00    -0.081 Cl
HETATM   30  C18 UNL     1       5.509  -0.195   1.957  1.00  0.00     0.159 A 
HETATM   31  F1  UNL     1       6.432  -0.819   2.732  1.00  0.00    -0.202 F 
HETATM   32  C19 UNL     1       4.958  -0.864   0.955  1.00  0.00     0.181 A 
HETATM   33  O2  UNL     1       4.032  -0.242   0.173  1.00  0.00    -0.321 OA
ENDBRANCH  24  26
ENDBRANCH  18  24
TORSDOF 2
