REMARK  0 active torsions:
REMARK  status: ('A' for Active; 'I' for Inactive)
ROOT
HETATM    1  N1  UNL     1       0.737   2.849  -4.583  1.00  0.00    -0.192 NA
HETATM    2  C1  UNL     1       0.965   2.558  -3.464  1.00  0.00     0.098 C 
HETATM    3  C2  UNL     1       1.227   2.223  -2.098  1.00  0.00     0.055 C 
HETATM    4  C3  UNL     1       2.011   1.212  -1.964  1.00  0.00     0.108 C 
HETATM    5  N2  UNL     1       2.506   0.578  -0.812  1.00  0.00    -0.363 N 
HETATM    6  C4  UNL     1       3.055  -0.615  -0.291  1.00  0.00     0.065 A 
HETATM    7  C5  UNL     1       4.281  -0.489   0.230  1.00  0.00     0.005 A 
HETATM    8  C6  UNL     1       5.348  -1.266   0.888  1.00  0.00     0.033 A 
HETATM    9  C7  UNL     1       4.872  -2.697   1.003  1.00  0.00     0.033 A 
HETATM   10  C8  UNL     1       3.520  -2.748   0.408  1.00  0.00     0.016 A 
HETATM   11  C9  UNL     1       2.592  -1.991  -0.183  1.00  0.00     0.193 A 
HETATM   12  N3  UNL     1       1.398  -2.655  -0.577  1.00  0.00     0.120 N 
HETATM   13  C10 UNL     1       0.113  -2.285  -0.209  1.00  0.00     0.362 A 
HETATM   14  O1  UNL     1       0.931  -1.514   0.286  1.00  0.00    -0.145 OA
HETATM   15  C11 UNL     1      -1.231  -2.013   0.091  1.00  0.00     0.075 C 
HETATM   16  C12 UNL     1      -2.494  -2.349  -0.048  1.00  0.00     0.007 C 
HETATM   17  C13 UNL     1      -3.215  -1.318   0.742  1.00  0.00     0.024 C 
HETATM   18  C14 UNL     1      -4.649  -1.150   0.233  1.00  0.00     0.173 C 
HETATM   19  O2  UNL     1      -4.411  -0.559  -0.991  1.00  0.00    -0.390 OA
HETATM   20  C15 UNL     1      -3.433   0.410  -0.813  1.00  0.00     0.176 C 
HETATM   21  C16 UNL     1      -2.723   0.093   0.510  1.00  0.00     0.038 C 
HETATM   22  C17 UNL     1      -3.412   0.973   1.521  1.00  0.00    -0.023 C 
HETATM   23  C18 UNL     1      -3.249   2.291   1.629  1.00  0.00    -0.019 C 
HETATM   24  C19 UNL     1      -2.275   2.491   0.537  1.00  0.00     0.058 C 
HETATM   25  C20 UNL     1      -1.606   3.516  -0.026  1.00  0.00     0.065 C 
HETATM   26  N4  UNL     1      -0.810   2.909  -1.075  1.00  0.00    -0.397 N 
HETATM   27  C21 UNL     1       0.656   2.952  -0.972  1.00  0.00     0.170 C 
HETATM   28  H2  UNL     1       2.442   1.283  -0.057  1.00  0.00     0.165 HD
HETATM   29  H9  UNL     1       1.595  -3.483  -1.195  1.00  0.00     0.329 HD
HETATM   30  H22 UNL     1      -1.336   2.474  -1.860  1.00  0.00     0.159 HD
ENDROOT
TORSDOF 0
