REMARK  6 active torsions:
REMARK  status: ('A' for Active; 'I' for Inactive)
REMARK    1  A    between atoms: C6_6  and  N1_7 
REMARK    2  A    between atoms: N1_7  and  C7_8 
REMARK    3  A    between atoms: C8_10  and  C9_11 
REMARK    4  A    between atoms: C10_12  and  C11_13 
REMARK    5  A    between atoms: C11_13  and  N2_14 
REMARK    6  A    between atoms: C15_18  and  C16_19 
REMARK       I    between atoms: C16_19  and  N3_21 
ROOT
HETATM    1  C7  UNL     1       2.435   0.493  -0.531  1.00  0.00     0.103 C 
HETATM    2 CL1  UNL     1       2.929   1.368  -1.957  1.00  0.00    -0.065 Cl
HETATM    3  C8  UNL     1       1.149   0.336  -0.279  1.00  0.00     0.042 C 
ENDROOT
BRANCH   3   4
HETATM    4  C9  UNL     1       0.512  -0.343   0.832  1.00  0.00     0.001 C 
HETATM    5  C10 UNL     1      -0.770  -0.511   1.096  1.00  0.00    -0.007 C 
BRANCH   5   6
HETATM    6  C11 UNL     1      -1.930  -0.030   0.293  1.00  0.00     0.145 C 
BRANCH   6   7
HETATM    7  N2  UNL     1      -2.729  -1.061  -0.144  1.00  0.00    -0.397 N 
HETATM    8  C12 UNL     1      -2.378  -2.022  -1.077  1.00  0.00     0.118 C 
HETATM    9  C13 UNL     1      -3.434  -3.137  -0.963  1.00  0.00     0.022 C 
HETATM   10  C14 UNL     1      -4.613  -2.380  -0.424  1.00  0.00     0.036 C 
HETATM   11  C15 UNL     1      -3.991  -1.274   0.387  1.00  0.00     0.172 C 
BRANCH  11  12
HETATM   12  C16 UNL     1      -4.803  -0.027   0.333  1.00  0.00     0.241 C 
HETATM   13  O1  UNL     1      -5.946  -0.371   0.762  1.00  0.00    -0.271 OA
HETATM   14  N3  UNL     1      -5.075   1.337   0.087  1.00  0.00    -0.359 N 
HETATM   15  C17 UNL     1      -6.465   1.500   0.459  1.00  0.00     0.152 C 
HETATM   16  C18 UNL     1      -4.371   2.499  -0.400  1.00  0.00     0.152 C 
ENDBRANCH  11  12
ENDBRANCH   6   7
ENDBRANCH   5   6
ENDBRANCH   3   4
BRANCH   1  17
HETATM   17  N1  UNL     1       3.444  -0.029   0.328  1.00  0.00    -0.344 N 
HETATM   18  H7  UNL     1       3.247  -0.554   1.207  1.00  0.00     0.167 HD
BRANCH  17  19
HETATM   19  C6  UNL     1       4.825   0.136   0.032  1.00  0.00     0.072 A 
HETATM   20  C5  UNL     1       5.303  -0.918  -0.742  1.00  0.00     0.033 A 
HETATM   21  C4  UNL     1       6.639  -0.956  -1.145  1.00  0.00     0.003 A 
HETATM   22  C3  UNL     1       7.491   0.064  -0.769  1.00  0.00     0.010 A 
HETATM   23  C2  UNL     1       6.990   1.091  -0.004  1.00  0.00    -0.021 A 
HETATM   24  C1  UNL     1       7.868   2.221   0.436  1.00  0.00     0.051 C 
HETATM   25  C19 UNL     1       5.682   1.149   0.403  1.00  0.00     0.148 A 
HETATM   26  F1  UNL     1       5.094   2.114   1.156  1.00  0.00    -0.203 F 
ENDBRANCH  17  19
ENDBRANCH   1  17
TORSDOF 6
