REMARK  0 active torsions:
REMARK  status: ('A' for Active; 'I' for Inactive)
ROOT
HETATM    1  C1  UNL     1      -4.834  -0.954   0.416  1.00  0.00     0.013 C 
HETATM    2  C2  UNL     1      -3.430  -0.538   0.100  1.00  0.00    -0.016 C 
HETATM    3  C3  UNL     1      -2.930  -1.747  -0.025  1.00  0.00     0.039 C 
HETATM    4  C4  UNL     1      -1.835  -2.643  -0.284  1.00  0.00     0.072 C 
HETATM    5  C5  UNL     1      -0.507  -2.482  -0.580  1.00  0.00     0.067 C 
HETATM    6  N1  UNL     1       0.854  -2.184  -0.881  1.00  0.00    -0.388 N 
HETATM    7  C6  UNL     1       2.170  -1.776  -0.639  1.00  0.00     0.055 C 
HETATM    8  C7  UNL     1       2.483  -0.537  -0.195  1.00  0.00    -0.025 C 
HETATM    9  C8  UNL     1       1.171   0.131  -0.043  1.00  0.00     0.082 C 
HETATM   10  C9  UNL     1       1.259   1.601   0.124  1.00  0.00     0.011 C 
HETATM   11  C10 UNL     1       0.068   2.077   0.509  1.00  0.00     0.016 C 
HETATM   12  C11 UNL     1      -1.214   1.372   0.784  1.00  0.00     0.301 C 
HETATM   13  N2  UNL     1      -2.226   1.635  -0.182  1.00  0.00     0.101 N 
HETATM   14  C12 UNL     1      -2.388   3.037  -0.381  1.00  0.00     0.299 C 
HETATM   15  C13 UNL     1      -3.844   3.436  -0.094  1.00  0.00     0.198 C 
HETATM   16  O1  UNL     1      -4.642   2.737  -0.955  1.00  0.00    -0.387 OA
HETATM   17  C14 UNL     1      -4.433   1.384  -0.955  1.00  0.00     0.203 C 
HETATM   18  C15 UNL     1      -3.437   0.946   0.128  1.00  0.00     0.251 C 
HETATM   19  C16 UNL     1       2.425   2.427  -0.073  1.00  0.00     0.248 C 
HETATM   20  O2  UNL     1       2.321   3.660  -0.177  1.00  0.00    -0.268 OA
HETATM   21  N3  UNL     1       3.601   1.641  -0.122  1.00  0.00    -0.348 N 
HETATM   22  C17 UNL     1       3.758   0.167  -0.034  1.00  0.00     0.123 C 
HETATM   23  C18 UNL     1       4.590  -0.131   1.095  1.00  0.00     0.044 A 
HETATM   24  C19 UNL     1       5.334  -0.674   2.016  1.00  0.00     0.026 A 
HETATM   25  C20 UNL     1       5.005  -1.808   1.171  1.00  0.00     0.119 A 
HETATM   26  N4  UNL     1       4.328  -1.978   0.043  1.00  0.00    -0.294 NA
HETATM   27  C21 UNL     1       4.237  -3.324  -0.463  1.00  0.00     0.135 C 
HETATM   28  C22 UNL     1       2.983  -3.010  -0.774  1.00  0.00     0.088 C 
HETATM   29  C23 UNL     1       2.450  -4.235  -1.368  1.00  0.00     0.103 C 
HETATM   30  N5  UNL     1       1.998  -5.223  -1.843  1.00  0.00    -0.191 NA
HETATM   31  H7  UNL     1       0.826  -2.422  -1.932  1.00  0.00     0.159 HD
HETATM   32  H20 UNL     1       4.493   2.187  -0.236  1.00  0.00     0.163 HD
ENDROOT
TORSDOF 0
