REMARK  3 active torsions:
REMARK  status: ('A' for Active; 'I' for Inactive)
REMARK    1  A    between atoms: O1_2  and  C2_3 
REMARK    2  A    between atoms: C9_12  and  N3_13 
REMARK    3  A    between atoms: C13_17  and  C14_18 
REMARK       I    between atoms: C14_18  and  N4_20 
ROOT
HETATM    1  C2  UNL     1       2.856  -0.993  -0.090  1.00  0.00     0.078 C 
HETATM    2  C3  UNL     1       4.141  -0.807  -0.458  1.00  0.00     0.067 C 
HETATM    3  C4  UNL     1       4.312   0.583  -0.813  1.00  0.00     0.067 A 
HETATM    4  N1  UNL     1       5.205   1.137  -1.594  1.00  0.00    -0.244 NA
HETATM    5  C5  UNL     1       5.022   2.535  -1.710  1.00  0.00     0.228 A 
HETATM    6  N2  UNL     1       3.979   2.887  -0.976  1.00  0.00    -0.268 NA
HETATM    7  C6  UNL     1       3.516   1.710  -0.379  1.00  0.00     0.184 A 
HETATM    8  C7  UNL     1       2.142   1.403  -0.110  1.00  0.00     0.018 C 
HETATM    9  C8  UNL     1       1.859   0.103   0.049  1.00  0.00     0.002 C 
HETATM   10  C9  UNL     1       0.556  -0.408   0.390  1.00  0.00     0.314 C 
ENDROOT
BRANCH   1  11
HETATM   11  O1  UNL     1       2.523  -2.312   0.225  1.00  0.00    -0.355 OA
HETATM   12  C1  UNL     1       3.095  -3.411  -0.469  1.00  0.00     0.210 C 
ENDBRANCH   1  11
BRANCH  10  13
HETATM   13  N3  UNL     1      -0.527   0.463   0.608  1.00  0.00     0.106 NA
HETATM   14  C10 UNL     1      -0.535   1.269   1.755  1.00  0.00     0.274 C 
HETATM   15  C11 UNL     1      -1.985   1.355   2.170  1.00  0.00     0.033 C 
HETATM   16  C12 UNL     1      -2.504  -0.007   1.807  1.00  0.00     0.047 C 
HETATM   17  C13 UNL     1      -1.816  -0.197   0.453  1.00  0.00     0.314 C 
BRANCH  17  18
HETATM   18  C14 UNL     1      -2.606   0.551  -0.543  1.00  0.00     0.252 C 
HETATM   19  O2  UNL     1      -2.256   1.648  -1.087  1.00  0.00    -0.271 OA
HETATM   20  N4  UNL     1      -3.820  -0.156  -0.794  1.00  0.00    -0.359 N 
HETATM   21  C15 UNL     1      -4.370  -1.399  -0.271  1.00  0.00     0.152 C 
HETATM   22  C16 UNL     1      -4.741   0.429  -1.768  1.00  0.00     0.152 C 
ENDBRANCH  17  18
ENDBRANCH  10  13
TORSDOF 3
