REMARK  8 active torsions:
REMARK  status: ('A' for Active; 'I' for Inactive)
REMARK    1  A    between atoms: C2_2  and  C3_4 
REMARK    2  A    between atoms: C5_6  and  C6_7 
REMARK    3  A    between atoms: C7_8  and  N1_9 
REMARK    4  A    between atoms: N1_9  and  C8_10 
REMARK    5  A    between atoms: C8_10  and  C9_11 
REMARK    6  A    between atoms: C9_11  and  O1_12 
REMARK    7  A    between atoms: C15_20  and  C16_21 
REMARK    8  A    between atoms: C16_21  and  C17_22 
ROOT
HETATM    1  C8  UNL     1       0.610  -1.839   0.101  1.00  0.00     0.118 A 
HETATM    2  C10 UNL     1       0.128  -3.219   0.300  1.00  0.00     0.074 A 
HETATM    3  C11 UNL     1       1.219  -4.172   0.123  1.00  0.00     0.099 C 
HETATM    4  N2  UNL     1       2.090  -4.957  -0.013  1.00  0.00    -0.192 NA
HETATM    5  C12 UNL     1      -1.043  -3.757   0.591  1.00  0.00     0.137 A 
HETATM    6  N3  UNL     1      -2.141  -2.838   0.766  1.00  0.00    -0.271 NA
HETATM    7  C13 UNL     1      -1.884  -1.561   0.625  1.00  0.00     0.126 A 
HETATM    8  C14 UNL     1      -0.573  -0.954   0.303  1.00  0.00    -0.009 A 
HETATM    9  C15 UNL     1      -0.550   0.359   0.196  1.00  0.00    -0.011 C 
ENDROOT
BRANCH   1  10
HETATM   10  N1  UNL     1       1.685  -1.456   0.988  1.00  0.00    -0.379 N 
HETATM   11  H9  UNL     1       1.524  -0.633   1.646  1.00  0.00     0.160 HD
BRANCH  10  12
HETATM   12  C7  UNL     1       2.938  -2.066   1.072  1.00  0.00     0.084 C 
HETATM   13  C6  UNL     1       4.162  -1.904   0.601  1.00  0.00     0.017 C 
BRANCH  13  14
HETATM   14  C5  UNL     1       4.490  -0.812  -0.290  1.00  0.00     0.011 C 
HETATM   15  C3  UNL     1       5.723  -0.621  -0.786  1.00  0.00    -0.024 C 
HETATM   16  C4  UNL     1       6.828  -1.537  -0.439  1.00  0.00     0.051 C 
BRANCH  15  17
HETATM   17  C2  UNL     1       5.977   0.509  -1.682  1.00  0.00     0.113 C 
HETATM   18  C1  UNL     1       7.182   0.711  -2.178  1.00  0.00     0.057 C 
HETATM   19  F1  UNL     1       5.063   1.405  -2.069  1.00  0.00    -0.206 F 
ENDBRANCH  15  17
ENDBRANCH  13  14
ENDBRANCH  10  12
ENDBRANCH   1  10
BRANCH   1  20
HETATM   20  C9  UNL     1       1.018  -1.731  -1.354  1.00  0.00     0.206 C 
BRANCH  20  21
HETATM   21  O1  UNL     1       2.104  -2.558  -1.633  1.00  0.00    -0.398 OA
HETATM   22  H12 UNL     1       1.981  -3.013  -2.503  1.00  0.00     0.209 HD
ENDBRANCH  20  21
ENDBRANCH   1  20
BRANCH   9  23
HETATM   23  C16 UNL     1      -1.143   1.683   0.230  1.00  0.00     0.068 C 
BRANCH  23  24
HETATM   24  C17 UNL     1      -2.559   1.744   0.687  1.00  0.00    -0.030 A 
HETATM   25  C18 UNL     1      -3.536   2.120  -0.126  1.00  0.00     0.038 A 
HETATM   26  C19 UNL     1      -3.622   2.550  -1.545  1.00  0.00     0.225 C 
HETATM   27  N4  UNL     1      -4.851   2.141   0.432  1.00  0.00    -0.376 N 
HETATM   28  O2  UNL     1      -4.312   3.724  -1.740  1.00  0.00    -0.384 OA
HETATM   29  C20 UNL     1      -5.511   3.834  -1.089  1.00  0.00     0.188 C 
HETATM   30  C21 UNL     1      -5.902   2.496  -0.506  1.00  0.00     0.149 C 
HETATM   31  C22 UNL     1      -5.239   1.857   1.794  1.00  0.00     0.150 A 
HETATM   32  C23 UNL     1      -4.094   1.448   2.634  1.00  0.00    -0.007 A 
HETATM   33  C24 UNL     1      -2.910   1.420   2.064  1.00  0.00     0.007 A 
ENDBRANCH  23  24
ENDBRANCH   9  23
TORSDOF 8
