REMARK  5 active torsions:
REMARK  status: ('A' for Active; 'I' for Inactive)
REMARK    1  A    between atoms: N1_7  and  C6_8 
REMARK    2  A    between atoms: C6_8  and  C7_9 
REMARK    3  A    between atoms: C7_9  and  C8_10 
REMARK    4  A    between atoms: C8_10  and  N2_12 
REMARK    5  A    between atoms: N2_12  and  C10_13 
ROOT
HETATM    1  C10 UNL     1       0.104  -0.343   1.611  1.00  0.00     0.243 C 
HETATM    2  C11 UNL     1       0.175  -1.509   0.801  1.00  0.00     0.034 C 
HETATM    3  C12 UNL     1       1.058  -2.312   0.348  1.00  0.00     0.079 C 
HETATM    4  C13 UNL     1       1.085  -3.602  -0.543  1.00  0.00     0.092 C 
HETATM    5  N3  UNL     1       2.471  -3.963  -0.620  1.00  0.00    -0.299 NA
HETATM    6  C14 UNL     1       3.202  -2.969   0.153  1.00  0.00     0.137 C 
HETATM    7  C15 UNL     1       3.571  -2.097   1.059  1.00  0.00     0.044 C 
HETATM    8  C16 UNL     1       3.050  -1.492   2.354  1.00  0.00     0.175 C 
HETATM    9  N4  UNL     1       2.600  -0.154   1.943  1.00  0.00    -0.404 N 
HETATM   10  C17 UNL     1       3.377   0.955   1.364  1.00  0.00     0.095 C 
HETATM   11  C18 UNL     1       4.414   1.310   0.666  1.00  0.00     0.070 C 
HETATM   12  C19 UNL     1       5.163   2.361   0.127  1.00  0.00    -0.021 C 
HETATM   13  C20 UNL     1       5.997   1.464  -0.383  1.00  0.00     0.040 C 
HETATM   14  C21 UNL     1       6.317   0.069  -0.526  1.00  0.00     0.131 C 
HETATM   15  F1  UNL     1       7.438  -0.104  -1.299  1.00  0.00    -0.205 F 
HETATM   16  C22 UNL     1       5.932  -1.150  -0.189  1.00  0.00     0.130 C 
HETATM   17  N5  UNL     1       4.900  -1.781   0.571  1.00  0.00    -0.364 N 
HETATM   18  C23 UNL     1       1.296   0.349   2.153  1.00  0.00     0.153 C 
HETATM   19  H30 UNL     1       5.249  -2.523   1.263  1.00  0.00     0.165 HD
ENDROOT
BRANCH   1  20
HETATM   20  N2  UNL     1      -0.982   0.562   1.487  1.00  0.00     0.094 NA
HETATM   21  H17 UNL     1      -1.887   0.067   1.720  1.00  0.00     0.317 HD
BRANCH  20  22
HETATM   22  C8  UNL     1      -1.114   1.269   0.235  1.00  0.00     0.218 C 
HETATM   23  C9  UNL     1      -2.018   2.444   0.467  1.00  0.00     0.042 C 
BRANCH  22  24
HETATM   24  C7  UNL     1      -1.594   0.402  -0.860  1.00  0.00     0.055 C 
BRANCH  24  25
HETATM   25  C6  UNL     1      -2.867  -0.282  -0.722  1.00  0.00     0.125 C 
BRANCH  25  26
HETATM   26  N1  UNL     1      -4.127   0.354  -0.552  1.00  0.00    -0.381 N 
HETATM   27  C2  UNL     1      -4.974   0.330  -1.746  1.00  0.00     0.021 C 
HETATM   28  C1  UNL     1      -4.482  -0.255  -2.857  1.00  0.00     0.040 C 
HETATM   29  C3  UNL     1      -6.356   0.808  -2.114  1.00  0.00     0.223 C 
HETATM   30  O1  UNL     1      -6.797   1.616  -1.093  1.00  0.00    -0.384 OA
HETATM   31  C4  UNL     1      -5.700   2.179  -0.431  1.00  0.00     0.187 C 
HETATM   32  C5  UNL     1      -5.018   1.092   0.358  1.00  0.00     0.149 C 
ENDBRANCH  25  26
ENDBRANCH  24  25
ENDBRANCH  22  24
ENDBRANCH  20  22
ENDBRANCH   1  20
TORSDOF 5
