REMARK  5 active torsions:
REMARK  status: ('A' for Active; 'I' for Inactive)
REMARK    1  A    between atoms: N1_4  and  C3_5 
REMARK    2  A    between atoms: C3_5  and  C4_6 
REMARK    3  A    between atoms: C4_6  and  N2_15 
REMARK    4  A    between atoms: C7_9  and  O2_10 
REMARK    5  A    between atoms: C16_21  and  N3_22 
ROOT
HETATM    1  C4  UNL     1      -0.040   0.094   0.821  1.00  0.00     0.044 C 
HETATM    2  C5  UNL     1       1.179   0.214   0.381  1.00  0.00    -0.027 A 
HETATM    3  C6  UNL     1       2.142  -0.847   0.651  1.00  0.00     0.046 A 
HETATM    4  C7  UNL     1       3.382  -0.725   0.203  1.00  0.00     0.068 A 
HETATM    5  C9  UNL     1       3.835   0.438  -0.558  1.00  0.00     0.033 A 
HETATM    6  C10 UNL     1       2.943   1.387  -0.790  1.00  0.00    -0.019 A 
HETATM    7  C11 UNL     1       1.511   1.448  -0.380  1.00  0.00     0.068 A 
ENDROOT
BRANCH   1   8
HETATM    8  C3  UNL     1      -0.665  -0.988   1.592  1.00  0.00     0.206 C 
BRANCH   8   9
HETATM    9  N1  UNL     1      -1.795  -1.604   0.905  1.00  0.00    -0.294 N 
HETATM   10  C2  UNL     1      -1.542  -2.607   0.147  1.00  0.00     0.129 A 
HETATM   11  O1  UNL     1      -2.830  -2.162   0.280  1.00  0.00     0.000 OA
HETATM   12  C1  UNL     1      -3.894  -3.101   0.163  1.00  0.00     0.000 C 
ENDBRANCH   8   9
ENDBRANCH   1   8
BRANCH   1  13
HETATM   13  N2  UNL     1      -1.054   1.070   0.612  1.00  0.00    -0.310 N 
HETATM   14  C12 UNL     1      -1.293   1.988   1.673  1.00  0.00     0.095 A 
HETATM   15  C13 UNL     1      -2.239   2.885   1.456  1.00  0.00    -0.004 A 
HETATM   16  C14 UNL     1      -3.070   3.049   0.256  1.00  0.00     0.079 A 
HETATM   17  C15 UNL     1      -2.679   2.012  -0.730  1.00  0.00     0.036 A 
HETATM   18 BR1  UNL     1      -3.740   2.183  -2.320  1.00  0.00    -0.051 Br
HETATM   19  C16 UNL     1      -1.762   1.078  -0.622  1.00  0.00     0.119 A 
BRANCH  19  20
HETATM   20  N3  UNL     1      -1.516   0.157  -1.674  1.00  0.00    -0.384 N 
HETATM   21  H19 UNL     1      -0.655  -0.034  -2.258  1.00  0.00     0.157 HD
HETATM   22  H20 UNL     1      -2.332  -0.457  -1.934  1.00  0.00     0.157 HD
ENDBRANCH  19  20
ENDBRANCH   1  13
BRANCH   4  23
HETATM   23  O2  UNL     1       4.330  -1.711   0.437  1.00  0.00    -0.356 OA
HETATM   24  C8  UNL     1       5.707  -1.510   0.352  1.00  0.00     0.210 C 
ENDBRANCH   4  23
TORSDOF 5
