REMARK  4 active torsions:
REMARK  status: ('A' for Active; 'I' for Inactive)
REMARK    1  A    between atoms: O1_2  and  C2_3 
REMARK    2  A    between atoms: C6_9  and  N3_10 
REMARK    3  A    between atoms: N3_10  and  C7_11 
REMARK    4  A    between atoms: C14_20  and  O2_21 
ROOT
HETATM    1  C2  UNL     1      -3.420   0.717  -0.075  1.00  0.00     0.103 A 
HETATM    2  C3  UNL     1      -2.644   1.714   0.491  1.00  0.00     0.072 A 
HETATM    3  C4  UNL     1      -1.276   1.618   0.615  1.00  0.00     0.075 A 
HETATM    4  N1  UNL     1      -0.510   2.582   1.163  1.00  0.00    -0.241 NA
HETATM    5  C5  UNL     1       0.841   2.464   1.274  1.00  0.00     0.236 A 
HETATM    6  N2  UNL     1       1.447   1.330   0.815  1.00  0.00    -0.224 NA
HETATM    7  C6  UNL     1       0.711   0.353   0.264  1.00  0.00     0.141 A 
HETATM    8  C12 UNL     1      -0.658   0.466   0.148  1.00  0.00     0.042 A 
HETATM    9  C13 UNL     1      -1.413  -0.540  -0.419  1.00  0.00     0.057 A 
HETATM   10  C14 UNL     1      -2.791  -0.422  -0.534  1.00  0.00     0.102 A 
ENDROOT
BRANCH   7  11
HETATM   11  N3  UNL     1       1.406  -0.780  -0.184  1.00  0.00    -0.344 N 
HETATM   12  H6  UNL     1       1.100  -1.654  -0.633  1.00  0.00     0.167 HD
BRANCH  11  13
HETATM   13  C7  UNL     1       2.820  -0.847  -0.040  1.00  0.00     0.003 A 
HETATM   14  C8  UNL     1       3.330  -1.693   0.833  1.00  0.00     0.023 A 
HETATM   15  C9  UNL     1       4.755  -1.854   1.070  1.00  0.00    -0.013 A 
HETATM   16  C10 UNL     1       5.537  -1.083   0.341  1.00  0.00    -0.064 A 
HETATM   17  B1  UNL     1       5.071  -0.041  -0.726  1.00  0.00     0.290 B 
HETATM   18 BR1  UNL     1       6.347   1.335  -1.442  1.00  0.00    -0.165 Br
HETATM   19  C11 UNL     1       3.500   0.097  -0.948  1.00  0.00     0.026 A 
ENDBRANCH  11  13
ENDBRANCH   7  11
BRANCH  10  20
HETATM   20  O2  UNL     1      -3.561  -1.421  -1.099  1.00  0.00    -0.353 OA
HETATM   21  C15 UNL     1      -3.045  -2.622  -1.601  1.00  0.00     0.210 C 
ENDBRANCH  10  20
BRANCH   1  22
HETATM   22  O1  UNL     1      -4.787   0.818  -0.196  1.00  0.00    -0.353 OA
HETATM   23  C1  UNL     1      -5.435   1.996   0.279  1.00  0.00     0.210 C 
ENDBRANCH   1  22
TORSDOF 4
