REMARK  5 active torsions:
REMARK  status: ('A' for Active; 'I' for Inactive)
REMARK    1  A    between atoms: N1_2  and  O1_3 
REMARK    2  A    between atoms: O1_3  and  C2_4 
REMARK    3  A    between atoms: C5_7  and  N2_8 
REMARK    4  A    between atoms: N2_8  and  C6_9 
REMARK    5  A    between atoms: C15_21  and  O2_22 
ROOT
HETATM    1  C2  UNL     1      -2.381   0.366  -0.164  1.00  0.00     0.126 A 
HETATM    2  C3  UNL     1      -1.009   0.290  -0.051  1.00  0.00     0.059 A 
HETATM    3  C4  UNL     1      -0.291  -0.858   0.032  1.00  0.00     0.042 A 
HETATM    4  C5  UNL     1       1.078  -0.948   0.145  1.00  0.00     0.142 A 
HETATM    5  N3  UNL     1       1.655  -2.139   0.216  1.00  0.00    -0.224 NA
HETATM    6  C12 UNL     1       0.921  -3.253   0.180  1.00  0.00     0.236 A 
HETATM    7  N4  UNL     1      -0.435  -3.211   0.069  1.00  0.00    -0.241 NA
HETATM    8  C13 UNL     1      -1.061  -1.999  -0.006  1.00  0.00     0.075 A 
HETATM    9  C14 UNL     1      -2.432  -1.999  -0.118  1.00  0.00     0.072 A 
HETATM   10  C15 UNL     1      -3.112  -0.801  -0.199  1.00  0.00     0.105 A 
ENDROOT
BRANCH   4  11
HETATM   11  N2  UNL     1       1.827   0.256   0.191  1.00  0.00    -0.340 N 
HETATM   12  H6  UNL     1       1.380   1.175   0.174  1.00  0.00     0.167 HD
BRANCH  11  13
HETATM   13  C6  UNL     1       3.224   0.460   0.265  1.00  0.00     0.035 A 
HETATM   14  C7  UNL     1       3.859   1.678   0.520  1.00  0.00     0.029 A 
HETATM   15  C8  UNL     1       5.216   1.832   0.576  1.00  0.00     0.004 A 
HETATM   16  C9  UNL     1       6.056   0.760   0.376  1.00  0.00     0.019 A 
HETATM   17  C10 UNL     1       5.491  -0.448   0.123  1.00  0.00     0.013 A 
HETATM   18 BR1  UNL     1       6.704  -1.894  -0.146  1.00  0.00    -0.051 Br
HETATM   19  C11 UNL     1       4.118  -0.569   0.074  1.00  0.00     0.048 A 
ENDBRANCH  11  13
ENDBRANCH   4  11
BRANCH   1  20
HETATM   20  O1  UNL     1      -3.117   1.536  -0.249  1.00  0.00    -0.262 OA
BRANCH  20  21
HETATM   21  N1  UNL     1      -2.644   2.799  -0.238  1.00  0.00    -0.204 NA
HETATM   22  C1  UNL     1      -3.544   3.578   0.614  1.00  0.00     0.141 C 
HETATM   23  H4  UNL     1      -1.715   2.854   0.202  1.00  0.00     0.153 HD
ENDBRANCH  20  21
ENDBRANCH   1  20
BRANCH  10  24
HETATM   24  O2  UNL     1      -4.496  -0.804  -0.312  1.00  0.00    -0.353 OA
HETATM   25  C16 UNL     1      -5.245  -1.993  -0.348  1.00  0.00     0.210 C 
ENDBRANCH  10  24
TORSDOF 5
