REMARK  5 active torsions:
REMARK  status: ('A' for Active; 'I' for Inactive)
REMARK    1  A    between atoms: O1_2  and  C2_3 
REMARK    2  A    between atoms: C5_6  and  N1_7 
REMARK    3  A    between atoms: N1_7  and  C6_8 
REMARK    4  A    between atoms: C9_11  and  C10_12 
REMARK    5  A    between atoms: C14_19  and  O2_20 
ROOT
HETATM    1  C2  UNL     1      -1.806  -0.277  -1.027  1.00  0.00     0.102 A 
HETATM    2  C3  UNL     1      -0.551  -0.706  -0.899  1.00  0.00     0.054 A 
HETATM    3  C4  UNL     1       0.061  -0.419   0.391  1.00  0.00     0.012 A 
HETATM    4  C5  UNL     1       1.305  -0.813   0.598  1.00  0.00     0.102 C 
HETATM    5  C11 UNL     1      -0.612   0.279   1.480  1.00  0.00     0.083 A 
HETATM    6  N2  UNL     1       0.026   0.486   2.596  1.00  0.00    -0.173 NA
HETATM    7  C12 UNL     1      -0.536   1.139   3.678  1.00  0.00     0.206 C 
HETATM    8  N3  UNL     1      -1.005   1.690   4.583  1.00  0.00    -0.170 NA
HETATM    9  C13 UNL     1      -1.997   0.704   1.217  1.00  0.00     0.073 A 
HETATM   10  C14 UNL     1      -2.519   0.426   0.034  1.00  0.00     0.103 A 
ENDROOT
BRANCH   4  11
HETATM   11  N1  UNL     1       2.086  -1.502  -0.366  1.00  0.00    -0.365 N 
HETATM   12  H6  UNL     1       2.142  -2.419  -0.832  1.00  0.00     0.165 HD
BRANCH  11  13
HETATM   13  C6  UNL     1       3.139  -0.676  -0.863  1.00  0.00     0.039 A 
HETATM   14  C7  UNL     1       3.516   0.119  -1.876  1.00  0.00     0.030 A 
HETATM   15  C8  UNL     1       4.821   0.420  -1.284  1.00  0.00     0.012 A 
HETATM   16  C9  UNL     1       4.453  -0.362  -0.286  1.00  0.00    -0.021 A 
BRANCH  16  17
HETATM   17  C10 UNL     1       5.234  -0.709   0.950  1.00  0.00     0.126 C 
HETATM   18 BR1  UNL     1       6.931   0.189   0.873  1.00  0.00    -0.091 Br
ENDBRANCH  16  17
ENDBRANCH  11  13
ENDBRANCH   4  11
BRANCH  10  19
HETATM   19  O2  UNL     1      -3.832   0.871  -0.110  1.00  0.00    -0.353 OA
HETATM   20  C15 UNL     1      -4.793   0.274   0.747  1.00  0.00     0.210 C 
ENDBRANCH  10  19
BRANCH   1  21
HETATM   21  O1  UNL     1      -2.438  -0.525  -2.240  1.00  0.00    -0.353 OA
HETATM   22  C1  UNL     1      -3.779  -0.244  -2.504  1.00  0.00     0.210 C 
ENDBRANCH   1  21
TORSDOF 5
