REMARK  2 active torsions:
REMARK  status: ('A' for Active; 'I' for Inactive)
REMARK       I    between atoms: N1_2  and  C3_4 
REMARK    1  A    between atoms: C3_4  and  C4_6 
REMARK    2  A    between atoms: C10_13  and  N3_14 
ROOT
HETATM    1  C4  UNL     1      -2.912   0.891   0.993  1.00  0.00     0.315 C 
HETATM    2  C5  UNL     1      -2.215  -0.263   1.680  1.00  0.00     0.052 C 
HETATM    3  C6  UNL     1      -2.052  -1.240   0.536  1.00  0.00     0.022 C 
HETATM    4  C7  UNL     1      -0.660  -1.780   0.620  1.00  0.00     0.065 C 
HETATM    5  C8  UNL     1       0.344  -0.859   0.026  1.00  0.00     0.037 C 
HETATM    6  N2  UNL     1       1.319  -1.590  -0.398  1.00  0.00    -0.288 NA
HETATM    7  C9  UNL     1       2.539  -1.243  -1.047  1.00  0.00     0.206 C 
HETATM    8  C10 UNL     1       3.179  -0.007  -0.599  1.00  0.00     0.034 C 
HETATM    9  C16 UNL     1       2.695   1.177  -0.199  1.00  0.00     0.027 C 
HETATM   10  C17 UNL     1       1.250   1.449  -0.142  1.00  0.00     0.013 C 
HETATM   11  C18 UNL     1       0.217   0.593  -0.045  1.00  0.00    -0.006 C 
HETATM   12  C19 UNL     1      -0.923   1.518  -0.038  1.00  0.00     0.314 C 
HETATM   13  N4  UNL     1      -2.200   0.934  -0.285  1.00  0.00     0.106 N 
HETATM   14  C20 UNL     1      -2.150  -0.425  -0.727  1.00  0.00     0.279 C 
ENDROOT
BRANCH   8  15
HETATM   15  N3  UNL     1       4.622  -0.029  -0.569  1.00  0.00    -0.323 N 
HETATM   16  C11 UNL     1       5.285  -0.284  -1.803  1.00  0.00     0.094 A 
HETATM   17  C12 UNL     1       6.612  -0.305  -1.781  1.00  0.00     0.019 A 
HETATM   18  C13 UNL     1       7.426  -0.087  -0.588  1.00  0.00     0.025 A 
HETATM   19  C14 UNL     1       6.725   0.141   0.507  1.00  0.00     0.065 A 
HETATM   20 CL1  UNL     1       7.526   0.427   2.048  1.00  0.00    -0.084 Cl
HETATM   21  C15 UNL     1       5.273   0.209   0.707  1.00  0.00     0.321 A 
HETATM   22  F1  UNL     1       4.857  -0.667   1.691  1.00  0.00    -0.220 F 
ENDBRANCH   8  15
BRANCH   1  23
HETATM   23  C3  UNL     1      -4.339   0.545   0.841  1.00  0.00     0.252 C 
HETATM   24  N1  UNL     1      -5.504   0.222   0.104  1.00  0.00    -0.359 N 
HETATM   25  C1  UNL     1      -6.519   0.046   1.126  1.00  0.00     0.152 C 
HETATM   26  C2  UNL     1      -5.894   0.044  -1.290  1.00  0.00     0.152 C 
HETATM   27  O1  UNL     1      -4.815   0.509   2.016  1.00  0.00    -0.271 OA
ENDBRANCH   1  23
TORSDOF 2
