REMARK  5 active torsions:
REMARK  status: ('A' for Active; 'I' for Inactive)
REMARK    1  A    between atoms: O1_2  and  C2_3 
REMARK    2  A    between atoms: C2_3  and  C3_4 
REMARK    3  A    between atoms: C8_10  and  N2_11 
REMARK    4  A    between atoms: N2_11  and  C9_12 
REMARK    5  A    between atoms: C14_18  and  O2_19 
ROOT
HETATM    1  C3  UNL     1      -2.025   0.379  -0.130  1.00  0.00    -0.019 C 
HETATM    2  C4  UNL     1      -3.019  -0.464   0.129  1.00  0.00    -0.018 C 
HETATM    3  C5  UNL     1      -3.172  -1.848  -0.335  1.00  0.00     0.029 C 
HETATM    4  C6  UNL     1      -1.955  -2.700  -0.123  1.00  0.00     0.023 C 
HETATM    5  C7  UNL     1      -0.690  -2.178  -0.693  1.00  0.00     0.116 C 
HETATM    6  N1  UNL     1      -0.802  -1.071  -1.592  1.00  0.00    -0.398 N 
HETATM    7  C8  UNL     1      -0.777   0.216  -0.946  1.00  0.00     0.209 C 
HETATM    8  H13 UNL     1      -1.499  -1.175  -2.342  1.00  0.00     0.155 HD
ENDROOT
BRANCH   7   9
HETATM    9  N2  UNL     1       0.379   0.223  -0.054  1.00  0.00    -0.363 N 
HETATM   10  H15 UNL     1       0.237   0.333   0.985  1.00  0.00     0.162 HD
BRANCH   9  11
HETATM   11  C9  UNL     1       1.743   0.088  -0.493  1.00  0.00     0.065 A 
HETATM   12  C10 UNL     1       1.907  -0.057  -1.876  1.00  0.00     0.051 A 
HETATM   13  C11 UNL     1       3.159  -0.195  -2.427  1.00  0.00     0.013 A 
HETATM   14 BR1  UNL     1       3.462  -0.397  -4.299  1.00  0.00    -0.051 Br
HETATM   15  C12 UNL     1       4.255  -0.188  -1.578  1.00  0.00     0.022 A 
HETATM   16  C13 UNL     1       4.109  -0.047  -0.226  1.00  0.00     0.040 A 
HETATM   17  C14 UNL     1       2.846   0.094   0.344  1.00  0.00     0.094 A 
BRANCH  17  18
HETATM   18  O2  UNL     1       2.504   0.244   1.659  1.00  0.00    -0.354 OA
HETATM   19  C15 UNL     1       3.483   0.273   2.652  1.00  0.00     0.210 C 
ENDBRANCH  17  18
ENDBRANCH   9  11
ENDBRANCH   7   9
BRANCH   1  20
HETATM   20  C2  UNL     1      -1.982   1.784   0.409  1.00  0.00     0.205 C 
BRANCH  20  21
HETATM   21  O1  UNL     1      -3.104   2.043   1.188  1.00  0.00    -0.392 OA
HETATM   22  C1  UNL     1      -3.082   3.339   1.696  1.00  0.00     0.201 C 
ENDBRANCH  20  21
ENDBRANCH   1  20
TORSDOF 5
