REMARK  3 active torsions:
REMARK  status: ('A' for Active; 'I' for Inactive)
REMARK    1  A    between atoms: B1_1  and  C1_2 
REMARK    2  A    between atoms: C5_6  and  N1_7 
REMARK    3  A    between atoms: N1_7  and  C6_8 
ROOT
HETATM    1  C6  UNL     1      -0.002  -0.471  -0.763  1.00  0.00     0.142 A 
HETATM    2  N2  UNL     1      -0.750  -1.324  -1.467  1.00  0.00    -0.223 NA
HETATM    3  C7  UNL     1      -0.328  -1.751  -2.656  1.00  0.00     0.236 A 
HETATM    4  N3  UNL     1       0.820  -1.374  -3.203  1.00  0.00    -0.232 NA
HETATM    5  C8  UNL     1       1.721  -0.602  -2.802  1.00  0.00     0.124 A 
HETATM    6  C9  UNL     1       1.230  -0.114  -1.434  1.00  0.00     0.048 A 
HETATM    7  C10 UNL     1       1.650   0.795  -0.242  1.00  0.00     0.020 A 
HETATM    8  C11 UNL     1       2.804   1.569  -0.218  1.00  0.00    -0.091 A 
HETATM    9  C12 UNL     1       2.766   2.258   1.121  1.00  0.00     0.042 C 
HETATM   10  C13 UNL     1       4.064   2.215  -0.559  1.00  0.00    -0.005 A 
HETATM   11  B2  UNL     1       4.596   1.541  -2.096  1.00  0.00     0.254 B 
HETATM   12  C14 UNL     1       3.448   0.666  -2.410  1.00  0.00    -0.166 A 
HETATM   13  C15 UNL     1       2.707   0.115  -2.590  1.00  0.00    -0.061 A 
HETATM   14  H14 UNL     1       4.762   2.506  -2.734  1.00  0.00    -0.011 HD
ENDROOT
BRANCH   1  15
HETATM   15  N1  UNL     1      -0.570  -0.087   0.473  1.00  0.00    -0.340 N 
HETATM   16  H6  UNL     1      -0.505   0.493   1.315  1.00  0.00     0.167 HD
BRANCH  15  17
HETATM   17  C5  UNL     1      -1.775  -0.731   0.807  1.00  0.00     0.033 A 
HETATM   18  C4  UNL     1      -1.724  -2.123   0.646  1.00  0.00     0.029 A 
HETATM   19  C3  UNL     1      -2.853  -2.910   0.911  1.00  0.00     0.002 A 
HETATM   20  C2  UNL     1      -4.007  -2.285   1.330  1.00  0.00    -0.006 A 
HETATM   21  C1  UNL     1      -4.104  -0.921   1.502  1.00  0.00    -0.107 A 
HETATM   22  C16 UNL     1      -2.964  -0.208   1.226  1.00  0.00     0.023 A 
BRANCH  21  23
HETATM   23  B1  UNL     1      -5.386  -0.161   1.973  1.00  0.00     0.174 B 
HETATM   24  H1  UNL     1      -5.392   0.362   3.054  1.00  0.00    -0.026 HD
HETATM   25  H2  UNL     1      -5.986   0.428   1.114  1.00  0.00    -0.026 HD
ENDBRANCH  21  23
ENDBRANCH  15  17
ENDBRANCH   1  15
TORSDOF 3
