REMARK  6 active torsions:
REMARK  status: ('A' for Active; 'I' for Inactive)
REMARK    1  A    between atoms: C3_3  and  C4_4 
REMARK       I    between atoms: C4_4  and  N1_6 
REMARK    2  A    between atoms: N1_6  and  C5_7 
REMARK    3  A    between atoms: C12_16  and  N4_17 
REMARK    4  A    between atoms: N4_17  and  C13_18 
REMARK    5  A    between atoms: C13_18  and  C14_19 
REMARK    6  A    between atoms: C14_19  and  C15_20 
ROOT
HETATM    1  C5  UNL     1       1.351  -1.275  -0.737  1.00  0.00     0.035 A 
HETATM    2  C6  UNL     1       1.403  -2.533  -0.141  1.00  0.00     0.032 A 
HETATM    3  C7  UNL     1       0.250  -3.186   0.260  1.00  0.00     0.035 A 
HETATM    4  C8  UNL     1      -0.978  -2.575   0.064  1.00  0.00     0.069 A 
HETATM    5  N2  UNL     1      -2.116  -3.189   0.445  1.00  0.00    -0.259 NA
HETATM    6  C9  UNL     1      -3.312  -2.579   0.247  1.00  0.00     0.142 A 
HETATM    7  C10 UNL     1      -3.362  -1.322  -0.348  1.00  0.00     0.089 A 
HETATM    8  C11 UNL     1      -4.659  -0.735  -0.527  1.00  0.00     0.103 C 
HETATM    9  N3  UNL     1      -5.718  -0.252  -0.654  1.00  0.00    -0.191 NA
HETATM   10  C12 UNL     1      -2.220  -0.658  -0.753  1.00  0.00     0.063 A 
HETATM   11  C16 UNL     1      -1.030  -1.327  -0.527  1.00  0.00     0.023 A 
HETATM   12  C17 UNL     1       0.121  -0.677  -0.926  1.00  0.00     0.045 A 
ENDROOT
BRANCH  10  13
HETATM   13  N4  UNL     1      -2.283   0.625  -1.360  1.00  0.00    -0.387 N 
HETATM   14  H10 UNL     1      -2.369   0.846  -2.364  1.00  0.00     0.159 HD
BRANCH  13  15
HETATM   15  C13 UNL     1      -2.213   1.697  -0.385  1.00  0.00     0.129 C 
BRANCH  15  16
HETATM   16  C14 UNL     1      -3.330   1.644   0.608  1.00  0.00     0.158 C 
BRANCH  16  17
HETATM   17  C15 UNL     1      -4.194   2.674   0.729  1.00  0.00     0.136 A 
HETATM   18  F1  UNL     1      -4.907   3.848   0.632  1.00  0.00    -0.323 F 
HETATM   19 BR1  UNL     1      -5.202   4.310   0.606  1.00  0.00     0.040 Br
ENDBRANCH  16  17
ENDBRANCH  15  16
ENDBRANCH  13  15
ENDBRANCH  10  13
BRANCH   1  20
HETATM   20  N1  UNL     1       2.642  -0.798  -1.064  1.00  0.00    -0.324 N 
HETATM   21  C4  UNL     1       3.355  -0.043  -0.125  1.00  0.00     0.245 C 
HETATM   22  O1  UNL     1       2.707   0.109   0.929  1.00  0.00    -0.268 OA
HETATM   23  H6  UNL     1       3.026  -1.036  -2.028  1.00  0.00     0.169 HD
BRANCH  21  24
HETATM   24  C3  UNL     1       4.686   0.469  -0.417  1.00  0.00     0.070 C 
HETATM   25  C2  UNL     1       5.408   1.185   0.425  1.00  0.00    -0.026 C 
HETATM   26  C1  UNL     1       5.186   1.677   1.787  1.00  0.00     0.036 C 
ENDBRANCH  21  24
ENDBRANCH   1  20
TORSDOF 6
