REMARK  2 active torsions:
REMARK  status: ('A' for Active; 'I' for Inactive)
REMARK    1  A    between atoms: C6_7  and  N2_8 
REMARK       I    between atoms: N2_8  and  C7_9 
REMARK    2  A    between atoms: C7_9  and  C8_11 
ROOT
HETATM    1  C1  UNL     1      -5.403  -2.763  -0.021  1.00  0.00     0.037 C 
HETATM    2  C2  UNL     1      -4.669  -1.838  -0.267  1.00  0.00    -0.002 C 
HETATM    3  N1  UNL     1      -3.815  -0.748  -0.531  1.00  0.00    -0.320 N 
HETATM    4  C3  UNL     1      -2.520  -0.894  -1.159  1.00  0.00     0.173 C 
HETATM    5  C4  UNL     1      -1.492  -0.054  -0.496  1.00  0.00    -0.031 A 
HETATM    6  C5  UNL     1      -0.193  -0.510  -0.469  1.00  0.00     0.039 A 
HETATM    7  C6  UNL     1       0.831   0.184   0.115  1.00  0.00     0.035 A 
HETATM    8  C11 UNL     1       0.434   1.377   0.672  1.00  0.00     0.030 A 
HETATM    9  C12 UNL     1      -0.849   1.874   0.671  1.00  0.00     0.010 A 
HETATM   10  C13 UNL     1      -1.839   1.129   0.066  1.00  0.00    -0.047 A 
HETATM   11  C14 UNL     1      -3.222   1.591   0.026  1.00  0.00     0.080 C 
HETATM   12  C15 UNL     1      -4.261   0.552  -0.155  1.00  0.00     0.204 C 
HETATM   13  C16 UNL     1      -5.315   1.051  -1.073  1.00  0.00     0.085 C 
HETATM   14  N3  UNL     1      -6.146   1.426  -1.787  1.00  0.00    -0.195 NA
ENDROOT
BRANCH   7  15
HETATM   15  N2  UNL     1       2.145  -0.337   0.110  1.00  0.00    -0.324 N 
HETATM   16  C7  UNL     1       3.340   0.176   0.634  1.00  0.00     0.245 C 
HETATM   17  O1  UNL     1       3.298   1.281   1.218  1.00  0.00    -0.268 OA
HETATM   18  H5  UNL     1       2.286  -1.270  -0.362  1.00  0.00     0.169 HD
BRANCH  16  19
HETATM   19  C8  UNL     1       4.619  -0.512   0.531  1.00  0.00     0.070 C 
HETATM   20  C9  UNL     1       5.717   0.017   1.044  1.00  0.00    -0.026 C 
HETATM   21  C10 UNL     1       7.005  -0.682   0.937  1.00  0.00     0.036 C 
ENDBRANCH  16  19
ENDBRANCH   7  15
TORSDOF 2
