REMARK  3 active torsions:
REMARK  status: ('A' for Active; 'I' for Inactive)
REMARK    1  A    between atoms: C3_3  and  C4_4 
REMARK       I    between atoms: C4_4  and  N1_6 
REMARK    2  A    between atoms: N1_6  and  C5_7 
REMARK    3  A    between atoms: N4_18  and  C14_19 
ROOT
HETATM    1  C5  UNL     1       0.857   0.254  -0.577  1.00  0.00     0.014 C 
HETATM    2  C6  UNL     1      -0.174  -0.103   0.174  1.00  0.00     0.040 C 
HETATM    3  C7  UNL     1      -1.479  -0.351  -0.492  1.00  0.00     0.302 C 
HETATM    4  C8  UNL     1      -1.652   0.386  -1.763  1.00  0.00     0.067 C 
HETATM    5  C9  UNL     1      -0.567   0.734  -2.455  1.00  0.00     0.009 C 
HETATM    6  C10 UNL     1       0.824   0.429  -2.033  1.00  0.00     0.086 C 
HETATM    7  N2  UNL     1      -2.982   0.684  -2.178  1.00  0.00    -0.264 NA
HETATM    8  C11 UNL     1      -3.796   1.019  -1.220  1.00  0.00     0.140 C 
HETATM    9  C12 UNL     1      -3.263   1.053   0.171  1.00  0.00     0.371 C 
HETATM   10  C13 UNL     1      -4.318   1.315   1.125  1.00  0.00     0.101 C 
HETATM   11  N3  UNL     1      -5.155   1.532   1.895  1.00  0.00    -0.195 NA
HETATM   12  N4  UNL     1      -2.606  -0.219   0.410  1.00  0.00     0.138 N 
ENDROOT
BRANCH  12  13
HETATM   13  C14 UNL     1      -3.543  -1.285   0.211  1.00  0.00     0.290 A 
HETATM   14  C15 UNL     1      -3.061  -2.698   0.416  1.00  0.00     0.031 A 
HETATM   15  C16 UNL     1      -4.059  -2.133   1.250  1.00  0.00     0.024 A 
HETATM   16 BR1  UNL     1      -5.360  -2.003   2.660  1.00  0.00    -0.053 Br
ENDBRANCH  12  13
BRANCH   1  17
HETATM   17  N1  UNL     1       2.061   0.464   0.189  1.00  0.00    -0.327 N 
HETATM   18  C4  UNL     1       3.095  -0.413  -0.235  1.00  0.00     0.245 C 
HETATM   19  O1  UNL     1       2.918  -1.242  -1.165  1.00  0.00    -0.268 OA
HETATM   20  H6  UNL     1       2.189   1.163   0.963  1.00  0.00     0.169 HD
BRANCH  18  21
HETATM   21  C3  UNL     1       4.405  -0.349   0.428  1.00  0.00     0.070 C 
HETATM   22  C2  UNL     1       4.731   0.484   1.430  1.00  0.00    -0.026 C 
HETATM   23  C1  UNL     1       6.053   0.549   2.102  1.00  0.00     0.036 C 
ENDBRANCH  18  21
ENDBRANCH   1  17
TORSDOF 3
