REMARK  2 active torsions:
REMARK  status: ('A' for Active; 'I' for Inactive)
REMARK    1  A    between atoms: C3_3  and  C4_4 
REMARK       I    between atoms: C4_4  and  N1_6 
REMARK    2  A    between atoms: N1_6  and  C5_7 
ROOT
HETATM    1  C5  UNL     1       0.427  -1.056   0.215  1.00  0.00     0.021 C 
HETATM    2  C6  UNL     1       1.272  -2.051   0.328  1.00  0.00     0.010 C 
HETATM    3  C7  UNL     1       0.983  -3.445   0.607  1.00  0.00     0.069 C 
HETATM    4  C8  UNL     1       1.751  -4.293  -0.395  1.00  0.00     0.021 C 
HETATM    5  C9  UNL     1      -0.429  -3.801   0.680  1.00  0.00     0.116 C 
HETATM    6  C10 UNL     1      -0.617  -5.071   1.375  1.00  0.00     0.115 C 
HETATM    7  N2  UNL     1      -0.756  -6.090   1.950  1.00  0.00    -0.190 NA
HETATM    8  N3  UNL     1      -1.571  -3.338   0.318  1.00  0.00    -0.281 NA
HETATM    9  C11 UNL     1      -1.758  -2.047  -0.420  1.00  0.00     0.167 C 
HETATM   10  C12 UNL     1      -1.078  -0.981   0.328  1.00  0.00     0.105 C 
HETATM   11  C13 UNL     1      -1.568   0.373   0.388  1.00  0.00     0.026 C 
HETATM   12  C14 UNL     1      -2.380   1.012  -0.452  1.00  0.00    -0.039 C 
HETATM   13  C15 UNL     1      -2.879   0.297  -1.625  1.00  0.00     0.050 C 
HETATM   14  C16 UNL     1      -2.877   2.406  -0.346  1.00  0.00     0.009 C 
HETATM   15  C17 UNL     1      -2.528   3.437   0.412  1.00  0.00     0.002 C 
HETATM   16  C18 UNL     1      -1.463   3.383   1.400  1.00  0.00     0.017 C 
HETATM   17  C19 UNL     1      -0.775   2.391   1.933  1.00  0.00     0.088 C 
HETATM   18  N4  UNL     1      -1.003   1.014   1.570  1.00  0.00    -0.368 N 
HETATM   19  H22 UNL     1      -0.671   0.376   2.360  1.00  0.00     0.165 HD
ENDROOT
BRANCH   1  20
HETATM   20  N1  UNL     1       1.193   0.137  -0.066  1.00  0.00    -0.327 N 
HETATM   21  C4  UNL     1       1.126   0.983  -1.208  1.00  0.00     0.245 C 
HETATM   22  O1  UNL     1       0.342   0.801  -2.196  1.00  0.00    -0.268 OA
HETATM   23  H6  UNL     1       1.883   0.376   0.708  1.00  0.00     0.169 HD
BRANCH  21  24
HETATM   24  C3  UNL     1       2.023   2.137  -1.236  1.00  0.00     0.070 C 
HETATM   25  C2  UNL     1       2.907   2.503  -0.316  1.00  0.00    -0.026 C 
HETATM   26  C1  UNL     1       3.815   3.665  -0.337  1.00  0.00     0.036 C 
ENDBRANCH  21  24
ENDBRANCH   1  20
TORSDOF 2
