REMARK  5 active torsions:
REMARK  status: ('A' for Active; 'I' for Inactive)
REMARK    1  A    between atoms: C3_3  and  C4_4 
REMARK       I    between atoms: C4_4  and  N1_6 
REMARK    2  A    between atoms: N1_6  and  C5_7 
REMARK    3  A    between atoms: C5_7  and  C8_10 
REMARK    4  A    between atoms: C14_18  and  N4_19 
REMARK    5  A    between atoms: N4_19  and  C15_20 
ROOT
HETATM    1  C8  UNL     1      -0.111  -1.115  -0.613  1.00  0.00     0.040 C 
HETATM    2  C9  UNL     1      -0.618  -1.143   0.629  1.00  0.00    -0.008 A 
HETATM    3  C10 UNL     1       0.207  -1.404   1.823  1.00  0.00     0.189 A 
HETATM    4  N2  UNL     1      -0.649  -1.481   2.979  1.00  0.00    -0.295 NA
HETATM    5  C11 UNL     1      -1.912  -1.304   2.967  1.00  0.00     0.135 A 
HETATM    6  C12 UNL     1      -2.731  -1.003   1.805  1.00  0.00     0.088 A 
HETATM    7  C13 UNL     1      -4.135  -0.825   1.981  1.00  0.00     0.103 C 
HETATM    8  N3  UNL     1      -5.267  -0.696   2.137  1.00  0.00    -0.191 NA
HETATM    9  C14 UNL     1      -2.084  -0.921   0.664  1.00  0.00     0.063 A 
ENDROOT
BRANCH   9  10
HETATM   10  N4  UNL     1      -2.822  -0.600  -0.519  1.00  0.00    -0.354 N 
HETATM   11  H15 UNL     1      -2.840  -1.319  -1.258  1.00  0.00     0.166 HD
BRANCH  10  12
HETATM   12  C15 UNL     1      -3.515   0.647  -0.699  1.00  0.00     0.033 A 
HETATM   13  C16 UNL     1      -4.852   0.987  -0.666  1.00  0.00     0.029 A 
HETATM   14  C17 UNL     1      -5.232   2.276  -0.848  1.00  0.00     0.004 A 
HETATM   15  C18 UNL     1      -4.330   3.296  -1.070  1.00  0.00     0.019 A 
HETATM   16  C19 UNL     1      -2.999   2.981  -1.107  1.00  0.00     0.013 A 
HETATM   17 BR1  UNL     1      -1.809   4.434  -1.415  1.00  0.00    -0.051 Br
HETATM   18  C20 UNL     1      -2.582   1.672  -0.925  1.00  0.00     0.048 A 
ENDBRANCH  10  12
ENDBRANCH   9  10
BRANCH   1  19
HETATM   19  C5  UNL     1       1.270  -1.320  -1.015  1.00  0.00     0.031 C 
HETATM   20  C6  UNL     1       1.621  -1.392  -2.287  1.00  0.00    -0.002 C 
HETATM   21  C7  UNL     1       2.943  -1.595  -2.899  1.00  0.00     0.038 C 
BRANCH  19  22
HETATM   22  N1  UNL     1       2.546  -1.496  -0.413  1.00  0.00    -0.324 N 
HETATM   23  C4  UNL     1       3.219  -0.425   0.262  1.00  0.00     0.245 C 
HETATM   24  O1  UNL     1       2.539   0.642   0.215  1.00  0.00    -0.268 OA
HETATM   25  H6  UNL     1       3.076  -2.423  -0.415  1.00  0.00     0.169 HD
BRANCH  23  26
HETATM   26  C3  UNL     1       4.510  -0.581   0.902  1.00  0.00     0.070 C 
HETATM   27  C2  UNL     1       5.159   0.375   1.526  1.00  0.00    -0.026 C 
HETATM   28  C1  UNL     1       4.775   1.791   1.735  1.00  0.00     0.036 C 
ENDBRANCH  23  26
ENDBRANCH  19  22
ENDBRANCH   1  19
TORSDOF 5
