REMARK  4 active torsions:
REMARK  status: ('A' for Active; 'I' for Inactive)
REMARK    1  A    between atoms: C2_2  and  C3_3 
REMARK    2  A    between atoms: C3_3  and  C4_4 
REMARK       I    between atoms: C4_4  and  N1_6 
REMARK    3  A    between atoms: N1_6  and  C5_7 
REMARK    4  A    between atoms: C14_19  and  C15_20 
ROOT
HETATM    1  C5  UNL     1       0.339   0.014  -0.483  1.00  0.00     0.158 A 
HETATM    2  C6  UNL     1      -0.613  -0.770  -1.272  1.00  0.00     0.015 A 
HETATM    3  C7  UNL     1      -1.884  -0.535  -1.522  1.00  0.00    -0.011 A 
HETATM    4  C8  UNL     1      -2.673  -1.483  -2.363  1.00  0.00     0.189 A 
HETATM    5  N2  UNL     1      -4.019  -1.018  -2.493  1.00  0.00    -0.295 NA
HETATM    6  C9  UNL     1      -4.515   0.040  -1.985  1.00  0.00     0.135 A 
HETATM    7  C10 UNL     1      -3.727   0.954  -1.165  1.00  0.00     0.088 A 
HETATM    8  C11 UNL     1      -4.269   2.150  -0.586  1.00  0.00     0.103 C 
HETATM    9  N3  UNL     1      -4.704   3.134  -0.130  1.00  0.00    -0.191 NA
HETATM   10  C12 UNL     1      -2.436   0.682  -0.932  1.00  0.00     0.062 A 
HETATM   11  N4  UNL     1      -1.605   1.525  -0.144  1.00  0.00    -0.356 N 
HETATM   12  C13 UNL     1      -0.237   1.232   0.100  1.00  0.00     0.033 A 
HETATM   13  C14 UNL     1       0.513   2.021   0.830  1.00  0.00     0.011 C 
HETATM   14  H12 UNL     1      -2.080   2.351   0.225  1.00  0.00     0.166 HD
ENDROOT
BRANCH   1  15
HETATM   15  N1  UNL     1       0.978  -0.851   0.479  1.00  0.00    -0.348 N 
HETATM   16  C4  UNL     1       2.354  -1.215   0.571  1.00  0.00     0.221 C 
HETATM   17  O1  UNL     1       3.014  -0.649  -0.364  1.00  0.00    -0.273 OA
HETATM   18  H6  UNL     1       0.270  -1.222   1.170  1.00  0.00     0.163 HD
BRANCH  16  19
HETATM   19  C3  UNL     1       2.842  -2.120   1.629  1.00  0.00     0.129 C 
BRANCH  19  20
HETATM   20  C2  UNL     1       4.307  -2.284   1.431  1.00  0.00    -0.028 C 
HETATM   21  C1  UNL     1       5.267  -1.959   2.321  1.00  0.00     0.007 C 
ENDBRANCH  19  20
ENDBRANCH  16  19
ENDBRANCH   1  15
BRANCH  13  22
HETATM   22  C15 UNL     1       0.155   3.275   1.504  1.00  0.00     0.114 C 
HETATM   23 BR1  UNL     1       1.230   4.749   0.854  1.00  0.00    -0.092 Br
ENDBRANCH  13  22
TORSDOF 4
