REMARK  6 active torsions:
REMARK  status: ('A' for Active; 'I' for Inactive)
REMARK    1  A    between atoms: O1_2  and  C2_3 
REMARK    2  A    between atoms: C4_5  and  N1_6 
REMARK    3  A    between atoms: N1_6  and  C5_7 
REMARK    4  A    between atoms: C5_7  and  N2_8 
REMARK    5  A    between atoms: C17_24  and  C18_25 
REMARK    6  A    between atoms: C18_25  and  C19_26 
REMARK       I    between atoms: C19_26  and  N5_27 
ROOT
HETATM    1  C2  UNL     1      -0.524   2.437   0.449  1.00  0.00     0.081 A 
HETATM    2  C3  UNL     1       0.371   1.414   0.800  1.00  0.00     0.087 A 
HETATM    3  C4  UNL     1       0.140   0.093   0.387  1.00  0.00     0.128 A 
HETATM    4  N3  UNL     1      -0.966  -0.031  -0.336  1.00  0.00    -0.336 N 
HETATM    5  C11 UNL     1      -1.935   0.716  -0.804  1.00  0.00     0.104 A 
HETATM    6  C12 UNL     1      -1.527   1.890  -0.296  1.00  0.00     0.008 A 
HETATM    7  C13 UNL     1      -2.780   2.639  -0.555  1.00  0.00     0.157 C 
HETATM    8  N4  UNL     1      -3.944   1.863  -0.589  1.00  0.00    -0.417 N 
HETATM    9  C14 UNL     1      -4.358   0.798   0.165  1.00  0.00     0.114 C 
HETATM   10  C15 UNL     1      -3.992  -0.596   0.075  1.00  0.00     0.021 C 
HETATM   11  C16 UNL     1      -2.802  -1.385   0.250  1.00  0.00     0.028 C 
HETATM   12  C17 UNL     1      -1.572  -1.288  -0.589  1.00  0.00     0.100 C 
HETATM   13  H14 UNL     1      -4.586   2.105  -1.398  1.00  0.00     0.153 HD
ENDROOT
BRANCH   3  14
HETATM   14  N1  UNL     1       0.922  -0.856   0.679  1.00  0.00    -0.258 NA
BRANCH  14  15
HETATM   15  C5  UNL     1       2.115  -0.794   1.434  1.00  0.00     0.247 C 
BRANCH  15  16
HETATM   16  N2  UNL     1       3.283  -0.935   0.585  1.00  0.00    -0.257 NA
HETATM   17  C6  UNL     1       3.313   0.133  -0.371  1.00  0.00     0.167 C 
HETATM   18  C7  UNL     1       4.510   0.115  -1.236  1.00  0.00     0.107 C 
HETATM   19  F1  UNL     1       4.277   0.104  -2.591  1.00  0.00    -0.210 F 
HETATM   20  C8  UNL     1       5.816   0.106  -1.028  1.00  0.00     0.040 C 
HETATM   21  C9  UNL     1       6.521   0.114   0.270  1.00  0.00     0.017 C 
HETATM   22  C10 UNL     1       6.119  -0.312   1.435  1.00  0.00     0.002 C 
HETATM   23  P1  UNL     1       4.770  -1.240   1.510  1.00  0.00     0.044 P 
ENDBRANCH  15  16
ENDBRANCH  14  15
ENDBRANCH   3  14
BRANCH   1  24
HETATM   24  O1  UNL     1      -0.445   3.756   0.773  1.00  0.00    -0.355 OA
HETATM   25  C1  UNL     1       0.660   4.170   1.555  1.00  0.00     0.210 C 
ENDBRANCH   1  24
BRANCH  12  26
HETATM   26  C18 UNL     1      -0.711  -2.506  -0.297  1.00  0.00     0.128 C 
BRANCH  26  27
HETATM   27  C19 UNL     1      -1.594  -3.677  -0.670  1.00  0.00     0.217 C 
HETATM   28  N5  UNL     1      -0.882  -4.885  -0.433  1.00  0.00    -0.370 N 
HETATM   29  H24 UNL     1      -0.150  -5.361  -1.025  1.00  0.00     0.159 HD
HETATM   30  H25 UNL     1      -0.398  -5.782  -0.189  1.00  0.00     0.159 HD
HETATM   31  O2  UNL     1      -2.546  -4.411  -1.056  1.00  0.00    -0.274 OA
ENDBRANCH  26  27
ENDBRANCH  12  26
TORSDOF 6
