REMARK  4 active torsions:
REMARK  status: ('A' for Active; 'I' for Inactive)
REMARK    1  A    between atoms: C3_3  and  C4_4 
REMARK       I    between atoms: C4_4  and  N1_6 
REMARK    2  A    between atoms: N1_6  and  C5_7 
REMARK    3  A    between atoms: C12_16  and  N4_17 
REMARK    4  A    between atoms: N4_17  and  C13_18 
ROOT
HETATM    1  C5  UNL     1       1.355  -0.816   0.563  1.00  0.00     0.035 A 
HETATM    2  C6  UNL     1       1.573  -2.049   1.173  1.00  0.00     0.032 A 
HETATM    3  C7  UNL     1       0.641  -3.067   1.174  1.00  0.00     0.035 A 
HETATM    4  C8  UNL     1      -0.563  -2.839   0.536  1.00  0.00     0.069 A 
HETATM    5  N2  UNL     1      -1.485  -3.836   0.532  1.00  0.00    -0.259 NA
HETATM    6  C9  UNL     1      -2.654  -3.584  -0.101  1.00  0.00     0.142 A 
HETATM    7  C10 UNL     1      -2.969  -2.393  -0.737  1.00  0.00     0.089 A 
HETATM    8  C11 UNL     1      -4.245  -2.231  -1.381  1.00  0.00     0.103 C 
HETATM    9  N3  UNL     1      -5.269  -2.091  -1.918  1.00  0.00    -0.191 NA
HETATM   10  C12 UNL     1      -2.004  -1.379  -0.722  1.00  0.00     0.067 A 
HETATM   11  C18 UNL     1      -0.805  -1.625  -0.078  1.00  0.00     0.023 A 
HETATM   12  C19 UNL     1       0.140  -0.625  -0.065  1.00  0.00     0.045 A 
ENDROOT
BRANCH  10  13
HETATM   13  N4  UNL     1      -2.276  -0.146  -1.357  1.00  0.00    -0.354 N 
HETATM   14  H10 UNL     1      -2.072   0.109  -2.362  1.00  0.00     0.166 HD
BRANCH  13  15
HETATM   15  C13 UNL     1      -2.889   0.964  -0.694  1.00  0.00     0.030 A 
HETATM   16  C14 UNL     1      -4.006   0.966   0.024  1.00  0.00     0.008 A 
HETATM   17  C15 UNL     1      -4.382   2.293   0.586  1.00  0.00     0.075 A 
HETATM   18  C16 UNL     1      -3.239   3.116   0.050  1.00  0.00    -0.006 A 
HETATM   19 BR1  UNL     1      -3.016   4.983   0.358  1.00  0.00    -0.055 Br
HETATM   20  C17 UNL     1      -2.414   2.344  -0.667  1.00  0.00     0.044 A 
ENDBRANCH  13  15
ENDBRANCH  10  13
BRANCH   1  21
HETATM   21  N1  UNL     1       2.435   0.109   0.667  1.00  0.00    -0.324 N 
HETATM   22  C4  UNL     1       3.305  -0.082  -0.467  1.00  0.00     0.245 C 
HETATM   23  O1  UNL     1       2.860  -1.006  -1.216  1.00  0.00    -0.268 OA
HETATM   24  H6  UNL     1       2.701   0.859   1.372  1.00  0.00     0.169 HD
BRANCH  22  25
HETATM   25  C3  UNL     1       4.530   0.708  -0.685  1.00  0.00     0.070 C 
HETATM   26  C2  UNL     1       5.017   1.663   0.061  1.00  0.00    -0.026 C 
HETATM   27  C1  UNL     1       6.267   2.353  -0.314  1.00  0.00     0.036 C 
ENDBRANCH  22  25
ENDBRANCH   1  21
TORSDOF 4
