REMARK  2 active torsions:
REMARK  status: ('A' for Active; 'I' for Inactive)
REMARK    1  A    between atoms: C11_14  and  N2_15 
REMARK    2  A    between atoms: N2_15  and  C12_16 
ROOT
HETATM    1  C1  UNL     1      -4.348   2.859  -0.693  1.00  0.00     0.045 C 
HETATM    2  C2  UNL     1      -4.042   1.651  -0.496  1.00  0.00     0.049 C 
HETATM    3  C3  UNL     1      -3.801   0.274  -0.187  1.00  0.00     0.066 C 
HETATM    4  C4  UNL     1      -3.058  -0.824  -0.494  1.00  0.00     0.082 C 
HETATM    5  C5  UNL     1      -2.106  -0.638  -1.587  1.00  0.00     0.095 C 
HETATM    6  C6  UNL     1      -0.726  -0.305  -1.236  1.00  0.00    -0.006 C 
HETATM    7  C7  UNL     1      -0.301  -0.319  -0.005  1.00  0.00     0.001 C 
HETATM    8  C8  UNL     1      -0.256  -1.118   1.202  1.00  0.00     0.024 C 
HETATM    9  C9  UNL     1       0.761  -0.675   1.898  1.00  0.00     0.050 C 
HETATM   10  C10 UNL     1      -1.120  -2.225   1.682  1.00  0.00     0.272 C 
HETATM   11  O1  UNL     1      -0.398  -2.922   2.375  1.00  0.00    -0.266 OA
HETATM   12  N1  UNL     1      -2.555  -2.419   1.372  1.00  0.00    -0.225 N 
HETATM   13  O2  UNL     1      -3.453  -1.833   0.393  1.00  0.00    -0.239 OA
HETATM   14  C11 UNL     1       0.309   0.971   0.056  1.00  0.00     0.065 C 
HETATM   15  C18 UNL     1      -0.271   2.147  -0.086  1.00  0.00     0.089 C 
HETATM   16  C19 UNL     1       0.627   3.255   0.022  1.00  0.00     0.103 C 
HETATM   17  N3  UNL     1       1.366   4.165   0.126  1.00  0.00    -0.191 NA
HETATM   18  C20 UNL     1      -1.709   2.304  -0.261  1.00  0.00     0.142 C 
HETATM   19  N4  UNL     1      -2.633   1.485  -0.343  1.00  0.00    -0.260 NA
HETATM   20  H9  UNL     1      -2.848  -3.130   2.069  1.00  0.00     0.198 HD
ENDROOT
BRANCH  14  21
HETATM   21  N2  UNL     1       1.615   0.606   0.360  1.00  0.00    -0.354 N 
HETATM   22  H10 UNL     1       1.741   1.266   1.194  1.00  0.00     0.166 HD
BRANCH  21  23
HETATM   23  C12 UNL     1       2.697  -0.201  -0.034  1.00  0.00     0.033 A 
HETATM   24  C13 UNL     1       2.754  -1.067  -1.095  1.00  0.00     0.029 A 
HETATM   25  C14 UNL     1       3.832  -1.839  -1.459  1.00  0.00     0.004 A 
HETATM   26  C15 UNL     1       4.930  -1.682  -0.641  1.00  0.00     0.019 A 
HETATM   27  C16 UNL     1       4.963  -0.841   0.439  1.00  0.00     0.013 A 
HETATM   28 BR1  UNL     1       6.541  -0.698   1.511  1.00  0.00    -0.051 Br
HETATM   29  C17 UNL     1       3.848  -0.106   0.737  1.00  0.00     0.048 A 
ENDBRANCH  21  23
ENDBRANCH  14  21
TORSDOF 2
