REMARK  6 active torsions:
REMARK  status: ('A' for Active; 'I' for Inactive)
REMARK    1  A    between atoms: C2_2  and  O1_3 
REMARK    2  A    between atoms: O1_3  and  C3_4 
REMARK    3  A    between atoms: C9_12  and  N3_13 
REMARK    4  A    between atoms: N3_13  and  C10_14 
REMARK    5  A    between atoms: C18_24  and  N4_25 
REMARK    6  A    between atoms: N4_25  and  C19_26 
ROOT
HETATM    1  C3  UNL     1       2.649  -0.053  -0.300  1.00  0.00     0.097 A 
HETATM    2  C4  UNL     1       2.232   1.086  -0.966  1.00  0.00     0.071 A 
HETATM    3  C5  UNL     1       0.944   1.300  -1.371  1.00  0.00     0.071 A 
HETATM    4  N1  UNL     1       0.634   2.445  -2.015  1.00  0.00    -0.259 NA
HETATM    5  C6  UNL     1      -0.631   2.671  -2.421  1.00  0.00     0.142 A 
HETATM    6  C7  UNL     1      -1.603   1.721  -2.170  1.00  0.00     0.089 A 
HETATM    7  C8  UNL     1      -2.948   1.951  -2.596  1.00  0.00     0.103 C 
HETATM    8  N2  UNL     1      -4.042   2.131  -2.923  1.00  0.00    -0.191 NA
HETATM    9  C9  UNL     1      -1.280   0.553  -1.511  1.00  0.00     0.067 A 
HETATM   10  C16 UNL     1       0.018   0.317  -1.093  1.00  0.00     0.023 A 
HETATM   11  C17 UNL     1       0.407  -0.828  -0.431  1.00  0.00     0.048 A 
HETATM   12  C18 UNL     1       1.710  -1.052  -0.018  1.00  0.00     0.064 A 
ENDROOT
BRANCH   9  13
HETATM   13  N3  UNL     1      -2.241  -0.451  -1.231  1.00  0.00    -0.354 N 
HETATM   14  H8  UNL     1      -2.336  -1.160  -1.973  1.00  0.00     0.166 HD
BRANCH  13  15
HETATM   15  C10 UNL     1      -3.003  -0.467  -0.030  1.00  0.00     0.034 A 
HETATM   16  C11 UNL     1      -2.799   0.532   0.901  1.00  0.00     0.032 A 
HETATM   17  C12 UNL     1      -3.528   0.533   2.072  1.00  0.00     0.046 A 
HETATM   18  C13 UNL     1      -4.438  -0.499   2.232  1.00  0.00     0.138 A 
HETATM   19  F1  UNL     1      -5.163  -0.499   3.397  1.00  0.00    -0.204 F 
HETATM   20  C14 UNL     1      -4.662  -1.511   1.319  1.00  0.00     0.074 A 
HETATM   21 CL1  UNL     1      -5.849  -2.756   1.654  1.00  0.00    -0.081 Cl
HETATM   22  C15 UNL     1      -3.912  -1.491   0.139  1.00  0.00     0.056 A 
ENDBRANCH  13  15
ENDBRANCH   9  13
BRANCH  12  23
HETATM   23  N4  UNL     1       2.072  -2.247   0.664  1.00  0.00    -0.362 N 
HETATM   24  H13 UNL     1       3.066  -2.365   0.952  1.00  0.00     0.162 HD
BRANCH  23  25
HETATM   25  C19 UNL     1       1.027  -3.243   0.920  1.00  0.00     0.345 C 
HETATM   26  F2  UNL     1       0.487  -3.669  -0.291  1.00  0.00    -0.234 F 
ENDBRANCH  23  25
ENDBRANCH  12  23
BRANCH   1  27
HETATM   27  O1  UNL     1       3.924  -0.318   0.127  1.00  0.00    -0.349 OA
BRANCH  27  28
HETATM   28  C2  UNL     1       5.019   0.555  -0.056  1.00  0.00     0.171 C 
HETATM   29  C1  UNL     1       4.860   1.895   0.576  1.00  0.00     0.034 C 
ENDBRANCH  27  28
ENDBRANCH   1  27
TORSDOF 6
