REMARK  7 active torsions:
REMARK  status: ('A' for Active; 'I' for Inactive)
REMARK    1  A    between atoms: C6_7  and  C7_8 
REMARK    2  A    between atoms: C8_9  and  C9_10 
REMARK    3  A    between atoms: C9_10  and  C10_11 
REMARK    4  A    between atoms: C11_12  and  C12_13 
REMARK    5  A    between atoms: C13_14  and  O1_15 
REMARK    6  A    between atoms: O1_15  and  C14_16 
REMARK    7  A    between atoms: C14_16  and  C15_17 
ROOT
HETATM    1  N1  UNL     1     -10.179   1.858  -1.016  1.00  0.00    -0.191 NA
HETATM    2  C1  UNL     1      -9.154   1.486  -0.605  1.00  0.00     0.100 C 
HETATM    3  C2  UNL     1      -7.883   1.052  -0.098  1.00  0.00     0.058 A 
HETATM    4  C3  UNL     1      -6.976   0.526  -0.905  1.00  0.00     0.003 A 
HETATM    5  C4  UNL     1      -5.622   0.027  -0.560  1.00  0.00     0.088 A 
HETATM    6  C5  UNL     1      -5.392   0.198   0.892  1.00  0.00     0.037 A 
HETATM    7  C6  UNL     1      -4.223  -0.200   1.367  1.00  0.00     0.027 C 
HETATM    8  N2  UNL     1      -6.359   0.761   1.767  1.00  0.00    -0.264 NA
HETATM    9  C21 UNL     1      -7.505   1.153   1.306  1.00  0.00     0.139 A 
ENDROOT
BRANCH   7  10
HETATM   10  C7  UNL     1      -3.293  -0.766   0.388  1.00  0.00    -0.002 C 
HETATM   11  C8  UNL     1      -2.097  -1.206   0.699  1.00  0.00    -0.023 C 
BRANCH  11  12
HETATM   12  C9  UNL     1      -1.075  -1.798  -0.209  1.00  0.00     0.054 C 
BRANCH  12  13
HETATM   13  C10 UNL     1       0.175  -0.996  -0.197  1.00  0.00    -0.014 C 
HETATM   14  C11 UNL     1       1.466  -1.179   0.103  1.00  0.00     0.063 C 
BRANCH  14  15
HETATM   15  C12 UNL     1       2.381  -0.080  -0.034  1.00  0.00    -0.049 C 
HETATM   16  C13 UNL     1       3.135   0.855  -0.159  1.00  0.00     0.059 C 
BRANCH  16  17
HETATM   17  O1  UNL     1       3.977   1.918  -0.318  1.00  0.00    -0.299 OA
BRANCH  17  18
HETATM   18  C14 UNL     1       5.236   1.764  -0.994  1.00  0.00     0.226 C 
BRANCH  18  19
HETATM   19  C15 UNL     1       6.100   0.774  -0.304  1.00  0.00    -0.032 A 
HETATM   20  C16 UNL     1       6.910   1.368   0.663  1.00  0.00     0.009 A 
HETATM   21  C17 UNL     1       7.792   0.635   1.426  1.00  0.00     0.002 A 
HETATM   22  C18 UNL     1       7.843  -0.743   1.188  1.00  0.00     0.019 A 
HETATM   23  C19 UNL     1       7.044  -1.316   0.236  1.00  0.00     0.011 A 
HETATM   24 BR1  UNL     1       7.116  -3.192  -0.085  1.00  0.00    -0.051 Br
HETATM   25  C20 UNL     1       6.156  -0.577  -0.531  1.00  0.00     0.028 A 
ENDBRANCH  18  19
ENDBRANCH  17  18
ENDBRANCH  16  17
ENDBRANCH  14  15
ENDBRANCH  12  13
ENDBRANCH  11  12
ENDBRANCH   7  10
TORSDOF 7
