REMARK  6 active torsions:
REMARK  status: ('A' for Active; 'I' for Inactive)
REMARK    1  A    between atoms: O1_2  and  C2_3 
REMARK    2  A    between atoms: C6_9  and  N3_10 
REMARK    3  A    between atoms: N3_10  and  C7_11 
REMARK    4  A    between atoms: C15_21  and  C16_22 
REMARK    5  A    between atoms: C16_22  and  N4_23 
REMARK    6  A    between atoms: C20_27  and  C21_28 
REMARK       I    between atoms: C21_28  and  N5_29 
ROOT
HETATM    1  C2  UNL     1      -1.303  -1.380   1.373  1.00  0.00     0.078 A 
HETATM    2  C3  UNL     1      -0.256  -1.430   2.274  1.00  0.00     0.070 A 
HETATM    3  C4  UNL     1       1.045  -1.040   1.981  1.00  0.00     0.074 A 
HETATM    4  N1  UNL     1       2.033  -1.108   2.895  1.00  0.00    -0.241 NA
HETATM    5  C5  UNL     1       3.292  -0.721   2.582  1.00  0.00     0.236 A 
HETATM    6  N2  UNL     1       3.553  -0.259   1.324  1.00  0.00    -0.224 NA
HETATM    7  C6  UNL     1       2.600  -0.184   0.411  1.00  0.00     0.142 A 
HETATM    8  C13 UNL     1       1.310  -0.573   0.709  1.00  0.00     0.039 A 
HETATM    9  C14 UNL     1       0.294  -0.509  -0.215  1.00  0.00     0.029 A 
HETATM   10  C15 UNL     1      -0.990  -0.906   0.115  1.00  0.00     0.004 A 
ENDROOT
BRANCH  10  11
HETATM   11  C16 UNL     1      -2.083  -0.834  -0.891  1.00  0.00     0.315 C 
BRANCH  11  12
HETATM   12  N4  UNL     1      -2.903   0.296  -0.573  1.00  0.00     0.106 N 
HETATM   13  C17 UNL     1      -2.080   1.494  -0.622  1.00  0.00     0.274 C 
HETATM   14  C18 UNL     1      -3.019   2.616  -1.013  1.00  0.00     0.033 C 
HETATM   15  C19 UNL     1      -4.366   1.954  -1.125  1.00  0.00     0.047 C 
HETATM   16  C20 UNL     1      -3.981   0.524  -1.512  1.00  0.00     0.314 C 
BRANCH  16  17
HETATM   17  C21 UNL     1      -5.144  -0.358  -1.240  1.00  0.00     0.249 C 
HETATM   18  N5  UNL     1      -5.148  -1.294  -0.166  1.00  0.00    -0.368 N 
HETATM   19  H20 UNL     1      -5.228  -1.422   0.868  1.00  0.00     0.159 HD
HETATM   20  H21 UNL     1      -5.020  -2.254  -0.540  1.00  0.00     0.159 HD
HETATM   21  O2  UNL     1      -6.202  -0.328  -1.953  1.00  0.00    -0.271 OA
ENDBRANCH  16  17
ENDBRANCH  11  12
ENDBRANCH  10  11
BRANCH   1  22
HETATM   22  O1  UNL     1      -2.572  -1.776   1.710  1.00  0.00    -0.355 OA
HETATM   23  C1  UNL     1      -2.868  -2.255   2.997  1.00  0.00     0.210 C 
ENDBRANCH   1  22
BRANCH   7  24
HETATM   24  N3  UNL     1       2.939   0.303  -0.871  1.00  0.00    -0.338 N 
HETATM   25  H6  UNL     1       2.415   0.458  -1.731  1.00  0.00     0.167 HD
BRANCH  24  26
HETATM   26  C7  UNL     1       4.283   0.696  -1.137  1.00  0.00     0.074 A 
HETATM   27  C8  UNL     1       4.777   1.917  -1.524  1.00  0.00     0.033 A 
HETATM   28  C9  UNL     1       6.121   2.068  -1.725  1.00  0.00     0.004 A 
HETATM   29  C10 UNL     1       6.990   1.014  -1.545  1.00  0.00     0.027 A 
HETATM   30  C11 UNL     1       6.520  -0.229  -1.155  1.00  0.00     0.074 A 
HETATM   31 CL1  UNL     1       7.666  -1.533  -0.940  1.00  0.00    -0.081 Cl
HETATM   32  C12 UNL     1       5.156  -0.379  -0.952  1.00  0.00     0.164 A 
HETATM   33  F1  UNL     1       4.801  -1.643  -0.570  1.00  0.00    -0.202 F 
ENDBRANCH  24  26
ENDBRANCH   7  24
TORSDOF 6
