REMARK  4 active torsions:
REMARK  status: ('A' for Active; 'I' for Inactive)
REMARK    1  A    between atoms: N1_2  and  S1_3 
REMARK    2  A    between atoms: S1_3  and  C2_4 
REMARK    3  A    between atoms: C6_8  and  O1_9 
REMARK    4  A    between atoms: O1_9  and  C7_10 
ROOT
HETATM    1  C2  UNL     1       2.080   0.861   0.205  1.00  0.00     0.098 C 
HETATM    2  C3  UNL     1       1.138  -0.039   0.379  1.00  0.00     0.052 A 
HETATM    3  C4  UNL     1      -0.244   0.027  -0.130  1.00  0.00     0.003 A 
HETATM    4  C5  UNL     1      -0.783   1.149  -0.935  1.00  0.00     0.054 C 
HETATM    5  C6  UNL     1      -0.963  -1.032   0.209  1.00  0.00     0.130 A 
HETATM    6  C13 UNL     1      -0.104  -1.937   1.004  1.00  0.00     0.157 A 
HETATM    7  N2  UNL     1      -0.384  -3.085   1.543  1.00  0.00    -0.281 NA
HETATM    8  N3  UNL     1       1.170  -1.278   1.076  1.00  0.00    -0.333 N 
HETATM    9  C14 UNL     1       2.383  -1.738   1.745  1.00  0.00     0.158 C 
HETATM   10  H12 UNL     1       0.354  -3.582   2.070  1.00  0.00     0.188 HD
ENDROOT
BRANCH   5  11
HETATM   11  O1  UNL     1      -2.264  -1.428  -0.017  1.00  0.00    -0.303 OA
BRANCH  11  12
HETATM   12  C7  UNL     1      -3.267  -0.610  -0.482  1.00  0.00     0.119 A 
HETATM   13  C8  UNL     1      -3.512  -0.476  -1.853  1.00  0.00     0.069 A 
HETATM   14 CL1  UNL     1      -2.558  -1.344  -3.030  1.00  0.00    -0.081 Cl
HETATM   15  C9  UNL     1      -4.548   0.374  -2.247  1.00  0.00     0.027 A 
HETATM   16  C10 UNL     1      -5.304   1.058  -1.292  1.00  0.00     0.003 A 
HETATM   17  C11 UNL     1      -5.033   0.900   0.056  1.00  0.00     0.027 A 
HETATM   18  C12 UNL     1      -4.007   0.061   0.496  1.00  0.00     0.069 A 
HETATM   19 CL2  UNL     1      -3.648  -0.152   2.195  1.00  0.00    -0.081 Cl
ENDBRANCH  11  12
ENDBRANCH   5  11
BRANCH   1  20
HETATM   20  S1  UNL     1       3.700   0.618   0.894  1.00  0.00    -0.029 SA
BRANCH  20  21
HETATM   21  N1  UNL     1       4.966   0.610  -0.311  1.00  0.00    -0.366 N 
HETATM   22  C1  UNL     1       6.103   1.415   0.010  1.00  0.00     0.154 C 
HETATM   23  H4  UNL     1       4.655   0.625  -1.287  1.00  0.00     0.167 HD
ENDBRANCH  20  21
ENDBRANCH   1  20
TORSDOF 4
