REMARK  3 active torsions:
REMARK  status: ('A' for Active; 'I' for Inactive)
REMARK    1  A    between atoms: O1_2  and  C2_3 
REMARK    2  A    between atoms: C7_9  and  N1_10 
REMARK    3  A    between atoms: N1_10  and  C8_11 
ROOT
HETATM    1  N1  UNL     1       0.581  -0.655  -0.099  1.00  0.00    -0.378 N 
HETATM    2  H7  UNL     1       0.859  -1.621   0.246  1.00  0.00     0.160 HD
ENDROOT
BRANCH   1   3
HETATM    3  C7  UNL     1       1.603   0.328   0.018  1.00  0.00     0.063 A 
HETATM    4  C2  UNL     1       2.858   0.079   0.537  1.00  0.00     0.112 A 
HETATM    5  C3  UNL     1       3.755   1.125   0.587  1.00  0.00     0.046 A 
HETATM    6 BR1  UNL     1       5.473   0.675   1.325  1.00  0.00    -0.048 Br
HETATM    7  C4  UNL     1       3.446   2.390   0.144  1.00  0.00     0.022 A 
HETATM    8  C5  UNL     1       2.197   2.639  -0.373  1.00  0.00     0.004 A 
HETATM    9  C6  UNL     1       1.281   1.592  -0.429  1.00  0.00     0.032 A 
BRANCH   4  10
HETATM   10  O1  UNL     1       3.155  -1.199   0.979  1.00  0.00    -0.352 OA
HETATM   11  C1  UNL     1       3.709  -2.199   0.157  1.00  0.00     0.210 C 
ENDBRANCH   4  10
ENDBRANCH   1   3
BRANCH   1  12
HETATM   12  C8  UNL     1      -0.753  -0.583  -0.595  1.00  0.00     0.134 C 
HETATM   13  C9  UNL     1      -1.506  -1.899  -0.591  1.00  0.00     0.032 C 
HETATM   14  C10 UNL     1      -2.594  -1.730  -1.630  1.00  0.00     0.007 C 
HETATM   15  C11 UNL     1      -3.441  -0.515  -1.374  1.00  0.00     0.042 C 
HETATM   16  C12 UNL     1      -2.916   0.294  -0.251  1.00  0.00    -0.014 A 
HETATM   17  C13 UNL     1      -3.870   1.092   0.388  1.00  0.00     0.127 A 
HETATM   18  C15 UNL     1      -1.608   0.346   0.228  1.00  0.00     0.066 A 
HETATM   19  N2  UNL     1      -3.500   1.879   1.437  1.00  0.00    -0.254 NA
HETATM   20  C14 UNL     1      -2.206   1.889   1.860  1.00  0.00     0.232 A 
HETATM   21  N3  UNL     1      -1.276   1.128   1.258  1.00  0.00    -0.244 NA
ENDBRANCH   1  12
TORSDOF 3
