REMARK  4 active torsions:
REMARK  status: ('A' for Active; 'I' for Inactive)
REMARK    1  A    between atoms: C2_2  and  C3_3 
REMARK       I    between atoms: C3_3  and  N1_5 
REMARK    2  A    between atoms: N1_5  and  C4_6 
REMARK    3  A    between atoms: C9_13  and  N4_14 
REMARK    4  A    between atoms: N4_14  and  C10_15 
ROOT
HETATM    1  C4  UNL     1       2.038  -0.704  -0.094  1.00  0.00     0.036 A 
HETATM    2  C5  UNL     1       2.316  -1.967  -0.485  1.00  0.00     0.032 A 
HETATM    3  C6  UNL     1       1.381  -2.970  -0.658  1.00  0.00     0.035 A 
HETATM    4  C7  UNL     1       0.037  -2.683  -0.418  1.00  0.00     0.072 A 
HETATM    5  N2  UNL     1      -0.897  -3.639  -0.600  1.00  0.00    -0.241 NA
HETATM    6  C8  UNL     1      -2.196  -3.309  -0.374  1.00  0.00     0.236 A 
HETATM    7  N3  UNL     1      -2.522  -2.073   0.015  1.00  0.00    -0.224 NA
HETATM    8  C9  UNL     1      -1.646  -1.067   0.218  1.00  0.00     0.142 A 
HETATM    9  C15 UNL     1      -0.306  -1.402  -0.014  1.00  0.00     0.041 A 
HETATM   10  C16 UNL     1       0.677  -0.480   0.130  1.00  0.00     0.047 A 
ENDROOT
BRANCH   8  11
HETATM   11  N4  UNL     1      -2.030   0.239   0.604  1.00  0.00    -0.341 N 
HETATM   12  H8  UNL     1      -1.335   0.630   1.302  1.00  0.00     0.167 HD
BRANCH  11  13
HETATM   13  C10 UNL     1      -3.132   1.043   0.254  1.00  0.00     0.029 A 
HETATM   14  C11 UNL     1      -3.954   0.795  -0.778  1.00  0.00     0.006 A 
HETATM   15  C12 UNL     1      -4.983   1.880  -0.808  1.00  0.00     0.056 A 
HETATM   16  C13 UNL     1      -4.591   2.740   0.349  1.00  0.00    -0.021 A 
HETATM   17  C14 UNL     1      -3.525   2.254   0.959  1.00  0.00     0.025 A 
ENDBRANCH  11  13
ENDBRANCH   8  11
BRANCH   1  18
HETATM   18  N1  UNL     1       2.905   0.374   0.100  1.00  0.00    -0.324 N 
HETATM   19  C3  UNL     1       4.304   0.405  -0.088  1.00  0.00     0.244 C 
HETATM   20  O1  UNL     1       4.889  -0.624  -0.471  1.00  0.00    -0.268 OA
HETATM   21  H4  UNL     1       2.567   1.309   0.419  1.00  0.00     0.169 HD
BRANCH  19  22
HETATM   22  C2  UNL     1       5.153   1.558   0.129  1.00  0.00     0.064 C 
HETATM   23  C1  UNL     1       6.446   1.537  -0.057  1.00  0.00     0.017 C 
ENDBRANCH  19  22
ENDBRANCH   1  18
TORSDOF 4
