REMARK  4 active torsions:
REMARK  status: ('A' for Active; 'I' for Inactive)
REMARK    1  A    between atoms: C2_2  and  C3_3 
REMARK       I    between atoms: C3_3  and  N1_5 
REMARK    2  A    between atoms: N1_5  and  C4_6 
REMARK    3  A    between atoms: C9_13  and  N4_14 
REMARK    4  A    between atoms: N4_14  and  C10_15 
ROOT
HETATM    1  C4  UNL     1      -1.934  -0.735   0.607  1.00  0.00     0.036 A 
HETATM    2  C5  UNL     1      -2.617  -1.838   0.081  1.00  0.00     0.032 A 
HETATM    3  C6  UNL     1      -1.938  -2.923  -0.475  1.00  0.00     0.035 A 
HETATM    4  C7  UNL     1      -0.560  -2.896  -0.499  1.00  0.00     0.072 A 
HETATM    5  N2  UNL     1       0.184  -3.892  -1.008  1.00  0.00    -0.241 NA
HETATM    6  C8  UNL     1       1.523  -3.824  -1.007  1.00  0.00     0.236 A 
HETATM    7  N3  UNL     1       2.170  -2.760  -0.497  1.00  0.00    -0.224 NA
HETATM    8  C9  UNL     1       1.465  -1.722   0.031  1.00  0.00     0.142 A 
HETATM    9  C15 UNL     1       0.101  -1.806   0.022  1.00  0.00     0.041 A 
HETATM   10  C16 UNL     1      -0.558  -0.727   0.574  1.00  0.00     0.047 A 
ENDROOT
BRANCH   8  11
HETATM   11  N4  UNL     1       2.215  -0.647   0.560  1.00  0.00    -0.340 N 
HETATM   12  H8  UNL     1       2.241  -0.990   1.558  1.00  0.00     0.167 HD
BRANCH  11  13
HETATM   13  C10 UNL     1       2.829   0.565   0.153  1.00  0.00     0.031 A 
HETATM   14  C11 UNL     1       2.432   1.740  -0.289  1.00  0.00     0.008 A 
HETATM   15  C12 UNL     1       3.615   2.577  -0.534  1.00  0.00     0.075 A 
HETATM   16  C13 UNL     1       4.752   1.706  -0.167  1.00  0.00    -0.006 A 
HETATM   17 BR1  UNL     1       6.493   2.456  -0.351  1.00  0.00    -0.055 Br
HETATM   18  C14 UNL     1       4.283   0.521   0.237  1.00  0.00     0.044 A 
ENDBRANCH  11  13
ENDBRANCH   8  11
BRANCH   1  19
HETATM   19  N1  UNL     1      -2.879   0.191   1.094  1.00  0.00    -0.324 N 
HETATM   20  C3  UNL     1      -3.387   1.171   0.170  1.00  0.00     0.244 C 
HETATM   21  O1  UNL     1      -3.190   1.432  -1.043  1.00  0.00    -0.268 OA
HETATM   22  H4  UNL     1      -3.257   0.247   2.067  1.00  0.00     0.169 HD
BRANCH  20  23
HETATM   23  C2  UNL     1      -4.385   2.152   0.659  1.00  0.00     0.064 C 
HETATM   24  C1  UNL     1      -4.547   2.808  -0.501  1.00  0.00     0.017 C 
ENDBRANCH  20  23
ENDBRANCH   1  19
TORSDOF 4
