REMARK  11 active torsions:
REMARK  status: ('A' for Active; 'I' for Inactive)
REMARK    1  A    between atoms: N1_1  and  C1_2 
REMARK    2  A    between atoms: C1_2  and  C2_3 
REMARK    3  A    between atoms: C2_3  and  C3_4 
REMARK    4  A    between atoms: C3_4  and  C4_5 
REMARK    5  A    between atoms: C4_5  and  C5_6 
REMARK    6  A    between atoms: C5_6  and  C6_7 
REMARK    7  A    between atoms: C6_7  and  C7_8 
REMARK    8  A    between atoms: C7_8  and  C12_15 
REMARK    9  A    between atoms: C9_10  and  N3_14 
REMARK   10  A    between atoms: C10_11  and  N3_14 
REMARK   11  A    between atoms: N3_14  and  C12_15 
ROOT
HETATM    1  C7  UNL     1      -0.646  -0.262  -0.057  1.00  0.00     0.011 A 
HETATM    2  C8  UNL     1      -1.230  -1.430  -0.431  1.00  0.00     0.053 A 
HETATM    3  C9  UNL     1      -1.895  -2.736  -0.538  1.00  0.00     0.214 A 
HETATM    4  C10 UNL     1      -2.534  -3.854  -0.207  1.00  0.00     0.236 A 
HETATM    5  N2  UNL     1      -2.416  -3.925  -1.587  1.00  0.00     0.126 N 
HETATM    6  C11 UNL     1      -1.773  -2.852  -2.176  1.00  0.00     0.296 A 
HETATM    7  N3  UNL     1      -1.954  -2.892  -0.761  1.00  0.00     0.000 N 
HETATM    8  C12 UNL     1      -1.388  -1.715  -0.109  1.00  0.00     0.024 A 
HETATM    9  C13 UNL     1      -1.041  -0.968   0.899  1.00  0.00     0.050 A 
HETATM   10  C14 UNL     1      -0.477   0.173   1.322  1.00  0.00     0.131 A 
HETATM   11  O1  UNL     1      -0.437   0.362   2.765  1.00  0.00    -0.283 OA
HETATM   12  N4  UNL     1      -1.258  -0.500   3.585  1.00  0.00    -0.142 NA
HETATM   13  C15 UNL     1      -2.538  -0.396   4.256  1.00  0.00     0.205 C 
HETATM   14  F1  UNL     1      -3.262   0.230   5.216  1.00  0.00    -0.189 F 
HETATM   15  C16 UNL     1      -3.352  -1.323   3.608  1.00  0.00     0.069 C 
HETATM   16 CL1  UNL     1      -5.069  -1.597   4.029  1.00  0.00    -0.084 Cl
HETATM   17  C17 UNL     1      -3.652  -2.515   2.698  1.00  0.00     0.072 C 
HETATM   18  C18 UNL     1      -2.574  -3.199   2.125  1.00  0.00    -0.015 C 
HETATM   19  C19 UNL     1      -2.981  -4.301   1.240  1.00  0.00     0.049 C 
HETATM   20  H18 UNL     1      -1.591   0.501   3.394  1.00  0.00     0.163 HD
ENDROOT
BRANCH   1  21
HETATM   21  C6  UNL     1      -0.038   0.802  -0.858  1.00  0.00     0.014 C 
BRANCH  21  22
HETATM   22  C5  UNL     1       1.448   0.815  -0.761  1.00  0.00     0.001 C 
BRANCH  22  23
HETATM   23  C4  UNL     1       2.017   1.911  -1.622  1.00  0.00     0.000 C 
BRANCH  23  24
HETATM   24  C3  UNL     1       3.524   1.936  -1.514  1.00  0.00     0.002 C 
BRANCH  24  25
HETATM   25  C2  UNL     1       4.183   2.997  -2.344  1.00  0.00     0.030 C 
BRANCH  25  26
HETATM   26  C1  UNL     1       3.738   4.389  -1.970  1.00  0.00     0.267 C 
BRANCH  26  27
HETATM   27  N1  UNL     1       4.043   4.665  -0.578  1.00  0.00     0.078 N 
HETATM   28  H1  UNL     1       4.505   5.596  -0.446  1.00  0.00     0.312 HD
HETATM   29  H2  UNL     1       3.129   4.644  -0.051  1.00  0.00     0.312 HD
ENDBRANCH  26  27
ENDBRANCH  25  26
ENDBRANCH  24  25
ENDBRANCH  23  24
ENDBRANCH  22  23
ENDBRANCH  21  22
ENDBRANCH   1  21
TORSDOF 11
