REMARK  5 active torsions:
REMARK  status: ('A' for Active; 'I' for Inactive)
REMARK    1  A    between atoms: C2_2  and  C3_3 
REMARK       I    between atoms: C3_3  and  N1_5 
REMARK    2  A    between atoms: N1_5  and  C4_6 
REMARK    3  A    between atoms: C6_10  and  C7_11 
REMARK    4  A    between atoms: C7_11  and  N4_12 
REMARK    5  A    between atoms: C7_11  and  C8_13 
ROOT
HETATM    1  C4  UNL     1       2.071   0.057   0.285  1.00  0.00     0.110 A 
HETATM    2  N2  UNL     1       1.962   1.208   0.850  1.00  0.00    -0.229 NA
HETATM    3  C5  UNL     1       0.731   1.922   0.732  1.00  0.00     0.229 A 
HETATM    4  N3  UNL     1      -0.187   1.385   0.077  1.00  0.00    -0.275 NA
HETATM    5  C6  UNL     1      -0.215   0.168  -0.580  1.00  0.00     0.153 A 
HETATM    6  C14 UNL     1       1.033  -0.636  -0.489  1.00  0.00     0.108 A 
ENDROOT
BRANCH   5   7
HETATM    7  C7  UNL     1      -1.365  -0.742  -0.201  1.00  0.00     0.275 C 
BRANCH   7   8
HETATM    8  N4  UNL     1      -1.219  -1.971  -0.991  1.00  0.00     0.089 N 
HETATM    9  H8  UNL     1      -1.560  -2.810  -0.470  1.00  0.00     0.313 HD
HETATM   10  H9  UNL     1      -1.826  -1.883  -1.836  1.00  0.00     0.313 HD
ENDBRANCH   7   8
BRANCH   7  11
HETATM   11  C8  UNL     1      -2.700  -0.212  -0.464  1.00  0.00    -0.022 A 
HETATM   12  C9  UNL     1      -3.144   1.061  -0.753  1.00  0.00     0.009 A 
HETATM   13  C10 UNL     1      -4.476   1.345  -0.968  1.00  0.00     0.002 A 
HETATM   14  C11 UNL     1      -5.446   0.366  -0.907  1.00  0.00     0.019 A 
HETATM   15  C12 UNL     1      -5.018  -0.925  -0.618  1.00  0.00     0.011 A 
HETATM   16 BR1  UNL     1      -6.383  -2.256  -0.540  1.00  0.00    -0.051 Br
HETATM   17  C13 UNL     1      -3.696  -1.198  -0.405  1.00  0.00     0.028 A 
ENDBRANCH   7  11
ENDBRANCH   5   7
BRANCH   1  18
HETATM   18  N1  UNL     1       3.317  -0.582   0.449  1.00  0.00    -0.311 N 
HETATM   19  C3  UNL     1       4.410  -0.047   1.172  1.00  0.00     0.245 C 
HETATM   20  O1  UNL     1       4.286   1.062   1.708  1.00  0.00    -0.268 OA
HETATM   21  H4  UNL     1       3.480  -1.536   0.010  1.00  0.00     0.170 HD
BRANCH  19  22
HETATM   22  C2  UNL     1       5.667  -0.777   1.290  1.00  0.00     0.064 C 
HETATM   23  C1  UNL     1       6.670  -0.253   1.971  1.00  0.00     0.017 C 
ENDBRANCH  19  22
ENDBRANCH   1  18
TORSDOF 5
