REMARK  2 active torsions:
REMARK  status: ('A' for Active; 'I' for Inactive)
REMARK    1  A    between atoms: C2_2  and  C3_3 
REMARK    2  A    between atoms: C3_3  and  N1_4 
ROOT
HETATM    1  C3  UNL     1      -2.025  -0.529   0.106  1.00  0.00     0.193 C 
HETATM    2  C4  UNL     1      -1.329  -1.708   0.678  1.00  0.00     0.045 C 
HETATM    3  C5  UNL     1      -0.090  -1.569   0.132  1.00  0.00     0.026 C 
HETATM    4  C6  UNL     1       1.171  -2.356   0.223  1.00  0.00     0.006 C 
HETATM    5  C7  UNL     1       2.036  -1.668  -0.566  1.00  0.00     0.039 C 
HETATM    6  C8  UNL     1       1.880  -0.421  -1.375  1.00  0.00     0.136 C 
HETATM    7  C9  UNL     1       2.826   0.576  -0.751  1.00  0.00     0.101 C 
HETATM    8  N2  UNL     1       4.035   0.142  -1.028  1.00  0.00    -0.229 NA
HETATM    9  C10 UNL     1       4.354  -1.264  -1.052  1.00  0.00     0.235 C 
HETATM   10  N3  UNL     1       3.378  -2.061  -0.784  1.00  0.00    -0.246 NA
HETATM   11  N4  UNL     1       2.943   1.757  -0.013  1.00  0.00    -0.379 NA
HETATM   12  C11 UNL     1       2.146   2.414   0.684  1.00  0.00     0.264 C 
HETATM   13  C12 UNL     1       0.749   2.139   0.965  1.00  0.00     0.073 C 
HETATM   14  C13 UNL     1      -0.085   2.843   1.711  1.00  0.00     0.018 C 
HETATM   15  C14 UNL     1      -1.111   1.826   1.372  1.00  0.00    -0.025 A 
HETATM   16 BR1  UNL     1      -2.946   1.663   1.870  1.00  0.00    -0.123 Br
HETATM   17  C15 UNL     1      -1.480   0.696   0.742  1.00  0.00     0.129 A 
ENDROOT
BRANCH   1  18
HETATM   18  C2  UNL     1      -3.506  -0.569   0.329  1.00  0.00     0.006 C 
HETATM   19  C1  UNL     1      -4.384  -0.032  -0.510  1.00  0.00     0.009 C 
ENDBRANCH   1  18
BRANCH   1  20
HETATM   20  N1  UNL     1      -1.869  -0.404  -1.333  1.00  0.00     0.093 N 
HETATM   21  H4  UNL     1      -1.962   0.570  -1.634  1.00  0.00     0.314 HD
HETATM   22  H5  UNL     1      -2.593  -0.986  -1.790  1.00  0.00     0.314 HD
ENDBRANCH   1  20
TORSDOF 2
