REMARK  3 active torsions:
REMARK  status: ('A' for Active; 'I' for Inactive)
REMARK    1  A    between atoms: C2_2  and  C3_3 
REMARK       I    between atoms: C3_3  and  N1_5 
REMARK    2  A    between atoms: C6_8  and  N2_9 
REMARK    3  A    between atoms: N2_9  and  C7_10 
ROOT
HETATM    1  C3  UNL     1      -3.720   0.447   0.750  1.00  0.00     0.246 C 
HETATM    2  O1  UNL     1      -4.967   0.492   0.654  1.00  0.00    -0.268 OA
HETATM    3  N1  UNL     1      -2.876   0.021  -0.312  1.00  0.00    -0.320 N 
HETATM    4  C4  UNL     1      -1.461  -0.029  -0.198  1.00  0.00     0.112 A 
HETATM    5  C5  UNL     1      -0.623  -0.415  -1.129  1.00  0.00     0.054 A 
HETATM    6  C6  UNL     1       0.742  -0.443  -0.965  1.00  0.00     0.143 A 
HETATM    7  N3  UNL     1       1.435  -0.862  -2.024  1.00  0.00    -0.223 NA
HETATM    8  C13 UNL     1       0.903  -1.241  -3.187  1.00  0.00     0.236 A 
HETATM    9  N4  UNL     1      -0.455  -1.207  -3.332  1.00  0.00    -0.241 NA
HETATM   10  C14 UNL     1      -1.225  -0.792  -2.299  1.00  0.00     0.071 A 
HETATM   11  C15 UNL     1      -2.503  -0.796  -2.547  1.00  0.00     0.026 A 
HETATM   12  C16 UNL     1      -3.512  -0.373  -1.545  1.00  0.00     0.161 A 
ENDROOT
BRANCH   6  13
HETATM   13  N2  UNL     1       1.323  -0.058   0.257  1.00  0.00    -0.340 N 
HETATM   14  H5  UNL     1       0.765   0.222   1.075  1.00  0.00     0.167 HD
BRANCH  13  15
HETATM   15  C7  UNL     1       2.694   0.017   0.588  1.00  0.00     0.035 A 
HETATM   16  C8  UNL     1       3.690  -0.060  -0.355  1.00  0.00     0.029 A 
HETATM   17  C9  UNL     1       5.036  -0.003  -0.079  1.00  0.00     0.004 A 
HETATM   18  C10 UNL     1       5.466   0.141   1.221  1.00  0.00     0.019 A 
HETATM   19  C11 UNL     1       4.514   0.224   2.212  1.00  0.00     0.013 A 
HETATM   20 BR1  UNL     1       5.029   0.422   4.018  1.00  0.00    -0.051 Br
HETATM   21  C12 UNL     1       3.186   0.160   1.866  1.00  0.00     0.048 A 
ENDBRANCH  13  15
ENDBRANCH   6  13
BRANCH   1  22
HETATM   22  C2  UNL     1      -3.224   0.876   2.059  1.00  0.00     0.064 C 
HETATM   23  C1  UNL     1      -4.466   1.096   2.466  1.00  0.00     0.017 C 
ENDBRANCH   1  22
TORSDOF 3
