REMARK  6 active torsions:
REMARK  status: ('A' for Active; 'I' for Inactive)
REMARK    1  A    between atoms: O1_2  and  C2_3 
REMARK    2  A    between atoms: C4_5  and  N1_6 
REMARK       I    between atoms: N1_6  and  C5_7 
REMARK    3  A    between atoms: C5_7  and  C6_9 
REMARK    4  A    between atoms: C6_9  and  C7_10 
REMARK    5  A    between atoms: C7_10  and  C8_11 
REMARK    6  A    between atoms: C8_11  and  N2_12 
ROOT
HETATM    1  C2  UNL     1      -2.343  -1.856  -0.880  1.00  0.00     0.095 A 
HETATM    2  C3  UNL     1      -1.068  -1.507  -0.933  1.00  0.00     0.068 A 
HETATM    3  C4  UNL     1      -0.718  -0.092  -0.891  1.00  0.00     0.034 A 
HETATM    4  C11 UNL     1      -1.705   0.784  -0.824  1.00  0.00     0.015 A 
HETATM    5  C12 UNL     1      -3.119   0.682  -0.790  1.00  0.00     0.077 A 
HETATM    6  C13 UNL     1      -3.904   1.247   0.377  1.00  0.00     0.013 A 
HETATM    7  C14 UNL     1      -3.018   0.648   1.224  1.00  0.00     0.021 C 
HETATM    8  C15 UNL     1      -3.887   1.562   2.280  1.00  0.00     0.095 C 
HETATM    9 BR1  UNL     1      -3.372   3.337   2.164  1.00  0.00    -0.088 Br
HETATM   10  C16 UNL     1      -5.009   1.129   1.361  1.00  0.00     0.083 A 
HETATM   11  C17 UNL     1      -5.329   1.739   0.240  1.00  0.00     0.038 A 
HETATM   12  N3  UNL     1      -5.665  -0.244   1.574  1.00  0.00    -0.270 NA
HETATM   13  C18 UNL     1      -5.394  -1.359   0.748  1.00  0.00     0.228 C 
HETATM   14  N4  UNL     1      -4.597  -1.537  -0.531  1.00  0.00    -0.243 NA
HETATM   15  C19 UNL     1      -3.444  -0.862  -0.743  1.00  0.00     0.077 A 
ENDROOT
BRANCH   3  16
HETATM   16  N1  UNL     1       0.647   0.315  -0.921  1.00  0.00    -0.324 N 
HETATM   17  C5  UNL     1       1.413  -0.167   0.147  1.00  0.00     0.245 C 
HETATM   18  O2  UNL     1       1.182  -0.890   1.145  1.00  0.00    -0.268 OA
HETATM   19  H5  UNL     1       1.100   0.919  -1.647  1.00  0.00     0.169 HD
BRANCH  17  20
HETATM   20  C6  UNL     1       2.825   0.196   0.206  1.00  0.00     0.072 C 
BRANCH  20  21
HETATM   21  C7  UNL     1       3.783   0.862  -0.392  1.00  0.00     0.008 C 
BRANCH  21  22
HETATM   22  C8  UNL     1       5.089   1.442  -0.707  1.00  0.00     0.299 C 
BRANCH  22  23
HETATM   23  N2  UNL     1       6.120   1.114   0.256  1.00  0.00     0.083 N 
HETATM   24  C9  UNL     1       5.827   1.767   1.495  1.00  0.00     0.309 C 
HETATM   25  C10 UNL     1       6.253  -0.309   0.449  1.00  0.00     0.309 C 
ENDBRANCH  22  23
ENDBRANCH  21  22
ENDBRANCH  20  21
ENDBRANCH  17  20
ENDBRANCH   3  16
BRANCH   1  26
HETATM   26  O1  UNL     1      -2.684  -3.195  -0.936  1.00  0.00    -0.354 OA
HETATM   27  C1  UNL     1      -2.334  -3.867  -2.155  1.00  0.00     0.210 C 
ENDBRANCH   1  26
TORSDOF 6
