REMARK  5 active torsions:
REMARK  status: ('A' for Active; 'I' for Inactive)
REMARK    1  A    between atoms: C2_2  and  C3_3 
REMARK       I    between atoms: C3_3  and  N1_5 
REMARK    2  A    between atoms: N1_5  and  C4_6 
REMARK    3  A    between atoms: C9_13  and  N4_14 
REMARK    4  A    between atoms: N4_14  and  C10_15 
REMARK    5  A    between atoms: C14_19  and  P1_20 
ROOT
HETATM    1  C4  UNL     1       2.867   0.809  -0.265  1.00  0.00     0.036 A 
HETATM    2  C5  UNL     1       3.190   2.150  -0.277  1.00  0.00     0.032 A 
HETATM    3  C6  UNL     1       2.165   3.070  -0.230  1.00  0.00     0.035 A 
HETATM    4  C7  UNL     1       0.849   2.657  -0.172  1.00  0.00     0.072 A 
HETATM    5  N2  UNL     1      -0.068   3.623  -0.129  1.00  0.00    -0.241 NA
HETATM    6  C8  UNL     1      -1.360   3.297  -0.072  1.00  0.00     0.236 A 
HETATM    7  N3  UNL     1      -1.662   2.017  -0.061  1.00  0.00    -0.224 NA
HETATM    8  C9  UNL     1      -0.837   0.969  -0.100  1.00  0.00     0.142 A 
HETATM    9  C16 UNL     1       0.478   1.330  -0.158  1.00  0.00     0.041 A 
HETATM   10  C17 UNL     1       1.534   0.461  -0.206  1.00  0.00     0.047 A 
ENDROOT
BRANCH   8  11
HETATM   11  N4  UNL     1      -1.183  -0.401  -0.087  1.00  0.00    -0.340 N 
HETATM   12  H8  UNL     1      -0.464  -1.146  -0.120  1.00  0.00     0.167 HD
BRANCH  11  13
HETATM   13  C10 UNL     1      -2.471  -0.995  -0.030  1.00  0.00     0.034 A 
HETATM   14  C11 UNL     1      -2.719  -2.359  -0.022  1.00  0.00     0.029 A 
HETATM   15  C12 UNL     1      -3.974  -2.910   0.033  1.00  0.00     0.003 A 
HETATM   16  C13 UNL     1      -5.080  -2.116   0.084  1.00  0.00     0.012 A 
HETATM   17  C14 UNL     1      -4.880  -0.751   0.078  1.00  0.00    -0.035 A 
HETATM   18  C15 UNL     1      -3.601  -0.243   0.022  1.00  0.00     0.041 A 
BRANCH  17  19
HETATM   19  P1  UNL     1      -6.398   0.278   0.148  1.00  0.00    -0.106 P 
HETATM   20  H12 UNL     1      -7.294  -0.163   1.187  1.00  0.00     0.059 HD
HETATM   21  H13 UNL     1      -6.100   1.694   0.203  1.00  0.00     0.059 HD
ENDBRANCH  17  19
ENDBRANCH  11  13
ENDBRANCH   8  11
BRANCH   1  22
HETATM   22  N1  UNL     1       3.907  -0.167  -0.313  1.00  0.00    -0.324 N 
HETATM   23  C3  UNL     1       4.595  -0.768   0.776  1.00  0.00     0.244 C 
HETATM   24  O1  UNL     1       4.157  -0.314   1.861  1.00  0.00    -0.268 OA
HETATM   25  H4  UNL     1       4.059  -0.351  -1.332  1.00  0.00     0.169 HD
BRANCH  23  26
HETATM   26  C2  UNL     1       5.622  -1.744   0.462  1.00  0.00     0.064 C 
HETATM   27  C1  UNL     1       6.034  -2.177  -0.713  1.00  0.00     0.017 C 
ENDBRANCH  23  26
ENDBRANCH   1  22
TORSDOF 5
