REMARK  7 active torsions:
REMARK  status: ('A' for Active; 'I' for Inactive)
REMARK    1  A    between atoms: N1_2  and  C3_4 
REMARK    2  A    between atoms: C3_4  and  C4_5 
REMARK    3  A    between atoms: C5_6  and  C6_7 
REMARK       I    between atoms: C6_7  and  N2_9 
REMARK    4  A    between atoms: N2_9  and  C7_10 
REMARK    5  A    between atoms: C7_10  and  C8_11 
REMARK    6  A    between atoms: C12_17  and  N5_18 
REMARK    7  A    between atoms: N5_18  and  C13_19 
ROOT
HETATM    1  C8  UNL     1      -0.487  -0.926   0.787  1.00  0.00     0.032 A 
HETATM    2  N3  UNL     1       0.077   0.110   0.233  1.00  0.00    -0.267 NA
HETATM    3  C9  UNL     1      -0.827   1.152  -0.120  1.00  0.00     0.137 A 
HETATM    4  C10 UNL     1      -2.152   1.067   0.103  1.00  0.00     0.062 A 
HETATM    5  C11 UNL     1      -2.819   2.252  -0.351  1.00  0.00     0.098 C 
HETATM    6  N4  UNL     1      -3.386   3.222  -0.717  1.00  0.00    -0.192 NA
HETATM    7  C12 UNL     1      -2.855  -0.080   0.732  1.00  0.00     0.132 A 
HETATM    8  C19 UNL     1      -1.910  -1.188   1.094  1.00  0.00     0.087 A 
ENDROOT
BRANCH   7   9
HETATM    9  N5  UNL     1      -3.932  -0.573  -0.092  1.00  0.00    -0.380 N 
HETATM   10  H16 UNL     1      -3.691  -1.496  -0.565  1.00  0.00     0.160 HD
BRANCH   9  11
HETATM   11  C13 UNL     1      -5.224  -0.166  -0.453  1.00  0.00     0.030 A 
HETATM   12  C14 UNL     1      -6.053  -0.842  -1.356  1.00  0.00     0.032 A 
HETATM   13  C15 UNL     1      -7.310  -0.345  -1.598  1.00  0.00     0.046 A 
HETATM   14  C16 UNL     1      -7.838   0.785  -1.015  1.00  0.00     0.138 A 
HETATM   15  F1  UNL     1      -9.095   1.150  -1.357  1.00  0.00    -0.204 F 
HETATM   16  C17 UNL     1      -7.013   1.455  -0.117  1.00  0.00     0.074 A 
HETATM   17 CL1  UNL     1      -7.728   2.886   0.596  1.00  0.00    -0.081 Cl
HETATM   18  C18 UNL     1      -5.747   0.967   0.135  1.00  0.00     0.056 A 
ENDBRANCH   9  11
ENDBRANCH   7   9
BRANCH   1  19
HETATM   19  C7  UNL     1       0.389  -2.081   1.196  1.00  0.00     0.177 C 
BRANCH  19  20
HETATM   20  N2  UNL     1       1.787  -1.763   0.944  1.00  0.00    -0.352 N 
HETATM   21  C6  UNL     1       2.286  -0.616   1.661  1.00  0.00     0.241 C 
HETATM   22  O1  UNL     1       1.547   0.052   2.452  1.00  0.00    -0.269 OA
HETATM   23  H11 UNL     1       2.456  -2.272   0.305  1.00  0.00     0.163 HD
BRANCH  21  24
HETATM   24  C5  UNL     1       3.696  -0.223   1.460  1.00  0.00     0.072 C 
HETATM   25  C4  UNL     1       4.622  -0.796   0.673  1.00  0.00     0.008 C 
BRANCH  25  26
HETATM   26  C3  UNL     1       6.032  -0.283   0.566  1.00  0.00     0.299 C 
BRANCH  26  27
HETATM   27  N1  UNL     1       6.326   0.096  -0.796  1.00  0.00     0.083 N 
HETATM   28  C1  UNL     1       5.542   1.266  -1.152  1.00  0.00     0.309 C 
HETATM   29  C2  UNL     1       7.736   0.317  -0.946  1.00  0.00     0.309 C 
ENDBRANCH  26  27
ENDBRANCH  25  26
ENDBRANCH  21  24
ENDBRANCH  19  20
ENDBRANCH   1  19
TORSDOF 7
