REMARK  6 active torsions:
REMARK  status: ('A' for Active; 'I' for Inactive)
REMARK    1  A    between atoms: C2_2  and  N1_3 
REMARK    2  A    between atoms: N1_3  and  C3_4 
REMARK    3  A    between atoms: C5_6  and  C6_7 
REMARK    4  A    between atoms: C6_7  and  C7_8 
REMARK    5  A    between atoms: C11_14  and  N4_15 
REMARK    6  A    between atoms: N4_15  and  C12_16 
ROOT
HETATM    1  C7  UNL     1       0.588   1.046  -0.441  1.00  0.00    -0.010 C 
HETATM    2  C8  UNL     1      -0.282   1.864   0.134  1.00  0.00     0.004 A 
HETATM    3  C9  UNL     1       0.206   3.059   0.823  1.00  0.00     0.192 A 
HETATM    4  N2  UNL     1      -0.918   3.787   1.368  1.00  0.00    -0.278 NA
HETATM    5  C10 UNL     1      -2.135   3.427   1.250  1.00  0.00     0.229 A 
HETATM    6  N3  UNL     1      -2.584   2.262   0.572  1.00  0.00    -0.224 NA
HETATM    7  C11 UNL     1      -1.691   1.504   0.030  1.00  0.00     0.137 A 
ENDROOT
BRANCH   1   8
HETATM    8  C6  UNL     1       2.062   1.279  -0.425  1.00  0.00     0.064 C 
BRANCH   8   9
HETATM    9  C5  UNL     1       2.761   0.141   0.242  1.00  0.00    -0.052 A 
HETATM   10  C3  UNL     1       3.149  -1.237   0.408  1.00  0.00     0.134 A 
HETATM   11  C4  UNL     1       3.566  -0.128   1.297  1.00  0.00     0.008 A 
BRANCH  10  12
HETATM   12  N1  UNL     1       4.267  -1.789  -0.365  1.00  0.00    -0.388 N 
HETATM   13  H4  UNL     1       4.080  -1.698  -1.376  1.00  0.00     0.159 HD
BRANCH  12  14
HETATM   14  C2  UNL     1       5.459  -2.378   0.131  1.00  0.00     0.073 C 
HETATM   15  C1  UNL     1       6.536  -2.117  -0.589  1.00  0.00     0.029 C 
ENDBRANCH  12  14
ENDBRANCH  10  12
ENDBRANCH   8   9
ENDBRANCH   1   8
BRANCH   7  16
HETATM   16  N4  UNL     1      -2.170   0.353  -0.643  1.00  0.00    -0.340 N 
HETATM   17  H13 UNL     1      -1.580   0.029  -1.466  1.00  0.00     0.167 HD
BRANCH  16  18
HETATM   18  C12 UNL     1      -3.332  -0.391  -0.327  1.00  0.00     0.035 A 
HETATM   19  C13 UNL     1      -4.200  -0.183   0.716  1.00  0.00     0.029 A 
HETATM   20  C14 UNL     1      -5.324  -0.927   0.981  1.00  0.00     0.004 A 
HETATM   21  C15 UNL     1      -5.639  -1.977   0.152  1.00  0.00     0.019 A 
HETATM   22  C16 UNL     1      -4.803  -2.232  -0.912  1.00  0.00     0.013 A 
HETATM   23 BR1  UNL     1      -5.237  -3.683  -2.059  1.00  0.00    -0.051 Br
HETATM   24  C17 UNL     1      -3.687  -1.455  -1.134  1.00  0.00     0.048 A 
ENDBRANCH  16  18
ENDBRANCH   7  16
TORSDOF 6
