REMARK  7 active torsions:
REMARK  status: ('A' for Active; 'I' for Inactive)
REMARK    1  A    between atoms: N1_2  and  C3_4 
REMARK    2  A    between atoms: C3_4  and  C4_5 
REMARK    3  A    between atoms: C5_6  and  N2_8 
REMARK    4  A    between atoms: N2_8  and  C6_9 
REMARK    5  A    between atoms: C6_9  and  C7_10 
REMARK    6  A    between atoms: C7_10  and  O1_11 
REMARK    7  A    between atoms: O1_11  and  C8_12 
ROOT
HETATM    1  C7  UNL     1      -1.426  -0.622   0.350  1.00  0.00     0.092 C 
HETATM    2  C9  UNL     1      -2.484   0.094   0.574  1.00  0.00     0.042 C 
HETATM    3  C10 UNL     1      -3.948  -0.244   0.449  1.00  0.00     0.112 C 
HETATM    4  C11 UNL     1      -4.502   0.806  -0.474  1.00  0.00     0.035 C 
HETATM    5 CL1  UNL     1      -5.543   0.263  -1.774  1.00  0.00    -0.087 Cl
HETATM    6  C12 UNL     1      -4.179   2.067  -0.259  1.00  0.00     0.058 C 
HETATM    7  C13 UNL     1      -4.739   3.036  -1.176  1.00  0.00     0.098 C 
HETATM    8  N3  UNL     1      -5.204   3.807  -1.907  1.00  0.00    -0.192 NA
HETATM    9  C14 UNL     1      -3.291   2.503   0.855  1.00  0.00     0.171 C 
HETATM   10  N4  UNL     1      -2.289   1.447   1.017  1.00  0.00    -0.386 N 
HETATM   11  H18 UNL     1      -1.390   1.747   1.492  1.00  0.00     0.159 HD
ENDROOT
BRANCH   1  12
HETATM   12  C6  UNL     1       0.010  -0.301   0.470  1.00  0.00     0.188 C 
BRANCH  12  13
HETATM   13  N2  UNL     1       0.676  -1.161   1.413  1.00  0.00    -0.361 N 
HETATM   14  H10 UNL     1       0.043  -1.875   1.844  1.00  0.00     0.162 HD
BRANCH  13  15
HETATM   15  C5  UNL     1       2.051  -1.144   1.805  1.00  0.00     0.182 C 
HETATM   16  C4  UNL     1       2.988  -0.403   1.219  1.00  0.00     0.064 C 
HETATM   17  F1  UNL     1       2.373  -1.956   2.850  1.00  0.00    -0.187 F 
BRANCH  16  18
HETATM   18  C3  UNL     1       3.244   0.594   0.130  1.00  0.00     0.303 C 
BRANCH  18  19
HETATM   19  N1  UNL     1       4.203   0.022  -0.768  1.00  0.00     0.083 N 
HETATM   20  C1  UNL     1       4.513   0.932  -1.865  1.00  0.00     0.309 C 
HETATM   21  C2  UNL     1       3.753  -1.266  -1.255  1.00  0.00     0.309 C 
ENDBRANCH  18  19
ENDBRANCH  16  18
ENDBRANCH  13  15
ENDBRANCH  12  13
ENDBRANCH   1  12
BRANCH   1  22
HETATM   22  O1  UNL     1      -1.793  -1.896  -0.069  1.00  0.00    -0.291 OA
BRANCH  22  23
HETATM   23  C8  UNL     1      -0.943  -2.757  -0.797  1.00  0.00     0.505 C 
HETATM   24  F2  UNL     1      -1.597  -3.965  -1.076  1.00  0.00    -0.184 F 
HETATM   25  F3  UNL     1      -0.604  -2.128  -1.976  1.00  0.00    -0.184 F 
ENDBRANCH  22  23
ENDBRANCH   1  22
TORSDOF 7
