REMARK  5 active torsions:
REMARK  status: ('A' for Active; 'I' for Inactive)
REMARK    1  A    between atoms: C2_2  and  B1_3 
REMARK    2  A    between atoms: B1_3  and  C3_4 
REMARK       I    between atoms: C3_4  and  N1_6 
REMARK    3  A    between atoms: N1_6  and  C4_7 
REMARK    4  A    between atoms: C11_16  and  N4_17 
REMARK    5  A    between atoms: N4_17  and  C12_18 
ROOT
HETATM    1  C4  UNL     1       1.663  -1.193   0.488  1.00  0.00     0.034 A 
HETATM    2  C5  UNL     1       1.777  -2.470   0.977  1.00  0.00     0.032 A 
HETATM    3  C6  UNL     1       0.782  -3.416   0.984  1.00  0.00     0.035 A 
HETATM    4  C7  UNL     1      -0.448  -3.077   0.459  1.00  0.00     0.069 A 
HETATM    5  N2  UNL     1      -1.450  -3.974   0.446  1.00  0.00    -0.259 NA
HETATM    6  C8  UNL     1      -2.662  -3.637  -0.071  1.00  0.00     0.142 A 
HETATM    7  C9  UNL     1      -2.820  -2.344  -0.580  1.00  0.00     0.089 A 
HETATM    8  C10 UNL     1      -4.112  -2.010  -1.123  1.00  0.00     0.103 C 
HETATM    9  N3  UNL     1      -5.157  -1.725  -1.574  1.00  0.00    -0.191 NA
HETATM   10  C11 UNL     1      -1.805  -1.392  -0.582  1.00  0.00     0.067 A 
HETATM   11  C18 UNL     1      -0.604  -1.802  -0.042  1.00  0.00     0.023 A 
HETATM   12  C19 UNL     1       0.425  -0.887  -0.027  1.00  0.00     0.045 A 
ENDROOT
BRANCH  10  13
HETATM   13  N4  UNL     1      -2.022  -0.110  -1.106  1.00  0.00    -0.354 N 
HETATM   14  H9  UNL     1      -1.766  -0.190  -2.103  1.00  0.00     0.166 HD
BRANCH  13  15
HETATM   15  C12 UNL     1      -2.478   1.054  -0.476  1.00  0.00     0.033 A 
HETATM   16  C13 UNL     1      -2.786   1.023   0.869  1.00  0.00     0.029 A 
HETATM   17  C14 UNL     1      -3.239   2.197   1.474  1.00  0.00     0.004 A 
HETATM   18  C15 UNL     1      -3.354   3.327   0.691  1.00  0.00     0.019 A 
HETATM   19  C16 UNL     1      -3.047   3.358  -0.652  1.00  0.00     0.013 A 
HETATM   20 BR1  UNL     1      -3.224   4.941  -1.680  1.00  0.00    -0.051 Br
HETATM   21  C17 UNL     1      -2.592   2.183  -1.261  1.00  0.00     0.048 A 
ENDBRANCH  13  15
ENDBRANCH  10  13
BRANCH   1  22
HETATM   22  N1  UNL     1       2.660  -0.192   0.463  1.00  0.00    -0.338 N 
HETATM   23  C3  UNL     1       3.990  -0.256   0.923  1.00  0.00     0.167 C 
HETATM   24  O1  UNL     1       4.426  -1.303   1.436  1.00  0.00    -0.288 OA
HETATM   25  H5  UNL     1       2.452   0.742   0.065  1.00  0.00     0.168 HD
BRANCH  23  26
HETATM   26  B1  UNL     1       5.016   0.911   0.849  1.00  0.00     0.293 B 
HETATM   27  H4  UNL     1       5.594   1.183   1.848  1.00  0.00    -0.011 HD
BRANCH  26  28
HETATM   28  C2  UNL     1       4.724   2.120  -0.106  1.00  0.00    -0.082 C 
HETATM   29  C1  UNL     1       5.861   2.312  -0.797  1.00  0.00    -0.005 C 
ENDBRANCH  26  28
ENDBRANCH  23  26
ENDBRANCH   1  22
TORSDOF 5
