REMARK  4 active torsions:
REMARK  status: ('A' for Active; 'I' for Inactive)
REMARK       I    between atoms: C2_2  and  N1_4 
REMARK    1  A    between atoms: N1_4  and  C3_5 
REMARK    2  A    between atoms: C9_12  and  C10_13 
REMARK    3  A    between atoms: C12_16  and  N4_17 
REMARK    4  A    between atoms: N4_17  and  C13_18 
ROOT
HETATM    1  C10 UNL     1      -3.668  -1.992   0.091  1.00  0.00     0.165 C 
HETATM    2  C11 UNL     1      -4.243  -3.086   0.911  1.00  0.00     0.063 C 
HETATM    3  N3  UNL     1      -4.709  -3.929   1.556  1.00  0.00    -0.197 NA
ENDROOT
BRANCH   1   4
HETATM    4  C9  UNL     1      -2.326  -2.320  -0.383  1.00  0.00    -0.004 A 
HETATM    5  C8  UNL     1      -1.921  -3.430  -1.220  1.00  0.00     0.120 A 
HETATM    6  N2  UNL     1      -0.722  -3.584  -1.548  1.00  0.00    -0.299 NA
HETATM    7  C7  UNL     1       0.457  -2.876  -1.280  1.00  0.00     0.170 A 
HETATM    8  C6  UNL     1       0.227  -1.661  -0.403  1.00  0.00     0.054 A 
HETATM    9  C5  UNL     1       1.039  -1.703   0.833  1.00  0.00     0.052 A 
HETATM   10  C12 UNL     1      -1.244  -1.623  -0.104  1.00  0.00     0.034 A 
HETATM   11  P1  UNL     1       0.811  -0.244  -1.407  1.00  0.00    -0.041 P 
HETATM   12  C4  UNL     1       2.038  -0.680   0.978  1.00  0.00     0.004 A 
HETATM   13  C3  UNL     1       2.674   0.389   0.513  1.00  0.00     0.032 A 
HETATM   14  C18 UNL     1       2.024   0.645  -0.783  1.00  0.00     0.042 A 
BRANCH  13  15
HETATM   15  N1  UNL     1       3.724   1.268   0.924  1.00  0.00    -0.328 N 
HETATM   16  C2  UNL     1       3.417   2.640   1.066  1.00  0.00     0.218 C 
HETATM   17  C1  UNL     1       4.461   3.613   1.490  1.00  0.00     0.117 C 
HETATM   18  O1  UNL     1       2.266   3.091   0.844  1.00  0.00    -0.274 OA
HETATM   19  H4  UNL     1       4.699   0.912   1.117  1.00  0.00     0.169 HD
ENDBRANCH  13  15
BRANCH  10  20
HETATM   20  N4  UNL     1      -1.363  -0.443   0.727  1.00  0.00    -0.360 N 
HETATM   21  H13 UNL     1      -1.294  -0.370   1.784  1.00  0.00     0.165 HD
BRANCH  20  22
HETATM   22  C13 UNL     1      -1.605   0.790   0.030  1.00  0.00     0.027 A 
HETATM   23  C14 UNL     1      -2.065   0.944  -1.215  1.00  0.00     0.026 A 
HETATM   24  C15 UNL     1      -2.200   2.335  -1.628  1.00  0.00    -0.001 A 
HETATM   25  C16 UNL     1      -1.804   3.024  -0.582  1.00  0.00    -0.005 A 
HETATM   26  C17 UNL     1      -1.394   2.176   0.552  1.00  0.00     0.130 A 
HETATM   27 BR1  UNL     1      -2.691   2.390   1.997  1.00  0.00    -0.080 Br
ENDBRANCH  20  22
ENDBRANCH  10  20
ENDBRANCH   1   4
TORSDOF 4
