REMARK  4 active torsions:
REMARK  status: ('A' for Active; 'I' for Inactive)
REMARK    1  A    between atoms: C2_2  and  O1_5 
REMARK    2  A    between atoms: O1_5  and  C3_6 
REMARK    3  A    between atoms: C7_11  and  N2_12 
REMARK    4  A    between atoms: N3_14  and  C9_15 
ROOT
HETATM    1  C3  UNL     1       1.858  -0.318   0.498  1.00  0.00     0.107 C 
HETATM    2  C4  UNL     1       1.648  -1.262  -0.401  1.00  0.00     0.128 C 
HETATM    3  C5  UNL     1       2.291  -2.056  -1.417  1.00  0.00     0.488 C 
HETATM    4  N1  UNL     1       1.073  -2.542  -1.642  1.00  0.00    -0.142 NA
HETATM    5  C6  UNL     1      -0.009  -2.017  -0.825  1.00  0.00     0.584 C 
HETATM    6  C7  UNL     1      -1.230  -2.517  -0.934  1.00  0.00     0.032 C 
HETATM    7  C8  UNL     1      -1.964  -1.701   0.001  1.00  0.00     0.177 C 
HETATM    8  N3  UNL     1      -1.336  -0.647   0.724  1.00  0.00    -0.375 N 
HETATM    9  C15 UNL     1      -0.364  -0.322   1.695  1.00  0.00     0.126 C 
HETATM   10  C16 UNL     1       0.944   0.271   1.425  1.00  0.00     0.062 C 
ENDROOT
BRANCH   8  11
HETATM   11  C9  UNL     1      -1.919   0.639   0.361  1.00  0.00     0.032 A 
HETATM   12  C10 UNL     1      -1.356   1.642  -0.371  1.00  0.00     0.032 A 
HETATM   13  C11 UNL     1      -2.051   2.831  -0.630  1.00  0.00     0.046 A 
HETATM   14  C12 UNL     1      -3.347   3.007  -0.138  1.00  0.00     0.138 A 
HETATM   15  F3  UNL     1      -4.035   4.147  -0.376  1.00  0.00    -0.204 F 
HETATM   16  C13 UNL     1      -3.830   1.944   0.585  1.00  0.00     0.074 A 
HETATM   17 CL1  UNL     1      -5.473   2.202   1.207  1.00  0.00    -0.081 Cl
HETATM   18  C14 UNL     1      -3.222   0.755   0.882  1.00  0.00     0.056 A 
ENDBRANCH   8  11
BRANCH   6  19
HETATM   19  N2  UNL     1      -2.208  -3.455  -1.521  1.00  0.00    -0.402 N 
HETATM   20  H7  UNL     1      -2.279  -4.337  -0.947  1.00  0.00     0.155 HD
HETATM   21  H8  UNL     1      -2.491  -2.876  -2.337  1.00  0.00     0.155 HD
ENDBRANCH   6  19
BRANCH   1  22
HETATM   22  O1  UNL     1       3.060   0.405   0.844  1.00  0.00    -0.311 OA
BRANCH  22  23
HETATM   23  C2  UNL     1       3.962   0.804  -0.152  1.00  0.00     0.351 C 
HETATM   24  C1  UNL     1       4.614   2.142   0.213  1.00  0.00     0.126 C 
HETATM   25  F1  UNL     1       3.303   0.876  -1.360  1.00  0.00    -0.176 F 
HETATM   26  F2  UNL     1       4.961  -0.175  -0.276  1.00  0.00    -0.176 F 
ENDBRANCH  22  23
ENDBRANCH   1  22
TORSDOF 4
