REMARK  1 active torsions:
REMARK  status: ('A' for Active; 'I' for Inactive)
REMARK    1  A    between atoms: C2_2  and  C3_3 
REMARK       I    between atoms: C3_3  and  N1_5 
ROOT
HETATM    1  C3  UNL     1       2.828   0.424   0.238  1.00  0.00     0.242 C 
HETATM    2  O1  UNL     1       3.260   1.093  -0.759  1.00  0.00    -0.268 OA
HETATM    3  N1  UNL     1       1.994  -0.394  -0.536  1.00  0.00    -0.344 N 
HETATM    4  C4  UNL     1       2.017  -0.117  -1.999  1.00  0.00     0.127 C 
HETATM    5  C5  UNL     1       1.157   1.061  -2.355  1.00  0.00     0.027 C 
HETATM    6  C6  UNL     1      -0.195   0.954  -1.739  1.00  0.00    -0.021 C 
HETATM    7  C7  UNL     1       0.028  -0.370  -1.797  1.00  0.00     0.142 C 
HETATM    8  N2  UNL     1      -0.604  -1.616  -1.478  1.00  0.00    -0.381 N 
HETATM    9  C8  UNL     1      -1.059  -1.549  -0.107  1.00  0.00     0.053 C 
HETATM   10  C9  UNL     1      -2.363  -1.641  -0.128  1.00  0.00     0.050 C 
HETATM   11  C10 UNL     1      -3.205  -2.026  -1.197  1.00  0.00     0.097 C 
HETATM   12  N3  UNL     1      -3.866  -2.335  -2.066  1.00  0.00    -0.192 NA
HETATM   13  C11 UNL     1      -3.030  -1.290   1.184  1.00  0.00     0.061 C 
HETATM   14  C12 UNL     1      -2.043  -0.500   2.032  1.00  0.00     0.023 C 
HETATM   15  C13 UNL     1      -2.114   0.924   1.690  1.00  0.00     0.039 C 
HETATM   16  C14 UNL     1      -1.993   2.110   1.047  1.00  0.00    -0.023 A 
HETATM   17 BR1  UNL     1      -2.396   3.996   1.199  1.00  0.00    -0.126 Br
HETATM   18  C15 UNL     1      -1.432   2.782  -0.163  1.00  0.00     0.115 A 
HETATM   19  C16 UNL     1      -0.717   2.296  -1.244  1.00  0.00    -0.001 C 
HETATM   20  C17 UNL     1      -0.651  -1.050   1.932  1.00  0.00    -0.010 C 
HETATM   21  C18 UNL     1       0.034  -1.271   0.815  1.00  0.00    -0.016 C 
HETATM   22  C19 UNL     1       1.345  -1.407   0.239  1.00  0.00     0.166 C 
HETATM   23  H9  UNL     1      -0.465  -2.089  -2.418  1.00  0.00     0.160 HD
ENDROOT
BRANCH   1  24
HETATM   24  C2  UNL     1       3.521   1.026   1.321  1.00  0.00     0.064 C 
HETATM   25  C1  UNL     1       3.172   0.421   2.451  1.00  0.00     0.017 C 
ENDBRANCH   1  24
TORSDOF 1
