REMARK  7 active torsions:
REMARK  status: ('A' for Active; 'I' for Inactive)
REMARK    1  A    between atoms: C3_4  and  C4_5 
REMARK    2  A    between atoms: C4_5  and  N1_6 
REMARK    3  A    between atoms: N1_6  and  C5_7 
REMARK    4  A    between atoms: C7_10  and  N2_11 
REMARK    5  A    between atoms: C12_17  and  O1_18 
REMARK    6  A    between atoms: O1_18  and  C13_19 
REMARK    7  A    between atoms: C13_19  and  N3_20 
ROOT
HETATM    1  N2  UNL     1      -0.214   1.700  -1.043  1.00  0.00    -0.234 NA
HETATM    2  C8  UNL     1      -1.250   1.000  -0.864  1.00  0.00     0.107 C 
HETATM    3  C9  UNL     1      -1.092  -0.365  -0.380  1.00  0.00     0.108 C 
HETATM    4  C10 UNL     1      -2.243  -1.248  -0.516  1.00  0.00     0.026 C 
HETATM    5  C11 UNL     1      -3.548  -1.082  -0.657  1.00  0.00     0.147 C 
HETATM    6  F2  UNL     1      -4.404  -2.105  -0.762  1.00  0.00    -0.203 F 
HETATM    7  C12 UNL     1      -4.252   0.189  -0.719  1.00  0.00     0.127 C 
HETATM    8  C14 UNL     1      -3.799   1.432  -0.950  1.00  0.00     0.129 C 
HETATM    9  N4  UNL     1      -2.419   1.757  -1.198  1.00  0.00    -0.351 N 
HETATM   10  H16 UNL     1      -2.288   2.686  -1.695  1.00  0.00     0.166 HD
ENDROOT
BRANCH   1  11
HETATM   11  C7  UNL     1       1.137   1.311  -0.826  1.00  0.00     0.113 A 
HETATM   12  C5  UNL     1       2.392   0.915  -0.132  1.00  0.00     0.339 A 
HETATM   13  C6  UNL     1       2.231   1.063  -1.597  1.00  0.00     0.160 A 
HETATM   14  F1  UNL     1       2.939   0.949  -2.762  1.00  0.00    -0.206 F 
BRANCH  12  15
HETATM   15  N1  UNL     1       2.564  -0.396   0.408  1.00  0.00     0.104 N 
HETATM   16  H7  UNL     1       2.666  -0.327   1.433  1.00  0.00     0.317 HD
BRANCH  15  17
HETATM   17  C4  UNL     1       3.742  -1.071  -0.110  1.00  0.00     0.300 C 
BRANCH  17  18
HETATM   18  C3  UNL     1       4.964  -0.384   0.396  1.00  0.00     0.022 C 
HETATM   19  C2  UNL     1       6.051  -0.620   1.117  1.00  0.00     0.006 C 
HETATM   20  C1  UNL     1       7.115   0.400   1.423  1.00  0.00     0.061 C 
HETATM   21 CL1  UNL     1       6.453  -2.155   1.845  1.00  0.00    -0.090 Cl
ENDBRANCH  17  18
ENDBRANCH  15  17
ENDBRANCH  12  15
ENDBRANCH   1  11
BRANCH   7  22
HETATM   22  O1  UNL     1      -5.637   0.247  -0.521  1.00  0.00    -0.287 OA
BRANCH  22  23
HETATM   23  C13 UNL     1      -6.133  -0.143   0.746  1.00  0.00     0.548 C 
HETATM   24  F3  UNL     1      -5.580   0.558   1.790  1.00  0.00    -0.185 F 
BRANCH  23  25
HETATM   25  N3  UNL     1      -7.576   0.024   0.680  1.00  0.00     0.138 N 
HETATM   26  H13 UNL     1      -7.805   0.907   0.165  1.00  0.00     0.319 HD
HETATM   27  H14 UNL     1      -7.981   0.072   1.643  1.00  0.00     0.319 HD
ENDBRANCH  23  25
ENDBRANCH  22  23
ENDBRANCH   7  22
TORSDOF 7
