REMARK  4 active torsions:
REMARK  status: ('A' for Active; 'I' for Inactive)
REMARK    1  A    between atoms: S1_2  and  C2_3 
REMARK       I    between atoms: C2_3  and  N1_5 
REMARK    2  A    between atoms: N1_5  and  C3_6 
REMARK    3  A    between atoms: C8_11  and  N2_12 
REMARK    4  A    between atoms: N2_12  and  C9_13 
ROOT
HETATM    1  C3  UNL     1       1.658   0.431  -0.616  1.00  0.00     0.029 C 
HETATM    2  C4  UNL     1       2.540   1.489  -0.777  1.00  0.00     0.009 C 
HETATM    3  C5  UNL     1       1.634   2.575  -0.166  1.00  0.00     0.048 A 
HETATM    4  C6  UNL     1       0.876   2.758  -1.398  1.00  0.00    -0.020 A 
HETATM    5  C7  UNL     1       0.602   1.486  -1.033  1.00  0.00     0.070 A 
HETATM    6  C8  UNL     1      -0.416   0.888   0.011  1.00  0.00     0.045 C 
HETATM    7  C15 UNL     1      -0.852   2.128   0.478  1.00  0.00     0.047 C 
HETATM    8  C16 UNL     1      -2.220   2.501   0.565  1.00  0.00     0.097 C 
HETATM    9  N3  UNL     1      -3.291   2.782   0.650  1.00  0.00    -0.192 NA
HETATM   10  C17 UNL     1       0.629   2.579   0.843  1.00  0.00     0.065 C 
ENDROOT
BRANCH   6  11
HETATM   11  N2  UNL     1      -1.033  -0.309   0.461  1.00  0.00    -0.357 N 
HETATM   12  H8  UNL     1      -0.645  -1.027   1.092  1.00  0.00     0.166 HD
BRANCH  11  13
HETATM   13  C9  UNL     1      -2.332  -0.745   0.095  1.00  0.00     0.033 A 
HETATM   14  C10 UNL     1      -2.592  -1.456  -1.048  1.00  0.00     0.029 A 
HETATM   15  C11 UNL     1      -3.863  -1.893  -1.400  1.00  0.00     0.004 A 
HETATM   16  C12 UNL     1      -4.910  -1.590  -0.547  1.00  0.00     0.019 A 
HETATM   17  C13 UNL     1      -4.694  -0.875   0.619  1.00  0.00     0.013 A 
HETATM   18 BR1  UNL     1      -6.131  -0.453   1.799  1.00  0.00    -0.051 Br
HETATM   19  C14 UNL     1      -3.405  -0.468   0.912  1.00  0.00     0.048 A 
ENDBRANCH  11  13
ENDBRANCH   6  11
BRANCH   1  20
HETATM   20  N1  UNL     1       2.154  -0.833  -0.245  1.00  0.00    -0.321 N 
HETATM   21  C2  UNL     1       3.511  -1.085  -0.036  1.00  0.00     0.275 C 
HETATM   22  O1  UNL     1       4.441  -0.249  -0.146  1.00  0.00    -0.261 OA
HETATM   23  H4  UNL     1       1.334  -1.461  -0.178  1.00  0.00     0.169 HD
BRANCH  21  24
HETATM   24  S1  UNL     1       3.746  -2.774   0.411  1.00  0.00    -0.126 SA
HETATM   25  C1  UNL     1       5.295  -3.102   0.117  1.00  0.00     0.059 C 
HETATM   26  H3  UNL     1       3.010  -3.654  -0.380  1.00  0.00     0.104 HD
ENDBRANCH  21  24
ENDBRANCH   1  20
TORSDOF 4
