REMARK  3 active torsions:
REMARK  status: ('A' for Active; 'I' for Inactive)
REMARK    1  A    between atoms: O1_2  and  C2_3 
REMARK    2  A    between atoms: C14_19  and  C15_20 
REMARK    3  A    between atoms: C15_20  and  C16_21 
REMARK       I    between atoms: C16_21  and  N4_22 
ROOT
HETATM    1  C2  UNL     1      -1.534  -2.397   1.095  1.00  0.00     0.077 C 
HETATM    2  C3  UNL     1      -2.352  -1.971   2.076  1.00  0.00     0.064 C 
HETATM    3  C4  UNL     1      -2.515  -0.578   1.675  1.00  0.00     0.042 C 
HETATM    4  N1  UNL     1      -3.494  -0.311   0.881  1.00  0.00    -0.247 NA
HETATM    5  C5  UNL     1      -3.804   0.954   0.394  1.00  0.00     0.228 C 
HETATM    6  N2  UNL     1      -4.065   2.164   0.149  1.00  0.00    -0.264 NA
HETATM    7  C6  UNL     1      -4.363   2.613  -1.216  1.00  0.00     0.271 C 
HETATM    8  N3  UNL     1      -3.127   3.013  -1.885  1.00  0.00    -0.381 N 
HETATM    9  C7  UNL     1      -2.321   1.821  -1.836  1.00  0.00     0.093 C 
HETATM   10  C8  UNL     1      -1.221   1.905  -1.055  1.00  0.00    -0.023 C 
HETATM   11  C9  UNL     1      -1.003   3.195  -0.371  1.00  0.00     0.051 C 
HETATM   12  C10 UNL     1      -0.313   0.776  -0.887  1.00  0.00     0.063 C 
HETATM   13 CL1  UNL     1      -0.773  -0.674  -1.805  1.00  0.00    -0.082 Cl
HETATM   14  C11 UNL     1       0.807   0.734  -0.143  1.00  0.00     0.030 C 
HETATM   15  C12 UNL     1       1.615   1.605   0.747  1.00  0.00     0.061 C 
HETATM   16  C13 UNL     1       3.037   1.183   0.340  1.00  0.00     0.032 C 
HETATM   17  C14 UNL     1       2.706   0.080  -0.630  1.00  0.00     0.093 C 
HETATM   18  N5  UNL     1       1.501  -0.533  -0.111  1.00  0.00    -0.373 N 
HETATM   19  C17 UNL     1       0.994  -1.838   0.324  1.00  0.00     0.164 C 
HETATM   20  C18 UNL     1      -0.205  -1.735   1.141  1.00  0.00    -0.010 C 
HETATM   21  C19 UNL     1      -0.161  -0.872   2.164  1.00  0.00    -0.009 C 
HETATM   22  C20 UNL     1      -1.353   0.016   2.432  1.00  0.00     0.087 C 
HETATM   23  H8  UNL     1      -2.993   3.981  -2.266  1.00  0.00     0.160 HD
ENDROOT
BRANCH  17  24
HETATM   24  C15 UNL     1       3.831  -0.911  -0.782  1.00  0.00     0.127 C 
BRANCH  24  25
HETATM   25  C16 UNL     1       4.995  -0.135  -1.281  1.00  0.00     0.217 C 
HETATM   26  N4  UNL     1       6.087  -1.031  -1.439  1.00  0.00    -0.370 N 
HETATM   27  H20 UNL     1       7.004  -1.520  -1.540  1.00  0.00     0.159 HD
HETATM   28  H21 UNL     1       6.228  -2.075  -1.574  1.00  0.00     0.159 HD
HETATM   29  O2  UNL     1       5.409   1.023  -1.626  1.00  0.00    -0.274 OA
ENDBRANCH  24  25
ENDBRANCH  17  24
BRANCH   1  30
HETATM   30  O1  UNL     1      -1.857  -3.357   0.116  1.00  0.00    -0.355 OA
HETATM   31  C1  UNL     1      -1.450  -4.704   0.236  1.00  0.00     0.210 C 
ENDBRANCH   1  30
TORSDOF 3
