REMARK  4 active torsions:
REMARK  status: ('A' for Active; 'I' for Inactive)
REMARK    1  A    between atoms: C2_2  and  C3_3 
REMARK       I    between atoms: C3_3  and  N1_5 
REMARK    2  A    between atoms: N1_5  and  C4_6 
REMARK    3  A    between atoms: C11_15  and  N4_16 
REMARK    4  A    between atoms: N4_16  and  C12_17 
ROOT
HETATM    1  C4  UNL     1      -2.035   0.265  -0.162  1.00  0.00     0.035 C 
HETATM    2  C5  UNL     1      -1.988   0.271  -1.529  1.00  0.00     0.031 C 
HETATM    3  C6  UNL     1      -2.019   1.037  -2.678  1.00  0.00     0.021 C 
HETATM    4  C7  UNL     1      -0.888   1.395  -3.417  1.00  0.00     0.116 C 
HETATM    5  N2  UNL     1       0.164   1.579  -2.611  1.00  0.00    -0.272 NA
HETATM    6  C8  UNL     1       1.154   0.649  -2.498  1.00  0.00     0.141 C 
HETATM    7  C9  UNL     1       1.617   1.324  -1.361  1.00  0.00     0.088 C 
HETATM    8  C10 UNL     1       2.842   2.074  -1.599  1.00  0.00     0.103 C 
HETATM    9  N3  UNL     1       3.843   2.665  -1.788  1.00  0.00    -0.191 NA
HETATM   10  C11 UNL     1       1.148   1.426  -0.044  1.00  0.00     0.055 C 
HETATM   11  C18 UNL     1      -0.130   1.693   0.411  1.00  0.00     0.033 C 
HETATM   12  C19 UNL     1      -1.343   1.096   0.690  1.00  0.00     0.032 C 
ENDROOT
BRANCH  10  13
HETATM   13  N4  UNL     1       2.176   1.217   0.930  1.00  0.00    -0.355 N 
HETATM   14  H9  UNL     1       2.246   2.097   1.512  1.00  0.00     0.166 HD
BRANCH  13  15
HETATM   15  C12 UNL     1       3.016   0.124   1.193  1.00  0.00     0.033 A 
HETATM   16  C13 UNL     1       3.943   0.187   2.215  1.00  0.00     0.029 A 
HETATM   17  C14 UNL     1       4.721  -0.939   2.394  1.00  0.00     0.004 A 
HETATM   18  C15 UNL     1       4.642  -2.104   1.637  1.00  0.00     0.019 A 
HETATM   19  C16 UNL     1       3.706  -2.131   0.625  1.00  0.00     0.013 A 
HETATM   20 BR1  UNL     1       3.547  -3.701  -0.451  1.00  0.00    -0.051 Br
HETATM   21  C17 UNL     1       2.914  -1.018   0.425  1.00  0.00     0.048 A 
ENDBRANCH  13  15
ENDBRANCH  10  13
BRANCH   1  22
HETATM   22  N1  UNL     1      -2.910  -0.733   0.328  1.00  0.00    -0.324 N 
HETATM   23  C3  UNL     1      -4.296  -0.552   0.586  1.00  0.00     0.244 C 
HETATM   24  O1  UNL     1      -4.894   0.532   0.400  1.00  0.00    -0.268 OA
HETATM   25  H4  UNL     1      -2.428  -1.653   0.491  1.00  0.00     0.169 HD
BRANCH  23  26
HETATM   26  C2  UNL     1      -5.042  -1.699   1.092  1.00  0.00     0.064 C 
HETATM   27  C1  UNL     1      -6.332  -1.551   1.337  1.00  0.00     0.017 C 
ENDBRANCH  23  26
ENDBRANCH   1  22
TORSDOF 4
