REMARK  5 active torsions:
REMARK  status: ('A' for Active; 'I' for Inactive)
REMARK    1  A    between atoms: O1_2  and  C2_3 
REMARK    2  A    between atoms: C2_3  and  C3_4 
REMARK    3  A    between atoms: C4_5  and  C5_6 
REMARK    4  A    between atoms: C14_17  and  N2_18 
REMARK    5  A    between atoms: N2_18  and  C15_19 
ROOT
HETATM    1  C5  UNL     1       2.282   0.095  -1.183  1.00  0.00     0.167 C 
HETATM    2  C6  UNL     1       2.143  -0.301   0.252  1.00  0.00     0.099 C 
HETATM    3  C7  UNL     1       1.360  -1.566   0.309  1.00  0.00     0.057 C 
HETATM    4  C8  UNL     1       0.926  -2.798   0.494  1.00  0.00     0.066 C 
HETATM    5  C9  UNL     1       1.064  -4.063   0.935  1.00  0.00     0.101 C 
HETATM    6  N1  UNL     1       1.183  -5.105   1.319  1.00  0.00    -0.191 NA
HETATM    7  C10 UNL     1      -0.181  -2.910  -0.480  1.00  0.00     0.004 C 
HETATM    8  C11 UNL     1      -1.021  -2.487  -1.445  1.00  0.00     0.026 C 
HETATM    9  O2  UNL     1      -0.951  -1.178  -1.952  1.00  0.00     0.000 OA
HETATM   10  C12 UNL     1       0.034  -0.273  -1.824  1.00  0.00     0.054 C 
HETATM   11  C13 UNL     1      -0.460   0.014  -0.638  1.00  0.00     0.035 C 
HETATM   12  C14 UNL     1      -1.584  -0.413   0.282  1.00  0.00     0.148 C 
HETATM   13  C21 UNL     1      -0.922  -1.401   1.254  1.00  0.00     0.119 C 
HETATM   14  N3  UNL     1       0.099  -1.317   0.620  1.00  0.00    -0.266 NA
HETATM   15  N4  UNL     1       1.071   0.650  -1.741  1.00  0.00    -0.373 N 
HETATM   16  H19 UNL     1       0.981   1.651  -2.059  1.00  0.00     0.161 HD
ENDROOT
BRANCH   1  17
HETATM   17  C4  UNL     1       3.314   1.164  -1.298  1.00  0.00    -0.079 C 
HETATM   18  C3  UNL     1       4.144   1.997  -1.385  1.00  0.00    -0.078 C 
BRANCH  18  19
HETATM   19  C2  UNL     1       5.192   3.042  -1.514  1.00  0.00     0.260 C 
BRANCH  19  20
HETATM   20  O1  UNL     1       5.869   2.838  -2.742  1.00  0.00    -0.384 OA
HETATM   21  C1  UNL     1       4.914   2.948  -3.740  1.00  0.00     0.202 C 
ENDBRANCH  19  20
ENDBRANCH  18  19
ENDBRANCH   1  17
BRANCH  12  22
HETATM   22  N2  UNL     1      -2.263   0.628   0.956  1.00  0.00    -0.377 N 
HETATM   23  H13 UNL     1      -2.012   1.641   0.881  1.00  0.00     0.160 HD
BRANCH  22  24
HETATM   24  C15 UNL     1      -3.352   0.299   1.797  1.00  0.00     0.030 A 
HETATM   25  C16 UNL     1      -3.800  -0.984   2.030  1.00  0.00     0.029 A 
HETATM   26  C17 UNL     1      -4.872  -1.332   2.832  1.00  0.00     0.004 A 
HETATM   27  C18 UNL     1      -5.538  -0.276   3.448  1.00  0.00     0.019 A 
HETATM   28  C19 UNL     1      -5.160   1.031   3.274  1.00  0.00     0.013 A 
HETATM   29 BR1  UNL     1      -6.140   2.404   4.156  1.00  0.00    -0.051 Br
HETATM   30  C20 UNL     1      -4.083   1.255   2.454  1.00  0.00     0.048 A 
ENDBRANCH  22  24
ENDBRANCH  12  22
TORSDOF 5
