REMARK  5 active torsions:
REMARK  status: ('A' for Active; 'I' for Inactive)
REMARK    1  A    between atoms: O1_2  and  C2_3 
REMARK    2  A    between atoms: C3_4  and  C4_5 
REMARK    3  A    between atoms: C6_7  and  N1_8 
REMARK    4  A    between atoms: N1_8  and  C7_9 
REMARK    5  A    between atoms: C16_22  and  C17_23 
ROOT
HETATM    1  C4  UNL     1       1.315   0.689  -0.346  1.00  0.00    -0.019 A 
HETATM    2  C5  UNL     1       0.354   0.893   0.206  1.00  0.00     0.083 A 
HETATM    3  C6  UNL     1      -0.396   0.768   1.306  1.00  0.00     0.049 A 
HETATM    4  C13 UNL     1      -0.450   0.256   2.573  1.00  0.00     0.085 A 
HETATM    5  C14 UNL     1      -1.634   0.479   3.315  1.00  0.00     0.103 C 
HETATM    6  N2  UNL     1      -2.573   0.649   3.924  1.00  0.00    -0.191 NA
HETATM    7  C15 UNL     1       0.673  -0.420   2.968  1.00  0.00     0.136 A 
HETATM    8  N3  UNL     1       1.740  -0.568   2.174  1.00  0.00    -0.282 NA
HETATM    9  C16 UNL     1       1.586   0.061   0.853  1.00  0.00     0.111 A 
ENDROOT
BRANCH   3  10
HETATM   10  N1  UNL     1      -1.408   1.529   0.597  1.00  0.00    -0.357 N 
HETATM   11  H4  UNL     1      -1.628   2.561   0.535  1.00  0.00     0.166 HD
BRANCH  10  12
HETATM   12  C7  UNL     1      -2.316   0.730  -0.192  1.00  0.00     0.034 A 
HETATM   13  C8  UNL     1      -2.154  -0.656  -0.237  1.00  0.00     0.032 A 
HETATM   14  C9  UNL     1      -2.987  -1.476  -0.970  1.00  0.00     0.046 A 
HETATM   15  C10 UNL     1      -4.026  -0.918  -1.693  1.00  0.00     0.138 A 
HETATM   16  F1  UNL     1      -4.873  -1.660  -2.428  1.00  0.00    -0.204 F 
HETATM   17  C11 UNL     1      -4.218   0.451  -1.673  1.00  0.00     0.074 A 
HETATM   18 CL1  UNL     1      -5.506   1.250  -2.555  1.00  0.00    -0.081 Cl
HETATM   19  C12 UNL     1      -3.363   1.229  -0.928  1.00  0.00     0.056 A 
ENDBRANCH  10  12
ENDBRANCH   3  10
BRANCH   1  20
HETATM   20  C3  UNL     1       2.195   0.493  -0.830  1.00  0.00    -0.008 A 
HETATM   21  C2  UNL     1       3.160   0.268  -1.337  1.00  0.00     0.065 A 
HETATM   22  C17 UNL     1       2.934  -0.239   0.111  1.00  0.00     0.115 A 
BRANCH  21  23
HETATM   23  O1  UNL     1       4.288   0.006  -1.931  1.00  0.00    -0.359 OA
HETATM   24  C1  UNL     1       5.408  -0.699  -1.454  1.00  0.00     0.209 C 
ENDBRANCH  21  23
ENDBRANCH   1  20
TORSDOF 5
