REMARK  7 active torsions:
REMARK  status: ('A' for Active; 'I' for Inactive)
REMARK    1  A    between atoms: O1_2  and  C2_3 
REMARK    2  A    between atoms: C2_3  and  C3_4 
REMARK    3  A    between atoms: C4_5  and  C5_6 
REMARK       I    between atoms: C5_6  and  N1_8 
REMARK    4  A    between atoms: N1_8  and  C6_9 
REMARK    5  A    between atoms: C9_12  and  N2_13 
REMARK    6  A    between atoms: N2_13  and  C10_14 
REMARK    7  A    between atoms: C20_28  and  O3_29 
ROOT
HETATM    1  C6  UNL     1       0.668  -1.040  -0.285  1.00  0.00     0.070 A 
HETATM    2  C7  UNL     1      -0.671  -0.794  -0.542  1.00  0.00     0.048 A 
HETATM    3  C8  UNL     1      -1.614  -1.768  -0.249  1.00  0.00     0.027 A 
HETATM    4  C9  UNL     1      -2.959  -1.495  -0.519  1.00  0.00     0.087 A 
HETATM    5  C16 UNL     1      -3.803  -2.537  -0.186  1.00  0.00     0.186 A 
HETATM    6  C17 UNL     1      -5.207  -2.356  -0.424  1.00  0.00     0.124 C 
HETATM    7  N3  UNL     1      -6.332  -2.222  -0.603  1.00  0.00    -0.190 NA
HETATM    8  N4  UNL     1      -3.373  -3.698   0.344  1.00  0.00    -0.136 NA
HETATM    9  N5  UNL     1      -2.092  -3.915   0.583  1.00  0.00    -0.148 NA
HETATM   10  C18 UNL     1      -1.187  -2.958   0.293  1.00  0.00     0.094 A 
HETATM   11  C19 UNL     1       0.133  -3.235   0.560  1.00  0.00     0.073 A 
HETATM   12  C20 UNL     1       1.062  -2.264   0.267  1.00  0.00     0.097 A 
ENDROOT
BRANCH   4  13
HETATM   13  N2  UNL     1      -3.378  -0.278  -1.070  1.00  0.00    -0.353 N 
HETATM   14  H8  UNL     1      -3.358  -0.407  -2.103  1.00  0.00     0.166 HD
BRANCH  13  15
HETATM   15  C10 UNL     1      -3.760   0.905  -0.422  1.00  0.00     0.033 A 
HETATM   16  C11 UNL     1      -3.746   0.952   0.954  1.00  0.00     0.029 A 
HETATM   17  C12 UNL     1      -4.123   2.120   1.605  1.00  0.00     0.004 A 
HETATM   18  C13 UNL     1      -4.501   3.196   0.796  1.00  0.00     0.019 A 
HETATM   19  C14 UNL     1      -4.518   3.156  -0.588  1.00  0.00     0.013 A 
HETATM   20 BR1  UNL     1      -5.032   4.620  -1.659  1.00  0.00    -0.051 Br
HETATM   21  C15 UNL     1      -4.134   1.967  -1.218  1.00  0.00     0.048 A 
ENDBRANCH  13  15
ENDBRANCH   4  13
BRANCH   1  22
HETATM   22  N1  UNL     1       1.671  -0.092  -0.560  1.00  0.00    -0.314 N 
HETATM   23  C5  UNL     1       2.556   0.298  -1.631  1.00  0.00     0.301 C 
HETATM   24  O2  UNL     1       2.574  -0.278  -2.733  1.00  0.00    -0.258 OA
HETATM   25  H6  UNL     1       1.657   0.398   0.372  1.00  0.00     0.170 HD
BRANCH  23  26
HETATM   26  C4  UNL     1       3.425   1.417  -1.319  1.00  0.00    -0.003 C 
HETATM   27  C3  UNL     1       4.149   2.348  -1.040  1.00  0.00    -0.070 C 
BRANCH  27  28
HETATM   28  C2  UNL     1       5.033   3.456  -0.691  1.00  0.00     0.261 C 
BRANCH  28  29
HETATM   29  O1  UNL     1       6.383   3.111  -0.890  1.00  0.00    -0.384 OA
HETATM   30  C1  UNL     1       6.740   2.026  -0.112  1.00  0.00     0.202 C 
ENDBRANCH  28  29
ENDBRANCH  27  28
ENDBRANCH  23  26
ENDBRANCH   1  22
BRANCH  12  31
HETATM   31  O3  UNL     1       2.409  -2.484   0.515  1.00  0.00    -0.354 OA
HETATM   32  C21 UNL     1       2.955  -3.654   1.062  1.00  0.00     0.210 C 
ENDBRANCH  12  31
TORSDOF 7
