REMARK  6 active torsions:
REMARK  status: ('A' for Active; 'I' for Inactive)
REMARK    1  A    between atoms: O1_2  and  C2_3 
REMARK    2  A    between atoms: C6_7  and  N1_8 
REMARK    3  A    between atoms: N1_8  and  C7_9 
REMARK    4  A    between atoms: C16_21  and  N4_22 
REMARK       I    between atoms: N4_22  and  C17_23 
REMARK    5  A    between atoms: C17_23  and  C18_25 
REMARK    6  A    between atoms: C19_26  and  N5_27 
ROOT
HETATM    1  C2  UNL     1      -0.142  -0.085  -1.873  1.00  0.00     0.117 C 
HETATM    2  C3  UNL     1       1.179  -0.023  -2.038  1.00  0.00     0.046 C 
HETATM    3  C4  UNL     1       1.950  -1.250  -1.389  1.00  0.00     0.100 C 
HETATM    4  C5  UNL     1       1.868  -0.265  -0.177  1.00  0.00    -0.025 C 
HETATM    5  C6  UNL     1       2.885   0.582  -0.178  1.00  0.00     0.053 C 
HETATM    6  C13 UNL     1       3.378   1.009  -1.569  1.00  0.00     0.240 C 
HETATM    7  C14 UNL     1       4.492   0.286  -2.032  1.00  0.00     0.091 C 
HETATM    8  N2  UNL     1       5.405  -0.283  -2.402  1.00  0.00    -0.195 NA
HETATM    9  N3  UNL     1       2.170   0.922  -2.460  1.00  0.00    -0.369 N 
HETATM   10  C15 UNL     1       0.572  -0.401   0.496  1.00  0.00     0.042 C 
HETATM   11  C16 UNL     1      -0.483  -0.315  -0.401  1.00  0.00     0.071 C 
HETATM   12  H12 UNL     1       1.644   1.288  -3.335  1.00  0.00     0.161 HD
ENDROOT
BRANCH   5  13
HETATM   13  N1  UNL     1       3.042   0.757   1.261  1.00  0.00    -0.357 N 
HETATM   14  H6  UNL     1       2.356   1.322   1.779  1.00  0.00     0.166 HD
BRANCH  13  15
HETATM   15  C7  UNL     1       4.159   0.132   1.877  1.00  0.00     0.033 A 
HETATM   16  C8  UNL     1       4.183  -1.169   2.334  1.00  0.00     0.029 A 
HETATM   17  C9  UNL     1       5.321  -1.678   2.925  1.00  0.00     0.004 A 
HETATM   18  C10 UNL     1       6.420  -0.877   3.050  1.00  0.00     0.019 A 
HETATM   19  C11 UNL     1       6.433   0.414   2.609  1.00  0.00     0.013 A 
HETATM   20 BR1  UNL     1       7.962   1.560   2.775  1.00  0.00    -0.051 Br
HETATM   21  C12 UNL     1       5.293   0.941   2.011  1.00  0.00     0.048 A 
ENDBRANCH  13  15
ENDBRANCH   5  13
BRANCH   1  22
HETATM   22  O1  UNL     1      -0.679   0.096  -3.100  1.00  0.00    -0.352 OA
HETATM   23  C1  UNL     1      -1.397  -0.925  -3.744  1.00  0.00     0.210 C 
ENDBRANCH   1  22
BRANCH  11  24
HETATM   24  N4  UNL     1      -1.809  -0.408  -0.064  1.00  0.00    -0.321 N 
HETATM   25  C17 UNL     1      -2.881   0.483  -0.190  1.00  0.00     0.247 C 
HETATM   26  O2  UNL     1      -2.646   1.603  -0.705  1.00  0.00    -0.268 OA
HETATM   27  H14 UNL     1      -1.986  -1.345   0.361  1.00  0.00     0.169 HD
BRANCH  25  28
HETATM   28  C18 UNL     1      -4.209   0.124   0.258  1.00  0.00     0.091 C 
HETATM   29  C19 UNL     1      -5.238   0.947   0.154  1.00  0.00     0.090 C 
BRANCH  29  30
HETATM   30  N5  UNL     1      -6.530   0.559   0.605  1.00  0.00    -0.398 N 
HETATM   31  C20 UNL     1      -7.564   0.461  -0.403  1.00  0.00     0.148 C 
HETATM   32  C21 UNL     1      -6.727   0.290   2.037  1.00  0.00     0.148 C 
ENDBRANCH  29  30
ENDBRANCH  25  28
ENDBRANCH  11  24
TORSDOF 6
