REMARK  6 active torsions:
REMARK  status: ('A' for Active; 'I' for Inactive)
REMARK    1  A    between atoms: O1_2  and  C2_3 
REMARK    2  A    between atoms: C6_7  and  N1_8 
REMARK    3  A    between atoms: N1_8  and  C7_9 
REMARK    4  A    between atoms: C14_18  and  C15_19 
REMARK    5  A    between atoms: C15_19  and  C16_21 
REMARK    6  A    between atoms: C17_22  and  C18_23 
ROOT
HETATM    1  C2  UNL     1      -0.646   3.836  -0.225  1.00  0.00     0.091 C 
HETATM    2  C3  UNL     1      -1.525   2.994  -0.731  1.00  0.00     0.043 C 
HETATM    3  C4  UNL     1      -0.966   2.066  -1.902  1.00  0.00     0.101 C 
HETATM    4  C5  UNL     1      -0.488   1.320  -0.616  1.00  0.00    -0.014 C 
HETATM    5  C6  UNL     1      -1.431   0.543  -0.129  1.00  0.00     0.035 C 
HETATM    6  C13 UNL     1      -2.865   1.013  -0.402  1.00  0.00     0.177 C 
HETATM    7  N2  UNL     1      -2.802   2.529  -0.331  1.00  0.00    -0.385 N 
HETATM    8  C14 UNL     1       0.737   1.807  -0.022  1.00  0.00     0.025 C 
HETATM    9  C21 UNL     1       0.702   3.180   0.196  1.00  0.00     0.054 C 
HETATM   10  H13 UNL     1      -3.230   3.501  -0.110  1.00  0.00     0.159 HD
ENDROOT
BRANCH   5  11
HETATM   11  N1  UNL     1      -0.768  -0.506   0.579  1.00  0.00    -0.358 N 
HETATM   12  H6  UNL     1      -0.063  -0.478   1.329  1.00  0.00     0.166 HD
BRANCH  11  13
HETATM   13  C7  UNL     1      -1.368  -1.672   0.022  1.00  0.00     0.033 A 
HETATM   14  C8  UNL     1      -1.187  -2.489  -1.058  1.00  0.00     0.029 A 
HETATM   15  C9  UNL     1      -2.025  -3.571  -1.227  1.00  0.00     0.004 A 
HETATM   16  C10 UNL     1      -3.064  -3.876  -0.338  1.00  0.00     0.019 A 
HETATM   17  C11 UNL     1      -3.245  -3.040   0.760  1.00  0.00     0.013 A 
HETATM   18 BR1  UNL     1      -4.689  -3.562   1.905  1.00  0.00    -0.051 Br
HETATM   19  C12 UNL     1      -2.399  -1.949   0.932  1.00  0.00     0.048 A 
ENDBRANCH  11  13
ENDBRANCH   5  11
BRANCH   8  20
HETATM   20  C15 UNL     1       1.665   0.848   0.341  1.00  0.00     0.182 C 
HETATM   21  O2  UNL     1       2.351   1.739   0.965  1.00  0.00    -0.288 OA
BRANCH  20  22
HETATM   22  C16 UNL     1       2.617  -0.151   0.710  1.00  0.00     0.052 C 
HETATM   23  C17 UNL     1       2.411  -1.375   0.254  1.00  0.00    -0.019 C 
BRANCH  23  24
HETATM   24  C18 UNL     1       3.350  -2.471   0.580  1.00  0.00    -0.000 C 
HETATM   25  C19 UNL     1       3.909  -3.220  -0.582  1.00  0.00     0.013 C 
HETATM   26  C20 UNL     1       4.544  -1.965   1.421  1.00  0.00     0.013 C 
ENDBRANCH  23  24
ENDBRANCH  20  22
ENDBRANCH   8  20
BRANCH   1  27
HETATM   27  O1  UNL     1      -1.069   5.074  -0.159  1.00  0.00    -0.354 OA
HETATM   28  C1  UNL     1      -1.780   5.894   0.672  1.00  0.00     0.210 C 
ENDBRANCH   1  27
TORSDOF 6
