REMARK  4 active torsions:
REMARK  status: ('A' for Active; 'I' for Inactive)
REMARK    1  A    between atoms: C7_7  and  N1_8 
REMARK       I    between atoms: N1_8  and  C8_9 
REMARK    2  A    between atoms: C9_11  and  C10_12 
REMARK    3  A    between atoms: C10_12  and  C11_13 
REMARK    4  A    between atoms: C11_13  and  N2_14 
ROOT
HETATM    1  C1  UNL     1       0.878   4.401   1.737  1.00  0.00     0.050 C 
HETATM    2  C2  UNL     1       1.551   3.128   1.435  1.00  0.00    -0.033 A 
HETATM    3  C3  UNL     1       2.352   2.778   2.546  1.00  0.00     0.041 A 
HETATM    4  C4  UNL     1       3.099   1.602   2.488  1.00  0.00     0.062 A 
HETATM    5  C5  UNL     1       3.049   0.767   1.316  1.00  0.00     0.003 A 
HETATM    6  C6  UNL     1       2.259   1.150   0.260  1.00  0.00     0.044 A 
HETATM    7  C7  UNL     1       1.562   2.324   0.415  1.00  0.00     0.041 A 
HETATM    8  C16 UNL     1       3.781  -0.305   1.366  1.00  0.00    -0.015 A 
HETATM    9  C17 UNL     1       4.143  -1.437   0.618  1.00  0.00    -0.025 A 
HETATM   10  C18 UNL     1       4.047  -2.726   1.215  1.00  0.00     0.015 A 
HETATM   11  C19 UNL     1       4.357  -4.016   0.727  1.00  0.00     0.045 A 
HETATM   12  C20 UNL     1       4.830  -3.838  -0.589  1.00  0.00     0.138 A 
HETATM   13  F1  UNL     1       5.167  -5.056  -1.122  1.00  0.00    -0.204 F 
HETATM   14  C21 UNL     1       4.987  -2.704  -1.312  1.00  0.00     0.073 A 
HETATM   15 CL1  UNL     1       5.608  -2.831  -2.930  1.00  0.00    -0.081 Cl
HETATM   16  C22 UNL     1       4.629  -1.594  -0.647  1.00  0.00     0.039 A 
HETATM   17  C23 UNL     1       4.432  -0.246   2.729  1.00  0.00     0.189 A 
HETATM   18  N3  UNL     1       3.898   0.953   3.285  1.00  0.00    -0.284 NA
ENDROOT
BRANCH   7  19
HETATM   19  N1  UNL     1       0.809   2.665  -0.732  1.00  0.00    -0.334 N 
HETATM   20  C8  UNL     1      -0.301   1.919  -1.016  1.00  0.00     0.179 C 
HETATM   21  O1  UNL     1      -0.124   1.138   0.048  1.00  0.00    -0.172 OA
HETATM   22  C9  UNL     1      -1.499   1.254  -1.481  1.00  0.00     0.056 C 
HETATM   23  H6  UNL     1       0.528   3.197  -1.614  1.00  0.00     0.168 HD
BRANCH  22  24
HETATM   24  C10 UNL     1      -2.237   0.263  -1.091  1.00  0.00     0.007 C 
BRANCH  24  25
HETATM   25  C11 UNL     1      -3.099  -0.822  -0.721  1.00  0.00     0.300 C 
BRANCH  25  26
HETATM   26  N2  UNL     1      -4.139  -0.886  -1.781  1.00  0.00     0.096 N 
HETATM   27  C12 UNL     1      -5.042  -1.958  -1.629  1.00  0.00     0.299 C 
HETATM   28  C13 UNL     1      -6.249  -1.715  -0.784  1.00  0.00     0.198 C 
HETATM   29  O2  UNL     1      -6.297  -0.421  -0.288  1.00  0.00    -0.388 OA
HETATM   30  C14 UNL     1      -6.116   0.487  -1.349  1.00  0.00     0.198 C 
HETATM   31  C15 UNL     1      -4.739   0.383  -1.965  1.00  0.00     0.299 C 
ENDBRANCH  25  26
ENDBRANCH  24  25
ENDBRANCH  22  24
ENDBRANCH   7  19
TORSDOF 4
