REMARK  6 active torsions:
REMARK  status: ('A' for Active; 'I' for Inactive)
REMARK    1  A    between atoms: N1_7  and  C7_8 
REMARK    2  A    between atoms: C13_16  and  O1_17 
REMARK    3  A    between atoms: C15_19  and  N4_20 
REMARK       I    between atoms: N4_20  and  C16_21 
REMARK    4  A    between atoms: C16_21  and  C17_23 
REMARK    5  A    between atoms: C18_24  and  C19_25 
REMARK    6  A    between atoms: C19_25  and  N5_26 
ROOT
HETATM    1  C7  UNL     1      -3.628   0.111   0.660  1.00  0.00     0.073 A 
HETATM    2  C8  UNL     1      -4.947   0.533   0.778  1.00  0.00     0.090 A 
HETATM    3  C9  UNL     1      -6.058  -0.399   0.684  1.00  0.00     0.103 C 
HETATM    4  N2  UNL     1      -6.956  -1.133   0.600  1.00  0.00    -0.191 NA
HETATM    5  C10 UNL     1      -5.212   1.885   0.992  1.00  0.00     0.142 A 
HETATM    6  N3  UNL     1      -4.166   2.754   1.079  1.00  0.00    -0.259 NA
HETATM    7  C11 UNL     1      -2.892   2.333   0.963  1.00  0.00     0.071 A 
HETATM    8  C12 UNL     1      -1.851   3.232   1.058  1.00  0.00     0.071 A 
HETATM    9  C13 UNL     1      -0.536   2.803   0.943  1.00  0.00     0.097 A 
HETATM   10  C15 UNL     1      -0.276   1.455   0.730  1.00  0.00     0.069 A 
HETATM   11  C22 UNL     1      -1.294   0.520   0.628  1.00  0.00     0.048 A 
HETATM   12  C23 UNL     1      -2.580   1.005   0.751  1.00  0.00     0.024 A 
ENDROOT
BRANCH   1  13
HETATM   13  N1  UNL     1      -3.472  -1.298   0.441  1.00  0.00    -0.324 N 
HETATM   14  C2  UNL     1      -3.485  -1.829  -0.902  1.00  0.00     0.017 A 
HETATM   15  C1  UNL     1      -3.651  -0.926  -1.869  1.00  0.00     0.063 C 
HETATM   16  C3  UNL     1      -3.331  -3.251  -1.186  1.00  0.00     0.025 A 
HETATM   17  C4  UNL     1      -3.172  -4.106  -0.187  1.00  0.00     0.003 A 
HETATM   18  C5  UNL     1      -3.160  -3.555   1.175  1.00  0.00     0.018 A 
HETATM   19  C6  UNL     1      -3.298  -2.267   1.474  1.00  0.00     0.097 A 
ENDBRANCH   1  13
BRANCH  10  20
HETATM   20  N4  UNL     1       1.087   1.075   0.626  1.00  0.00    -0.321 N 
HETATM   21  C16 UNL     1       2.078   0.927  -0.347  1.00  0.00     0.245 C 
HETATM   22  O2  UNL     1       1.907   1.152  -1.553  1.00  0.00    -0.268 OA
HETATM   23  H12 UNL     1       1.250   0.877   1.657  1.00  0.00     0.169 HD
BRANCH  21  24
HETATM   24  C17 UNL     1       3.370   0.479   0.154  1.00  0.00     0.072 C 
HETATM   25  C18 UNL     1       4.364   0.312  -0.682  1.00  0.00     0.008 C 
BRANCH  25  26
HETATM   26  C19 UNL     1       5.726  -0.139  -0.297  1.00  0.00     0.299 C 
BRANCH  26  27
HETATM   27  N5  UNL     1       6.133  -1.360  -0.933  1.00  0.00     0.083 N 
HETATM   28  C20 UNL     1       5.385  -2.496  -0.491  1.00  0.00     0.309 C 
HETATM   29  C21 UNL     1       6.323  -1.263  -2.345  1.00  0.00     0.309 C 
ENDBRANCH  26  27
ENDBRANCH  25  26
ENDBRANCH  21  24
ENDBRANCH  10  20
BRANCH   9  30
HETATM   30  O1  UNL     1       0.489   3.733   1.043  1.00  0.00    -0.354 OA
HETATM   31  C14 UNL     1       0.182   5.120   1.264  1.00  0.00     0.210 C 
ENDBRANCH   9  30
TORSDOF 6
