REMARK  7 active torsions:
REMARK  status: ('A' for Active; 'I' for Inactive)
REMARK    1  A    between atoms: C1_2  and  C2_3 
REMARK       I    between atoms: C1_2  and  N2_12 
REMARK    2  A    between atoms: C3_4  and  C4_5 
REMARK    3  A    between atoms: C4_5  and  N1_6 
REMARK    4  A    between atoms: N2_12  and  C9_13 
REMARK    5  A    between atoms: C9_13  and  C10_14 
REMARK    6  A    between atoms: C11_15  and  C12_16 
REMARK    7  A    between atoms: C13_17  and  N3_18 
ROOT
HETATM    1  O1  UNL     1      -2.091  -0.471   0.718  1.00  0.00    -0.269 OA
HETATM    2  C1  UNL     1      -1.797  -0.808  -0.457  1.00  0.00     0.241 C 
HETATM    3  N2  UNL     1      -0.444  -0.475  -0.706  1.00  0.00    -0.354 N 
HETATM    4  H13 UNL     1       0.018  -0.674  -1.644  1.00  0.00     0.163 HD
ENDROOT
BRANCH   3   5
HETATM    5  C9  UNL     1       0.207   0.147   0.440  1.00  0.00     0.150 C 
BRANCH   5   6
HETATM    6  C10 UNL     1       1.608   0.438   0.037  1.00  0.00    -0.007 C 
HETATM    7  C11 UNL     1       2.661  -0.070   0.658  1.00  0.00    -0.001 C 
BRANCH   7   8
HETATM    8  C12 UNL     1       4.070   0.165   0.326  1.00  0.00     0.017 C 
HETATM    9  C13 UNL     1       5.071  -0.382   0.997  1.00  0.00     0.096 C 
BRANCH   9  10
HETATM   10  N3  UNL     1       6.395  -0.048   0.542  1.00  0.00    -0.342 N 
HETATM   11  C14 UNL     1       7.240  -0.825  -0.304  1.00  0.00     0.092 A 
HETATM   12  C15 UNL     1       8.422  -0.378  -0.627  1.00  0.00    -0.004 A 
HETATM   13  C16 UNL     1       8.967   0.925  -0.160  1.00  0.00     0.081 A 
HETATM   14  C17 UNL     1       8.041   1.664   0.703  1.00  0.00     0.031 A 
HETATM   15 CL1  UNL     1       8.656   3.195   1.264  1.00  0.00    -0.087 Cl
HETATM   16  C18 UNL     1       6.854   1.214   1.027  1.00  0.00     0.115 A 
ENDBRANCH   9  10
ENDBRANCH   7   8
ENDBRANCH   5   6
ENDBRANCH   3   5
BRANCH   2  17
HETATM   17  C2  UNL     1      -2.631  -1.438  -1.466  1.00  0.00     0.072 C 
HETATM   18  C3  UNL     1      -3.887  -1.772  -1.304  1.00  0.00     0.008 C 
BRANCH  18  19
HETATM   19  C4  UNL     1      -4.792  -1.630  -0.140  1.00  0.00     0.300 C 
BRANCH  19  20
HETATM   20  N1  UNL     1      -5.934  -0.809  -0.499  1.00  0.00     0.096 N 
HETATM   21  C5  UNL     1      -6.850  -0.641   0.611  1.00  0.00     0.299 C 
HETATM   22  C6  UNL     1      -6.773   0.734   1.230  1.00  0.00     0.198 C 
HETATM   23  O2  UNL     1      -7.118   1.730   0.314  1.00  0.00    -0.388 OA
HETATM   24  C7  UNL     1      -6.760   1.374  -0.978  1.00  0.00     0.198 C 
HETATM   25  C8  UNL     1      -5.555   0.466  -1.031  1.00  0.00     0.299 C 
ENDBRANCH  19  20
ENDBRANCH  18  19
ENDBRANCH   2  17
TORSDOF 7
