REMARK  8 active torsions:
REMARK  status: ('A' for Active; 'I' for Inactive)
REMARK    1  A    between atoms: O1_2  and  C2_3 
REMARK    2  A    between atoms: C6_9  and  N3_10 
REMARK    3  A    between atoms: N3_10  and  C7_11 
REMARK    4  A    between atoms: C7_11  and  C8_12 
REMARK    5  A    between atoms: C12_17  and  N4_18 
REMARK       I    between atoms: N4_18  and  C13_19 
REMARK    6  A    between atoms: C13_19  and  C14_21 
REMARK    7  A    between atoms: C15_22  and  C16_23 
REMARK    8  A    between atoms: C16_23  and  N5_24 
ROOT
HETATM    1  C2  UNL     1      -0.698  -2.725   0.654  1.00  0.00     0.097 A 
HETATM    2  C3  UNL     1      -1.989  -3.205   0.676  1.00  0.00     0.071 A 
HETATM    3  C4  UNL     1      -3.058  -2.363   0.447  1.00  0.00     0.075 A 
HETATM    4  N1  UNL     1      -4.330  -2.857   0.473  1.00  0.00    -0.241 NA
HETATM    5  C5  UNL     1      -5.361  -1.999   0.243  1.00  0.00     0.235 A 
HETATM    6  N2  UNL     1      -5.144  -0.696  -0.005  1.00  0.00    -0.224 NA
HETATM    7  C6  UNL     1      -3.929  -0.127  -0.049  1.00  0.00     0.137 A 
HETATM    8  C10 UNL     1      -2.909  -1.018   0.187  1.00  0.00     0.041 A 
HETATM    9  C11 UNL     1      -1.604  -0.576   0.173  1.00  0.00     0.050 A 
HETATM   10  C12 UNL     1      -0.511  -1.386   0.397  1.00  0.00     0.069 A 
ENDROOT
BRANCH  10  11
HETATM   11  N4  UNL     1       0.835  -0.876   0.372  1.00  0.00    -0.321 N 
HETATM   12  C13 UNL     1       1.419  -0.939  -0.923  1.00  0.00     0.245 C 
HETATM   13  O2  UNL     1       0.788  -1.400  -1.909  1.00  0.00    -0.268 OA
HETATM   14  H12 UNL     1       1.316  -0.504   1.214  1.00  0.00     0.169 HD
BRANCH  12  15
HETATM   15  C14 UNL     1       2.774  -0.465  -1.126  1.00  0.00     0.072 C 
HETATM   16  C15 UNL     1       3.509   0.034  -0.149  1.00  0.00     0.008 C 
BRANCH  16  17
HETATM   17  C16 UNL     1       4.916   0.532  -0.334  1.00  0.00     0.299 C 
BRANCH  17  18
HETATM   18  N5  UNL     1       5.064   1.921   0.009  1.00  0.00     0.083 N 
HETATM   19  C17 UNL     1       6.445   2.305  -0.201  1.00  0.00     0.309 C 
HETATM   20  C18 UNL     1       4.724   2.254   1.359  1.00  0.00     0.309 C 
ENDBRANCH  17  18
ENDBRANCH  16  17
ENDBRANCH  12  15
ENDBRANCH  10  11
BRANCH   1  21
HETATM   21  O1  UNL     1       0.408  -3.534   0.879  1.00  0.00    -0.354 OA
HETATM   22  C1  UNL     1       0.168  -4.905   1.139  1.00  0.00     0.210 C 
ENDBRANCH   1  21
BRANCH   7  23
HETATM   23  N3  UNL     1      -3.743   1.258  -0.315  1.00  0.00    -0.370 N 
HETATM   24  H6  UNL     1      -2.818   1.728  -0.356  1.00  0.00     0.161 HD
BRANCH  23  25
HETATM   25  C7  UNL     1      -4.946   2.029  -0.538  1.00  0.00     0.150 C 
BRANCH  25  26
HETATM   26  C8  UNL     1      -4.545   3.437  -0.795  1.00  0.00     0.022 C 
HETATM   27  C9  UNL     1      -4.548   4.472  -1.630  1.00  0.00     0.186 C 
HETATM   28  F1  UNL     1      -4.085   5.738  -1.639  1.00  0.00    -0.220 F 
ENDBRANCH  25  26
ENDBRANCH  23  25
ENDBRANCH   7  23
TORSDOF 8
