REMARK  7 active torsions:
REMARK  status: ('A' for Active; 'I' for Inactive)
REMARK    1  A    between atoms: C2_2  and  O1_3 
REMARK    2  A    between atoms: O1_3  and  C3_4 
REMARK    3  A    between atoms: C3_4  and  C4_5 
REMARK    4  A    between atoms: C4_5  and  C5_6 
REMARK    5  A    between atoms: C10_13  and  O3_14 
REMARK    6  A    between atoms: C15_20  and  S1_23 
REMARK    7  A    between atoms: S1_23  and  C17_24 
ROOT
HETATM    1  C5  UNL     1      -0.946   1.539  -0.404  1.00  0.00     0.042 C 
HETATM    2  C6  UNL     1      -1.638   1.392  -1.702  1.00  0.00    -0.012 C 
HETATM    3  C7  UNL     1      -2.607   0.524  -1.957  1.00  0.00     0.071 C 
HETATM    4  C8  UNL     1      -2.877  -0.250  -0.776  1.00  0.00     0.241 C 
HETATM    5  O2  UNL     1      -3.582  -1.237  -1.056  1.00  0.00    -0.269 OA
HETATM    6  N1  UNL     1      -2.948  -0.763   0.527  1.00  0.00    -0.351 N 
HETATM    7  C9  UNL     1      -3.523  -2.066   0.816  1.00  0.00     0.187 C 
HETATM    8  C10 UNL     1      -2.413  -2.950   0.146  1.00  0.00     0.065 C 
HETATM    9  C12 UNL     1      -1.239  -2.749  -0.497  1.00  0.00     0.065 C 
HETATM   10  C13 UNL     1      -0.435  -1.614  -0.883  1.00  0.00     0.053 C 
HETATM   11  N2  UNL     1       0.231  -1.286  -1.898  1.00  0.00    -0.287 NA
HETATM   12  C14 UNL     1       1.650  -0.835  -1.751  1.00  0.00     0.190 C 
HETATM   13  C15 UNL     1       1.740   0.239  -0.647  1.00  0.00     0.143 C 
HETATM   14  C16 UNL     1       2.800   1.172  -1.047  1.00  0.00     0.087 C 
HETATM   15  N3  UNL     1       3.634   1.890  -1.351  1.00  0.00    -0.195 NA
HETATM   16  C24 UNL     1       0.434   0.931  -0.530  1.00  0.00    -0.035 C 
HETATM   17  C25 UNL     1      -0.126  -0.295  -0.412  1.00  0.00     0.037 C 
HETATM   18  H13 UNL     1      -2.655  -0.348   1.423  1.00  0.00     0.163 HD
ENDROOT
BRANCH  13  19
HETATM   19  S1  UNL     1       2.110  -0.574   0.910  1.00  0.00    -0.098 SA
BRANCH  19  20
HETATM   20  C17 UNL     1       3.714  -1.316   0.940  1.00  0.00     0.003 A 
HETATM   21  C18 UNL     1       3.939  -2.618   0.547  1.00  0.00     0.021 A 
HETATM   22  C19 UNL     1       5.169  -3.223   0.558  1.00  0.00     0.044 A 
HETATM   23  C20 UNL     1       6.246  -2.471   0.994  1.00  0.00     0.122 A 
HETATM   24  F1  UNL     1       7.467  -3.070   1.005  1.00  0.00    -0.206 F 
HETATM   25  C21 UNL     1       6.045  -1.168   1.392  1.00  0.00    -0.022 A 
HETATM   26  C22 UNL     1       7.225  -0.383   1.856  1.00  0.00     0.051 C 
HETATM   27  C23 UNL     1       4.809  -0.585   1.372  1.00  0.00     0.028 A 
ENDBRANCH  19  20
ENDBRANCH  13  19
BRANCH   1  28
HETATM   28  C4  UNL     1      -0.690   3.055  -0.244  1.00  0.00     0.039 C 
BRANCH  28  29
HETATM   29  C3  UNL     1      -1.988   3.808  -0.254  1.00  0.00     0.168 C 
BRANCH  29  30
HETATM   30  O1  UNL     1      -2.799   3.396   0.777  1.00  0.00    -0.391 OA
BRANCH  30  31
HETATM   31  C2  UNL     1      -4.018   4.067   0.805  1.00  0.00     0.163 C 
HETATM   32  C1  UNL     1      -3.857   5.554   0.968  1.00  0.00     0.033 C 
ENDBRANCH  30  31
ENDBRANCH  29  30
ENDBRANCH  28  29
ENDBRANCH   1  28
BRANCH   8  33
HETATM   33  O3  UNL     1      -2.853  -4.250   0.316  1.00  0.00    -0.358 OA
HETATM   34  C11 UNL     1      -3.678  -4.764  -0.731  1.00  0.00     0.209 C 
ENDBRANCH   8  33
TORSDOF 7
