REMARK  7 active torsions:
REMARK  status: ('A' for Active; 'I' for Inactive)
REMARK    1  A    between atoms: O1_2  and  C2_3 
REMARK    2  A    between atoms: C8_11  and  C9_12 
REMARK    3  A    between atoms: C12_16  and  B1_17 
REMARK    4  A    between atoms: C16_22  and  N3_23 
REMARK       I    between atoms: N3_23  and  C17_24 
REMARK    5  A    between atoms: C17_24  and  C18_26 
REMARK    6  A    between atoms: C19_27  and  C20_28 
REMARK    7  A    between atoms: C20_28  and  N4_29 
ROOT
HETATM    1  C2  UNL     1      -0.234  -2.943   0.014  1.00  0.00     0.097 A 
HETATM    2  C3  UNL     1      -1.532  -3.382   0.016  1.00  0.00     0.071 A 
HETATM    3  C4  UNL     1      -2.599  -2.514   0.093  1.00  0.00     0.070 A 
HETATM    4  N1  UNL     1      -3.817  -3.037   0.083  1.00  0.00    -0.259 NA
HETATM    5  C5  UNL     1      -4.864  -2.227   0.152  1.00  0.00     0.140 A 
HETATM    6  C6  UNL     1      -4.689  -0.841   0.235  1.00  0.00     0.070 A 
HETATM    7  C7  UNL     1      -5.896  -0.102   0.297  1.00  0.00     0.101 C 
HETATM    8  N2  UNL     1      -6.885   0.506   0.328  1.00  0.00    -0.191 NA
HETATM    9  C8  UNL     1      -3.468  -0.211   0.252  1.00  0.00    -0.012 A 
HETATM   10  C14 UNL     1      -2.429  -1.148   0.174  1.00  0.00     0.004 A 
HETATM   11  C15 UNL     1      -1.123  -0.720   0.172  1.00  0.00     0.046 A 
HETATM   12  C16 UNL     1      -0.027  -1.566   0.095  1.00  0.00     0.069 A 
ENDROOT
BRANCH   9  13
HETATM   13  C9  UNL     1      -3.267   1.228   0.337  1.00  0.00     0.069 A 
HETATM   14  C10 UNL     1      -4.153   1.887   1.358  1.00  0.00     0.028 A 
HETATM   15  C11 UNL     1      -4.829   2.881   0.753  1.00  0.00     0.110 A 
HETATM   16  F1  UNL     1      -5.657   3.528   1.629  1.00  0.00    -0.207 F 
HETATM   17  C12 UNL     1      -4.463   2.939  -0.655  1.00  0.00    -0.047 A 
HETATM   18  C13 UNL     1      -3.584   2.000  -0.880  1.00  0.00    -0.014 A 
BRANCH  17  19
HETATM   19  B1  UNL     1      -5.217   4.069  -1.421  1.00  0.00     0.306 B 
HETATM   20 CL1  UNL     1      -4.768   5.817  -0.962  1.00  0.00    -0.210 Cl
HETATM   21  H8  UNL     1      -6.279   3.925  -1.920  1.00  0.00    -0.002 HD
ENDBRANCH  17  19
ENDBRANCH   9  13
BRANCH  12  22
HETATM   22  N3  UNL     1       1.325  -1.094   0.095  1.00  0.00    -0.321 N 
HETATM   23  C17 UNL     1       2.094  -0.913   1.271  1.00  0.00     0.245 C 
HETATM   24  O2  UNL     1       1.590  -1.172   2.375  1.00  0.00    -0.268 OA
HETATM   25  H11 UNL     1       1.745  -0.876  -0.849  1.00  0.00     0.169 HD
BRANCH  23  26
HETATM   26  C18 UNL     1       3.464  -0.431   1.225  1.00  0.00     0.072 C 
HETATM   27  C19 UNL     1       4.179  -0.104   0.182  1.00  0.00     0.008 C 
BRANCH  27  28
HETATM   28  C20 UNL     1       5.574   0.392   0.062  1.00  0.00     0.299 C 
BRANCH  28  29
HETATM   29  N4  UNL     1       5.543   1.686  -0.569  1.00  0.00     0.083 N 
HETATM   30  C21 UNL     1       4.942   2.684   0.279  1.00  0.00     0.309 C 
HETATM   31  C22 UNL     1       6.905   2.101  -0.853  1.00  0.00     0.309 C 
ENDBRANCH  28  29
ENDBRANCH  27  28
ENDBRANCH  23  26
ENDBRANCH  12  22
BRANCH   1  32
HETATM   32  O1  UNL     1       0.884  -3.758  -0.060  1.00  0.00    -0.354 OA
HETATM   33  C1  UNL     1       0.859  -5.146  -0.146  1.00  0.00     0.210 C 
ENDBRANCH   1  32
TORSDOF 7
