REMARK  5 active torsions:
REMARK  status: ('A' for Active; 'I' for Inactive)
REMARK    1  A    between atoms: C3_3  and  C4_4 
REMARK       I    between atoms: C4_4  and  N1_6 
REMARK    2  A    between atoms: N1_6  and  C5_7 
REMARK    3  A    between atoms: C5_7  and  C6_8 
REMARK    4  A    between atoms: C7_9  and  C8_10 
REMARK    5  A    between atoms: C12_15  and  C13_16 
ROOT
HETATM    1  C8  UNL     1      -1.009  -0.627  -0.822  1.00  0.00     0.067 A 
HETATM    2  N2  UNL     1      -0.289  -1.620  -1.361  1.00  0.00    -0.260 NA
HETATM    3  C9  UNL     1      -0.715  -2.859  -1.603  1.00  0.00     0.117 A 
HETATM    4  C10 UNL     1      -1.986  -3.241  -1.307  1.00  0.00     0.020 A 
HETATM    5  C11 UNL     1      -2.789  -2.255  -0.743  1.00  0.00     0.016 A 
HETATM    6  C12 UNL     1      -2.303  -0.983  -0.511  1.00  0.00     0.003 A 
ENDROOT
BRANCH   1   7
HETATM    7  C7  UNL     1      -0.545   0.723  -0.545  1.00  0.00     0.030 C 
HETATM    8  C6  UNL     1       0.663   1.194  -0.807  1.00  0.00    -0.005 C 
BRANCH   8   9
HETATM    9  C5  UNL     1       1.869   0.601  -1.413  1.00  0.00     0.150 C 
BRANCH   9  10
HETATM   10  N1  UNL     1       3.031   0.597  -0.543  1.00  0.00    -0.354 N 
HETATM   11  C4  UNL     1       3.733   1.709   0.053  1.00  0.00     0.241 C 
HETATM   12  O1  UNL     1       3.109   2.753  -0.351  1.00  0.00    -0.269 OA
HETATM   13  H6  UNL     1       3.443  -0.356  -0.296  1.00  0.00     0.163 HD
BRANCH  11  14
HETATM   14  C3  UNL     1       4.891   1.497   0.912  1.00  0.00     0.070 C 
HETATM   15  C2  UNL     1       5.682   0.580   1.449  1.00  0.00    -0.026 C 
HETATM   16  C1  UNL     1       5.848  -0.867   1.485  1.00  0.00     0.036 C 
ENDBRANCH  11  14
ENDBRANCH   9  10
ENDBRANCH   8   9
ENDBRANCH   1   7
BRANCH   6  17
HETATM   17  C13 UNL     1      -3.283  -0.098   0.045  1.00  0.00    -0.022 A 
HETATM   18  C14 UNL     1      -3.937  -0.543   1.200  1.00  0.00     0.015 A 
HETATM   19  C15 UNL     1      -4.917   0.170   1.861  1.00  0.00     0.045 A 
HETATM   20  C16 UNL     1      -5.286   1.403   1.365  1.00  0.00     0.138 A 
HETATM   21  F1  UNL     1      -6.239   2.159   1.961  1.00  0.00    -0.204 F 
HETATM   22  C17 UNL     1      -4.670   1.875   0.236  1.00  0.00     0.073 A 
HETATM   23 CL1  UNL     1      -5.126   3.437  -0.406  1.00  0.00    -0.081 Cl
HETATM   24  C18 UNL     1      -3.707   1.141  -0.389  1.00  0.00     0.039 A 
ENDBRANCH   6  17
TORSDOF 5
