REMARK  6 active torsions:
REMARK  status: ('A' for Active; 'I' for Inactive)
REMARK    1  A    between atoms: O1_2  and  C2_3 
REMARK    2  A    between atoms: C8_11  and  N3_12 
REMARK    3  A    between atoms: N3_12  and  C9_13 
REMARK       I    between atoms: N4_24  and  C18_25 
REMARK    4  A    between atoms: C18_25  and  C19_27 
REMARK    5  A    between atoms: C20_28  and  C21_29 
REMARK    6  A    between atoms: C21_29  and  N5_30 
ROOT
HETATM    1  C2  UNL     1       0.612  -0.957   1.117  1.00  0.00     0.153 C 
HETATM    2  C3  UNL     1      -0.267  -1.941   1.209  1.00  0.00     0.089 C 
HETATM    3  C4  UNL     1      -1.531  -2.047   0.504  1.00  0.00     0.073 A 
HETATM    4  N1  UNL     1      -2.045  -3.305   0.458  1.00  0.00    -0.259 NA
HETATM    5  C5  UNL     1      -3.229  -3.528  -0.176  1.00  0.00     0.142 A 
HETATM    6  C6  UNL     1      -3.871  -2.454  -0.756  1.00  0.00     0.089 A 
HETATM    7  C7  UNL     1      -5.120  -2.732  -1.416  1.00  0.00     0.103 C 
HETATM    8  N2  UNL     1      -6.118  -2.962  -1.942  1.00  0.00    -0.191 NA
HETATM    9  C8  UNL     1      -3.408  -1.156  -0.747  1.00  0.00     0.067 A 
HETATM   10  C15 UNL     1      -2.210  -0.987  -0.095  1.00  0.00     0.022 A 
HETATM   11  C16 UNL     1      -1.827   0.436  -0.165  1.00  0.00     0.034 C 
HETATM   12  C17 UNL     1      -0.584   0.954   0.033  1.00  0.00     0.103 C 
HETATM   13  N4  UNL     1       0.627   0.248   0.354  1.00  0.00    -0.270 N 
HETATM   14  C18 UNL     1       1.766   0.882  -0.141  1.00  0.00     0.253 C 
HETATM   15  O2  UNL     1       1.531   1.986  -0.720  1.00  0.00    -0.268 OA
ENDROOT
BRANCH   9  16
HETATM   16  N3  UNL     1      -4.075  -0.066  -1.346  1.00  0.00    -0.354 N 
HETATM   17  H6  UNL     1      -3.667  -0.051  -2.295  1.00  0.00     0.166 HD
BRANCH  16  18
HETATM   18  C9  UNL     1      -5.053   0.821  -0.852  1.00  0.00     0.034 A 
HETATM   19  C10 UNL     1      -5.473   1.799  -1.727  1.00  0.00     0.032 A 
HETATM   20  C11 UNL     1      -6.440   2.688  -1.272  1.00  0.00     0.046 A 
HETATM   21  C12 UNL     1      -6.924   2.547   0.020  1.00  0.00     0.138 A 
HETATM   22  F1  UNL     1      -7.858   3.423   0.430  1.00  0.00    -0.204 F 
HETATM   23  C13 UNL     1      -6.485   1.557   0.875  1.00  0.00     0.074 A 
HETATM   24 CL1  UNL     1      -7.148   1.442   2.499  1.00  0.00    -0.081 Cl
HETATM   25  C14 UNL     1      -5.517   0.662   0.428  1.00  0.00     0.056 A 
ENDBRANCH  16  18
ENDBRANCH   9  16
BRANCH   1  26
HETATM   26  O1  UNL     1       1.756  -1.081   1.897  1.00  0.00    -0.340 OA
HETATM   27  C1  UNL     1       2.364  -2.323   2.201  1.00  0.00     0.211 C 
ENDBRANCH   1  26
BRANCH  14  28
HETATM   28  C19 UNL     1       3.180   0.936  -0.353  1.00  0.00     0.073 C 
HETATM   29  C20 UNL     1       4.240   0.215  -0.107  1.00  0.00     0.008 C 
BRANCH  29  30
HETATM   30  C21 UNL     1       5.656  -0.158  -0.092  1.00  0.00     0.299 C 
BRANCH  30  31
HETATM   31  N5  UNL     1       6.377   0.918  -0.758  1.00  0.00     0.083 N 
HETATM   32  C22 UNL     1       6.348   2.127   0.020  1.00  0.00     0.309 C 
HETATM   33  C23 UNL     1       7.719   0.522  -1.121  1.00  0.00     0.309 C 
ENDBRANCH  30  31
ENDBRANCH  29  30
ENDBRANCH  14  28
TORSDOF 6
