REMARK  8 active torsions:
REMARK  status: ('A' for Active; 'I' for Inactive)
REMARK    1  A    between atoms: C2_2  and  O1_3 
REMARK    2  A    between atoms: O1_3  and  C3_4 
REMARK    3  A    between atoms: C3_4  and  N1_5 
REMARK       I    between atoms: N1_5  and  C4_6 
REMARK    4  A    between atoms: N1_5  and  C8_12 
REMARK    5  A    between atoms: C4_6  and  C5_8 
REMARK    6  A    between atoms: C5_8  and  N2_9 
REMARK    7  A    between atoms: C11_16  and  N4_17 
REMARK    8  A    between atoms: C13_19  and  C14_20 
ROOT
HETATM    1  C8  UNL     1       0.710   0.079  -1.582  1.00  0.00     0.070 A 
HETATM    2  C9  UNL     1       0.809   0.148  -2.973  1.00  0.00     0.147 A 
HETATM    3  N3  UNL     1       1.977  -0.078  -3.627  1.00  0.00    -0.268 NA
HETATM    4  C10 UNL     1       3.093  -0.381  -2.906  1.00  0.00     0.146 A 
HETATM    5  C11 UNL     1       3.019  -0.454  -1.532  1.00  0.00     0.059 A 
HETATM    6  C13 UNL     1       1.844  -0.227  -0.871  1.00  0.00     0.030 A 
ENDROOT
BRANCH   1   7
HETATM    7  N1  UNL     1      -0.614   0.354  -1.145  1.00  0.00    -0.292 N 
HETATM    8  C4  UNL     1      -1.526  -0.744  -0.990  1.00  0.00     0.254 C 
HETATM    9  O2  UNL     1      -1.033  -1.881  -1.282  1.00  0.00    -0.271 OA
BRANCH   7  10
HETATM   10  C3  UNL     1      -1.073   1.697  -0.866  1.00  0.00     0.301 C 
BRANCH  10  11
HETATM   11  O1  UNL     1      -0.898   2.093   0.448  1.00  0.00    -0.372 OA
BRANCH  11  12
HETATM   12  C2  UNL     1      -1.357   3.398   0.644  1.00  0.00     0.165 C 
HETATM   13  C1  UNL     1      -1.156   3.812   2.095  1.00  0.00     0.033 C 
ENDBRANCH  11  12
ENDBRANCH  10  11
ENDBRANCH   7  10
BRANCH   8  14
HETATM   14  C5  UNL     1      -2.916  -0.499  -0.524  1.00  0.00     0.374 C 
BRANCH  14  15
HETATM   15  N2  UNL     1      -3.591  -1.767  -0.465  1.00  0.00     0.088 N 
HETATM   16  C6  UNL     1      -3.062  -2.601   0.572  1.00  0.00     0.310 C 
HETATM   17  C7  UNL     1      -5.016  -1.662  -0.505  1.00  0.00     0.310 C 
ENDBRANCH  14  15
ENDBRANCH   8  14
ENDBRANCH   1   7
BRANCH   6  18
HETATM   18  C14 UNL     1       1.679  -0.285   0.557  1.00  0.00    -0.019 A 
HETATM   19  C15 UNL     1       1.324  -1.530   1.051  1.00  0.00     0.015 A 
HETATM   20  C16 UNL     1       1.127  -1.782   2.403  1.00  0.00     0.045 A 
HETATM   21  C17 UNL     1       1.290  -0.750   3.310  1.00  0.00     0.138 A 
HETATM   22  F1  UNL     1       1.120  -0.908   4.632  1.00  0.00    -0.204 F 
HETATM   23  C18 UNL     1       1.643   0.493   2.838  1.00  0.00     0.073 A 
HETATM   24 CL1  UNL     1       1.855   1.813   3.962  1.00  0.00    -0.081 Cl
HETATM   25  C19 UNL     1       1.834   0.729   1.498  1.00  0.00     0.039 A 
ENDBRANCH   6  18
BRANCH   5  26
HETATM   26  N4  UNL     1       4.177  -0.770  -0.769  1.00  0.00    -0.392 N 
HETATM   27  C12 UNL     1       5.442  -1.014  -1.455  1.00  0.00     0.146 C 
HETATM   28  H18 UNL     1       4.154  -0.834   0.267  1.00  0.00     0.159 HD
ENDBRANCH   5  26
TORSDOF 8
