REMARK  8 active torsions:
REMARK  status: ('A' for Active; 'I' for Inactive)
REMARK    1  A    between atoms: C2_2  and  C3_3 
REMARK    2  A    between atoms: C4_4  and  C5_5 
REMARK    3  A    between atoms: C4_4  and  C10_12 
REMARK    4  A    between atoms: C5_5  and  N1_6 
REMARK       I    between atoms: C10_12  and  N2_14 
REMARK    5  A    between atoms: N2_14  and  C11_15 
REMARK    6  A    between atoms: C11_15  and  C12_16 
REMARK    7  A    between atoms: C18_24  and  N5_25 
REMARK    8  A    between atoms: N5_25  and  C19_26 
ROOT
HETATM    1  C12 UNL     1       1.403   0.741  -0.747  1.00  0.00     0.004 C 
HETATM    2  C13 UNL     1       1.984   0.120  -1.750  1.00  0.00    -0.012 A 
HETATM    3  C14 UNL     1       1.627   0.451  -3.153  1.00  0.00     0.189 A 
HETATM    4  N3  UNL     1       2.357  -0.322  -4.106  1.00  0.00    -0.295 NA
HETATM    5  C15 UNL     1       3.235  -1.217  -3.869  1.00  0.00     0.135 A 
HETATM    6  C16 UNL     1       3.591  -1.547  -2.501  1.00  0.00     0.088 A 
HETATM    7  C17 UNL     1       4.596  -2.574  -2.326  1.00  0.00     0.103 C 
HETATM    8  N4  UNL     1       5.388  -3.377  -2.169  1.00  0.00    -0.191 NA
HETATM    9  C18 UNL     1       2.986  -0.902  -1.503  1.00  0.00     0.062 A 
ENDROOT
BRANCH   9  10
HETATM   10  N5  UNL     1       3.434  -1.329  -0.247  1.00  0.00    -0.354 N 
HETATM   11  H24 UNL     1       3.006  -2.016   0.437  1.00  0.00     0.166 HD
BRANCH  10  12
HETATM   12  C19 UNL     1       4.682  -0.733   0.169  1.00  0.00     0.034 A 
HETATM   13  C20 UNL     1       5.333   0.172  -0.643  1.00  0.00     0.032 A 
HETATM   14  C21 UNL     1       6.543   0.771  -0.276  1.00  0.00     0.046 A 
HETATM   15  C22 UNL     1       7.091   0.431   0.946  1.00  0.00     0.138 A 
HETATM   16  F1  UNL     1       8.271   0.988   1.350  1.00  0.00    -0.204 F 
HETATM   17  C23 UNL     1       6.468  -0.469   1.783  1.00  0.00     0.074 A 
HETATM   18 CL1  UNL     1       7.162  -0.904   3.339  1.00  0.00    -0.081 Cl
HETATM   19  C24 UNL     1       5.276  -1.039   1.387  1.00  0.00     0.056 A 
ENDBRANCH  10  12
ENDBRANCH   9  10
BRANCH   1  20
HETATM   20  C11 UNL     1       1.372   0.809   0.707  1.00  0.00     0.150 C 
BRANCH  20  21
HETATM   21  N2  UNL     1       0.055   0.492   1.222  1.00  0.00    -0.354 N 
HETATM   22  C10 UNL     1      -1.221   1.094   1.049  1.00  0.00     0.249 C 
HETATM   23  O2  UNL     1      -1.078   2.108   0.275  1.00  0.00    -0.268 OA
HETATM   24  H17 UNL     1      -0.019  -0.356   1.865  1.00  0.00     0.163 HD
BRANCH  22  25
HETATM   25  C4  UNL     1      -2.468   0.596   1.676  1.00  0.00     0.034 C 
HETATM   26  C3  UNL     1      -2.712  -0.437   2.483  1.00  0.00    -0.013 C 
BRANCH  26  27
HETATM   27  C2  UNL     1      -2.284  -1.621   3.257  1.00  0.00     0.023 C 
HETATM   28  C1  UNL     1      -3.036  -2.865   2.783  1.00  0.00     0.009 C 
ENDBRANCH  26  27
BRANCH  25  29
HETATM   29  C5  UNL     1      -3.569   1.538   1.221  1.00  0.00     0.316 C 
BRANCH  29  30
HETATM   30  N1  UNL     1      -3.699   1.541  -0.218  1.00  0.00     0.097 N 
HETATM   31  C6  UNL     1      -4.781   2.478  -0.545  1.00  0.00     0.299 C 
HETATM   32  C7  UNL     1      -6.048   2.119   0.162  1.00  0.00     0.198 C 
HETATM   33  O1  UNL     1      -6.235   0.743   0.267  1.00  0.00    -0.388 OA
HETATM   34  C8  UNL     1      -5.587   0.044  -0.734  1.00  0.00     0.198 C 
HETATM   35  C9  UNL     1      -4.084   0.247  -0.736  1.00  0.00     0.299 C 
ENDBRANCH  29  30
ENDBRANCH  25  29
ENDBRANCH  22  25
ENDBRANCH  20  21
ENDBRANCH   1  20
TORSDOF 8
