REMARK  7 active torsions:
REMARK  status: ('A' for Active; 'I' for Inactive)
REMARK    1  A    between atoms: O1_2  and  C2_3 
REMARK    2  A    between atoms: C8_11  and  N3_12 
REMARK    3  A    between atoms: N3_12  and  C9_13 
REMARK    4  A    between atoms: C17_23  and  N4_24 
REMARK       I    between atoms: N4_24  and  C18_25 
REMARK    5  A    between atoms: C18_25  and  C19_27 
REMARK    6  A    between atoms: C20_28  and  C21_29 
REMARK    7  A    between atoms: C21_29  and  N5_30 
ROOT
HETATM    1  C2  UNL     1       0.064  -3.180   0.048  1.00  0.00     0.097 A 
HETATM    2  C3  UNL     1      -1.043  -3.931  -0.354  1.00  0.00     0.071 A 
HETATM    3  C4  UNL     1      -2.249  -3.260  -0.451  1.00  0.00     0.071 A 
HETATM    4  N1  UNL     1      -3.357  -3.888  -0.825  1.00  0.00    -0.259 NA
HETATM    5  C5  UNL     1      -4.542  -3.249  -0.925  1.00  0.00     0.142 A 
HETATM    6  C6  UNL     1      -4.699  -1.898  -0.649  1.00  0.00     0.089 A 
HETATM    7  C7  UNL     1      -5.982  -1.252  -0.769  1.00  0.00     0.103 C 
HETATM    8  N2  UNL     1      -7.014  -0.749  -0.864  1.00  0.00    -0.191 NA
HETATM    9  C8  UNL     1      -3.546  -1.208  -0.251  1.00  0.00     0.067 A 
HETATM   10  C15 UNL     1      -2.346  -1.913  -0.163  1.00  0.00     0.023 A 
HETATM   11  C16 UNL     1      -1.246  -1.180   0.233  1.00  0.00     0.048 A 
HETATM   12  C17 UNL     1      -0.028  -1.836   0.336  1.00  0.00     0.069 A 
ENDROOT
BRANCH   9  13
HETATM   13  N3  UNL     1      -3.642   0.177   0.049  1.00  0.00    -0.354 N 
HETATM   14  H6  UNL     1      -3.848   0.087   1.068  1.00  0.00     0.166 HD
BRANCH  13  15
HETATM   15  C9  UNL     1      -3.535   1.401  -0.629  1.00  0.00     0.034 A 
HETATM   16  C10 UNL     1      -3.695   2.549   0.106  1.00  0.00     0.032 A 
HETATM   17  C11 UNL     1      -3.584   3.729  -0.596  1.00  0.00     0.046 A 
HETATM   18  C12 UNL     1      -3.331   3.815  -1.940  1.00  0.00     0.138 A 
HETATM   19  F1  UNL     1      -3.226   4.980  -2.616  1.00  0.00    -0.204 F 
HETATM   20  C13 UNL     1      -3.175   2.632  -2.652  1.00  0.00     0.074 A 
HETATM   21 CL1  UNL     1      -2.852   2.677  -4.372  1.00  0.00    -0.081 Cl
HETATM   22  C14 UNL     1      -3.283   1.418  -1.964  1.00  0.00     0.056 A 
ENDBRANCH  13  15
ENDBRANCH   9  13
BRANCH  12  23
HETATM   23  N4  UNL     1       1.120  -1.066   0.747  1.00  0.00    -0.321 N 
HETATM   24  C18 UNL     1       1.750  -0.533  -0.410  1.00  0.00     0.245 C 
HETATM   25  O2  UNL     1       1.287  -0.767  -1.551  1.00  0.00    -0.268 OA
HETATM   26  H11 UNL     1       1.523  -0.858   1.686  1.00  0.00     0.169 HD
BRANCH  24  27
HETATM   27  C19 UNL     1       2.944   0.295  -0.337  1.00  0.00     0.072 C 
HETATM   28  C20 UNL     1       3.638   0.699   0.704  1.00  0.00     0.008 C 
BRANCH  28  29
HETATM   29  C21 UNL     1       4.851   1.536   0.832  1.00  0.00     0.299 C 
BRANCH  29  30
HETATM   30  N5  UNL     1       4.656   2.735   1.612  1.00  0.00     0.083 N 
HETATM   31  C22 UNL     1       4.424   2.455   3.016  1.00  0.00     0.309 C 
HETATM   32  C23 UNL     1       5.851   3.550   1.450  1.00  0.00     0.309 C 
ENDBRANCH  29  30
ENDBRANCH  28  29
ENDBRANCH  24  27
ENDBRANCH  12  23
BRANCH   1  33
HETATM   33  O1  UNL     1       1.309  -3.739   0.178  1.00  0.00    -0.354 OA
HETATM   34  C1  UNL     1       1.495  -5.106  -0.096  1.00  0.00     0.210 C 
ENDBRANCH   1  33
TORSDOF 7
