REMARK  6 active torsions:
REMARK  status: ('A' for Active; 'I' for Inactive)
REMARK    1  A    between atoms: C2_2  and  C3_3 
REMARK    2  A    between atoms: C2_2  and  C8_9 
REMARK    3  A    between atoms: C3_3  and  N1_4 
REMARK       I    between atoms: C8_9  and  N2_11 
REMARK    4  A    between atoms: N2_11  and  C9_12 
REMARK    5  A    between atoms: C16_21  and  N5_22 
REMARK    6  A    between atoms: N5_22  and  C17_23 
ROOT
HETATM    1  C9  UNL     1       0.030   1.245   0.806  1.00  0.00     0.036 A 
HETATM    2  C10 UNL     1       0.215   2.173   1.805  1.00  0.00     0.032 A 
HETATM    3  C11 UNL     1      -0.800   3.010   2.213  1.00  0.00     0.035 A 
HETATM    4  C12 UNL     1      -2.042   2.960   1.643  1.00  0.00     0.069 A 
HETATM    5  N3  UNL     1      -3.062   3.766   2.016  1.00  0.00    -0.259 NA
HETATM    6  C13 UNL     1      -4.276   3.683   1.424  1.00  0.00     0.142 A 
HETATM    7  C14 UNL     1      -4.524   2.770   0.415  1.00  0.00     0.089 A 
HETATM    8  C15 UNL     1      -5.774   2.617  -0.260  1.00  0.00     0.103 C 
HETATM    9  N4  UNL     1      -6.792   2.499  -0.789  1.00  0.00    -0.191 NA
HETATM   10  C16 UNL     1      -3.501   1.950   0.029  1.00  0.00     0.067 A 
HETATM   11  C23 UNL     1      -2.255   2.036   0.637  1.00  0.00     0.023 A 
HETATM   12  C24 UNL     1      -1.218   1.222   0.262  1.00  0.00     0.045 A 
ENDROOT
BRANCH  10  13
HETATM   13  N5  UNL     1      -3.676   0.986  -0.999  1.00  0.00    -0.354 N 
HETATM   14  H17 UNL     1      -3.490   1.164  -2.012  1.00  0.00     0.166 HD
BRANCH  13  15
HETATM   15  C17 UNL     1      -4.135  -0.327  -0.653  1.00  0.00     0.034 A 
HETATM   16  C18 UNL     1      -4.305  -1.322  -1.602  1.00  0.00     0.032 A 
HETATM   17  C19 UNL     1      -4.747  -2.595  -1.303  1.00  0.00     0.046 A 
HETATM   18  C20 UNL     1      -5.025  -2.853   0.024  1.00  0.00     0.138 A 
HETATM   19  F1  UNL     1      -5.470  -4.093   0.416  1.00  0.00    -0.204 F 
HETATM   20  C21 UNL     1      -4.879  -1.911   1.021  1.00  0.00     0.074 A 
HETATM   21 CL1  UNL     1      -5.222  -2.204   2.707  1.00  0.00    -0.081 Cl
HETATM   22  C22 UNL     1      -4.429  -0.633   0.678  1.00  0.00     0.056 A 
ENDBRANCH  13  15
ENDBRANCH  10  13
BRANCH   1  23
HETATM   23  N2  UNL     1       1.134   0.433   0.456  1.00  0.00    -0.323 N 
HETATM   24  C8  UNL     1       1.221  -0.585  -0.525  1.00  0.00     0.253 C 
HETATM   25  O1  UNL     1       0.211  -0.855  -1.218  1.00  0.00    -0.268 OA
HETATM   26  H13 UNL     1       2.048   0.539   0.946  1.00  0.00     0.169 HD
BRANCH  24  27
HETATM   27  C2  UNL     1       2.405  -1.376  -0.823  1.00  0.00     0.029 C 
HETATM   28  C1  UNL     1       1.883  -2.134  -1.803  1.00  0.00     0.026 C 
BRANCH  27  29
HETATM   29  C3  UNL     1       3.611  -1.079  -0.027  1.00  0.00     0.315 C 
BRANCH  29  30
HETATM   30  N1  UNL     1       4.759  -1.875  -0.355  1.00  0.00     0.092 N 
HETATM   31  C4  UNL     1       5.290  -1.580  -1.665  1.00  0.00     0.273 C 
HETATM   32  C5  UNL     1       5.915  -0.205  -1.572  1.00  0.00     0.032 C 
HETATM   33  C6  UNL     1       6.244  -0.088  -0.113  1.00  0.00     0.032 C 
HETATM   34  C7  UNL     1       5.844  -1.390   0.504  1.00  0.00     0.273 C 
ENDBRANCH  29  30
ENDBRANCH  27  29
ENDBRANCH  24  27
ENDBRANCH   1  23
TORSDOF 6
