REMARK  5 active torsions:
REMARK  status: ('A' for Active; 'I' for Inactive)
REMARK    1  A    between atoms: C2_2  and  C19_25 
REMARK    2  A    between atoms: C3_3  and  N1_5 
REMARK    3  A    between atoms: N1_5  and  C4_6 
REMARK    4  A    between atoms: C9_12  and  C10_13 
REMARK    5  A    between atoms: C10_13  and  C11_14 
ROOT
HETATM    1  C4  UNL     1      -0.513   0.991   0.955  1.00  0.00     0.036 A 
HETATM    2  C5  UNL     1      -0.256   2.238   1.485  1.00  0.00     0.032 A 
HETATM    3  C6  UNL     1       1.002   2.805   1.301  1.00  0.00     0.036 A 
HETATM    4  C7  UNL     1       1.930   2.060   0.581  1.00  0.00     0.085 A 
HETATM    5  N2  UNL     1       3.145   2.588   0.393  1.00  0.00    -0.257 NA
HETATM    6  C8  UNL     1       4.080   1.905  -0.298  1.00  0.00     0.144 A 
HETATM    7  C9  UNL     1       3.820   0.661  -0.827  1.00  0.00     0.057 A 
HETATM    8  N3  UNL     1       2.602   0.125  -0.642  1.00  0.00    -0.249 NA
HETATM    9  C17 UNL     1       1.660   0.816   0.056  1.00  0.00     0.088 A 
HETATM   10  C18 UNL     1       0.409   0.253   0.240  1.00  0.00     0.063 A 
ENDROOT
BRANCH   1  11
HETATM   11  N1  UNL     1      -1.834   0.530   1.216  1.00  0.00    -0.337 N 
HETATM   12  H3  UNL     1      -2.437  -0.002   1.880  1.00  0.00     0.168 HD
BRANCH  11  13
HETATM   13  C3  UNL     1      -2.793   0.888   0.231  1.00  0.00     0.149 A 
HETATM   14  C2  UNL     1      -4.210   0.712  -0.028  1.00  0.00     0.019 A 
HETATM   15  C1  UNL     1      -4.498   1.318  -1.167  1.00  0.00     0.218 A 
HETATM   16  O1  UNL     1      -2.983   1.498  -0.877  1.00  0.00    -0.331 OA
BRANCH  14  17
HETATM   17  C19 UNL     1      -5.284   0.014   0.726  1.00  0.00     0.136 C 
HETATM   18  C20 UNL     1      -5.046  -1.450   0.913  1.00  0.00     0.197 C 
HETATM   19  O2  UNL     1      -5.467  -2.264  -0.110  1.00  0.00    -0.387 OA
HETATM   20  C21 UNL     1      -6.114  -1.656  -1.149  1.00  0.00     0.186 C 
HETATM   21  C22 UNL     1      -7.099  -0.594  -0.760  1.00  0.00     0.140 C 
HETATM   22  N4  UNL     1      -6.588   0.302   0.224  1.00  0.00    -0.409 N 
HETATM   23  H20 UNL     1      -6.745   1.301   0.076  1.00  0.00     0.154 HD
ENDBRANCH  14  17
ENDBRANCH  11  13
ENDBRANCH   1  11
BRANCH   7  24
HETATM   24  C10 UNL     1       4.916   0.007  -1.564  1.00  0.00     0.099 C 
BRANCH  24  25
HETATM   25  C11 UNL     1       5.791  -0.837  -0.703  1.00  0.00    -0.051 A 
HETATM   26  C12 UNL     1       6.897  -0.210  -0.120  1.00  0.00     0.011 A 
HETATM   27  C13 UNL     1       7.807  -0.848   0.703  1.00  0.00     0.044 A 
HETATM   28  C14 UNL     1       7.593  -2.199   0.956  1.00  0.00     0.138 A 
HETATM   29  F1  UNL     1       8.464  -2.882   1.765  1.00  0.00    -0.204 F 
HETATM   30  C15 UNL     1       6.509  -2.844   0.394  1.00  0.00     0.073 A 
HETATM   31 CL1  UNL     1       6.205  -4.549   0.690  1.00  0.00    -0.081 Cl
HETATM   32  C16 UNL     1       5.618  -2.177  -0.425  1.00  0.00     0.034 A 
ENDBRANCH  24  25
ENDBRANCH   7  24
TORSDOF 5
