REMARK  6 active torsions:
REMARK  status: ('A' for Active; 'I' for Inactive)
REMARK    1  A    between atoms: N1_7  and  C6_8 
REMARK    2  A    between atoms: C6_8  and  O2_9 
REMARK    3  A    between atoms: O2_9  and  C7_10 
REMARK       I    between atoms: C7_10  and  N2_12 
REMARK    4  A    between atoms: N2_12  and  C8_13 
REMARK    5  A    between atoms: C15_22  and  N5_23 
REMARK    6  A    between atoms: N5_23  and  C16_24 
ROOT
HETATM    1  C8  UNL     1       0.882   1.445   0.935  1.00  0.00     0.037 A 
HETATM    2  C9  UNL     1       1.189   2.401   1.879  1.00  0.00     0.032 A 
HETATM    3  C10 UNL     1       2.369   2.228   2.570  1.00  0.00     0.035 A 
HETATM    4  C11 UNL     1       3.206   1.174   2.350  1.00  0.00     0.069 A 
HETATM    5  N3  UNL     1       4.354   1.056   3.061  1.00  0.00    -0.259 NA
HETATM    6  C12 UNL     1       5.147  -0.010   2.802  1.00  0.00     0.142 A 
HETATM    7  C13 UNL     1       4.843  -0.975   1.854  1.00  0.00     0.089 A 
HETATM    8  C14 UNL     1       5.741  -2.097   1.625  1.00  0.00     0.103 C 
HETATM    9  N4  UNL     1       6.450  -2.989   1.424  1.00  0.00    -0.191 NA
HETATM   10  C15 UNL     1       3.663  -0.802   1.161  1.00  0.00     0.067 A 
HETATM   11  C22 UNL     1       2.825   0.265   1.390  1.00  0.00     0.023 A 
HETATM   12  C23 UNL     1       1.673   0.331   0.637  1.00  0.00     0.045 A 
ENDROOT
BRANCH  10  13
HETATM   13  N5  UNL     1       3.410  -1.836   0.198  1.00  0.00    -0.354 N 
HETATM   14  H15 UNL     1       2.894  -2.697   0.420  1.00  0.00     0.166 HD
BRANCH  13  15
HETATM   15  C16 UNL     1       3.904  -1.641  -1.120  1.00  0.00     0.034 A 
HETATM   16  C17 UNL     1       4.583  -0.499  -1.514  1.00  0.00     0.032 A 
HETATM   17  C18 UNL     1       5.028  -0.401  -2.817  1.00  0.00     0.046 A 
HETATM   18  C19 UNL     1       4.839  -1.374  -3.766  1.00  0.00     0.138 A 
HETATM   19  F1  UNL     1       5.251  -1.328  -5.042  1.00  0.00    -0.204 F 
HETATM   20  C20 UNL     1       4.169  -2.520  -3.406  1.00  0.00     0.074 A 
HETATM   21 CL1  UNL     1       3.833  -3.872  -4.472  1.00  0.00    -0.081 Cl
HETATM   22  C21 UNL     1       3.720  -2.623  -2.095  1.00  0.00     0.056 A 
ENDBRANCH  13  15
ENDBRANCH  10  13
BRANCH   1  23
HETATM   23  N2  UNL     1      -0.354   1.633   0.216  1.00  0.00    -0.303 N 
HETATM   24  C7  UNL     1      -1.443   1.011   0.849  1.00  0.00     0.366 C 
HETATM   25  O3  UNL     1      -1.164   0.413   1.904  1.00  0.00    -0.238 OA
HETATM   26  H11 UNL     1      -0.510   2.164  -0.692  1.00  0.00     0.171 HD
BRANCH  24  27
HETATM   27  O2  UNL     1      -2.747   1.046   0.355  1.00  0.00    -0.284 OA
BRANCH  27  28
HETATM   28  C6  UNL     1      -3.809   0.382   1.063  1.00  0.00     0.305 C 
BRANCH  28  29
HETATM   29  N1  UNL     1      -5.064   0.552   0.374  1.00  0.00    -0.359 N 
HETATM   30  C2  UNL     1      -5.819  -0.549  -0.103  1.00  0.00     0.023 C 
HETATM   31  C1  UNL     1      -5.801  -1.718   0.520  1.00  0.00     0.040 C 
HETATM   32  C3  UNL     1      -6.620  -0.292  -1.347  1.00  0.00     0.223 C 
HETATM   33  O1  UNL     1      -7.197   0.995  -1.255  1.00  0.00    -0.384 OA
HETATM   34  C4  UNL     1      -6.146   1.907  -1.259  1.00  0.00     0.188 C 
HETATM   35  C5  UNL     1      -5.571   1.915   0.160  1.00  0.00     0.151 C 
ENDBRANCH  28  29
ENDBRANCH  27  28
ENDBRANCH  24  27
ENDBRANCH   1  23
TORSDOF 6
