REMARK  6 active torsions:
REMARK  status: ('A' for Active; 'I' for Inactive)
REMARK    1  A    between atoms: C7_9  and  N3_10 
REMARK    2  A    between atoms: N3_10  and  C8_11 
REMARK    3  A    between atoms: C8_11  and  C9_12 
REMARK    4  A    between atoms: C13_17  and  C14_18 
REMARK    5  A    between atoms: C17_22  and  N4_23 
REMARK    6  A    between atoms: N4_23  and  C18_24 
ROOT
HETATM    1  N1  UNL     1       6.287  -0.868  -1.236  1.00  0.00    -0.191 NA
HETATM    2  C1  UNL     1       5.251  -1.383  -1.146  1.00  0.00     0.103 C 
HETATM    3  C2  UNL     1       3.969  -2.036  -1.038  1.00  0.00     0.089 A 
HETATM    4  C3  UNL     1       3.993  -3.415  -1.006  1.00  0.00     0.142 A 
HETATM    5  N2  UNL     1       2.826  -4.098  -0.907  1.00  0.00    -0.259 NA
HETATM    6  C4  UNL     1       1.638  -3.455  -0.837  1.00  0.00     0.069 A 
HETATM    7  C5  UNL     1       0.444  -4.151  -0.735  1.00  0.00     0.035 A 
HETATM    8  C6  UNL     1      -0.728  -3.424  -0.669  1.00  0.00     0.031 A 
HETATM    9  C7  UNL     1      -0.752  -2.040  -0.702  1.00  0.00     0.029 A 
HETATM   10  C15 UNL     1       0.449  -1.354  -0.804  1.00  0.00     0.045 A 
HETATM   11  C16 UNL     1       1.621  -2.081  -0.870  1.00  0.00     0.023 A 
HETATM   12  C17 UNL     1       2.781  -1.325  -0.971  1.00  0.00     0.067 A 
ENDROOT
BRANCH  12  13
HETATM   13  N4  UNL     1       2.878   0.072  -1.012  1.00  0.00    -0.354 N 
HETATM   14  H15 UNL     1       2.833   0.402  -2.001  1.00  0.00     0.166 HD
BRANCH  13  15
HETATM   15  C18 UNL     1       3.019   0.945   0.103  1.00  0.00     0.034 A 
HETATM   16  C19 UNL     1       3.065   0.376   1.358  1.00  0.00     0.032 A 
HETATM   17  C20 UNL     1       3.202   1.275   2.397  1.00  0.00     0.046 A 
HETATM   18  C21 UNL     1       3.286   2.641   2.184  1.00  0.00     0.138 A 
HETATM   19  F1  UNL     1       3.422   3.547   3.202  1.00  0.00    -0.204 F 
HETATM   20  C22 UNL     1       3.234   3.159   0.904  1.00  0.00     0.074 A 
HETATM   21 CL1  UNL     1       3.335   4.876   0.566  1.00  0.00    -0.081 Cl
HETATM   22  C23 UNL     1       3.097   2.296  -0.167  1.00  0.00     0.056 A 
ENDBRANCH  13  15
ENDBRANCH  12  13
BRANCH   9  23
HETATM   23  N3  UNL     1      -1.984  -1.320  -0.631  1.00  0.00    -0.389 N 
HETATM   24  H4  UNL     1      -2.869  -1.867  -0.555  1.00  0.00     0.159 HD
BRANCH  23  25
HETATM   25  C8  UNL     1      -1.965   0.132  -0.668  1.00  0.00     0.129 C 
BRANCH  25  26
HETATM   26  C9  UNL     1      -3.352   0.731  -0.583  1.00  0.00     0.040 C 
HETATM   27  C10 UNL     1      -3.241   2.260  -0.629  1.00  0.00     0.037 C 
HETATM   28  C11 UNL     1      -4.662   2.796  -0.711  1.00  0.00     0.168 C 
HETATM   29  O1  UNL     1      -5.548   1.990  -0.018  1.00  0.00    -0.387 OA
HETATM   30  C12 UNL     1      -5.026   1.440   1.136  1.00  0.00     0.206 C 
HETATM   31  C13 UNL     1      -3.995   0.434   0.724  1.00  0.00     0.004 C 
BRANCH  31  32
HETATM   32  C14 UNL     1      -3.720  -0.584   1.467  1.00  0.00     0.226 C 
HETATM   33  O2  UNL     1      -3.784  -1.684   2.032  1.00  0.00    -0.284 OA
ENDBRANCH  31  32
ENDBRANCH  25  26
ENDBRANCH  23  25
ENDBRANCH   9  23
TORSDOF 6
