REMARK  3 active torsions:
REMARK  status: ('A' for Active; 'I' for Inactive)
REMARK    1  A    between atoms: C2_2  and  N1_3 
REMARK    2  A    between atoms: N1_3  and  O1_4 
REMARK    3  A    between atoms: N1_3  and  C4_6 
ROOT
HETATM    1  C4  UNL     1      -0.546  -0.210  -0.214  1.00  0.00     0.075 C 
HETATM    2  C5  UNL     1       0.250  -1.234  -0.554  1.00  0.00     0.048 C 
HETATM    3  C6  UNL     1       1.697  -1.359  -0.489  1.00  0.00     0.010 A 
HETATM    4  C7  UNL     1       2.246  -2.416  -1.167  1.00  0.00     0.130 A 
HETATM    5  N2  UNL     1       3.579  -2.643  -1.184  1.00  0.00    -0.272 NA
HETATM    6  C8  UNL     1       4.417  -1.807  -0.515  1.00  0.00     0.118 A 
HETATM    7  C9  UNL     1       3.912  -0.723   0.185  1.00  0.00     0.049 A 
HETATM    8  C10 UNL     1       2.533  -0.490   0.203  1.00  0.00     0.045 A 
HETATM    9  N3  UNL     1       2.245   0.675   0.982  1.00  0.00    -0.355 N 
HETATM   10  C11 UNL     1       1.071   1.460   0.847  1.00  0.00     0.046 A 
HETATM   11  C12 UNL     1       1.275   2.747   1.324  1.00  0.00     0.049 A 
HETATM   12  C13 UNL     1       0.207   3.628   1.254  1.00  0.00     0.013 A 
HETATM   13 BR1  UNL     1       0.438   5.418   1.899  1.00  0.00    -0.051 Br
HETATM   14  C14 UNL     1      -1.005   3.231   0.731  1.00  0.00     0.020 A 
HETATM   15  C15 UNL     1      -1.222   1.949   0.252  1.00  0.00     0.017 A 
HETATM   16  C16 UNL     1      -0.150   1.084   0.328  1.00  0.00     0.020 A 
HETATM   17  H11 UNL     1       2.935   0.965   1.690  1.00  0.00     0.166 HD
ENDROOT
BRANCH   1  18
HETATM   18  N1  UNL     1      -1.928  -0.499  -0.437  1.00  0.00    -0.237 N 
BRANCH  18  19
HETATM   19  C2  UNL     1      -2.822  -1.224   0.402  1.00  0.00     0.097 C 
HETATM   20  C1  UNL     1      -3.483  -0.501   1.291  1.00  0.00     0.052 C 
ENDBRANCH  18  19
BRANCH  18  21
HETATM   21  O1  UNL     1      -2.803  -0.213  -1.433  1.00  0.00    -0.279 OA
HETATM   22  C3  UNL     1      -2.792  -1.294  -2.319  1.00  0.00     0.238 C 
ENDBRANCH  18  21
ENDBRANCH   1  18
TORSDOF 3
