REMARK  1 active torsions:
REMARK  status: ('A' for Active; 'I' for Inactive)
REMARK    1  A    between atoms: C8_10  and  C9_11 
ROOT
HETATM    1  N1  UNL     1       1.053   0.719   2.457  1.00  0.00    -0.196 NA
HETATM    2  C1  UNL     1       1.592   0.519   1.429  1.00  0.00     0.074 C 
HETATM    3  C2  UNL     1       2.282   0.269   0.166  1.00  0.00     0.168 C 
HETATM    4  C3  UNL     1       2.200   1.465  -0.670  1.00  0.00     0.107 C 
HETATM    5  N2  UNL     1       1.455   2.240  -1.334  1.00  0.00    -0.300 NA
HETATM    6  C4  UNL     1       0.037   2.068  -1.467  1.00  0.00     0.175 C 
HETATM    7  C5  UNL     1      -0.594   2.950  -0.454  1.00  0.00    -0.003 C 
HETATM    8  C6  UNL     1      -1.372   2.615   0.552  1.00  0.00     0.028 C 
HETATM    9  C7  UNL     1      -1.768   1.266   0.864  1.00  0.00     0.045 C 
HETATM   10  C8  UNL     1      -2.555   1.074   1.901  1.00  0.00     0.019 C 
HETATM   11  N3  UNL     1      -1.528  -0.023   0.335  1.00  0.00    -0.301 N 
HETATM   12  N4  UNL     1      -0.622  -1.084   0.403  1.00  0.00    -0.300 N 
HETATM   13  C10 UNL     1       0.517  -1.530  -0.320  1.00  0.00     0.057 A 
HETATM   14  C11 UNL     1       0.276  -2.715  -0.994  1.00  0.00     0.050 A 
HETATM   15  C12 UNL     1       1.197  -3.406  -1.801  1.00  0.00     0.013 A 
HETATM   16 BR1  UNL     1       0.776  -5.016  -2.683  1.00  0.00    -0.051 Br
HETATM   17  C13 UNL     1       2.436  -2.798  -1.888  1.00  0.00     0.020 A 
HETATM   18  C14 UNL     1       2.683  -1.614  -1.216  1.00  0.00     0.012 A 
HETATM   19  C15 UNL     1       1.761  -0.955  -0.429  1.00  0.00    -0.007 A 
HETATM   20  H10 UNL     1      -2.217  -0.381  -0.344  1.00  0.00     0.187 HD
HETATM   21  H11 UNL     1      -0.770  -1.779   1.170  1.00  0.00     0.187 HD
ENDROOT
BRANCH  10  22
HETATM   22  C9  UNL     1      -3.176  -0.088   2.548  1.00  0.00     0.144 C 
HETATM   23 CL1  UNL     1      -4.952   0.113   2.514  1.00  0.00    -0.126 Cl
ENDBRANCH  10  22
TORSDOF 1
