REMARK  7 active torsions:
REMARK  status: ('A' for Active; 'I' for Inactive)
REMARK    1  A    between atoms: N1_9  and  C7_10 
REMARK    2  A    between atoms: C13_18  and  C14_19 
REMARK    3  A    between atoms: C14_19  and  C16_21 
REMARK    4  A    between atoms: C16_21  and  N4_22 
REMARK    5  A    between atoms: N4_22  and  C17_23 
REMARK    6  A    between atoms: C17_23  and  C18_24 
REMARK    7  A    between atoms: C19_26  and  O2_27 
ROOT
HETATM    1  C7  UNL     1      -2.776  -1.722   0.643  1.00  0.00     0.190 A 
HETATM    2  C8  UNL     1      -2.314  -2.290   1.875  1.00  0.00     0.102 C 
HETATM    3  N2  UNL     1      -1.927  -2.755   2.856  1.00  0.00    -0.194 NA
HETATM    4  C9  UNL     1      -3.521  -2.817  -0.085  1.00  0.00     0.142 A 
HETATM    5  N3  UNL     1      -2.973  -3.162  -1.195  1.00  0.00    -0.261 NA
HETATM    6  C10 UNL     1      -1.800  -2.379  -1.394  1.00  0.00     0.066 A 
HETATM    7  C11 UNL     1      -0.854  -2.340  -2.403  1.00  0.00     0.033 A 
HETATM    8  C12 UNL     1       0.237  -1.474  -2.389  1.00  0.00     0.010 A 
HETATM    9  C13 UNL     1       0.379  -0.605  -1.303  1.00  0.00    -0.052 A 
HETATM   10  C20 UNL     1      -0.583  -0.675  -0.321  1.00  0.00     0.021 A 
HETATM   11  C21 UNL     1      -1.655  -1.520  -0.326  1.00  0.00     0.019 A 
ENDROOT
BRANCH   1  12
HETATM   12  N1  UNL     1      -3.646  -0.607   0.724  1.00  0.00    -0.327 N 
HETATM   13  C2  UNL     1      -4.252   0.211   1.708  1.00  0.00     0.034 C 
HETATM   14  C1  UNL     1      -3.831  -0.265   3.053  1.00  0.00     0.070 C 
HETATM   15  C3  UNL     1      -5.043   1.206   1.349  1.00  0.00     0.096 C 
HETATM   16 CL1  UNL     1      -5.709   2.121   2.679  1.00  0.00    -0.079 Cl
HETATM   17  C4  UNL     1      -5.290   1.453  -0.066  1.00  0.00     0.152 C 
HETATM   18  F1  UNL     1      -6.185   2.442  -0.359  1.00  0.00    -0.203 F 
HETATM   19  C5  UNL     1      -4.696   0.776  -0.993  1.00  0.00     0.035 C 
HETATM   20  C6  UNL     1      -3.971  -0.249  -0.644  1.00  0.00     0.109 C 
ENDBRANCH   1  12
BRANCH   9  21
HETATM   21  C14 UNL     1       1.496   0.383  -1.149  1.00  0.00     0.032 C 
HETATM   22  C15 UNL     1       1.438   1.402  -2.297  1.00  0.00     0.017 C 
BRANCH  21  23
HETATM   23  C16 UNL     1       2.835  -0.303  -1.274  1.00  0.00     0.122 C 
BRANCH  23  24
HETATM   24  N4  UNL     1       3.966   0.558  -1.139  1.00  0.00    -0.418 N 
HETATM   25  H14 UNL     1       4.182   1.183  -1.916  1.00  0.00     0.153 HD
BRANCH  24  26
HETATM   26  C17 UNL     1       4.111   1.065   0.184  1.00  0.00     0.151 C 
BRANCH  26  27
HETATM   27  C18 UNL     1       5.302   1.980   0.348  1.00  0.00     0.197 A 
HETATM   28  O1  UNL     1       6.573   1.518   0.097  1.00  0.00    -0.347 OA
HETATM   29  C19 UNL     1       6.287   1.670   1.450  1.00  0.00     0.288 A 
BRANCH  29  30
HETATM   30  O2  UNL     1       6.815   2.745   2.150  1.00  0.00    -0.369 OA
HETATM   31  H19 UNL     1       7.180   2.430   3.016  1.00  0.00     0.212 HD
ENDBRANCH  29  30
ENDBRANCH  26  27
ENDBRANCH  24  26
ENDBRANCH  23  24
ENDBRANCH  21  23
ENDBRANCH   9  21
TORSDOF 7
