REMARK  3 active torsions:
REMARK  status: ('A' for Active; 'I' for Inactive)
REMARK    1  A    between atoms: C2_2  and  C3_3 
REMARK    2  A    between atoms: C2_2  and  N1_5 
REMARK    3  A    between atoms: N1_5  and  C4_6 
ROOT
HETATM    1  C4  UNL     1       0.970   0.447   0.179  1.00  0.00     0.105 C 
HETATM    2  C5  UNL     1       0.957  -0.439  -1.078  1.00  0.00     0.053 C 
HETATM    3  C6  UNL     1       1.043   0.499  -2.212  1.00  0.00     0.097 C 
HETATM    4  N2  UNL     1       0.385   1.617  -2.165  1.00  0.00    -0.267 NA
HETATM    5  C7  UNL     1      -0.528   1.942  -1.105  1.00  0.00     0.061 C 
HETATM    6  C8  UNL     1      -1.579   2.711  -1.329  1.00  0.00     0.051 C 
HETATM    7  C9  UNL     1      -1.867   3.255  -2.609  1.00  0.00     0.097 C 
HETATM    8  N3  UNL     1      -2.105   3.705  -3.630  1.00  0.00    -0.192 NA
HETATM    9  C10 UNL     1      -2.404   2.925  -0.086  1.00  0.00     0.079 C 
HETATM   10  C11 UNL     1      -2.528   1.576   0.575  1.00  0.00    -0.014 C 
HETATM   11  C12 UNL     1      -1.465   0.771   0.754  1.00  0.00    -0.050 C 
HETATM   12  C13 UNL     1      -1.757  -0.524   1.421  1.00  0.00     0.007 C 
HETATM   13  C14 UNL     1      -1.515  -1.811   1.189  1.00  0.00     0.000 C 
HETATM   14  C15 UNL     1      -0.918  -2.781   0.309  1.00  0.00    -0.004 C 
HETATM   15  C16 UNL     1      -0.268  -2.650  -0.863  1.00  0.00    -0.026 C 
HETATM   16  C17 UNL     1      -0.289  -1.224  -1.143  1.00  0.00     0.039 C 
HETATM   17  C18 UNL     1      -0.202   1.361   0.226  1.00  0.00     0.095 C 
ENDROOT
BRANCH   1  18
HETATM   18  N1  UNL     1       1.082  -0.309   1.387  1.00  0.00    -0.385 N 
HETATM   19  H4  UNL     1       0.952  -0.758   2.320  1.00  0.00     0.160 HD
BRANCH  18  20
HETATM   20  C2  UNL     1       2.309  -1.072   1.383  1.00  0.00     0.029 C 
HETATM   21  C1  UNL     1       2.778  -2.328   1.298  1.00  0.00     0.065 C 
BRANCH  20  22
HETATM   22  C3  UNL     1       3.459  -0.171   1.518  1.00  0.00     0.403 C 
HETATM   23  O1  UNL     1       4.676   0.171   1.608  1.00  0.00    -0.404 OA
ENDBRANCH  20  22
ENDBRANCH  18  20
ENDBRANCH   1  18
TORSDOF 3
