REMARK  5 active torsions:
REMARK  status: ('A' for Active; 'I' for Inactive)
REMARK    1  A    between atoms: C3_3  and  C4_4 
REMARK       I    between atoms: C4_4  and  N1_6 
REMARK    2  A    between atoms: C7_9  and  N2_10 
REMARK    3  A    between atoms: N2_10  and  C8_11 
REMARK    4  A    between atoms: C8_11  and  C9_12 
REMARK    5  A    between atoms: C19_25  and  O2_26 
ROOT
HETATM    1  C1  UNL     1      -4.158   3.204  -2.003  1.00  0.00     0.112 C 
HETATM    2  C2  UNL     1      -3.774   2.305  -0.912  1.00  0.00    -0.101 C 
HETATM    3  C3  UNL     1      -3.437   1.563   0.006  1.00  0.00    -0.006 C 
ENDROOT
BRANCH   3   4
HETATM    4  C4  UNL     1      -3.060   0.704   1.092  1.00  0.00     0.299 C 
HETATM    5  O1  UNL     1      -3.445   0.903   2.250  1.00  0.00    -0.258 OA
HETATM    6  N1  UNL     1      -2.217  -0.373   0.702  1.00  0.00    -0.332 N 
HETATM    7  C5  UNL     1      -1.753  -0.642  -0.613  1.00  0.00     0.156 C 
HETATM    8  C21 UNL     1      -1.545  -1.555   1.222  1.00  0.00     0.194 C 
HETATM    9  C6  UNL     1      -0.474   0.008  -0.856  1.00  0.00     0.023 C 
HETATM   10  C7  UNL     1       0.632  -0.691  -1.024  1.00  0.00     0.045 C 
HETATM   11  C15 UNL     1       0.963  -2.095  -0.856  1.00  0.00     0.075 C 
HETATM   12  C16 UNL     1       2.281  -2.590  -1.152  1.00  0.00     0.099 C 
HETATM   13  C17 UNL     1      -0.089  -2.830  -0.408  1.00  0.00     0.184 C 
HETATM   14  N3  UNL     1       3.340  -3.009  -1.392  1.00  0.00    -0.192 NA
HETATM   15  N4  UNL     1      -0.825  -3.962   0.023  1.00  0.00    -0.272 NA
HETATM   16  C18 UNL     1      -2.049  -3.759   0.243  1.00  0.00     0.113 C 
HETATM   17  C19 UNL     1      -2.278  -2.794   1.080  1.00  0.00     0.094 C 
BRANCH  10  18
HETATM   18  N2  UNL     1       1.806   0.116  -1.273  1.00  0.00    -0.385 N 
HETATM   19  H7  UNL     1       2.241   0.157  -2.203  1.00  0.00     0.160 HD
BRANCH  18  20
HETATM   20  C8  UNL     1       2.137   0.750  -0.030  1.00  0.00     0.158 C 
BRANCH  20  21
HETATM   21  C9  UNL     1       3.329   1.622  -0.082  1.00  0.00    -0.039 A 
HETATM   22  C10 UNL     1       3.237   2.967  -0.390  1.00  0.00     0.009 A 
HETATM   23  C11 UNL     1       4.349   3.775  -0.437  1.00  0.00     0.002 A 
HETATM   24  C12 UNL     1       5.615   3.266  -0.177  1.00  0.00     0.019 A 
HETATM   25  C13 UNL     1       5.705   1.907   0.134  1.00  0.00     0.011 A 
HETATM   26 BR1  UNL     1       7.413   1.198   0.492  1.00  0.00    -0.051 Br
HETATM   27  C14 UNL     1       4.578   1.112   0.177  1.00  0.00     0.027 A 
ENDBRANCH  20  21
ENDBRANCH  18  20
ENDBRANCH  10  18
BRANCH  17  28
HETATM   28  O2  UNL     1      -3.318  -3.603   1.490  1.00  0.00    -0.356 OA
HETATM   29  C20 UNL     1      -3.991  -3.566   2.706  1.00  0.00     0.209 C 
ENDBRANCH  17  28
ENDBRANCH   3   4
TORSDOF 5
