REMARK  4 active torsions:
REMARK  status: ('A' for Active; 'I' for Inactive)
REMARK    1  A    between atoms: C2_2  and  C3_3 
REMARK       I    between atoms: C3_3  and  N1_5 
REMARK    2  A    between atoms: N1_5  and  C4_6 
REMARK    3  A    between atoms: C7_9  and  N2_10 
REMARK    4  A    between atoms: C18_24  and  O2_25 
ROOT
HETATM    1  C4  UNL     1      -1.799  -0.341  -0.730  1.00  0.00     0.069 A 
HETATM    2  C5  UNL     1      -0.485  -0.046  -0.426  1.00  0.00     0.048 A 
HETATM    3  C6  UNL     1       0.283  -1.032   0.168  1.00  0.00     0.023 A 
HETATM    4  C7  UNL     1       1.600  -0.777   0.487  1.00  0.00     0.065 A 
HETATM    5  C13 UNL     1       2.371  -1.758   1.080  1.00  0.00     0.089 A 
HETATM    6  C14 UNL     1       3.758  -1.568   1.445  1.00  0.00     0.103 C 
HETATM    7  N3  UNL     1       4.865  -1.399   1.738  1.00  0.00    -0.191 NA
HETATM    8  C15 UNL     1       1.804  -2.986   1.344  1.00  0.00     0.142 A 
HETATM    9  N4  UNL     1       0.513  -3.216   1.024  1.00  0.00    -0.259 NA
HETATM   10  C16 UNL     1      -0.264  -2.272   0.442  1.00  0.00     0.071 A 
HETATM   11  C17 UNL     1      -1.576  -2.521   0.122  1.00  0.00     0.071 A 
HETATM   12  C18 UNL     1      -2.381  -1.567  -0.472  1.00  0.00     0.097 A 
ENDROOT
BRANCH   4  13
HETATM   13  N2  UNL     1       2.228   0.474   0.234  1.00  0.00    -0.375 N 
HETATM   14  C8  UNL     1       2.906   0.685  -1.053  1.00  0.00     0.151 C 
HETATM   15  C9  UNL     1       4.378   0.794  -0.741  1.00  0.00     0.007 C 
HETATM   16  C10 UNL     1       4.536   1.695   0.215  1.00  0.00    -0.012 C 
HETATM   17 BR1  UNL     1       6.351   1.959   0.735  1.00  0.00    -0.056 Br
HETATM   18  C11 UNL     1       3.467   2.470   0.875  1.00  0.00     0.066 C 
HETATM   19  C12 UNL     1       2.272   1.585   1.132  1.00  0.00     0.128 C 
ENDBRANCH   4  13
BRANCH   1  20
HETATM   20  N1  UNL     1      -2.594   0.679  -1.345  1.00  0.00    -0.321 N 
HETATM   21  C3  UNL     1      -3.226   1.439  -0.323  1.00  0.00     0.245 C 
HETATM   22  O1  UNL     1      -3.038   1.162   0.898  1.00  0.00    -0.268 OA
HETATM   23  H4  UNL     1      -2.843   1.024  -2.289  1.00  0.00     0.169 HD
BRANCH  21  24
HETATM   24  C2  UNL     1      -4.124   2.573  -0.473  1.00  0.00     0.064 C 
HETATM   25  C1  UNL     1      -4.499   3.005   0.707  1.00  0.00     0.017 C 
ENDBRANCH  21  24
ENDBRANCH   1  20
BRANCH  12  26
HETATM   26  O2  UNL     1      -3.712  -1.765  -0.816  1.00  0.00    -0.354 OA
HETATM   27  C19 UNL     1      -4.396  -2.979  -0.594  1.00  0.00     0.210 C 
ENDBRANCH  12  26
TORSDOF 4
