REMARK  6 active torsions:
REMARK  status: ('A' for Active; 'I' for Inactive)
REMARK    1  A    between atoms: N1_2  and  C3_4 
REMARK    2  A    between atoms: C3_4  and  C4_5 
REMARK    3  A    between atoms: C5_6  and  C6_7 
REMARK       I    between atoms: C6_7  and  N2_9 
REMARK    4  A    between atoms: N2_9  and  C7_10 
REMARK    5  A    between atoms: N5_17  and  C12_18 
REMARK    6  A    between atoms: C12_18  and  P1_19 
ROOT
HETATM    1  C7  UNL     1       0.599   1.228  -0.635  1.00  0.00     0.034 C 
HETATM    2  C8  UNL     1       0.605   2.564  -0.460  1.00  0.00     0.024 C 
HETATM    3  C9  UNL     1      -0.208   3.722  -0.077  1.00  0.00     0.179 C 
HETATM    4  N3  UNL     1      -1.577   3.386   0.286  1.00  0.00    -0.287 NA
HETATM    5  C10 UNL     1      -1.867   2.703   1.321  1.00  0.00     0.163 C 
HETATM    6  N4  UNL     1      -2.963   2.161   2.040  1.00  0.00    -0.280 NA
HETATM    7  C11 UNL     1      -3.566   1.173   1.468  1.00  0.00     0.353 C 
HETATM    8  N5  UNL     1      -2.956   0.888   0.238  1.00  0.00    -0.364 N 
HETATM    9  C18 UNL     1      -1.745   0.301  -0.150  1.00  0.00     0.090 C 
HETATM   10  C19 UNL     1      -0.485   0.275  -0.478  1.00  0.00     0.046 C 
ENDROOT
BRANCH   1  11
HETATM   11  N2  UNL     1       1.849   0.632  -1.065  1.00  0.00    -0.324 N 
HETATM   12  C6  UNL     1       2.616  -0.346  -0.398  1.00  0.00     0.245 C 
HETATM   13  O1  UNL     1       2.279  -0.840   0.710  1.00  0.00    -0.268 OA
HETATM   14  H11 UNL     1       2.169   1.018  -1.995  1.00  0.00     0.169 HD
BRANCH  12  15
HETATM   15  C5  UNL     1       3.848  -0.810  -1.009  1.00  0.00     0.072 C 
HETATM   16  C4  UNL     1       4.565  -1.724  -0.384  1.00  0.00     0.008 C 
BRANCH  16  17
HETATM   17  C3  UNL     1       5.847  -2.218  -1.002  1.00  0.00     0.299 C 
BRANCH  17  18
HETATM   18  N1  UNL     1       6.954  -1.939  -0.103  1.00  0.00     0.083 N 
HETATM   19  C1  UNL     1       6.872  -2.746   1.100  1.00  0.00     0.309 C 
HETATM   20  C2  UNL     1       6.980  -0.544   0.287  1.00  0.00     0.309 C 
ENDBRANCH  17  18
ENDBRANCH  16  17
ENDBRANCH  12  15
ENDBRANCH   1  11
BRANCH   8  21
HETATM   21  C12 UNL     1      -4.059   1.421  -0.487  1.00  0.00     0.158 C 
BRANCH  21  22
HETATM   22  P1  UNL     1      -5.634   0.684  -0.111  1.00  0.00    -0.091 P 
HETATM   23  C13 UNL     1      -6.196  -0.061  -1.435  1.00  0.00     0.005 A 
HETATM   24  C14 UNL     1      -6.521  -1.480  -1.461  1.00  0.00     0.001 A 
HETATM   25  C15 UNL     1      -6.387  -2.272  -0.422  1.00  0.00     0.000 A 
HETATM   26  C16 UNL     1      -5.903  -1.816   0.853  1.00  0.00     0.001 A 
HETATM   27  C17 UNL     1      -5.540  -0.580   1.142  1.00  0.00     0.005 A 
HETATM   28  H19 UNL     1      -6.582   1.675   0.225  1.00  0.00     0.062 HD
ENDBRANCH  21  22
ENDBRANCH   8  21
TORSDOF 6
