REMARK  7 active torsions:
REMARK  status: ('A' for Active; 'I' for Inactive)
REMARK    1  A    between atoms: O1_2  and  C2_3 
REMARK    2  A    between atoms: C6_9  and  N3_10 
REMARK    3  A    between atoms: N3_10  and  C7_11 
REMARK    4  A    between atoms: C15_21  and  C16_22 
REMARK    5  A    between atoms: C16_22  and  N4_23 
REMARK    6  A    between atoms: C20_27  and  C21_28 
REMARK    7  A    between atoms: C21_28  and  C22_29 
REMARK       I    between atoms: C22_29  and  N5_30 
ROOT
HETATM    1  C2  UNL     1      -0.554  -2.020   0.465  1.00  0.00     0.078 A 
HETATM    2  C3  UNL     1       0.491  -2.402   1.310  1.00  0.00     0.070 A 
HETATM    3  C4  UNL     1       1.720  -1.777   1.302  1.00  0.00     0.074 A 
HETATM    4  N1  UNL     1       2.726  -2.149   2.124  1.00  0.00    -0.241 NA
HETATM    5  C5  UNL     1       3.916  -1.515   2.094  1.00  0.00     0.236 A 
HETATM    6  N2  UNL     1       4.088  -0.491   1.218  1.00  0.00    -0.224 NA
HETATM    7  C6  UNL     1       3.102  -0.103   0.390  1.00  0.00     0.142 A 
HETATM    8  C13 UNL     1       1.881  -0.742   0.411  1.00  0.00     0.039 A 
HETATM    9  C14 UNL     1       0.889  -0.319  -0.448  1.00  0.00     0.029 A 
HETATM   10  C15 UNL     1      -0.332  -0.959  -0.423  1.00  0.00     0.004 A 
ENDROOT
BRANCH  10  11
HETATM   11  C16 UNL     1      -1.498  -0.621  -1.281  1.00  0.00     0.314 C 
BRANCH  11  12
HETATM   12  N4  UNL     1      -2.431   0.089  -0.469  1.00  0.00     0.097 N 
HETATM   13  C17 UNL     1      -1.930   1.315   0.065  1.00  0.00     0.273 C 
HETATM   14  C18 UNL     1      -3.002   2.363  -0.156  1.00  0.00     0.032 C 
HETATM   15  C19 UNL     1      -3.901   1.791  -1.211  1.00  0.00     0.038 C 
HETATM   16  C20 UNL     1      -3.722   0.300  -1.038  1.00  0.00     0.232 C 
BRANCH  16  17
HETATM   17  C21 UNL     1      -4.802  -0.174  -0.077  1.00  0.00     0.138 C 
BRANCH  17  18
HETATM   18  C22 UNL     1      -6.156   0.032  -0.640  1.00  0.00     0.217 C 
HETATM   19  N5  UNL     1      -6.845  -1.093  -1.221  1.00  0.00    -0.370 N 
HETATM   20  H22 UNL     1      -7.379  -1.868  -1.669  1.00  0.00     0.159 HD
HETATM   21  H23 UNL     1      -6.521  -2.075  -0.989  1.00  0.00     0.159 HD
HETATM   22  O2  UNL     1      -7.207   0.610  -0.976  1.00  0.00    -0.274 OA
ENDBRANCH  17  18
ENDBRANCH  16  17
ENDBRANCH  11  12
ENDBRANCH  10  11
BRANCH   1  23
HETATM   23  O1  UNL     1      -1.770  -2.687   0.517  1.00  0.00    -0.355 OA
HETATM   24  C1  UNL     1      -1.937  -3.753   1.437  1.00  0.00     0.210 C 
ENDBRANCH   1  23
BRANCH   7  25
HETATM   25  N3  UNL     1       3.396   0.982  -0.481  1.00  0.00    -0.338 N 
HETATM   26  H6  UNL     1       2.814   1.446  -1.202  1.00  0.00     0.167 HD
BRANCH  25  27
HETATM   27  C7  UNL     1       4.684   1.585  -0.412  1.00  0.00     0.074 A 
HETATM   28  C8  UNL     1       4.943   2.912  -0.114  1.00  0.00     0.033 A 
HETATM   29  C9  UNL     1       6.258   3.354  -0.080  1.00  0.00     0.004 A 
HETATM   30  C10 UNL     1       7.316   2.496  -0.337  1.00  0.00     0.027 A 
HETATM   31  C11 UNL     1       7.036   1.164  -0.635  1.00  0.00     0.074 A 
HETATM   32 CL1  UNL     1       8.391   0.092  -0.958  1.00  0.00    -0.081 Cl
HETATM   33  C12 UNL     1       5.727   0.695  -0.676  1.00  0.00     0.164 A 
HETATM   34  F1  UNL     1       5.586  -0.614  -0.975  1.00  0.00    -0.202 F 
ENDBRANCH  25  27
ENDBRANCH   7  25
TORSDOF 7
