REMARK  1 active torsions:
REMARK  status: ('A' for Active; 'I' for Inactive)
REMARK    1  A    between atoms: O1_2  and  C2_3 
ROOT
HETATM    1  C2  UNL     1      -2.753  -1.364  -0.630  1.00  0.00     0.107 A 
HETATM    2  C3  UNL     1      -3.520  -0.335  -0.133  1.00  0.00     0.071 A 
HETATM    3  C4  UNL     1      -3.063   0.917   0.274  1.00  0.00     0.071 A 
HETATM    4  N1  UNL     1      -3.936   1.835   0.752  1.00  0.00    -0.259 NA
HETATM    5  C5  UNL     1      -3.437   3.049   1.148  1.00  0.00     0.142 A 
HETATM    6  C6  UNL     1      -2.069   3.320   1.061  1.00  0.00     0.089 A 
HETATM    7  C7  UNL     1      -1.576   4.610   1.491  1.00  0.00     0.103 C 
HETATM    8  N2  UNL     1      -1.199   5.648   1.827  1.00  0.00    -0.191 NA
HETATM    9  C8  UNL     1      -1.173   2.391   0.573  1.00  0.00     0.067 A 
HETATM   10  C9  UNL     1      -1.723   1.199   0.189  1.00  0.00     0.023 A 
HETATM   11  C10 UNL     1      -1.034   0.143  -0.309  1.00  0.00     0.058 A 
HETATM   12  C11 UNL     1      -1.409  -1.107  -0.725  1.00  0.00     0.202 A 
HETATM   13  N3  UNL     1      -0.491  -2.082  -1.210  1.00  0.00     0.143 N 
HETATM   14  C12 UNL     1       0.721  -2.746  -1.441  1.00  0.00     0.286 A 
HETATM   15  O2  UNL     1       0.776  -1.681  -0.735  1.00  0.00     0.000 OA
HETATM   16  C13 UNL     1       2.059  -2.549  -1.088  1.00  0.00     0.045 A 
HETATM   17  C14 UNL     1       3.163  -2.375  -0.813  1.00  0.00    -0.143 C 
HETATM   18  C15 UNL     1       4.512  -2.156  -0.498  1.00  0.00     0.105 C 
HETATM   19  C16 UNL     1       4.784  -0.709  -0.064  1.00  0.00     0.091 C 
HETATM   20 BR1  UNL     1       6.655  -0.382   0.168  1.00  0.00    -0.086 Br
HETATM   21  C17 UNL     1       4.184   0.244  -0.986  1.00  0.00    -0.010 C 
HETATM   22  C18 UNL     1       3.143   0.961  -0.634  1.00  0.00    -0.001 C 
HETATM   23  C19 UNL     1       2.281   1.156   0.514  1.00  0.00     0.017 C 
HETATM   24  C20 UNL     1       1.222   1.831   0.921  1.00  0.00     0.088 C 
HETATM   25  N4  UNL     1       0.222   2.775   0.579  1.00  0.00    -0.364 N 
HETATM   26  H7  UNL     1      -0.993  -2.835  -1.800  1.00  0.00     0.325 HD
HETATM   27  H15 UNL     1       0.532   3.730   0.351  1.00  0.00     0.165 HD
ENDROOT
BRANCH   1  28
HETATM   28  O1  UNL     1      -3.195  -2.607  -1.032  1.00  0.00    -0.353 OA
HETATM   29  C1  UNL     1      -4.503  -3.088  -1.032  1.00  0.00     0.210 C 
ENDBRANCH   1  28
TORSDOF 1
