REMARK  5 active torsions:
REMARK  status: ('A' for Active; 'I' for Inactive)
REMARK    1  A    between atoms: N1_2  and  C3_4 
REMARK    2  A    between atoms: C3_4  and  C4_5 
REMARK    3  A    between atoms: C5_6  and  C6_7 
REMARK       I    between atoms: C6_7  and  N2_9 
REMARK    4  A    between atoms: N2_9  and  C7_10 
REMARK    5  A    between atoms: C12_17  and  C13_18 
ROOT
HETATM    1  C7  UNL     1      -0.133  -0.950  -0.891  1.00  0.00     0.035 A 
HETATM    2  C8  UNL     1       0.149  -2.109  -1.624  1.00  0.00     0.032 A 
HETATM    3  C9  UNL     1      -0.813  -3.060  -1.926  1.00  0.00     0.035 A 
HETATM    4  C10 UNL     1      -2.106  -2.862  -1.489  1.00  0.00     0.070 A 
HETATM    5  N3  UNL     1      -3.072  -3.746  -1.741  1.00  0.00    -0.241 NA
HETATM    6  C11 UNL     1      -4.316  -3.495  -1.275  1.00  0.00     0.234 A 
HETATM    7  N4  UNL     1      -4.568  -2.373  -0.571  1.00  0.00    -0.240 NA
HETATM    8  C12 UNL     1      -3.622  -1.443  -0.289  1.00  0.00     0.081 A 
HETATM    9  C19 UNL     1      -2.354  -1.713  -0.770  1.00  0.00     0.025 A 
HETATM   10  C20 UNL     1      -1.429  -0.763  -0.458  1.00  0.00     0.045 A 
ENDROOT
BRANCH   1  11
HETATM   11  N2  UNL     1       0.950  -0.058  -0.651  1.00  0.00    -0.324 N 
HETATM   12  C6  UNL     1       1.354   1.026  -1.472  1.00  0.00     0.245 C 
HETATM   13  O1  UNL     1       0.538   1.014  -2.457  1.00  0.00    -0.268 OA
HETATM   14  H11 UNL     1       1.391  -0.350   0.245  1.00  0.00     0.169 HD
BRANCH  12  15
HETATM   15  C5  UNL     1       2.483   1.856  -1.100  1.00  0.00     0.072 C 
HETATM   16  C4  UNL     1       3.394   1.995  -0.158  1.00  0.00    -0.002 C 
BRANCH  16  17
HETATM   17  C3  UNL     1       3.894   1.452   1.107  1.00  0.00     0.143 C 
BRANCH  17  18
HETATM   18  N1  UNL     1       5.265   1.000   1.079  1.00  0.00    -0.418 N 
HETATM   19  C1  UNL     1       5.503  -0.155   0.279  1.00  0.00     0.142 C 
HETATM   20  C2  UNL     1       6.243   2.028   0.962  1.00  0.00     0.142 C 
ENDBRANCH  17  18
ENDBRANCH  16  17
ENDBRANCH  12  15
ENDBRANCH   1  11
BRANCH   8  21
HETATM   21  C13 UNL     1      -4.128  -0.336   0.475  1.00  0.00    -0.005 A 
HETATM   22  C14 UNL     1      -4.864  -0.674   1.616  1.00  0.00     0.014 A 
HETATM   23  C15 UNL     1      -5.439   0.281   2.453  1.00  0.00     0.002 A 
HETATM   24  C16 UNL     1      -5.288   1.617   2.159  1.00  0.00     0.019 A 
HETATM   25  C17 UNL     1      -4.571   1.987   1.044  1.00  0.00     0.011 A 
HETATM   26 BR1  UNL     1      -4.323   3.830   0.579  1.00  0.00    -0.051 Br
HETATM   27  C18 UNL     1      -4.021   1.007   0.247  1.00  0.00     0.032 A 
ENDBRANCH   8  21
TORSDOF 5
