REMARK  3 active torsions:
REMARK  status: ('A' for Active; 'I' for Inactive)
REMARK    1  A    between atoms: C3_3  and  C4_4 
REMARK       I    between atoms: C4_4  and  N1_6 
REMARK    2  A    between atoms: N1_6  and  C5_7 
REMARK    3  A    between atoms: C10_12  and  O2_13 
ROOT
HETATM    1  C1  UNL     1       8.189   1.978   0.526  1.00  0.00     0.112 C 
HETATM    2  C2  UNL     1       6.770   1.667   0.336  1.00  0.00    -0.101 C 
HETATM    3  C3  UNL     1       5.618   1.408   0.169  1.00  0.00    -0.006 C 
ENDROOT
BRANCH   3   4
HETATM    4  C4  UNL     1       4.233   1.083  -0.038  1.00  0.00     0.301 C 
HETATM    5  O1  UNL     1       3.354   1.145   0.865  1.00  0.00    -0.258 OA
HETATM    6  N1  UNL     1       3.714   0.659  -1.282  1.00  0.00    -0.314 N 
HETATM    7  H4  UNL     1       4.348   0.566  -2.117  1.00  0.00     0.170 HD
BRANCH   6   8
HETATM    8  C5  UNL     1       2.318   0.407  -1.197  1.00  0.00     0.071 A 
HETATM    9  C6  UNL     1       1.265   1.271  -1.406  1.00  0.00     0.066 A 
HETATM   10  C7  UNL     1      -0.064   0.888  -1.294  1.00  0.00     0.082 A 
HETATM   11  C8  UNL     1      -0.267  -0.443  -0.955  1.00  0.00     0.087 A 
HETATM   12  N4  UNL     1      -0.828   1.888  -1.515  1.00  0.00    -0.284 NA
HETATM   13  C9  UNL     1       0.765  -1.315  -0.743  1.00  0.00     0.073 A 
HETATM   14  N2  UNL     1      -1.490  -0.672  -0.921  1.00  0.00    -0.258 NA
HETATM   15  C10 UNL     1       2.093  -0.932  -0.854  1.00  0.00     0.097 A 
HETATM   16  C12 UNL     1      -2.171  -1.852  -0.626  1.00  0.00     0.135 C 
HETATM   17  C13 UNL     1      -3.021  -2.555   0.121  1.00  0.00     0.040 C 
HETATM   18  C14 UNL     1      -3.319  -3.941  -0.178  1.00  0.00     0.096 C 
HETATM   19  C15 UNL     1      -3.768  -2.042   1.331  1.00  0.00     0.052 C 
HETATM   20  N3  UNL     1      -3.563  -5.070  -0.403  1.00  0.00    -0.192 NA
HETATM   21  C16 UNL     1      -3.512  -0.592   1.551  1.00  0.00     0.010 C 
HETATM   22  C17 UNL     1      -4.054   0.325   0.484  1.00  0.00     0.034 C 
HETATM   23  C18 UNL     1      -3.559   1.733   0.720  1.00  0.00    -0.086 C 
HETATM   24  C19 UNL     1      -3.922   2.458   1.964  1.00  0.00     0.043 C 
HETATM   25  C20 UNL     1      -2.796   2.342  -0.178  1.00  0.00    -0.003 C 
HETATM   26  C21 UNL     1      -2.256   1.925  -1.501  1.00  0.00     0.177 C 
BRANCH  15  27
HETATM   27  O2  UNL     1       2.998  -1.925  -0.611  1.00  0.00    -0.354 OA
HETATM   28  C11 UNL     1       2.686  -3.247  -0.271  1.00  0.00     0.210 C 
ENDBRANCH  15  27
ENDBRANCH   6   8
ENDBRANCH   3   4
TORSDOF 3
