REMARK  1 active torsions:
REMARK  status: ('A' for Active; 'I' for Inactive)
REMARK    1  A    between atoms: N3_15  and  C12_16 
ROOT
HETATM    1  C1  UNL     1      -3.921  -2.933  -0.780  1.00  0.00     0.173 C 
HETATM    2  N1  UNL     1      -3.205  -1.685  -0.651  1.00  0.00    -0.305 N 
HETATM    3  C2  UNL     1      -3.623  -0.327  -0.401  1.00  0.00     0.171 C 
HETATM    4  C3  UNL     1      -4.152  -0.059   0.944  1.00  0.00    -0.000 C 
HETATM    5  C4  UNL     1      -3.934   0.553   2.099  1.00  0.00     0.072 C 
HETATM    6  C5  UNL     1      -2.788   1.391   2.584  1.00  0.00     0.245 C 
HETATM    7  O1  UNL     1      -2.183   2.113   3.403  1.00  0.00    -0.268 OA
HETATM    8  N2  UNL     1      -1.598   1.581   1.794  1.00  0.00    -0.324 N 
HETATM    9  C6  UNL     1      -0.409   1.771   1.004  1.00  0.00     0.033 C 
HETATM   10  C7  UNL     1      -0.245   2.846   0.265  1.00  0.00     0.003 C 
HETATM   11  C8  UNL     1       1.153   3.384   0.093  1.00  0.00     0.035 C 
HETATM   12  C9  UNL     1       2.163   2.271   0.330  1.00  0.00     0.063 C 
HETATM   13  C10 UNL     1       1.434   0.993   0.230  1.00  0.00     0.037 C 
HETATM   14  C11 UNL     1       0.520   0.604   1.076  1.00  0.00     0.056 C 
HETATM   15  N3  UNL     1       1.402  -0.116  -0.642  1.00  0.00    -0.260 N 
HETATM   16  N4  UNL     1       0.354  -0.598  -1.403  1.00  0.00    -0.286 N 
HETATM   17  C18 UNL     1      -1.014  -0.915  -1.138  1.00  0.00     0.245 C 
HETATM   18  N5  UNL     1      -1.804  -1.872  -0.798  1.00  0.00    -0.171 NA
HETATM   19  H8  UNL     1      -1.872   1.055   0.961  1.00  0.00     0.169 HD
HETATM   20  H20 UNL     1       0.852  -0.690  -2.342  1.00  0.00     0.188 HD
ENDROOT
BRANCH  15  21
HETATM   21  C12 UNL     1       2.707  -0.632  -0.554  1.00  0.00     0.056 A 
HETATM   22  C13 UNL     1       2.951  -1.604  -1.531  1.00  0.00     0.031 A 
HETATM   23  C14 UNL     1       4.171  -2.267  -1.634  1.00  0.00     0.002 A 
HETATM   24  C15 UNL     1       5.206  -1.979  -0.753  1.00  0.00     0.000 A 
HETATM   25  C16 UNL     1       4.991  -1.028   0.216  1.00  0.00     0.002 A 
HETATM   26  C17 UNL     1       3.768  -0.424   0.250  1.00  0.00     0.031 A 
ENDBRANCH  15  21
TORSDOF 1
