REMARK  7 active torsions:
REMARK  status: ('A' for Active; 'I' for Inactive)
REMARK    1  A    between atoms: O1_2  and  C2_3 
REMARK    2  A    between atoms: C5_6  and  C6_7 
REMARK    3  A    between atoms: C7_8  and  N1_9 
REMARK    4  A    between atoms: C10_13  and  C11_14 
REMARK    5  A    between atoms: C11_14  and  N2_15 
REMARK    6  A    between atoms: C15_19  and  C16_20 
REMARK    7  A    between atoms: C16_20  and  C17_21 
REMARK       I    between atoms: C17_21  and  N3_22 
ROOT
HETATM    1  C2  UNL     1       1.126  -1.064   1.526  1.00  0.00     0.072 A 
HETATM    2  C3  UNL     1       2.419  -1.103   1.789  1.00  0.00     0.011 A 
HETATM    3  C4  UNL     1       3.568  -0.176   1.698  1.00  0.00     0.042 A 
HETATM    4  C5  UNL     1       3.036   1.162   1.179  1.00  0.00     0.036 A 
HETATM    5  C9  UNL     1       1.574   1.041   0.925  1.00  0.00    -0.006 A 
HETATM    6  C10 UNL     1       0.537   0.155   1.009  1.00  0.00    -0.000 A 
ENDROOT
BRANCH   6   7
HETATM    7  C11 UNL     1      -0.782   0.670   0.643  1.00  0.00     0.314 C 
BRANCH   7   8
HETATM    8  N2  UNL     1      -1.457   0.204  -0.503  1.00  0.00     0.097 NA
HETATM    9  C12 UNL     1      -1.927  -1.133  -0.447  1.00  0.00     0.273 C 
HETATM   10  C13 UNL     1      -2.925  -1.116   0.712  1.00  0.00     0.032 C 
HETATM   11  C14 UNL     1      -3.545   0.260   0.573  1.00  0.00     0.038 C 
HETATM   12  C15 UNL     1      -2.758   0.924  -0.499  1.00  0.00     0.232 C 
BRANCH  12  13
HETATM   13  C16 UNL     1      -3.399   0.959  -1.843  1.00  0.00     0.138 C 
BRANCH  13  14
HETATM   14  C17 UNL     1      -4.696   1.695  -1.784  1.00  0.00     0.217 C 
HETATM   15  N3  UNL     1      -5.882   0.899  -1.608  1.00  0.00    -0.370 N 
HETATM   16  H23 UNL     1      -6.736   0.321  -1.485  1.00  0.00     0.159 HD
HETATM   17  H24 UNL     1      -6.765   0.970  -1.065  1.00  0.00     0.159 HD
HETATM   18  O2  UNL     1      -5.182   2.852  -1.834  1.00  0.00    -0.274 OA
ENDBRANCH  13  14
ENDBRANCH  12  13
ENDBRANCH   7   8
ENDBRANCH   6   7
BRANCH   1  19
HETATM   19  O1  UNL     1       0.232  -2.098   1.701  1.00  0.00    -0.356 OA
HETATM   20  C1  UNL     1       0.656  -3.391   1.305  1.00  0.00     0.210 C 
ENDBRANCH   1  19
BRANCH   4  21
HETATM   21  C6  UNL     1       3.796   1.552  -0.008  1.00  0.00     0.001 C 
HETATM   22  C7  UNL     1       4.777   1.047  -0.725  1.00  0.00     0.113 C 
BRANCH  22  23
HETATM   23  N1  UNL     1       5.717   0.013  -0.966  1.00  0.00    -0.266 NA
HETATM   24  C8  UNL     1       6.851  -0.019  -0.340  1.00  0.00     0.171 C 
HETATM   25 BR1  UNL     1       6.583   1.558   0.697  1.00  0.00    -0.043 Br
ENDBRANCH  22  23
ENDBRANCH   4  21
TORSDOF 7
