REMARK  7 active torsions:
REMARK  status: ('A' for Active; 'I' for Inactive)
REMARK    1  A    between atoms: O1_2  and  C2_3 
REMARK    2  A    between atoms: C9_12  and  N3_13 
REMARK    3  A    between atoms: N3_13  and  C10_14 
REMARK    4  A    between atoms: C18_23  and  N4_24 
REMARK       I    between atoms: N4_24  and  C19_25 
REMARK    5  A    between atoms: C19_25  and  C20_27 
REMARK    6  A    between atoms: C20_27  and  C21_29 
REMARK    7  A    between atoms: C21_29  and  N5_30 
ROOT
HETATM    1  C2  UNL     1       0.793  -1.956   0.549  1.00  0.00     0.092 A 
HETATM    2  C3  UNL     1      -0.095  -2.968   0.594  1.00  0.00     0.027 A 
HETATM    3  C4  UNL     1      -1.543  -2.813   0.744  1.00  0.00     0.087 A 
HETATM    4  C5  UNL     1      -2.042  -3.625   1.857  1.00  0.00     0.102 C 
HETATM    5  N1  UNL     1      -3.270  -3.660   2.275  1.00  0.00    -0.275 NA
HETATM    6  C6  UNL     1      -4.368  -2.935   1.755  1.00  0.00     0.140 C 
HETATM    7  C7  UNL     1      -4.239  -1.704   1.228  1.00  0.00     0.089 C 
HETATM    8  C8  UNL     1      -5.494  -1.120   0.744  1.00  0.00     0.103 C 
HETATM    9  N2  UNL     1      -6.475  -0.673   0.384  1.00  0.00    -0.191 NA
HETATM   10  C9  UNL     1      -3.061  -0.812   1.085  1.00  0.00     0.062 C 
HETATM   11  C16 UNL     1      -1.860  -1.370   0.867  1.00  0.00    -0.015 A 
HETATM   12  C17 UNL     1      -0.919  -0.267   0.805  1.00  0.00     0.043 A 
HETATM   13  C18 UNL     1       0.355  -0.550   0.656  1.00  0.00     0.068 A 
ENDROOT
BRANCH  10  14
HETATM   14  N3  UNL     1      -3.286   0.581   1.204  1.00  0.00    -0.354 N 
HETATM   15  H8  UNL     1      -2.923   1.242   1.952  1.00  0.00     0.166 HD
BRANCH  14  16
HETATM   16  C10 UNL     1      -4.067   1.292   0.272  1.00  0.00     0.032 A 
HETATM   17  C11 UNL     1      -5.027   2.222   0.689  1.00  0.00     0.032 A 
HETATM   18  C12 UNL     1      -5.719   2.835  -0.317  1.00  0.00     0.044 A 
HETATM   19  C13 UNL     1      -5.505   2.575  -1.648  1.00  0.00     0.116 A 
HETATM   20  F1  UNL     1      -6.194   3.178  -2.654  1.00  0.00    -0.206 F 
HETATM   21  C14 UNL     1      -4.545   1.647  -2.048  1.00  0.00     0.044 A 
HETATM   22  C15 UNL     1      -3.820   1.002  -1.049  1.00  0.00     0.032 A 
ENDBRANCH  14  16
ENDBRANCH  10  14
BRANCH  13  23
HETATM   23  N4  UNL     1       1.491   0.289   0.555  1.00  0.00    -0.323 N 
HETATM   24  C19 UNL     1       2.412   0.229  -0.512  1.00  0.00     0.242 C 
HETATM   25  O2  UNL     1       2.380  -0.563  -1.519  1.00  0.00    -0.271 OA
HETATM   26  H14 UNL     1       1.686   1.002   1.287  1.00  0.00     0.169 HD
BRANCH  24  27
HETATM   27  C20 UNL     1       3.594   1.164  -0.536  1.00  0.00     0.202 C 
HETATM   28 CL1  UNL     1       4.370   1.092   1.052  1.00  0.00    -0.113 Cl
BRANCH  27  29
HETATM   29  C21 UNL     1       4.579   0.793  -1.593  1.00  0.00     0.301 C 
BRANCH  29  30
HETATM   30  N5  UNL     1       5.736   1.621  -1.684  1.00  0.00     0.081 N 
HETATM   31  C22 UNL     1       6.636   1.507  -0.556  1.00  0.00     0.309 C 
HETATM   32  C23 UNL     1       5.498   2.987  -2.052  1.00  0.00     0.309 C 
ENDBRANCH  29  30
ENDBRANCH  27  29
ENDBRANCH  24  27
ENDBRANCH  13  23
BRANCH   1  33
HETATM   33  O1  UNL     1       2.043  -2.512   0.397  1.00  0.00    -0.354 OA
HETATM   34  C1  UNL     1       2.890  -2.619   1.526  1.00  0.00     0.210 C 
ENDBRANCH   1  33
TORSDOF 7
