REMARK  7 active torsions:
REMARK  status: ('A' for Active; 'I' for Inactive)
REMARK    1  A    between atoms: C3_3  and  N1_4 
REMARK    2  A    between atoms: C5_6  and  O1_7 
REMARK    3  A    between atoms: C7_10  and  C8_11 
REMARK       I    between atoms: C8_11  and  N3_13 
REMARK    4  A    between atoms: N3_13  and  C9_14 
REMARK    5  A    between atoms: C10_15  and  C11_16 
REMARK    6  A    between atoms: C11_16  and  C12_17 
REMARK    7  A    between atoms: N4_18  and  C13_19 
ROOT
HETATM    1  C13 UNL     1       5.548   1.807  -0.157  1.00  0.00     0.070 C 
HETATM    2  C14 UNL     1       5.903   1.988  -1.304  1.00  0.00     0.131 C 
HETATM    3  F1  UNL     1       6.296   2.189  -2.549  1.00  0.00    -0.142 F 
ENDROOT
BRANCH   1   4
HETATM    4  N4  UNL     1       5.145   1.581   1.171  1.00  0.00    -0.212 NA
HETATM    5  C12 UNL     1       4.266   0.683   1.468  1.00  0.00     0.104 C 
BRANCH   5   6
HETATM    6  C11 UNL     1       3.391  -0.355   0.845  1.00  0.00     0.076 C 
BRANCH   6   7
HETATM    7  C10 UNL     1       3.556  -0.381  -0.613  1.00  0.00    -0.004 C 
HETATM    8  C9  UNL     1       2.567  -0.157  -1.448  1.00  0.00     0.087 C 
BRANCH   8   9
HETATM    9  N3  UNL     1       1.319   0.113  -0.821  1.00  0.00    -0.331 N 
HETATM   10  C8  UNL     1       0.345  -0.845  -1.200  1.00  0.00     0.291 C 
HETATM   11  O2  UNL     1       0.781  -1.721  -2.002  1.00  0.00    -0.264 OA
HETATM   12  H12 UNL     1       1.028   0.865  -0.162  1.00  0.00     0.168 HD
BRANCH  10  13
HETATM   13  C7  UNL     1      -1.043  -0.883  -0.754  1.00  0.00     0.197 C 
HETATM   14  N1  UNL     1      -1.692   0.015   0.139  1.00  0.00    -0.334 N 
HETATM   15  C4  UNL     1      -3.113  -0.156  -0.207  1.00  0.00     0.185 C 
HETATM   16  C5  UNL     1      -3.121  -1.594  -0.571  1.00  0.00     0.264 C 
HETATM   17  N2  UNL     1      -1.843  -1.807  -1.169  1.00  0.00    -0.234 NA
BRANCH  14  18
HETATM   18  C3  UNL     1      -1.068   0.847   1.109  1.00  0.00     0.088 C 
HETATM   19  C2  UNL     1      -1.305   2.145   1.183  1.00  0.00    -0.014 C 
HETATM   20  C1  UNL     1      -2.261   2.734   0.210  1.00  0.00     0.037 C 
ENDBRANCH  14  18
BRANCH  16  21
HETATM   21  O1  UNL     1      -3.468  -2.479   0.408  1.00  0.00    -0.368 OA
HETATM   22  C6  UNL     1      -4.579  -3.235   0.163  1.00  0.00     0.204 C 
ENDBRANCH  16  21
ENDBRANCH  10  13
ENDBRANCH   8   9
ENDBRANCH   6   7
ENDBRANCH   5   6
ENDBRANCH   1   4
TORSDOF 7
