REMARK  5 active torsions:
REMARK  status: ('A' for Active; 'I' for Inactive)
REMARK    1  A    between atoms: C5_6  and  C6_7 
REMARK    2  A    between atoms: C7_8  and  C8_9 
REMARK    3  A    between atoms: C8_9  and  N2_10 
REMARK    4  A    between atoms: N2_10  and  N3_11 
REMARK       I    between atoms: N3_11  and  C9_12 
REMARK       I    between atoms: C9_12  and  N4_14 
REMARK    5  A    between atoms: N4_14  and  C10_15 
ROOT
HETATM    1  N1  UNL     1       7.513  -0.841  -3.196  1.00  0.00    -0.191 NA
HETATM    2  C1  UNL     1       6.589  -0.822  -2.494  1.00  0.00     0.101 C 
HETATM    3  C2  UNL     1       5.456  -0.787  -1.611  1.00  0.00     0.062 A 
HETATM    4  C3  UNL     1       5.286   0.378  -0.886  1.00  0.00     0.026 A 
HETATM    5  C4  UNL     1       4.226   0.506  -0.012  1.00  0.00     0.033 A 
HETATM    6  C5  UNL     1       3.367  -0.567   0.097  1.00  0.00     0.056 A 
HETATM    7  N5  UNL     1       3.546  -1.694  -0.615  1.00  0.00    -0.260 NA
HETATM    8  C16 UNL     1       4.572  -1.848  -1.477  1.00  0.00     0.140 A 
ENDROOT
BRANCH   6   9
HETATM    9  C6  UNL     1       2.228  -0.494   1.004  1.00  0.00     0.029 C 
HETATM   10  C7  UNL     1       1.955   0.563   1.752  1.00  0.00    -0.009 C 
BRANCH  10  11
HETATM   11  C8  UNL     1       0.786   0.645   2.686  1.00  0.00     0.137 C 
BRANCH  11  12
HETATM   12  N2  UNL     1      -0.031   1.780   2.231  1.00  0.00    -0.233 NA
HETATM   13  H7  UNL     1       0.515   2.666   2.286  1.00  0.00     0.146 HD
BRANCH  12  14
HETATM   14  N3  UNL     1      -0.472   1.597   0.934  1.00  0.00    -0.273 N 
HETATM   15  C9  UNL     1      -1.727   0.928   0.871  1.00  0.00     0.335 C 
HETATM   16  O1  UNL     1      -2.321   0.567   1.929  1.00  0.00    -0.246 OA
HETATM   17  N4  UNL     1      -2.385   0.627  -0.373  1.00  0.00    -0.308 N 
HETATM   18  H9  UNL     1      -1.924   0.910  -1.269  1.00  0.00     0.170 HD
HETATM   19  H8  UNL     1      -0.078   1.846  -0.015  1.00  0.00     0.185 HD
BRANCH  17  20
HETATM   20  C10 UNL     1      -3.644  -0.046  -0.397  1.00  0.00     0.038 A 
HETATM   21  C11 UNL     1      -4.693   0.872  -0.359  1.00  0.00     0.032 A 
HETATM   22  C12 UNL     1      -6.012   0.452  -0.373  1.00  0.00     0.046 A 
HETATM   23  C13 UNL     1      -6.277  -0.901  -0.427  1.00  0.00     0.138 A 
HETATM   24  F1  UNL     1      -7.560  -1.352  -0.442  1.00  0.00    -0.204 F 
HETATM   25  C14 UNL     1      -5.239  -1.802  -0.464  1.00  0.00     0.074 A 
HETATM   26 CL1  UNL     1      -5.504  -3.544  -0.533  1.00  0.00    -0.081 Cl
HETATM   27  C15 UNL     1      -3.933  -1.403  -0.451  1.00  0.00     0.056 A 
ENDBRANCH  17  20
ENDBRANCH  12  14
ENDBRANCH  11  12
ENDBRANCH  10  11
ENDBRANCH   6   9
TORSDOF 5
