REMARK  9 active torsions:
REMARK  status: ('A' for Active; 'I' for Inactive)
REMARK    1  A    between atoms: C2_2  and  O1_3 
REMARK    2  A    between atoms: O1_3  and  C3_4 
REMARK    3  A    between atoms: C7_8  and  N1_9 
REMARK    4  A    between atoms: N1_9  and  C8_10 
REMARK    5  A    between atoms: C15_17  and  N2_18 
REMARK    6  A    between atoms: N2_18  and  C16_19 
REMARK    7  A    between atoms: C16_19  and  C18_21 
REMARK    8  A    between atoms: C18_21  and  N3_22 
REMARK    9  A    between atoms: N3_22  and  C20_24 
ROOT
HETATM    1  C3  UNL     1      -0.702  -2.384   0.333  1.00  0.00     0.091 A 
HETATM    2  C4  UNL     1       0.455  -3.008   0.227  1.00  0.00     0.017 A 
HETATM    3  C5  UNL     1       1.825  -2.508  -0.007  1.00  0.00     0.070 A 
HETATM    4  C6  UNL     1       1.763  -1.030  -0.127  1.00  0.00    -0.037 A 
HETATM    5  C7  UNL     1       2.896  -0.377  -0.341  1.00  0.00     0.095 C 
HETATM    6  C14 UNL     1       0.518  -0.293  -0.018  1.00  0.00     0.040 A 
HETATM    7  C15 UNL     1      -0.622  -0.922   0.195  1.00  0.00     0.062 A 
ENDROOT
BRANCH   5   8
HETATM    8  N1  UNL     1       2.980   1.020  -0.474  1.00  0.00    -0.365 N 
HETATM    9  H10 UNL     1       2.171   1.558  -0.835  1.00  0.00     0.165 HD
BRANCH   8  10
HETATM   10  C8  UNL     1       4.116   1.787  -0.146  1.00  0.00     0.031 A 
HETATM   11  C9  UNL     1       4.203   3.165  -0.277  1.00  0.00     0.029 A 
HETATM   12  C10 UNL     1       5.308   3.907   0.043  1.00  0.00     0.002 A 
HETATM   13  C11 UNL     1       6.434   3.279   0.531  1.00  0.00     0.000 A 
HETATM   14  C12 UNL     1       6.416   1.910   0.685  1.00  0.00     0.002 A 
HETATM   15  C13 UNL     1       5.273   1.215   0.346  1.00  0.00     0.029 A 
ENDBRANCH   8  10
ENDBRANCH   5   8
BRANCH   7  16
HETATM   16  N2  UNL     1      -1.863  -0.206   0.304  1.00  0.00    -0.382 N 
HETATM   17  H17 UNL     1      -2.511  -0.048   1.108  1.00  0.00     0.160 HD
BRANCH  16  18
HETATM   18  C16 UNL     1      -2.204   0.366  -0.964  1.00  0.00     0.095 C 
HETATM   19  C17 UNL     1      -2.333  -0.806  -1.944  1.00  0.00     0.034 C 
BRANCH  18  20
HETATM   20  C18 UNL     1      -3.523   1.074  -0.993  1.00  0.00     0.149 C 
BRANCH  20  21
HETATM   21  N3  UNL     1      -3.633   2.174  -0.080  1.00  0.00    -0.362 N 
HETATM   22  C19 UNL     1      -3.264   3.540  -0.451  1.00  0.00     0.152 C 
BRANCH  21  23
HETATM   23  C20 UNL     1      -4.083   2.178   1.260  1.00  0.00     0.350 C 
HETATM   24  O2  UNL     1      -4.211   3.103   2.132  1.00  0.00    -0.284 OA
ENDBRANCH  21  23
ENDBRANCH  20  21
ENDBRANCH  18  20
ENDBRANCH  16  18
ENDBRANCH   7  16
BRANCH   1  25
HETATM   25  O1  UNL     1      -1.913  -3.027   0.557  1.00  0.00    -0.349 OA
BRANCH  25  26
HETATM   26  C2  UNL     1      -2.193  -4.310  -0.007  1.00  0.00     0.171 C 
HETATM   27  C1  UNL     1      -3.585  -4.702   0.440  1.00  0.00     0.034 C 
ENDBRANCH  25  26
ENDBRANCH   1  25
TORSDOF 9
