REMARK  6 active torsions:
REMARK  status: ('A' for Active; 'I' for Inactive)
REMARK    1  A    between atoms: N1_2  and  C3_4 
REMARK    2  A    between atoms: C3_4  and  C4_5 
REMARK    3  A    between atoms: C4_5  and  C5_6 
REMARK       I    between atoms: C5_6  and  N2_8 
REMARK    4  A    between atoms: C9_13  and  N3_15 
REMARK    5  A    between atoms: N3_15  and  N4_16 
REMARK    6  A    between atoms: N4_16  and  C11_17 
ROOT
HETATM    1  C5  UNL     1      -1.793   0.489   0.406  1.00  0.00     0.226 C 
HETATM    2  O1  UNL     1      -2.639   1.179   1.073  1.00  0.00    -0.273 OA
HETATM    3  N2  UNL     1      -0.489   1.052   0.146  1.00  0.00    -0.315 N 
HETATM    4  C6  UNL     1      -0.430   2.342   0.712  1.00  0.00     0.010 C 
HETATM    5  B1  UNL     1       0.934   3.502   0.301  1.00  0.00     0.219 B 
HETATM    6  C7  UNL     1       2.061   2.577  -0.925  1.00  0.00    -0.080 C 
HETATM    7  C8  UNL     1       1.616   1.346  -1.031  1.00  0.00     0.006 C 
HETATM    8  C9  UNL     1       0.578   0.411  -0.562  1.00  0.00     0.122 C 
HETATM    9  C10 UNL     1       0.083  -0.349  -1.791  1.00  0.00     0.063 C 
ENDROOT
BRANCH   8  10
HETATM   10  N3  UNL     1       1.278  -0.519   0.344  1.00  0.00    -0.208 NA
HETATM   11  H17 UNL     1       0.566  -1.206   0.672  1.00  0.00     0.149 HD
BRANCH  10  12
HETATM   12  N4  UNL     1       2.314  -1.163  -0.290  1.00  0.00    -0.319 N 
HETATM   13  H18 UNL     1       2.245  -1.917  -1.014  1.00  0.00     0.181 HD
BRANCH  12  14
HETATM   14  C11 UNL     1       3.636  -0.753   0.086  1.00  0.00     0.044 A 
HETATM   15  C12 UNL     1       3.794   0.236   1.035  1.00  0.00     0.030 A 
HETATM   16  C13 UNL     1       5.031   0.716   1.478  1.00  0.00     0.004 A 
HETATM   17  C14 UNL     1       6.164   0.149   0.916  1.00  0.00     0.019 A 
HETATM   18  C15 UNL     1       6.029  -0.843  -0.035  1.00  0.00     0.013 A 
HETATM   19 BR1  UNL     1       7.539  -1.659  -0.841  1.00  0.00    -0.051 Br
HETATM   20  C16 UNL     1       4.791  -1.315  -0.471  1.00  0.00     0.049 A 
ENDBRANCH  12  14
ENDBRANCH  10  12
ENDBRANCH   8  10
BRANCH   1  21
HETATM   21  C4  UNL     1      -2.347  -0.813   0.015  1.00  0.00     0.133 C 
BRANCH  21  22
HETATM   22  C3  UNL     1      -3.724  -1.089   0.598  1.00  0.00     0.280 C 
BRANCH  22  23
HETATM   23  N1  UNL     1      -4.690  -0.102   0.181  1.00  0.00     0.080 N 
HETATM   24  C1  UNL     1      -5.950  -0.464   0.790  1.00  0.00     0.309 C 
HETATM   25  C2  UNL     1      -4.874  -0.109  -1.247  1.00  0.00     0.309 C 
ENDBRANCH  22  23
ENDBRANCH  21  22
ENDBRANCH   1  21
TORSDOF 6
