REMARK  4 active torsions:
REMARK  status: ('A' for Active; 'I' for Inactive)
REMARK    1  A    between atoms: C8_10  and  N3_11 
REMARK    2  A    between atoms: N3_11  and  C9_12 
REMARK    3  A    between atoms: C17_22  and  C18_23 
REMARK    4  A    between atoms: C18_23  and  N4_24 
ROOT
HETATM    1  C1  UNL     1       1.683   5.329  -0.606  1.00  0.00     0.044 C 
HETATM    2  C2  UNL     1       1.706   3.840  -0.891  1.00  0.00    -0.069 C 
HETATM    3  C3  UNL     1       0.547   3.259  -0.668  1.00  0.00     0.035 C 
HETATM    4  C4  UNL     1      -0.144   1.967  -0.718  1.00  0.00     0.066 C 
HETATM    5  N1  UNL     1      -0.597   2.009  -1.953  1.00  0.00    -0.259 NA
HETATM    6  C5  UNL     1      -1.380   0.998  -2.570  1.00  0.00     0.138 C 
HETATM    7  C6  UNL     1      -1.771  -0.117  -1.972  1.00  0.00     0.067 C 
HETATM    8  C7  UNL     1      -2.536  -1.064  -2.667  1.00  0.00     0.099 C 
HETATM    9  N2  UNL     1      -3.164  -1.857  -3.224  1.00  0.00    -0.192 NA
HETATM   10  C8  UNL     1      -1.431  -0.231  -0.529  1.00  0.00     0.164 C 
HETATM   11  C15 UNL     1      -0.482   0.773  -0.084  1.00  0.00     0.010 C 
HETATM   12  C16 UNL     1       0.185   0.460   1.039  1.00  0.00    -0.001 C 
HETATM   13  C17 UNL     1       1.130  -0.379   0.679  1.00  0.00     0.034 C 
HETATM   14  C21 UNL     1       2.087   0.430  -0.053  1.00  0.00     0.172 A 
HETATM   15  O1  UNL     1       2.155   0.780  -1.240  1.00  0.00    -0.251 OA
HETATM   16  N5  UNL     1       3.313   1.193   0.059  1.00  0.00    -0.297 N 
HETATM   17  S1  UNL     1       3.603   1.921  -1.572  1.00  0.00     0.023 SA
HETATM   18  C22 UNL     1       3.098   3.668  -1.273  1.00  0.00     0.148 C 
HETATM   19  H19 UNL     1       3.459   0.957   1.064  1.00  0.00     0.177 HD
ENDROOT
BRANCH  10  20
HETATM   20  N3  UNL     1      -2.588  -0.306   0.336  1.00  0.00    -0.376 N 
HETATM   21  H7  UNL     1      -2.729   0.616   0.849  1.00  0.00     0.160 HD
BRANCH  20  22
HETATM   22  C9  UNL     1      -3.521  -1.333   0.607  1.00  0.00     0.030 A 
HETATM   23  C10 UNL     1      -3.492  -2.596   0.103  1.00  0.00     0.032 A 
HETATM   24  C11 UNL     1      -4.419  -3.583   0.362  1.00  0.00     0.046 A 
HETATM   25  C12 UNL     1      -5.462  -3.262   1.202  1.00  0.00     0.138 A 
HETATM   26  F1  UNL     1      -6.415  -4.170   1.510  1.00  0.00    -0.204 F 
HETATM   27  C13 UNL     1      -5.534  -2.005   1.734  1.00  0.00     0.074 A 
HETATM   28 CL1  UNL     1      -6.858  -1.603   2.800  1.00  0.00    -0.081 Cl
HETATM   29  C14 UNL     1      -4.581  -1.058   1.442  1.00  0.00     0.056 A 
ENDBRANCH  20  22
ENDBRANCH  10  20
BRANCH  13  30
HETATM   30  C18 UNL     1       1.819  -1.666   0.549  1.00  0.00     0.315 C 
BRANCH  30  31
HETATM   31  N4  UNL     1       3.153  -1.646   1.080  1.00  0.00     0.084 N 
HETATM   32  C19 UNL     1       3.135  -1.511   2.527  1.00  0.00     0.309 C 
HETATM   33  C20 UNL     1       3.870  -2.851   0.733  1.00  0.00     0.309 C 
ENDBRANCH  30  31
ENDBRANCH  13  30
TORSDOF 4
