REMARK  10 active torsions:
REMARK  status: ('A' for Active; 'I' for Inactive)
REMARK    1  A    between atoms: O1_2  and  C2_3 
REMARK    2  A    between atoms: C2_3  and  C3_4 
REMARK    3  A    between atoms: C4_5  and  C5_6 
REMARK       I    between atoms: C5_6  and  N1_8 
REMARK    4  A    between atoms: N1_8  and  C6_9 
REMARK    5  A    between atoms: C11_15  and  N3_16 
REMARK    6  A    between atoms: C12_17  and  N4_18 
REMARK    7  A    between atoms: N4_18  and  C13_19 
REMARK    8  A    between atoms: C13_19  and  C14_20 
REMARK    9  A    between atoms: C14_20  and  C15_21 
REMARK   10  A    between atoms: C16_22  and  C17_23 
ROOT
HETATM    1  C6  UNL     1       2.482  -1.253  -0.585  1.00  0.00     0.036 A 
HETATM    2  C7  UNL     1       2.929  -2.452  -0.047  1.00  0.00     0.032 A 
HETATM    3  C8  UNL     1       2.324  -2.957   1.091  1.00  0.00     0.035 A 
HETATM    4  C9  UNL     1       1.293  -2.211   1.625  1.00  0.00     0.069 A 
HETATM    5  N2  UNL     1       0.668  -2.637   2.729  1.00  0.00    -0.258 NA
HETATM    6  C10 UNL     1      -0.348  -1.941   3.300  1.00  0.00     0.148 A 
HETATM    7  C11 UNL     1      -0.804  -0.740   2.771  1.00  0.00     0.071 A 
HETATM    8  C12 UNL     1      -0.184  -0.271   1.634  1.00  0.00     0.072 A 
HETATM    9  C20 UNL     1       0.851  -1.029   1.097  1.00  0.00     0.024 A 
HETATM   10  C21 UNL     1       1.464  -0.531  -0.045  1.00  0.00     0.045 A 
ENDROOT
BRANCH   1  11
HETATM   11  N1  UNL     1       3.250  -0.893  -1.756  1.00  0.00    -0.316 N 
HETATM   12  C5  UNL     1       4.297  -0.111  -1.214  1.00  0.00     0.301 C 
HETATM   13  O2  UNL     1       4.295   0.062   0.051  1.00  0.00    -0.258 OA
HETATM   14  H6  UNL     1       3.303  -1.000  -2.798  1.00  0.00     0.170 HD
BRANCH  12  15
HETATM   15  C4  UNL     1       5.378   0.519  -1.933  1.00  0.00    -0.003 C 
HETATM   16  C3  UNL     1       6.278   1.055  -2.515  1.00  0.00    -0.070 C 
BRANCH  16  17
HETATM   17  C2  UNL     1       7.409   1.707  -3.222  1.00  0.00     0.261 C 
BRANCH  17  18
HETATM   18  O1  UNL     1       8.264   2.308  -2.267  1.00  0.00    -0.384 OA
HETATM   19  C1  UNL     1       8.737   1.338  -1.408  1.00  0.00     0.202 C 
ENDBRANCH  17  18
ENDBRANCH  16  17
ENDBRANCH  12  15
ENDBRANCH   1  11
BRANCH   8  20
HETATM   20  N4  UNL     1      -0.573   0.946   1.013  1.00  0.00    -0.363 N 
HETATM   21  H12 UNL     1      -0.166   1.858   0.714  1.00  0.00     0.165 HD
BRANCH  20  22
HETATM   22  C13 UNL     1      -1.955   0.835   0.721  1.00  0.00     0.088 C 
BRANCH  22  23
HETATM   23  C14 UNL     1      -3.171   0.561   0.298  1.00  0.00     0.017 C 
BRANCH  23  24
HETATM   24  C15 UNL     1      -4.454   0.198  -0.220  1.00  0.00    -0.002 C 
HETATM   25  C16 UNL     1      -5.351   0.954   0.372  1.00  0.00    -0.023 C 
BRANCH  25  26
HETATM   26  C17 UNL     1      -6.793   0.896   0.120  1.00  0.00    -0.000 C 
HETATM   27  C18 UNL     1      -7.160  -0.163  -0.909  1.00  0.00     0.013 C 
HETATM   28  C19 UNL     1      -7.354   2.220  -0.370  1.00  0.00     0.013 C 
ENDBRANCH  25  26
ENDBRANCH  23  24
ENDBRANCH  22  23
ENDBRANCH  20  22
ENDBRANCH   8  20
BRANCH   7  29
HETATM   29  N3  UNL     1      -1.873   0.011   3.357  1.00  0.00    -0.396 N 
HETATM   30  H10 UNL     1      -1.847   0.765   4.097  1.00  0.00     0.156 HD
HETATM   31  H11 UNL     1      -2.882  -0.099   3.110  1.00  0.00     0.156 HD
ENDBRANCH   7  29
TORSDOF 10
