REMARK  6 active torsions:
REMARK  status: ('A' for Active; 'I' for Inactive)
REMARK    1  A    between atoms: O1_2  and  C2_3 
REMARK    2  A    between atoms: C2_3  and  C3_4 
REMARK    3  A    between atoms: C4_5  and  C5_6 
REMARK       I    between atoms: C5_6  and  N1_8 
REMARK    4  A    between atoms: N1_8  and  C6_9 
REMARK    5  A    between atoms: C13_19  and  N4_20 
REMARK    6  A    between atoms: N4_20  and  C14_21 
ROOT
HETATM    1  C6  UNL     1       0.828   0.312  -1.046  1.00  0.00     0.037 A 
HETATM    2  C7  UNL     1       0.925  -0.035  -2.403  1.00  0.00     0.051 A 
HETATM    3  C8  UNL     1      -0.216  -0.143  -3.215  1.00  0.00     0.042 A 
HETATM    4 BR1  UNL     1      -0.043  -0.613  -5.073  1.00  0.00    -0.049 Br
HETATM    5  C9  UNL     1      -1.440   0.105  -2.624  1.00  0.00     0.086 A 
HETATM    6  N2  UNL     1      -2.548   0.015  -3.369  1.00  0.00    -0.257 NA
HETATM    7  C10 UNL     1      -3.746   0.257  -2.805  1.00  0.00     0.142 A 
HETATM    8  C11 UNL     1      -3.837   0.595  -1.476  1.00  0.00     0.089 A 
HETATM    9  C12 UNL     1      -5.129   0.845  -0.907  1.00  0.00     0.103 C 
HETATM   10  N3  UNL     1      -6.146   1.059  -0.448  1.00  0.00    -0.191 NA
HETATM   11  C13 UNL     1      -2.727   0.707  -0.649  1.00  0.00     0.067 A 
HETATM   12  C19 UNL     1      -1.532   0.444  -1.296  1.00  0.00     0.025 A 
HETATM   13  C20 UNL     1      -0.412   0.552  -0.493  1.00  0.00     0.045 A 
ENDROOT
BRANCH  11  14
HETATM   14  N4  UNL     1      -2.812   1.056   0.728  1.00  0.00    -0.357 N 
HETATM   15  H9  UNL     1      -2.459   1.876   1.265  1.00  0.00     0.166 HD
BRANCH  14  16
HETATM   16  C14 UNL     1      -3.543  -0.005   1.382  1.00  0.00     0.013 A 
HETATM   17  C15 UNL     1      -4.412   0.316   2.346  1.00  0.00     0.025 A 
HETATM   18  C16 UNL     1      -5.043  -0.902   2.873  1.00  0.00    -0.002 A 
HETATM   19  C17 UNL     1      -4.533  -1.923   2.210  1.00  0.00    -0.021 A 
HETATM   20  C18 UNL     1      -3.541  -1.492   1.206  1.00  0.00     0.084 A 
ENDBRANCH  14  16
ENDBRANCH  11  14
BRANCH   1  21
HETATM   21  N1  UNL     1       2.122   0.349  -0.456  1.00  0.00    -0.316 N 
HETATM   22  C5  UNL     1       2.829  -0.659   0.280  1.00  0.00     0.301 C 
HETATM   23  O2  UNL     1       2.443  -1.830   0.569  1.00  0.00    -0.258 OA
HETATM   24  H6  UNL     1       2.584   1.269  -0.612  1.00  0.00     0.170 HD
BRANCH  22  25
HETATM   25  C4  UNL     1       4.145  -0.327   0.761  1.00  0.00    -0.003 C 
HETATM   26  C3  UNL     1       5.248  -0.067   1.176  1.00  0.00    -0.070 C 
BRANCH  26  27
HETATM   27  C2  UNL     1       6.569   0.267   1.689  1.00  0.00     0.261 C 
BRANCH  27  28
HETATM   28  O1  UNL     1       7.544   0.205   0.679  1.00  0.00    -0.384 OA
HETATM   29  C1  UNL     1       7.547  -1.103   0.189  1.00  0.00     0.202 C 
ENDBRANCH  27  28
ENDBRANCH  26  27
ENDBRANCH  22  25
ENDBRANCH   1  21
TORSDOF 6
