REMARK  7 active torsions:
REMARK  status: ('A' for Active; 'I' for Inactive)
REMARK    1  A    between atoms: O1_2  and  C2_3 
REMARK    2  A    between atoms: C5_9  and  N4_10 
REMARK    3  A    between atoms: N4_10  and  C6_11 
REMARK    4  A    between atoms: C14_21  and  C15_22 
REMARK    5  A    between atoms: C15_22  and  N5_23 
REMARK    6  A    between atoms: C19_27  and  C20_28 
REMARK    7  A    between atoms: C20_28  and  C21_29 
REMARK       I    between atoms: C21_29  and  N6_30 
ROOT
HETATM    1  C2  UNL     1      -0.210  -2.488  -0.349  1.00  0.00     0.277 A 
HETATM    2  N1  UNL     1       0.963  -2.564  -1.233  1.00  0.00    -0.235 NA
HETATM    3  C3  UNL     1       1.861  -1.664  -1.311  1.00  0.00     0.140 A 
HETATM    4  N2  UNL     1       2.926  -1.887  -2.207  1.00  0.00    -0.335 N 
HETATM    5  C4  UNL     1       3.875  -0.836  -2.231  1.00  0.00     0.211 A 
HETATM    6  N3  UNL     1       3.786   0.218  -1.516  1.00  0.00    -0.225 NA
HETATM    7  C5  UNL     1       2.744   0.499  -0.603  1.00  0.00     0.143 A 
HETATM    8  C12 UNL     1       1.823  -0.440  -0.528  1.00  0.00     0.056 A 
HETATM    9  C13 UNL     1       0.681  -0.311   0.361  1.00  0.00     0.028 A 
HETATM   10  C14 UNL     1      -0.249  -1.248   0.442  1.00  0.00    -0.001 A 
HETATM   11  H5  UNL     1       3.075  -2.704  -2.819  1.00  0.00     0.168 HD
ENDROOT
BRANCH  10  12
HETATM   12  C15 UNL     1      -1.468  -1.279   1.294  1.00  0.00     0.311 C 
BRANCH  12  13
HETATM   13  N5  UNL     1      -2.603  -1.325   0.406  1.00  0.00     0.097 N 
HETATM   14  C16 UNL     1      -3.861  -1.618   1.052  1.00  0.00     0.273 C 
HETATM   15  C17 UNL     1      -4.809  -1.438  -0.115  1.00  0.00     0.032 C 
HETATM   16  C18 UNL     1      -4.124  -0.412  -1.010  1.00  0.00     0.038 C 
HETATM   17  C19 UNL     1      -2.875  -0.026  -0.190  1.00  0.00     0.232 C 
BRANCH  17  18
HETATM   18  C20 UNL     1      -3.403   0.989   0.805  1.00  0.00     0.138 C 
BRANCH  18  19
HETATM   19  C21 UNL     1      -3.637   2.301   0.090  1.00  0.00     0.217 C 
HETATM   20  N6  UNL     1      -4.135   3.255   1.053  1.00  0.00    -0.370 N 
HETATM   21  H23 UNL     1      -3.646   3.840   1.769  1.00  0.00     0.159 HD
HETATM   22  H24 UNL     1      -5.138   3.562   1.240  1.00  0.00     0.159 HD
HETATM   23  O2  UNL     1      -3.427   2.503  -1.128  1.00  0.00    -0.274 OA
ENDBRANCH  18  19
ENDBRANCH  17  18
ENDBRANCH  12  13
ENDBRANCH  10  12
BRANCH   1  24
HETATM   24  O1  UNL     1      -1.297  -2.670  -1.160  1.00  0.00    -0.366 OA
HETATM   25  C1  UNL     1      -1.906  -3.897  -0.909  1.00  0.00     0.204 C 
ENDBRANCH   1  24
BRANCH   7  26
HETATM   26  N4  UNL     1       2.670   1.695   0.204  1.00  0.00    -0.338 N 
HETATM   27  H7  UNL     1       1.781   2.064   0.596  1.00  0.00     0.167 HD
BRANCH  26  28
HETATM   28  C6  UNL     1       3.995   2.255   0.347  1.00  0.00     0.074 A 
HETATM   29  C7  UNL     1       4.418   3.362  -0.362  1.00  0.00     0.033 A 
HETATM   30  C8  UNL     1       5.721   3.824  -0.202  1.00  0.00     0.004 A 
HETATM   31  C9  UNL     1       6.603   3.199   0.652  1.00  0.00     0.027 A 
HETATM   32  C10 UNL     1       6.161   2.106   1.343  1.00  0.00     0.074 A 
HETATM   33 CL1  UNL     1       7.289   1.291   2.427  1.00  0.00    -0.081 Cl
HETATM   34  C11 UNL     1       4.871   1.606   1.220  1.00  0.00     0.164 A 
HETATM   35  F1  UNL     1       4.491   0.523   1.926  1.00  0.00    -0.202 F 
ENDBRANCH  26  28
ENDBRANCH   7  26
TORSDOF 7
