REMARK  4 active torsions:
REMARK  status: ('A' for Active; 'I' for Inactive)
REMARK    1  A    between atoms: C2_2  and  C3_3 
REMARK       I    between atoms: C3_3  and  N1_5 
REMARK    2  A    between atoms: N1_5  and  C4_6 
REMARK    3  A    between atoms: C5_7  and  C6_8 
REMARK    4  A    between atoms: C9_11  and  C10_12 
ROOT
HETATM    1  C6  UNL     1       0.617  -0.275   0.116  1.00  0.00     0.054 C 
HETATM    2  C7  UNL     1      -0.205   0.124  -0.822  1.00  0.00     0.009 C 
HETATM    3  C8  UNL     1      -1.651   0.140  -1.042  1.00  0.00     0.070 C 
HETATM    4  C9  UNL     1      -2.473  -0.258   0.107  1.00  0.00    -0.022 C 
HETATM    5  C16 UNL     1      -2.207  -0.772   1.295  1.00  0.00     0.069 C 
HETATM    6  C17 UNL     1      -3.279  -1.052   2.200  1.00  0.00     0.101 C 
HETATM    7  N2  UNL     1      -4.143  -1.299   2.930  1.00  0.00    -0.191 NA
HETATM    8  C18 UNL     1      -0.904  -1.109   1.846  1.00  0.00     0.140 C 
HETATM    9  N3  UNL     1       0.239  -0.886   1.328  1.00  0.00    -0.260 NA
ENDROOT
BRANCH   4  10
HETATM   10  C10 UNL     1      -3.874   0.032  -0.163  1.00  0.00    -0.027 A 
HETATM   11  C11 UNL     1      -4.449  -0.361  -1.333  1.00  0.00     0.012 A 
HETATM   12  C12 UNL     1      -5.775  -0.087  -1.650  1.00  0.00     0.002 A 
HETATM   13  C13 UNL     1      -6.565   0.615  -0.755  1.00  0.00     0.019 A 
HETATM   14  C14 UNL     1      -6.021   1.029   0.436  1.00  0.00     0.011 A 
HETATM   15 BR1  UNL     1      -7.075   2.008   1.719  1.00  0.00    -0.051 Br
HETATM   16  C15 UNL     1      -4.700   0.727   0.694  1.00  0.00     0.031 A 
ENDBRANCH   4  10
BRANCH   1  17
HETATM   17  C5  UNL     1       2.078  -0.105  -0.049  1.00  0.00     0.048 C 
HETATM   18  C4  UNL     1       2.891  -0.499   0.883  1.00  0.00     0.093 C 
BRANCH  18  19
HETATM   19  N1  UNL     1       4.297  -0.429   0.918  1.00  0.00    -0.337 N 
HETATM   20  C3  UNL     1       5.197   0.084  -0.071  1.00  0.00     0.221 C 
HETATM   21  O1  UNL     1       4.660   0.535  -1.115  1.00  0.00    -0.273 OA
HETATM   22  H6  UNL     1       4.819  -0.792   1.773  1.00  0.00     0.168 HD
BRANCH  20  23
HETATM   23  C2  UNL     1       6.667   0.073   0.148  1.00  0.00     0.098 C 
HETATM   24  C1  UNL     1       7.326   0.677  -1.073  1.00  0.00     0.014 C 
ENDBRANCH  20  23
ENDBRANCH  18  19
ENDBRANCH   1  17
TORSDOF 4
