REMARK  5 active torsions:
REMARK  status: ('A' for Active; 'I' for Inactive)
REMARK    1  A    between atoms: O1_2  and  C2_3 
REMARK    2  A    between atoms: C14_18  and  N3_19 
REMARK       I    between atoms: N3_19  and  C15_20 
REMARK    3  A    between atoms: C15_20  and  C16_22 
REMARK    4  A    between atoms: C17_23  and  C18_24 
REMARK    5  A    between atoms: C18_24  and  N4_26 
ROOT
HETATM    1  C2  UNL     1      -3.373   3.133   0.851  1.00  0.00     0.179 C 
HETATM    2  C3  UNL     1      -2.685   1.964   1.470  1.00  0.00    -0.021 C 
HETATM    3  C4  UNL     1      -3.835   1.741   2.150  1.00  0.00     0.053 C 
HETATM    4  C5  UNL     1      -4.102   1.268   3.484  1.00  0.00     0.097 C 
HETATM    5  N1  UNL     1      -4.297   0.887   4.559  1.00  0.00    -0.192 NA
HETATM    6  C6  UNL     1      -4.536   2.186   0.942  1.00  0.00     0.158 C 
HETATM    7  N2  UNL     1      -4.405   1.197  -0.110  1.00  0.00    -0.387 N 
HETATM    8  C7  UNL     1      -5.416   0.259  -0.505  1.00  0.00     0.083 C 
HETATM    9  C8  UNL     1      -4.975  -1.019  -0.459  1.00  0.00     0.017 C 
HETATM   10  C9  UNL     1      -3.900  -1.955  -0.187  1.00  0.00     0.006 C 
HETATM   11  C10 UNL     1      -3.058  -2.946   0.009  1.00  0.00    -0.062 C 
HETATM   12  C11 UNL     1      -3.563  -4.310  -0.241  1.00  0.00     0.045 C 
HETATM   13  C12 UNL     1      -1.634  -2.828   0.493  1.00  0.00     0.135 C 
HETATM   14 CL1  UNL     1      -1.478  -3.575   2.098  1.00  0.00    -0.116 Cl
HETATM   15  C13 UNL     1      -1.216  -1.417   0.615  1.00  0.00     0.027 C 
HETATM   16  C14 UNL     1      -0.193  -0.623   0.325  1.00  0.00     0.029 C 
HETATM   17  C22 UNL     1      -0.511   0.802   0.591  1.00  0.00     0.012 C 
HETATM   18  C23 UNL     1      -1.289   1.812   0.972  1.00  0.00     0.055 C 
HETATM   19  H6  UNL     1      -3.503   1.119  -0.668  1.00  0.00     0.159 HD
ENDROOT
BRANCH   1  20
HETATM   20  O1  UNL     1      -3.419   4.270   1.582  1.00  0.00    -0.384 OA
HETATM   21  C1  UNL     1      -3.142   5.456   0.969  1.00  0.00     0.202 C 
ENDBRANCH   1  20
BRANCH  16  22
HETATM   22  N3  UNL     1       1.040  -0.872  -0.280  1.00  0.00    -0.324 N 
HETATM   23  C15 UNL     1       2.128  -0.547   0.575  1.00  0.00     0.245 C 
HETATM   24  O2  UNL     1       1.772  -0.103   1.695  1.00  0.00    -0.268 OA
HETATM   25  H15 UNL     1       1.260  -1.250  -1.238  1.00  0.00     0.169 HD
BRANCH  23  26
HETATM   26  C16 UNL     1       3.533  -0.696   0.231  1.00  0.00     0.072 C 
HETATM   27  C17 UNL     1       3.916  -1.162  -0.943  1.00  0.00     0.013 C 
BRANCH  27  28
HETATM   28  C18 UNL     1       5.330  -1.328  -1.328  1.00  0.00     0.241 C 
HETATM   29  C19 UNL     1       6.199  -1.000  -0.143  1.00  0.00     0.047 C 
BRANCH  28  30
HETATM   30  N4  UNL     1       5.611  -0.461  -2.459  1.00  0.00     0.087 N 
HETATM   31  C20 UNL     1       5.366   0.928  -2.111  1.00  0.00     0.310 C 
HETATM   32  C21 UNL     1       7.004  -0.569  -2.854  1.00  0.00     0.310 C 
ENDBRANCH  28  30
ENDBRANCH  27  28
ENDBRANCH  23  26
ENDBRANCH  16  22
TORSDOF 5
