REMARK  6 active torsions:
REMARK  status: ('A' for Active; 'I' for Inactive)
REMARK    1  A    between atoms: C2_2  and  C3_3 
REMARK    2  A    between atoms: C3_3  and  N2_11 
REMARK    3  A    between atoms: C4_4  and  C5_5 
REMARK       I    between atoms: N2_11  and  C10_12 
REMARK    4  A    between atoms: C10_12  and  C11_14 
REMARK    5  A    between atoms: C12_15  and  C13_16 
REMARK    6  A    between atoms: C13_16  and  N3_18 
ROOT
HETATM    1  N2  UNL     1      -0.413   0.851  -0.982  1.00  0.00    -0.324 N 
HETATM    2  C10 UNL     1       0.682   0.135  -0.380  1.00  0.00     0.245 C 
HETATM    3  O1  UNL     1       0.370  -0.293   0.760  1.00  0.00    -0.268 OA
HETATM    4  H11 UNL     1      -0.280   1.263  -1.948  1.00  0.00     0.169 HD
ENDROOT
BRANCH   1   5
HETATM    5  C3  UNL     1      -1.653   1.013  -0.309  1.00  0.00     0.032 C 
HETATM    6  C4  UNL     1      -2.761   0.522  -0.824  1.00  0.00     0.042 C 
BRANCH   5   7
HETATM    7  C2  UNL     1      -1.429   1.746   0.907  1.00  0.00     0.003 C 
HETATM    8  C1  UNL     1      -0.327   2.265   1.467  1.00  0.00     0.033 C 
ENDBRANCH   5   7
BRANCH   6   9
HETATM    9  C5  UNL     1      -4.093   0.609  -0.256  1.00  0.00    -0.013 A 
HETATM   10  C6  UNL     1      -5.227   0.132  -0.739  1.00  0.00    -0.052 A 
HETATM   11  C7  UNL     1      -5.292  -0.616  -2.028  1.00  0.00     0.046 C 
HETATM   12  C8  UNL     1      -6.362   0.432   0.142  1.00  0.00     0.183 A 
HETATM   13  N1  UNL     1      -5.767   1.162   1.234  1.00  0.00    -0.297 NA
HETATM   14  C9  UNL     1      -4.510   1.243   0.985  1.00  0.00     0.122 A 
ENDBRANCH   6   9
ENDBRANCH   1   5
BRANCH   2  15
HETATM   15  C11 UNL     1       1.967  -0.050  -1.037  1.00  0.00     0.072 C 
HETATM   16  C12 UNL     1       3.002  -0.683  -0.561  1.00  0.00     0.003 C 
BRANCH  16  17
HETATM   17  C13 UNL     1       3.223  -1.387   0.724  1.00  0.00     0.097 C 
HETATM   18  C14 UNL     1       3.433  -2.857   0.468  1.00  0.00     0.036 C 
BRANCH  17  19
HETATM   19  N3  UNL     1       4.335  -0.768   1.394  1.00  0.00    -0.414 N 
HETATM   20  C15 UNL     1       5.571  -0.797   0.686  1.00  0.00     0.143 C 
HETATM   21  C16 UNL     1       4.009   0.461   2.039  1.00  0.00     0.143 C 
ENDBRANCH  17  19
ENDBRANCH  16  17
ENDBRANCH   2  15
TORSDOF 6
