REMARK  6 active torsions:
REMARK  status: ('A' for Active; 'I' for Inactive)
REMARK    1  A    between atoms: C2_2  and  N1_3 
REMARK    2  A    between atoms: C7_10  and  N4_13 
REMARK    3  A    between atoms: N4_13  and  C9_14 
REMARK    4  A    between atoms: C9_14  and  S2_15 
REMARK    5  A    between atoms: S2_15  and  C10_16 
REMARK    6  A    between atoms: C16_24  and  O1_25 
ROOT
HETATM    1  N1  UNL     1      -4.404   0.760   0.363  1.00  0.00     0.088 N 
HETATM    2  C3  UNL     1      -3.162   1.048   0.959  1.00  0.00     0.280 C 
HETATM    3  C4  UNL     1      -2.049   1.057  -0.025  1.00  0.00     0.071 C 
HETATM    4  C5  UNL     1      -0.899   0.762  -0.693  1.00  0.00     0.257 A 
HETATM    5  N2  UNL     1      -0.499   1.601  -1.999  1.00  0.00     0.130 N 
HETATM    6  C6  UNL     1       0.524   1.038  -1.726  1.00  0.00     0.299 A 
HETATM    7  S1  UNL     1       1.644   0.401  -1.402  1.00  0.00    -0.073 SA
HETATM    8  C7  UNL     1       3.190  -0.510  -0.917  1.00  0.00     0.187 C 
HETATM    9  C8  UNL     1       3.498  -1.297  -2.083  1.00  0.00     0.104 C 
HETATM   10  N3  UNL     1       3.759  -1.939  -3.008  1.00  0.00    -0.194 NA
HETATM   11  C13 UNL     1       2.265  -1.152   0.091  1.00  0.00     0.207 C 
HETATM   12  N5  UNL     1       0.938  -1.160   0.337  1.00  0.00    -0.287 NA
HETATM   13  C14 UNL     1      -0.164  -0.489   0.060  1.00  0.00     0.074 C 
HETATM   14  C15 UNL     1      -1.169  -1.298   0.708  1.00  0.00     0.061 C 
HETATM   15  C16 UNL     1      -2.405  -1.510   0.282  1.00  0.00     0.049 C 
HETATM   16  C18 UNL     1      -3.376  -1.195  -0.807  1.00  0.00     0.095 C 
HETATM   17  C19 UNL     1      -4.570  -0.537  -0.219  1.00  0.00     0.279 C 
HETATM   18  H9  UNL     1      -1.469   1.840  -1.866  1.00  0.00     0.320 HD
ENDROOT
BRANCH   8  19
HETATM   19  N4  UNL     1       4.245   0.273  -0.389  1.00  0.00    -0.376 N 
HETATM   20  H10 UNL     1       4.457   0.004   0.590  1.00  0.00     0.157 HD
BRANCH  19  21
HETATM   21  C9  UNL     1       4.601   1.150  -1.454  1.00  0.00     0.279 C 
BRANCH  21  22
HETATM   22  S2  UNL     1       6.177   1.772  -1.357  1.00  0.00    -0.189 SA
BRANCH  22  23
HETATM   23  C10 UNL     1       6.819   0.883  -0.038  1.00  0.00    -0.035 C 
HETATM   24  C11 UNL     1       6.442   1.935   0.914  1.00  0.00     0.052 C 
HETATM   25  C12 UNL     1       7.268  -0.272  -0.688  1.00  0.00     0.261 C 
HETATM   26  F1  UNL     1       8.560  -0.358  -0.089  1.00  0.00    -0.250 F 
ENDBRANCH  22  23
ENDBRANCH  21  22
ENDBRANCH  19  21
ENDBRANCH   8  19
BRANCH  15  27
HETATM   27  O1  UNL     1      -3.141  -2.352   1.143  1.00  0.00    -0.360 OA
HETATM   28  C17 UNL     1      -3.266  -3.720   0.807  1.00  0.00     0.209 C 
ENDBRANCH  15  27
BRANCH   1  29
HETATM   29  C2  UNL     1      -5.585   1.043   1.096  1.00  0.00     0.268 C 
HETATM   30  C1  UNL     1      -5.880   2.488   1.317  1.00  0.00     0.037 C 
ENDBRANCH   1  29
TORSDOF 6
