REMARK  6 active torsions:
REMARK  status: ('A' for Active; 'I' for Inactive)
REMARK    1  A    between atoms: O1_2  and  C2_3 
REMARK    2  A    between atoms: C8_11  and  N3_12 
REMARK    3  A    between atoms: N3_12  and  C9_13 
REMARK       I    between atoms: N4_23  and  C17_24 
REMARK    4  A    between atoms: C17_24  and  C18_26 
REMARK    5  A    between atoms: C19_27  and  C20_28 
REMARK    6  A    between atoms: C20_28  and  N5_30 
ROOT
HETATM    1  C2  UNL     1      -0.153   1.748  -2.071  1.00  0.00     0.153 A 
HETATM    2  C3  UNL     1       0.919   2.403  -2.483  1.00  0.00     0.088 A 
HETATM    3  C4  UNL     1       2.088   2.394  -1.610  1.00  0.00     0.070 A 
HETATM    4  N1  UNL     1       3.154   3.016  -1.965  1.00  0.00    -0.259 NA
HETATM    5  C5  UNL     1       4.334   3.051  -1.167  1.00  0.00     0.138 A 
HETATM    6  C6  UNL     1       4.310   2.398   0.007  1.00  0.00     0.067 A 
HETATM    7  C7  UNL     1       5.515   2.442   0.806  1.00  0.00     0.099 C 
HETATM    8  N2  UNL     1       6.486   2.491   1.457  1.00  0.00    -0.192 NA
HETATM    9  C8  UNL     1       3.188   1.634   0.594  1.00  0.00     0.164 A 
HETATM   10  C15 UNL     1       2.010   1.670  -0.346  1.00  0.00     0.015 A 
HETATM   11  C16 UNL     1       0.884   1.050  -0.039  1.00  0.00     0.114 A 
HETATM   12  N4  UNL     1      -0.285   1.024  -0.849  1.00  0.00    -0.269 N 
HETATM   13  C17 UNL     1      -1.483   0.355  -0.506  1.00  0.00     0.253 C 
HETATM   14  O2  UNL     1      -2.446   0.427  -1.341  1.00  0.00    -0.268 OA
ENDROOT
BRANCH   9  15
HETATM   15  N3  UNL     1       3.498   0.336   1.071  1.00  0.00    -0.376 N 
HETATM   16  H7  UNL     1       3.370   0.102   2.105  1.00  0.00     0.160 HD
BRANCH  15  17
HETATM   17  C9  UNL     1       3.981  -0.740   0.304  1.00  0.00     0.030 A 
HETATM   18  C10 UNL     1       4.217  -0.686  -1.053  1.00  0.00     0.032 A 
HETATM   19  C11 UNL     1       4.691  -1.717  -1.837  1.00  0.00     0.046 A 
HETATM   20  C12 UNL     1       4.963  -2.926  -1.234  1.00  0.00     0.138 A 
HETATM   21  F1  UNL     1       5.426  -3.986  -1.907  1.00  0.00    -0.204 F 
HETATM   22  C13 UNL     1       4.750  -3.052   0.121  1.00  0.00     0.074 A 
HETATM   23 CL1  UNL     1       5.090  -4.582   0.903  1.00  0.00    -0.081 Cl
HETATM   24  C14 UNL     1       4.279  -1.985   0.827  1.00  0.00     0.056 A 
ENDBRANCH  15  17
ENDBRANCH   9  15
BRANCH   1  25
HETATM   25  O1  UNL     1      -1.256   1.777  -2.932  1.00  0.00    -0.340 OA
HETATM   26  C1  UNL     1      -2.081   2.941  -2.974  1.00  0.00     0.211 C 
ENDBRANCH   1  25
BRANCH  13  27
HETATM   27  C18 UNL     1      -1.626  -0.375   0.721  1.00  0.00     0.073 C 
HETATM   28  C19 UNL     1      -2.730  -1.008   1.068  1.00  0.00     0.013 C 
BRANCH  28  29
HETATM   29  C20 UNL     1      -4.074  -1.247   0.520  1.00  0.00     0.241 C 
HETATM   30  C21 UNL     1      -4.309  -2.733   0.320  1.00  0.00     0.047 C 
BRANCH  29  31
HETATM   31  N5  UNL     1      -5.080  -0.666   1.393  1.00  0.00     0.087 N 
HETATM   32  C22 UNL     1      -4.983  -1.281   2.719  1.00  0.00     0.310 C 
HETATM   33  C23 UNL     1      -6.405  -0.855   0.854  1.00  0.00     0.310 C 
ENDBRANCH  29  31
ENDBRANCH  28  29
ENDBRANCH  13  27
TORSDOF 6
