REMARK  3 active torsions:
REMARK  status: ('A' for Active; 'I' for Inactive)
REMARK    1  A    between atoms: O1_2  and  C2_3 
REMARK    2  A    between atoms: C15_20  and  C16_21 
REMARK    3  A    between atoms: C16_21  and  N4_22 
ROOT
HETATM    1  C2  UNL     1       2.140   1.138   0.590  1.00  0.00     0.075 C 
HETATM    2  C3  UNL     1       0.798   0.927   0.413  1.00  0.00     0.155 C 
HETATM    3  C4  UNL     1      -0.268   1.980   0.571  1.00  0.00     0.266 C 
HETATM    4  N1  UNL     1      -1.479   2.328   0.549  1.00  0.00    -0.386 NA
HETATM    5  C5  UNL     1      -2.649   1.612   0.277  1.00  0.00     0.192 C 
HETATM    6  N2  UNL     1      -3.702   0.954   0.162  1.00  0.00    -0.266 NA
HETATM    7  C6  UNL     1      -4.495   0.575  -0.952  1.00  0.00     0.272 C 
HETATM    8  N3  UNL     1      -4.568  -0.876  -0.955  1.00  0.00    -0.372 N 
HETATM    9  C7  UNL     1      -3.162  -1.191  -0.885  1.00  0.00     0.032 A 
HETATM   10  C8  UNL     1      -2.220  -0.838  -1.828  1.00  0.00     0.030 A 
HETATM   11  C9  UNL     1      -0.907  -1.218  -1.618  1.00  0.00     0.013 A 
HETATM   12  C10 UNL     1      -0.518  -1.934  -0.501  1.00  0.00    -0.016 A 
HETATM   13  C11 UNL     1      -1.483  -2.272   0.426  1.00  0.00     0.125 A 
HETATM   14  F1  UNL     1      -1.054  -2.971   1.504  1.00  0.00    -0.205 F 
HETATM   15  C12 UNL     1      -2.798  -1.905   0.239  1.00  0.00     0.072 A 
HETATM   16  C13 UNL     1       0.903  -2.343  -0.388  1.00  0.00     0.069 C 
HETATM   17  C14 UNL     1       1.849  -1.283  -0.034  1.00  0.00    -0.015 C 
HETATM   18  C15 UNL     1       2.641  -0.247   0.298  1.00  0.00    -0.032 C 
HETATM   19  H9  UNL     1      -5.243  -1.694  -0.987  1.00  0.00     0.161 HD
ENDROOT
BRANCH  18  20
HETATM   20  C16 UNL     1       4.154  -0.385   0.412  1.00  0.00     0.219 C 
BRANCH  20  21
HETATM   21  N4  UNL     1       4.799   0.497  -0.522  1.00  0.00    -0.137 NA
HETATM   22  O2  UNL     1       5.267  -0.012  -1.507  1.00  0.00    -0.067 OA
ENDBRANCH  20  21
ENDBRANCH  18  20
BRANCH   1  23
HETATM   23  O1  UNL     1       3.256   1.989   0.902  1.00  0.00    -0.385 OA
HETATM   24  C1  UNL     1       3.229   2.717   2.127  1.00  0.00     0.202 C 
ENDBRANCH   1  23
TORSDOF 3
