REMARK  5 active torsions:
REMARK  status: ('A' for Active; 'I' for Inactive)
REMARK    1  A    between atoms: N1_9  and  C7_10 
REMARK    2  A    between atoms: C11_16  and  C12_17 
REMARK    3  A    between atoms: C12_17  and  C13_19 
REMARK    4  A    between atoms: C14_20  and  C15_21 
REMARK    5  A    between atoms: C15_21  and  N4_22 
ROOT
HETATM    1  C7  UNL     1      -2.866   0.621   1.247  1.00  0.00     0.180 C 
HETATM    2  C8  UNL     1      -3.670   1.000   2.445  1.00  0.00     0.102 C 
HETATM    3  N2  UNL     1      -4.322   1.292   3.384  1.00  0.00    -0.194 NA
HETATM    4  C9  UNL     1      -2.036   1.769   0.942  1.00  0.00     0.142 C 
HETATM    5  N3  UNL     1      -0.829   1.722   0.516  1.00  0.00    -0.254 NA
HETATM    6  C10 UNL     1      -0.181   0.473   0.299  1.00  0.00     0.102 A 
HETATM    7  C11 UNL     1       0.901  -0.172   0.007  1.00  0.00     0.066 A 
HETATM    8  C18 UNL     1       0.115  -1.407   0.166  1.00  0.00     0.031 A 
HETATM    9  C19 UNL     1      -0.695  -2.381   0.330  1.00  0.00     0.031 A 
HETATM   10  S1  UNL     1      -1.200  -0.903   0.430  1.00  0.00    -0.122 SA
HETATM   11  C20 UNL     1      -2.234  -0.637   1.577  1.00  0.00     0.066 C 
ENDROOT
BRANCH   1  12
HETATM   12  N1  UNL     1      -3.872   0.425   0.200  1.00  0.00    -0.351 N 
HETATM   13  C2  UNL     1      -4.116  -0.815  -0.505  1.00  0.00     0.108 A 
HETATM   14  C1  UNL     1      -4.547  -1.869   0.508  1.00  0.00     0.037 C 
HETATM   15  C3  UNL     1      -5.207  -0.594  -1.480  1.00  0.00     0.042 A 
HETATM   16  C4  UNL     1      -5.924   0.478  -1.766  1.00  0.00     0.137 A 
HETATM   17  F1  UNL     1      -6.895   0.467  -2.712  1.00  0.00    -0.204 F 
HETATM   18  C5  UNL     1      -5.558   1.649  -0.968  1.00  0.00     0.087 A 
HETATM   19 CL1  UNL     1      -6.477   3.112  -1.303  1.00  0.00    -0.080 Cl
HETATM   20  C6  UNL     1      -4.603   1.619  -0.054  1.00  0.00     0.115 A 
ENDBRANCH   1  12
BRANCH   7  21
HETATM   21  C12 UNL     1       2.293   0.227  -0.310  1.00  0.00     0.186 C 
HETATM   22  O1  UNL     1       2.549   1.435  -0.313  1.00  0.00    -0.287 OA
BRANCH  21  23
HETATM   23  C13 UNL     1       3.270  -0.805  -0.596  1.00  0.00     0.053 C 
HETATM   24  C14 UNL     1       4.531  -0.549  -0.886  1.00  0.00     0.007 C 
BRANCH  24  25
HETATM   25  C15 UNL     1       5.339   0.671  -1.017  1.00  0.00     0.299 C 
BRANCH  25  26
HETATM   26  N4  UNL     1       6.430   0.611  -0.041  1.00  0.00     0.083 N 
HETATM   27  C16 UNL     1       7.374  -0.416  -0.380  1.00  0.00     0.309 C 
HETATM   28  C17 UNL     1       5.823   0.269   1.234  1.00  0.00     0.309 C 
ENDBRANCH  25  26
ENDBRANCH  24  25
ENDBRANCH  21  23
ENDBRANCH   7  21
TORSDOF 5
