REMARK  6 active torsions:
REMARK  status: ('A' for Active; 'I' for Inactive)
REMARK    1  A    between atoms: N1_2  and  C2_3 
REMARK    2  A    between atoms: N1_2  and  C14_18 
REMARK    3  A    between atoms: C2_3  and  C3_4 
REMARK    4  A    between atoms: C4_5  and  C5_6 
REMARK       I    between atoms: C5_6  and  N2_8 
REMARK    5  A    between atoms: N2_8  and  C6_9 
REMARK    6  A    between atoms: C14_18  and  N4_19 
ROOT
HETATM    1  N4  UNL     1       6.227   0.231   0.872  1.00  0.00     0.051 NA
HETATM    2  C15 UNL     1       7.100   1.008   0.311  1.00  0.00     0.783 C 
HETATM    3  C16 UNL     1       6.655   2.085  -0.452  1.00  0.00     0.100 C 
HETATM    4  N5  UNL     1       6.294   2.969  -1.056  1.00  0.00    -0.195 NA
ENDROOT
BRANCH   1   5
HETATM    5  C14 UNL     1       4.806   0.530   0.673  1.00  0.00     0.372 C 
BRANCH   5   6
HETATM    6  N1  UNL     1       4.364  -0.280  -0.404  1.00  0.00    -0.391 N 
HETATM    7  C1  UNL     1       4.474  -1.682  -0.225  1.00  0.00     0.145 C 
BRANCH   6   8
HETATM    8  C2  UNL     1       3.258   0.197  -1.165  1.00  0.00     0.145 C 
BRANCH   8   9
HETATM    9  C3  UNL     1       2.006  -0.042  -0.420  1.00  0.00    -0.002 C 
HETATM   10  C4  UNL     1       1.319  -0.471   0.601  1.00  0.00     0.072 C 
BRANCH  10  11
HETATM   11  C5  UNL     1      -0.055  -0.557   1.055  1.00  0.00     0.245 C 
HETATM   12  O1  UNL     1      -0.162  -1.092   2.176  1.00  0.00    -0.268 OA
HETATM   13  N2  UNL     1      -1.004  -0.034   0.169  1.00  0.00    -0.324 N 
HETATM   14  H8  UNL     1      -0.812   0.396  -0.752  1.00  0.00     0.169 HD
BRANCH  13  15
HETATM   15  C6  UNL     1      -2.407   0.135   0.100  1.00  0.00     0.035 A 
HETATM   16  C7  UNL     1      -2.986   1.288   0.591  1.00  0.00     0.030 A 
HETATM   17  C8  UNL     1      -4.351   1.549   0.569  1.00  0.00     0.012 A 
HETATM   18  C9  UNL     1      -5.120   0.555   0.009  1.00  0.00    -0.022 A 
HETATM   19  C10 UNL     1      -4.612  -0.621  -0.500  1.00  0.00    -0.020 A 
HETATM   20  C13 UNL     1      -6.609   0.589  -0.136  1.00  0.00     0.309 C 
HETATM   21  C11 UNL     1      -3.257  -0.830  -0.455  1.00  0.00     0.039 A 
HETATM   22  C12 UNL     1      -5.794  -1.385  -0.997  1.00  0.00     0.309 C 
HETATM   23  N3  UNL     1      -6.900  -0.834  -0.225  1.00  0.00     0.091 N 
HETATM   24  H14 UNL     1      -6.810  -1.187   0.760  1.00  0.00     0.316 HD
ENDBRANCH  13  15
ENDBRANCH  10  11
ENDBRANCH   8   9
ENDBRANCH   6   8
ENDBRANCH   5   6
ENDBRANCH   1   5
TORSDOF 6
