REMARK  6 active torsions:
REMARK  status: ('A' for Active; 'I' for Inactive)
REMARK    1  A    between atoms: N1_2  and  C3_4 
REMARK    2  A    between atoms: C3_4  and  C4_5 
REMARK    3  A    between atoms: C5_6  and  C6_7 
REMARK       I    between atoms: C6_7  and  N2_9 
REMARK    4  A    between atoms: N2_9  and  C7_10 
REMARK    5  A    between atoms: C14_19  and  N5_20 
REMARK    6  A    between atoms: N5_20  and  C15_21 
ROOT
HETATM    1  C7  UNL     1       0.139  -1.056   0.202  1.00  0.00     0.035 A 
HETATM    2  C8  UNL     1       0.439  -2.396   0.204  1.00  0.00     0.032 A 
HETATM    3  C9  UNL     1      -0.448  -3.394   0.537  1.00  0.00     0.035 A 
HETATM    4  C10 UNL     1      -1.736  -3.064   0.899  1.00  0.00     0.069 A 
HETATM    5  N3  UNL     1      -2.635  -3.999   1.233  1.00  0.00    -0.259 NA
HETATM    6  C11 UNL     1      -3.900  -3.718   1.592  1.00  0.00     0.142 A 
HETATM    7  C12 UNL     1      -4.266  -2.371   1.609  1.00  0.00     0.089 A 
HETATM    8  C13 UNL     1      -5.618  -1.986   1.988  1.00  0.00     0.103 C 
HETATM    9  N4  UNL     1      -6.693  -1.669   2.280  1.00  0.00    -0.191 NA
HETATM   10  C14 UNL     1      -3.345  -1.390   1.265  1.00  0.00     0.067 A 
HETATM   11  C21 UNL     1      -2.058  -1.723   0.903  1.00  0.00     0.023 A 
HETATM   12  C22 UNL     1      -1.151  -0.755   0.566  1.00  0.00     0.045 A 
ENDROOT
BRANCH  10  13
HETATM   13  N5  UNL     1      -3.771  -0.034   1.300  1.00  0.00    -0.354 N 
HETATM   14  H15 UNL     1      -3.551   0.266   2.276  1.00  0.00     0.166 HD
BRANCH  13  15
HETATM   15  C15 UNL     1      -4.350   0.763   0.307  1.00  0.00     0.034 A 
HETATM   16  C16 UNL     1      -4.561   0.232  -0.940  1.00  0.00     0.032 A 
HETATM   17  C17 UNL     1      -5.138   1.069  -1.879  1.00  0.00     0.046 A 
HETATM   18  C18 UNL     1      -5.475   2.372  -1.544  1.00  0.00     0.138 A 
HETATM   19  F1  UNL     1      -6.047   3.207  -2.465  1.00  0.00    -0.204 F 
HETATM   20  C19 UNL     1      -5.252   2.887  -0.270  1.00  0.00     0.074 A 
HETATM   21 CL1  UNL     1      -5.667   4.526   0.182  1.00  0.00    -0.081 Cl
HETATM   22  C20 UNL     1      -4.673   2.045   0.666  1.00  0.00     0.056 A 
ENDBRANCH  13  15
ENDBRANCH  10  13
BRANCH   1  23
HETATM   23  N2  UNL     1       1.008   0.007  -0.127  1.00  0.00    -0.324 N 
HETATM   24  C6  UNL     1       2.368  -0.052  -0.512  1.00  0.00     0.245 C 
HETATM   25  O1  UNL     1       2.944  -1.144  -0.596  1.00  0.00    -0.268 OA
HETATM   26  H11 UNL     1       0.667   0.991  -0.102  1.00  0.00     0.169 HD
BRANCH  24  27
HETATM   27  C5  UNL     1       3.196   1.100  -0.836  1.00  0.00     0.072 C 
HETATM   28  C4  UNL     1       4.441   0.760  -1.166  1.00  0.00     0.008 C 
BRANCH  28  29
HETATM   29  C3  UNL     1       5.516   1.688  -1.543  1.00  0.00     0.299 C 
BRANCH  29  30
HETATM   30  N1  UNL     1       6.608   1.545  -0.616  1.00  0.00     0.083 N 
HETATM   31  C1  UNL     1       6.233   2.020   0.680  1.00  0.00     0.309 C 
HETATM   32  C2  UNL     1       7.005   0.161  -0.534  1.00  0.00     0.309 C 
ENDBRANCH  29  30
ENDBRANCH  28  29
ENDBRANCH  24  27
ENDBRANCH   1  23
TORSDOF 6
