REMARK  6 active torsions:
REMARK  status: ('A' for Active; 'I' for Inactive)
REMARK    1  A    between atoms: C2_2  and  O1_3 
REMARK    2  A    between atoms: O1_3  and  C3_4 
REMARK    3  A    between atoms: C11_14  and  N2_15 
REMARK    4  A    between atoms: N2_15  and  C12_16 
REMARK    5  A    between atoms: C12_16  and  C13_17 
REMARK    6  A    between atoms: C12_16  and  C16_21 
ROOT
HETATM    1  C13 UNL     1       3.578  -0.113  -0.420  1.00  0.00     0.009 C 
HETATM    2  C14 UNL     1       4.248  -0.350  -1.525  1.00  0.00     0.091 C 
HETATM    3  C15 UNL     1       3.682  -1.215  -2.508  1.00  0.00     0.087 C 
HETATM    4  N3  UNL     1       3.239  -1.924  -3.310  1.00  0.00    -0.192 NA
ENDROOT
BRANCH   1   5
HETATM    5  C12 UNL     1       2.221  -0.720  -0.135  1.00  0.00     0.108 C 
BRANCH   5   6
HETATM    6  N2  UNL     1       1.233   0.306  -0.040  1.00  0.00    -0.380 N 
HETATM    7  H12 UNL     1       1.612   1.294  -0.030  1.00  0.00     0.160 HD
BRANCH   6   8
HETATM    8  C11 UNL     1      -0.197   0.302   0.049  1.00  0.00     0.063 A 
HETATM    9  C3  UNL     1      -0.966   1.468   0.151  1.00  0.00     0.097 A 
HETATM   10  C4  UNL     1      -2.329   1.327   0.211  1.00  0.00     0.071 A 
HETATM   11  C5  UNL     1      -2.990   0.114   0.177  1.00  0.00     0.070 A 
HETATM   12  N1  UNL     1      -4.307   0.267   0.251  1.00  0.00    -0.259 NA
HETATM   13  C9  UNL     1      -2.261  -1.045   0.077  1.00  0.00     0.002 A 
HETATM   14  C6  UNL     1      -5.245  -0.669   0.246  1.00  0.00     0.133 A 
HETATM   15  P1  UNL     1      -4.633  -2.307   0.125  1.00  0.00    -0.007 P 
HETATM   16  C7  UNL     1      -2.884  -2.279   0.039  1.00  0.00    -0.034 A 
HETATM   17  C8  UNL     1      -2.058  -3.528  -0.071  1.00  0.00     0.051 C 
HETATM   18  C10 UNL     1      -0.876  -0.911   0.015  1.00  0.00     0.046 A 
BRANCH   9  19
HETATM   19  O1  UNL     1      -0.285   2.678   0.185  1.00  0.00    -0.349 OA
BRANCH  19  20
HETATM   20  C2  UNL     1      -1.054   3.862   0.288  1.00  0.00     0.171 C 
HETATM   21  C1  UNL     1      -0.179   5.093   0.313  1.00  0.00     0.034 C 
ENDBRANCH  19  20
ENDBRANCH   9  19
ENDBRANCH   6   8
ENDBRANCH   5   6
BRANCH   5  22
HETATM   22  C16 UNL     1       2.355  -1.564   1.120  1.00  0.00     0.066 C 
HETATM   23  C17 UNL     1       3.389  -2.605   0.955  1.00  0.00     0.393 C 
HETATM   24  O2  UNL     1       4.252  -3.428   0.735  1.00  0.00    -0.430 OA
ENDBRANCH   5  22
ENDBRANCH   1   5
TORSDOF 6
