REMARK  4 active torsions:
REMARK  status: ('A' for Active; 'I' for Inactive)
REMARK    1  A    between atoms: C9_11  and  N3_12 
REMARK       I    between atoms: N3_12  and  C10_13 
REMARK    2  A    between atoms: C10_13  and  C11_15 
REMARK    3  A    between atoms: C12_16  and  C13_17 
REMARK    4  A    between atoms: C13_17  and  N4_18 
ROOT
HETATM    1  C1  UNL     1      -5.866   1.751  -1.028  1.00  0.00     0.050 C 
HETATM    2  C2  UNL     1      -5.054   1.245   0.069  1.00  0.00    -0.029 C 
HETATM    3  C3  UNL     1      -5.083   1.850   1.270  1.00  0.00     0.069 C 
HETATM    4  C4  UNL     1      -5.976   2.965   1.238  1.00  0.00     0.101 C 
HETATM    5  N1  UNL     1      -6.697   3.842   1.199  1.00  0.00    -0.191 NA
HETATM    6  C5  UNL     1      -4.441   1.645   2.588  1.00  0.00     0.140 C 
HETATM    7  N2  UNL     1      -3.288   1.156   2.997  1.00  0.00    -0.259 NA
HETATM    8  C6  UNL     1      -2.171   0.614   2.252  1.00  0.00     0.067 A 
HETATM    9  C7  UNL     1      -1.020   0.870   2.910  1.00  0.00     0.035 A 
HETATM   10  C8  UNL     1       0.177   0.484   2.356  1.00  0.00     0.032 A 
HETATM   11  C9  UNL     1       0.283  -0.162   1.142  1.00  0.00     0.035 A 
HETATM   12  C16 UNL     1      -0.874  -0.440   0.437  1.00  0.00     0.044 A 
HETATM   13  C17 UNL     1      -2.069  -0.025   1.056  1.00  0.00     0.006 A 
HETATM   14  C18 UNL     1      -3.091  -0.495   0.088  1.00  0.00    -0.010 A 
HETATM   15  C19 UNL     1      -2.540  -1.700  -0.390  1.00  0.00     0.057 A 
HETATM   16  C20 UNL     1      -3.323  -2.321  -1.379  1.00  0.00     0.139 A 
HETATM   17  F1  UNL     1      -2.893  -3.469  -1.904  1.00  0.00    -0.204 F 
HETATM   18  C21 UNL     1      -4.528  -1.747  -1.804  1.00  0.00     0.073 A 
HETATM   19 CL1  UNL     1      -5.482  -2.548  -3.042  1.00  0.00    -0.081 Cl
HETATM   20  C22 UNL     1      -5.008  -0.579  -1.297  1.00  0.00     0.040 A 
HETATM   21  C23 UNL     1      -4.281   0.050  -0.343  1.00  0.00    -0.016 A 
ENDROOT
BRANCH  11  22
HETATM   22  N3  UNL     1       1.570  -0.489   0.715  1.00  0.00    -0.324 N 
HETATM   23  C10 UNL     1       2.023  -1.147  -0.451  1.00  0.00     0.245 C 
HETATM   24  O1  UNL     1       1.165  -1.521  -1.272  1.00  0.00    -0.268 OA
HETATM   25  H7  UNL     1       2.408  -0.234   1.312  1.00  0.00     0.169 HD
BRANCH  23  26
HETATM   26  C11 UNL     1       3.420  -1.418  -0.757  1.00  0.00     0.072 C 
HETATM   27  C12 UNL     1       4.414  -1.067   0.044  1.00  0.00     0.008 C 
BRANCH  27  28
HETATM   28  C13 UNL     1       5.859  -1.313  -0.211  1.00  0.00     0.299 C 
BRANCH  28  29
HETATM   29  N4  UNL     1       6.634  -0.111  -0.273  1.00  0.00     0.083 N 
HETATM   30  C14 UNL     1       8.033  -0.300  -0.517  1.00  0.00     0.309 C 
HETATM   31  C15 UNL     1       6.037   0.932  -1.049  1.00  0.00     0.309 C 
ENDBRANCH  28  29
ENDBRANCH  27  28
ENDBRANCH  23  26
ENDBRANCH  11  22
TORSDOF 4
