REMARK  0 active torsions:
REMARK  status: ('A' for Active; 'I' for Inactive)
ROOT
HETATM    1  N1  UNL     1       0.012  -0.331  -3.738  1.00  0.00    -0.191 NA
HETATM    2  C1  UNL     1       0.046  -0.403  -2.594  1.00  0.00     0.102 C 
HETATM    3  C2  UNL     1       0.074  -0.512  -1.180  1.00  0.00     0.078 C 
HETATM    4  C3  UNL     1       0.425  -1.708  -0.531  1.00  0.00     0.036 C 
HETATM    5  C4  UNL     1      -0.561  -2.704  -0.016  1.00  0.00     0.137 C 
HETATM    6  S1  UNL     1      -1.587  -2.369   1.408  1.00  0.00    -0.128 SA
HETATM    7  C5  UNL     1      -2.341  -0.744   1.360  1.00  0.00    -0.017 C 
HETATM    8  C6  UNL     1      -2.423   0.322   2.233  1.00  0.00     0.015 C 
HETATM    9  C7  UNL     1      -1.906   1.387   1.259  1.00  0.00     0.009 C 
HETATM   10  C8  UNL     1      -1.661   0.689   0.095  1.00  0.00    -0.042 C 
HETATM   11  C9  UNL     1      -2.981  -0.127   0.085  1.00  0.00     0.085 C 
HETATM   12  C10 UNL     1      -0.355   0.838  -0.574  1.00  0.00    -0.010 C 
HETATM   13  C11 UNL     1      -0.135   2.102  -0.269  1.00  0.00    -0.001 C 
HETATM   14  C12 UNL     1       0.655   3.334  -0.207  1.00  0.00     0.082 C 
HETATM   15  C13 UNL     1       1.657   2.614  -0.808  1.00  0.00     0.094 A 
HETATM   16  F1  UNL     1       2.825   2.150  -1.403  1.00  0.00    -0.341 F 
HETATM   17  C14 UNL     1       2.229   1.227  -0.646  1.00  0.00     0.198 A 
HETATM   18 CL1  UNL     1       1.719   1.240   1.100  1.00  0.00    -0.164 Cl
HETATM   19  C15 UNL     1       2.495  -0.035  -0.222  1.00  0.00     0.145 A 
HETATM   20  C16 UNL     1       2.295  -1.242   0.683  1.00  0.00     0.143 C 
HETATM   21  N2  UNL     1       1.756  -2.244  -0.199  1.00  0.00    -0.390 N 
HETATM   22  H12 UNL     1       1.594  -3.073  -0.788  1.00  0.00     0.159 HD
ENDROOT
TORSDOF 0
