REMARK  6 active torsions:
REMARK  status: ('A' for Active; 'I' for Inactive)
REMARK    1  A    between atoms: C1_2  and  C2_3 
REMARK       I    between atoms: C1_2  and  N2_12 
REMARK    2  A    between atoms: C3_4  and  C4_5 
REMARK    3  A    between atoms: C4_5  and  N1_6 
REMARK    4  A    between atoms: N2_12  and  C9_13 
REMARK    5  A    between atoms: C12_16  and  N3_17 
REMARK    6  A    between atoms: N3_17  and  C13_18 
ROOT
HETATM    1  C9  UNL     1       1.488   1.370  -0.484  1.00  0.00     0.020 A 
HETATM    2  C10 UNL     1       2.543   0.557  -0.539  1.00  0.00     0.058 A 
HETATM    3  C11 UNL     1       3.896   1.093  -0.602  1.00  0.00     0.073 A 
HETATM    4  C12 UNL     1       4.923   0.281  -0.655  1.00  0.00     0.120 C 
HETATM    5  N4  UNL     1       4.113   2.480  -0.607  1.00  0.00    -0.263 NA
HETATM    6  C18 UNL     1       3.064   3.246  -0.553  1.00  0.00     0.096 A 
HETATM    7  C19 UNL     1       1.636   2.863  -0.485  1.00  0.00     0.104 A 
ENDROOT
BRANCH   1   8
HETATM    8  N2  UNL     1       0.131   0.887  -0.421  1.00  0.00    -0.320 N 
HETATM    9  C1  UNL     1      -0.745   1.260  -1.458  1.00  0.00     0.300 C 
HETATM   10  O1  UNL     1      -0.406   1.997  -2.445  1.00  0.00    -0.258 OA
HETATM   11  H11 UNL     1      -0.238   0.281   0.344  1.00  0.00     0.169 HD
BRANCH   9  12
HETATM   12  C2  UNL     1      -2.113   0.829  -1.481  1.00  0.00    -0.004 C 
HETATM   13  C3  UNL     1      -3.281   0.463  -1.522  1.00  0.00    -0.066 C 
BRANCH  13  14
HETATM   14  C4  UNL     1      -4.694   0.043  -1.586  1.00  0.00     0.366 C 
BRANCH  14  15
HETATM   15  N1  UNL     1      -5.110  -0.472  -0.274  1.00  0.00     0.100 N 
HETATM   16  C5  UNL     1      -6.471  -0.885  -0.306  1.00  0.00     0.283 C 
HETATM   17  C6  UNL     1      -7.294  -0.510   0.892  1.00  0.00     0.104 C 
HETATM   18  S1  UNL     1      -6.356  -0.994   2.372  1.00  0.00    -0.166 SA
HETATM   19  C7  UNL     1      -4.666  -0.361   2.094  1.00  0.00     0.104 C 
HETATM   20  C8  UNL     1      -4.727   0.405   0.783  1.00  0.00     0.283 C 
ENDBRANCH  14  15
ENDBRANCH  13  14
ENDBRANCH   9  12
ENDBRANCH   1   8
BRANCH   4  21
HETATM   21  N3  UNL     1       4.802  -1.137  -0.655  1.00  0.00    -0.363 N 
HETATM   22  H14 UNL     1       4.187  -1.887  -1.036  1.00  0.00     0.165 HD
BRANCH  21  23
HETATM   23  C13 UNL     1       5.760  -1.949   0.054  1.00  0.00     0.044 C 
HETATM   24  C14 UNL     1       5.971  -2.353   1.296  1.00  0.00     0.004 C 
HETATM   25  C15 UNL     1       7.256  -2.480   1.583  1.00  0.00     0.033 C 
HETATM   26  C16 UNL     1       7.808  -2.916   0.282  1.00  0.00     0.014 C 
HETATM   27 BR1  UNL     1       9.484  -3.773  -0.040  1.00  0.00    -0.051 Br
HETATM   28  C17 UNL     1       6.889  -2.587  -0.639  1.00  0.00     0.049 C 
ENDBRANCH  21  23
ENDBRANCH   4  21
TORSDOF 6
