REMARK  7 active torsions:
REMARK  status: ('A' for Active; 'I' for Inactive)
REMARK    1  A    between atoms: C4_4  and  N1_5 
REMARK       I    between atoms: N1_5  and  C5_6 
REMARK    2  A    between atoms: C5_6  and  C6_8 
REMARK    3  A    between atoms: C7_9  and  C8_10 
REMARK    4  A    between atoms: C8_10  and  N2_12 
REMARK    5  A    between atoms: N2_12  and  C10_13 
REMARK    6  A    between atoms: N2_12  and  C12_15 
REMARK    7  A    between atoms: N3_20  and  C17_21 
ROOT
HETATM    1  C1  UNL     1       1.950   1.198   1.691  1.00  0.00     0.038 C 
HETATM    2  C2  UNL     1       2.906   0.555   0.773  1.00  0.00     0.001 C 
HETATM    3  C3  UNL     1       2.907  -0.187  -0.305  1.00  0.00     0.061 A 
HETATM    4  C4  UNL     1       1.698  -0.630  -0.977  1.00  0.00     0.062 A 
HETATM    5  C14 UNL     1       1.680  -1.433  -2.034  1.00  0.00     0.033 A 
HETATM    6  C15 UNL     1       2.948  -1.905  -2.564  1.00  0.00     0.020 A 
HETATM    7  C16 UNL     1       4.071  -1.523  -1.983  1.00  0.00     0.097 A 
HETATM    8  N3  UNL     1       4.126  -0.668  -0.853  1.00  0.00    -0.320 N 
ENDROOT
BRANCH   4   9
HETATM    9  N1  UNL     1       0.383  -0.251  -0.598  1.00  0.00    -0.322 N 
HETATM   10  C5  UNL     1      -0.184   1.075  -0.674  1.00  0.00     0.245 C 
HETATM   11  O1  UNL     1       0.541   1.997  -1.123  1.00  0.00    -0.268 OA
HETATM   12  H5  UNL     1      -0.175  -1.029  -0.244  1.00  0.00     0.169 HD
BRANCH  10  13
HETATM   13  C6  UNL     1      -1.542   1.339  -0.250  1.00  0.00     0.072 C 
HETATM   14  C7  UNL     1      -2.343   0.406   0.228  1.00  0.00     0.013 C 
BRANCH  14  15
HETATM   15  C8  UNL     1      -3.742   0.732   0.654  1.00  0.00     0.242 C 
HETATM   16  C9  UNL     1      -3.846   0.595   2.140  1.00  0.00     0.047 C 
BRANCH  15  17
HETATM   17  N2  UNL     1      -4.689  -0.048  -0.088  1.00  0.00     0.095 N 
BRANCH  17  18
HETATM   18  C10 UNL     1      -6.055   0.292   0.311  1.00  0.00     0.268 C 
HETATM   19  C11 UNL     1      -6.373   1.708  -0.141  1.00  0.00     0.037 C 
ENDBRANCH  17  18
BRANCH  17  20
HETATM   20  C12 UNL     1      -4.537  -1.460   0.048  1.00  0.00     0.268 C 
HETATM   21  C13 UNL     1      -5.625  -2.134  -0.799  1.00  0.00     0.037 C 
ENDBRANCH  17  20
ENDBRANCH  15  17
ENDBRANCH  14  15
ENDBRANCH  10  13
ENDBRANCH   4   9
BRANCH   8  22
HETATM   22  C17 UNL     1       5.407  -0.313  -0.296  1.00  0.00     0.041 A 
HETATM   23  C18 UNL     1       6.013   0.838  -0.810  1.00  0.00     0.033 A 
HETATM   24  C19 UNL     1       7.245   1.293  -0.366  1.00  0.00     0.046 A 
HETATM   25  C20 UNL     1       7.879   0.579   0.613  1.00  0.00     0.138 A 
HETATM   26  F1  UNL     1       9.080   1.003   1.061  1.00  0.00    -0.204 F 
HETATM   27  C21 UNL     1       7.293  -0.573   1.142  1.00  0.00     0.074 A 
HETATM   28 CL1  UNL     1       8.119  -1.487   2.404  1.00  0.00    -0.081 Cl
HETATM   29  C22 UNL     1       6.053  -1.020   0.686  1.00  0.00     0.057 A 
ENDBRANCH   8  22
TORSDOF 7
