REMARK  5 active torsions:
REMARK  status: ('A' for Active; 'I' for Inactive)
REMARK    1  A    between atoms: C3_3  and  C4_4 
REMARK    2  A    between atoms: C5_5  and  O1_6 
REMARK    3  A    between atoms: C9_13  and  C10_14 
REMARK    4  A    between atoms: C10_14  and  N3_15 
REMARK    5  A    between atoms: N3_15  and  C11_16 
ROOT
HETATM    1  C1  UNL     1       1.376   1.014  -1.177  1.00  0.00     0.051 C 
HETATM    2  C2  UNL     1       1.657  -0.165  -0.321  1.00  0.00    -0.024 A 
HETATM    3  C3  UNL     1       2.950  -0.432   0.068  1.00  0.00     0.065 A 
HETATM    4  N1  UNL     1       3.313  -1.470   0.841  1.00  0.00    -0.259 NA
HETATM    5  C6  UNL     1       2.401  -2.356   1.308  1.00  0.00     0.140 A 
HETATM    6  C7  UNL     1       1.089  -2.115   0.935  1.00  0.00     0.070 A 
HETATM    7  C8  UNL     1       0.055  -3.017   1.393  1.00  0.00     0.101 C 
HETATM    8  N2  UNL     1      -0.799  -3.734   1.768  1.00  0.00    -0.191 NA
HETATM    9  C9  UNL     1       0.702  -1.041   0.133  1.00  0.00    -0.010 A 
ENDROOT
BRANCH   9  10
HETATM   10  C10 UNL     1      -0.710  -0.840  -0.231  1.00  0.00     0.160 C 
BRANCH  10  11
HETATM   11  N3  UNL     1      -1.323   0.250   0.538  1.00  0.00    -0.386 N 
HETATM   12  H9  UNL     1      -0.778   0.793   1.245  1.00  0.00     0.160 HD
BRANCH  11  13
HETATM   13  C11 UNL     1      -2.695   0.533   0.275  1.00  0.00     0.029 A 
HETATM   14  C12 UNL     1      -3.343  -0.237  -0.679  1.00  0.00     0.029 A 
HETATM   15  C13 UNL     1      -4.690   0.024  -0.952  1.00  0.00     0.004 A 
HETATM   16  C14 UNL     1      -5.298   1.044  -0.246  1.00  0.00     0.024 A 
HETATM   17  C15 UNL     1      -4.629   1.801   0.704  1.00  0.00     0.036 A 
HETATM   18 CL1  UNL     1      -5.431   3.090   1.583  1.00  0.00    -0.084 Cl
HETATM   19  C16 UNL     1      -3.301   1.548   0.978  1.00  0.00     0.052 A 
ENDBRANCH  11  13
ENDBRANCH  10  11
ENDBRANCH   9  10
BRANCH   3  20
HETATM   20  C4  UNL     1       3.996   0.470  -0.389  1.00  0.00     0.059 C 
HETATM   21  C5  UNL     1       5.264   0.304  -0.074  1.00  0.00     0.184 C 
BRANCH  21  22
HETATM   22  O1  UNL     1       6.415   1.011  -0.381  1.00  0.00    -0.168 OA
HETATM   23  F1  UNL     1       6.621   2.195   0.235  1.00  0.00    -0.043 F 
ENDBRANCH  21  22
ENDBRANCH   3  20
TORSDOF 5
