REMARK  3 active torsions:
REMARK  status: ('A' for Active; 'I' for Inactive)
REMARK    1  A    between atoms: C8_10  and  N3_11 
REMARK    2  A    between atoms: N3_11  and  C9_12 
REMARK    3  A    between atoms: C15_21  and  O1_22 
ROOT
HETATM    1  C1  UNL     1      -0.940   0.425  -2.156  1.00  0.00     0.024 C 
HETATM    2  C2  UNL     1      -1.534   0.026  -1.043  1.00  0.00    -0.003 C 
HETATM    3  C3  UNL     1      -1.148  -1.037  -0.116  1.00  0.00     0.048 A 
HETATM    4  C4  UNL     1      -2.275  -1.375   0.609  1.00  0.00     0.138 A 
HETATM    5  N1  UNL     1      -2.132  -2.347   1.530  1.00  0.00    -0.241 NA
HETATM    6  C5  UNL     1      -0.969  -2.976   1.757  1.00  0.00     0.144 A 
HETATM    7  C6  UNL     1       0.169  -2.644   1.034  1.00  0.00     0.089 A 
HETATM    8  C7  UNL     1       1.423  -3.303   1.260  1.00  0.00     0.103 C 
HETATM    9  N2  UNL     1       2.443  -3.844   1.424  1.00  0.00    -0.191 NA
HETATM   10  C8  UNL     1       0.094  -1.642   0.059  1.00  0.00     0.070 A 
HETATM   11  N4  UNL     1      -3.352  -0.553   0.160  1.00  0.00    -0.344 N 
HETATM   12  C15 UNL     1      -2.763   0.618  -0.510  1.00  0.00     0.256 C 
HETATM   13  H8  UNL     1      -4.366  -0.794   0.311  1.00  0.00     0.164 HD
ENDROOT
BRANCH  10  14
HETATM   14  N3  UNL     1       1.225  -1.256  -0.715  1.00  0.00    -0.354 N 
HETATM   15  H4  UNL     1       1.262  -1.835  -1.571  1.00  0.00     0.166 HD
BRANCH  14  16
HETATM   16  C9  UNL     1       2.120  -0.229  -0.314  1.00  0.00     0.034 A 
HETATM   17  C10 UNL     1       1.868   0.404   0.868  1.00  0.00     0.032 A 
HETATM   18  C11 UNL     1       2.733   1.413   1.279  1.00  0.00     0.046 A 
HETATM   19  C12 UNL     1       3.811   1.731   0.470  1.00  0.00     0.138 A 
HETATM   20  F1  UNL     1       4.674   2.715   0.848  1.00  0.00    -0.204 F 
HETATM   21  C13 UNL     1       4.022   1.057  -0.721  1.00  0.00     0.074 A 
HETATM   22 CL1  UNL     1       5.395   1.455  -1.760  1.00  0.00    -0.081 Cl
HETATM   23  C14 UNL     1       3.167   0.054  -1.135  1.00  0.00     0.056 A 
ENDBRANCH  14  16
ENDBRANCH  10  14
BRANCH  12  24
HETATM   24  O1  UNL     1      -2.597   1.680   0.320  1.00  0.00    -0.367 OA
HETATM   25  C16 UNL     1      -3.256   2.834  -0.086  1.00  0.00     0.204 C 
ENDBRANCH  12  24
TORSDOF 3
