REMARK  1 active torsions:
REMARK  status: ('A' for Active; 'I' for Inactive)
REMARK    1  A    between atoms: O1_2  and  C2_3 
ROOT
HETATM    1  C2  UNL     1      -2.500  -0.175   0.028  1.00  0.00     0.075 A 
HETATM    2  C3  UNL     1      -1.266  -0.655   0.411  1.00  0.00     0.055 A 
HETATM    3  C4  UNL     1      -0.299   0.329   0.542  1.00  0.00     0.046 A 
HETATM    4  C5  UNL     1      -0.485   1.713   0.318  1.00  0.00     0.071 A 
HETATM    5  C6  UNL     1      -1.707   2.135  -0.055  1.00  0.00     0.042 A 
HETATM    6  C7  UNL     1      -2.697   1.189  -0.195  1.00  0.00    -0.026 A 
HETATM    7  C8  UNL     1      -4.028   1.701  -0.608  1.00  0.00     0.051 C 
HETATM    8  N1  UNL     1       0.452   2.638   0.431  1.00  0.00    -0.259 NA
HETATM    9  C9  UNL     1       1.868   2.611   0.099  1.00  0.00     0.138 C 
HETATM   10  C10 UNL     1       2.765   1.603   0.153  1.00  0.00     0.067 C 
HETATM   11  C11 UNL     1       3.958   2.101  -0.521  1.00  0.00     0.099 C 
HETATM   12  N2  UNL     1       4.926   2.516  -1.049  1.00  0.00    -0.192 NA
HETATM   13  C12 UNL     1       2.986   0.212   0.635  1.00  0.00     0.169 C 
HETATM   14  N3  UNL     1       2.016  -0.158   1.655  1.00  0.00    -0.356 N 
HETATM   15  C13 UNL     1       0.786  -0.391   0.919  1.00  0.00     0.152 C 
HETATM   16  O2  UNL     1       0.405  -1.639   0.342  1.00  0.00    -0.331 OA
HETATM   17  C14 UNL     1       1.262  -2.513  -0.423  1.00  0.00     0.206 C 
HETATM   18  C15 UNL     1       2.595  -1.962  -0.687  1.00  0.00     0.017 C 
HETATM   19  C16 UNL     1       3.201  -0.785  -0.409  1.00  0.00     0.015 C 
HETATM   20 BR1  UNL     1       4.611  -0.372  -1.629  1.00  0.00    -0.053 Br
HETATM   21  H11 UNL     1       2.344  -0.191   2.678  1.00  0.00     0.162 HD
ENDROOT
BRANCH   1  22
HETATM   22  O1  UNL     1      -3.544  -1.043  -0.137  1.00  0.00    -0.355 OA
HETATM   23  C1  UNL     1      -3.347  -2.420   0.088  1.00  0.00     0.210 C 
ENDBRANCH   1  22
TORSDOF 1
