REMARK  4 active torsions:
REMARK  status: ('A' for Active; 'I' for Inactive)
REMARK    1  A    between atoms: O1_2  and  C2_3 
REMARK    2  A    between atoms: C8_11  and  N3_12 
REMARK    3  A    between atoms: N3_12  and  C9_13 
REMARK    4  A    between atoms: C17_22  and  O2_23 
ROOT
HETATM    1  C2  UNL     1       3.287   0.558   0.145  1.00  0.00     0.103 A 
HETATM    2  C3  UNL     1       3.029  -0.648   0.762  1.00  0.00     0.072 A 
HETATM    3  C4  UNL     1       1.790  -1.238   0.622  1.00  0.00     0.071 A 
HETATM    4  N1  UNL     1       1.578  -2.417   1.242  1.00  0.00    -0.259 NA
HETATM    5  C5  UNL     1       0.373  -3.028   1.128  1.00  0.00     0.142 A 
HETATM    6  C6  UNL     1      -0.653  -2.471   0.390  1.00  0.00     0.089 A 
HETATM    7  C7  UNL     1      -1.938  -3.128   0.272  1.00  0.00     0.103 C 
HETATM    8  N2  UNL     1      -2.965  -3.657   0.195  1.00  0.00    -0.191 NA
HETATM    9  C8  UNL     1      -0.461  -1.263  -0.254  1.00  0.00     0.067 A 
HETATM   10  C15 UNL     1       0.778  -0.669  -0.118  1.00  0.00     0.024 A 
HETATM   11  C16 UNL     1       1.020   0.536  -0.740  1.00  0.00     0.055 A 
HETATM   12  C17 UNL     1       2.263   1.135  -0.605  1.00  0.00     0.100 A 
ENDROOT
BRANCH   9  13
HETATM   13  N3  UNL     1      -1.516  -0.715  -0.999  1.00  0.00    -0.354 N 
HETATM   14  H6  UNL     1      -1.391  -1.101  -1.959  1.00  0.00     0.166 HD
BRANCH  13  15
HETATM   15  C9  UNL     1      -2.568   0.154  -0.683  1.00  0.00     0.033 A 
HETATM   16  C10 UNL     1      -3.469   0.516  -1.663  1.00  0.00     0.029 A 
HETATM   17  C11 UNL     1      -4.492   1.373  -1.317  1.00  0.00     0.004 A 
HETATM   18  C12 UNL     1      -4.638   1.871  -0.035  1.00  0.00     0.019 A 
HETATM   19  C13 UNL     1      -3.730   1.510   0.966  1.00  0.00     0.013 A 
HETATM   20 BR1  UNL     1      -3.935   2.195   2.721  1.00  0.00    -0.051 Br
HETATM   21  C14 UNL     1      -2.713   0.650   0.596  1.00  0.00     0.048 A 
ENDBRANCH  13  15
ENDBRANCH   9  13
BRANCH  12  22
HETATM   22  O2  UNL     1       2.421   2.356  -1.270  1.00  0.00    -0.358 OA
HETATM   23  H12 UNL     1       1.975   2.492  -2.170  1.00  0.00     0.217 HD
ENDBRANCH  12  22
BRANCH   1  24
HETATM   24  O1  UNL     1       4.459   1.299   0.167  1.00  0.00    -0.353 OA
HETATM   25  C1  UNL     1       5.589   0.848   0.884  1.00  0.00     0.210 C 
ENDBRANCH   1  24
TORSDOF 4
