REMARK  3 active torsions:
REMARK  status: ('A' for Active; 'I' for Inactive)
REMARK    1  A    between atoms: O1_2  and  C2_3 
REMARK    2  A    between atoms: C11_15  and  N4_16 
REMARK    3  A    between atoms: N4_16  and  C12_17 
ROOT
HETATM    1  C2  UNL     1      -4.151   0.048   0.912  1.00  0.00     0.168 C 
HETATM    2  C3  UNL     1      -2.887  -0.238   1.226  1.00  0.00     0.109 C 
HETATM    3  N1  UNL     1      -2.375  -0.405   2.547  1.00  0.00    -0.242 NA
HETATM    4  C4  UNL     1      -1.117  -0.254   2.729  1.00  0.00     0.087 C 
HETATM    5  C5  UNL     1      -0.250  -0.835   1.918  1.00  0.00     0.050 C 
HETATM    6  C6  UNL     1      -0.623  -0.693   0.506  1.00  0.00     0.026 A 
HETATM    7  C7  UNL     1      -1.929  -0.395   0.117  1.00  0.00     0.099 A 
HETATM    8  N2  UNL     1      -2.283  -0.262  -1.176  1.00  0.00    -0.256 NA
HETATM    9  C8  UNL     1      -1.368  -0.416  -2.157  1.00  0.00     0.142 A 
HETATM   10  C9  UNL     1      -0.055  -0.713  -1.829  1.00  0.00     0.089 A 
HETATM   11  C10 UNL     1       0.963  -0.887  -2.846  1.00  0.00     0.103 C 
HETATM   12  N3  UNL     1       1.773  -1.033  -3.673  1.00  0.00    -0.191 NA
HETATM   13  C11 UNL     1       0.335  -0.855  -0.493  1.00  0.00     0.068 A 
ENDROOT
BRANCH  13  14
HETATM   14  N4  UNL     1       1.662  -1.159  -0.077  1.00  0.00    -0.354 N 
HETATM   15  H7  UNL     1       1.667  -2.188  -0.053  1.00  0.00     0.166 HD
BRANCH  14  16
HETATM   16  C12 UNL     1       2.782  -0.349   0.249  1.00  0.00     0.033 A 
HETATM   17  C13 UNL     1       3.937  -0.999   0.620  1.00  0.00     0.029 A 
HETATM   18  C14 UNL     1       5.009  -0.186   0.932  1.00  0.00     0.004 A 
HETATM   19  C15 UNL     1       4.961   1.190   0.887  1.00  0.00     0.019 A 
HETATM   20  C16 UNL     1       3.769   1.794   0.506  1.00  0.00     0.013 A 
HETATM   21 BR1  UNL     1       3.740   3.694   0.454  1.00  0.00    -0.051 Br
HETATM   22  C17 UNL     1       2.654   1.023   0.179  1.00  0.00     0.048 A 
ENDBRANCH  14  16
ENDBRANCH  13  14
BRANCH   1  23
HETATM   23  O1  UNL     1      -4.577   0.197  -0.399  1.00  0.00    -0.365 OA
HETATM   24  C1  UNL     1      -5.632   1.073  -0.768  1.00  0.00     0.209 C 
ENDBRANCH   1  23
TORSDOF 3
