REMARK  4 active torsions:
REMARK  status: ('A' for Active; 'I' for Inactive)
REMARK    1  A    between atoms: O1_2  and  C2_3 
REMARK    2  A    between atoms: C7_9  and  N2_10 
REMARK    3  A    between atoms: N2_10  and  C8_11 
REMARK    4  A    between atoms: C16_20  and  O2_21 
ROOT
HETATM    1  C2  UNL     1      -3.487  -0.114   0.356  1.00  0.00     0.103 A 
HETATM    2  C3  UNL     1      -2.855  -0.943   1.255  1.00  0.00     0.072 A 
HETATM    3  C4  UNL     1      -1.485  -1.069   1.252  1.00  0.00     0.071 A 
HETATM    4  N1  UNL     1      -0.999  -1.924   2.198  1.00  0.00    -0.260 NA
HETATM    5  C5  UNL     1       0.334  -2.139   2.303  1.00  0.00     0.119 A 
HETATM    6  C6  UNL     1       1.114  -1.440   1.402  1.00  0.00     0.049 A 
HETATM    7  C7  UNL     1       0.693  -0.569   0.430  1.00  0.00     0.046 A 
HETATM    8  C14 UNL     1      -0.657  -0.391   0.370  1.00  0.00     0.022 A 
HETATM    9  C15 UNL     1      -1.334   0.418  -0.501  1.00  0.00     0.055 A 
HETATM   10  C16 UNL     1      -2.703   0.581  -0.541  1.00  0.00     0.102 A 
ENDROOT
BRANCH   7  11
HETATM   11  N2  UNL     1       1.500   0.137  -0.457  1.00  0.00    -0.355 N 
HETATM   12  H7  UNL     1       1.138   0.748  -1.188  1.00  0.00     0.166 HD
BRANCH  11  13
HETATM   13  C8  UNL     1       2.908   0.239  -0.624  1.00  0.00     0.033 A 
HETATM   14  C9  UNL     1       3.607   0.296  -1.814  1.00  0.00     0.029 A 
HETATM   15  C10 UNL     1       4.967   0.416  -1.925  1.00  0.00     0.004 A 
HETATM   16  C11 UNL     1       5.734   0.489  -0.785  1.00  0.00     0.019 A 
HETATM   17  C12 UNL     1       5.097   0.438   0.433  1.00  0.00     0.013 A 
HETATM   18 BR1  UNL     1       6.243   0.546   1.952  1.00  0.00    -0.051 Br
HETATM   19  C13 UNL     1       3.729   0.317   0.506  1.00  0.00     0.048 A 
ENDBRANCH  11  13
ENDBRANCH   7  11
BRANCH  10  20
HETATM   20  O2  UNL     1      -3.336   1.413  -1.444  1.00  0.00    -0.353 OA
HETATM   21  C17 UNL     1      -2.556   2.140  -2.378  1.00  0.00     0.210 C 
ENDBRANCH  10  20
BRANCH   1  22
HETATM   22  O1  UNL     1      -4.857   0.029   0.338  1.00  0.00    -0.353 OA
HETATM   23  C1  UNL     1      -5.627  -0.714   1.290  1.00  0.00     0.210 C 
ENDBRANCH   1  22
TORSDOF 4
