REMARK  5 active torsions:
REMARK  status: ('A' for Active; 'I' for Inactive)
REMARK    1  A    between atoms: O1_2  and  C2_3 
REMARK    2  A    between atoms: C11_14  and  N3_15 
REMARK    3  A    between atoms: C14_18  and  C15_19 
REMARK    4  A    between atoms: C15_19  and  N4_20 
REMARK    5  A    between atoms: C17_22  and  C18_23 
REMARK       I    between atoms: C18_23  and  N5_24 
ROOT
HETATM    1  C2  UNL     1       0.881   2.028   1.646  1.00  0.00     0.078 A 
HETATM    2  C3  UNL     1       0.285   1.739   2.853  1.00  0.00     0.070 A 
HETATM    3  C4  UNL     1      -0.779   0.897   2.939  1.00  0.00     0.073 A 
HETATM    4  N1  UNL     1      -1.356   0.621   4.136  1.00  0.00    -0.241 NA
HETATM    5  C5  UNL     1      -2.420  -0.227   4.186  1.00  0.00     0.234 A 
HETATM    6  N2  UNL     1      -2.906  -0.792   3.077  1.00  0.00    -0.240 NA
HETATM    7  C6  UNL     1      -2.413  -0.588   1.853  1.00  0.00     0.083 A 
HETATM    8  C7  UNL     1      -2.988  -1.231   0.700  1.00  0.00     0.021 A 
HETATM    9  C8  UNL     1      -4.036  -2.059   0.808  1.00  0.00     0.025 A 
HETATM   10  C9  UNL     1      -4.065  -2.303  -0.618  1.00  0.00    -0.034 A 
HETATM   11  C10 UNL     1      -4.865  -3.099  -1.595  1.00  0.00     0.050 C 
HETATM   12  C11 UNL     1      -3.040  -1.491  -0.712  1.00  0.00     0.044 A 
HETATM   13  C12 UNL     1      -1.350   0.266   1.843  1.00  0.00     0.023 A 
HETATM   14  C13 UNL     1      -0.723   0.586   0.673  1.00  0.00     0.028 A 
HETATM   15  C14 UNL     1       0.349   1.421   0.505  1.00  0.00     0.004 A 
ENDROOT
BRANCH  15  16
HETATM   16  C15 UNL     1       1.002   1.744  -0.774  1.00  0.00     0.314 C 
BRANCH  16  17
HETATM   17  N4  UNL     1       2.249   0.998  -0.832  1.00  0.00     0.094 N 
HETATM   18  C16 UNL     1       3.044   1.188  -2.025  1.00  0.00     0.288 C 
HETATM   19  C17 UNL     1       2.585  -0.135  -2.534  1.00  0.00     0.134 C 
HETATM   20  C19 UNL     1       1.977  -0.385  -1.173  1.00  0.00     0.288 C 
BRANCH  19  21
HETATM   21  C18 UNL     1       3.646  -1.154  -2.813  1.00  0.00     0.223 C 
HETATM   22  N5  UNL     1       4.451  -1.524  -1.673  1.00  0.00    -0.370 N 
HETATM   23  H18 UNL     1       5.026  -1.804  -0.847  1.00  0.00     0.159 HD
HETATM   24  H19 UNL     1       4.570  -2.322  -0.980  1.00  0.00     0.159 HD
HETATM   25  O2  UNL     1       4.313  -1.954  -3.519  1.00  0.00    -0.273 OA
ENDBRANCH  19  21
ENDBRANCH  16  17
ENDBRANCH  15  16
BRANCH   1  26
HETATM   26  O1  UNL     1       1.964   2.888   1.576  1.00  0.00    -0.355 OA
HETATM   27  C1  UNL     1       2.467   3.478   2.753  1.00  0.00     0.210 C 
ENDBRANCH   1  26
BRANCH  12  28
HETATM   28  N3  UNL     1      -2.336  -1.101  -1.855  1.00  0.00    -0.398 N 
HETATM   29  H10 UNL     1      -1.329  -1.300  -2.131  1.00  0.00     0.156 HD
HETATM   30  H11 UNL     1      -2.585  -0.538  -2.707  1.00  0.00     0.156 HD
ENDBRANCH  12  28
TORSDOF 5
