REMARK  3 active torsions:
REMARK  status: ('A' for Active; 'I' for Inactive)
REMARK    1  A    between atoms: O1_2  and  C2_3 
REMARK    2  A    between atoms: C7_9  and  N2_10 
REMARK    3  A    between atoms: N2_10  and  C8_11 
ROOT
HETATM    1  C2  UNL     1       3.386   0.858   0.509  1.00  0.00     0.079 C 
HETATM    2  C3  UNL     1       3.213  -0.149   1.347  1.00  0.00     0.008 C 
HETATM    3  C4  UNL     1       2.113  -0.819   1.162  1.00  0.00     0.013 C 
HETATM    4  C5  UNL     1       0.900  -1.482   0.634  1.00  0.00     0.166 C 
HETATM    5  C6  UNL     1       1.284  -2.556  -0.314  1.00  0.00     0.074 C 
HETATM    6  N1  UNL     1       1.603  -3.401  -1.062  1.00  0.00    -0.196 NA
HETATM    7  C7  UNL     1       0.019  -0.516  -0.080  1.00  0.00     0.031 C 
HETATM    8  C14 UNL     1       0.201   0.668  -0.641  1.00  0.00     0.027 C 
HETATM    9  C15 UNL     1       1.321   1.584  -0.832  1.00  0.00     0.005 C 
HETATM   10  C16 UNL     1       2.571   1.685  -0.399  1.00  0.00     0.037 C 
ENDROOT
BRANCH   7  11
HETATM   11  N2  UNL     1      -1.330  -0.914  -0.211  1.00  0.00    -0.357 N 
HETATM   12  H6  UNL     1      -1.499  -1.878  -0.611  1.00  0.00     0.166 HD
BRANCH  11  13
HETATM   13  C8  UNL     1      -2.632  -0.366   0.053  1.00  0.00     0.044 C 
HETATM   14  C9  UNL     1      -3.343  -0.352   1.146  1.00  0.00    -0.001 C 
HETATM   15  C10 UNL     1      -4.623  -0.569   1.029  1.00  0.00    -0.007 C 
HETATM   16  C11 UNL     1      -5.400   0.363   0.151  1.00  0.00     0.074 C 
HETATM   17  C12 UNL     1      -4.563   0.632  -1.068  1.00  0.00    -0.006 C 
HETATM   18 BR1  UNL     1      -5.457   1.479  -2.523  1.00  0.00    -0.055 Br
HETATM   19  C13 UNL     1      -3.267   0.286  -1.103  1.00  0.00     0.045 C 
ENDBRANCH  11  13
ENDBRANCH   7  11
BRANCH   1  20
HETATM   20  O1  UNL     1       4.717   1.261   0.466  1.00  0.00    -0.355 OA
HETATM   21  C1  UNL     1       5.766   0.312   0.464  1.00  0.00     0.210 C 
ENDBRANCH   1  20
TORSDOF 3
