REMARK  5 active torsions:
REMARK  status: ('A' for Active; 'I' for Inactive)
REMARK    1  A    between atoms: C5_8  and  C6_9 
REMARK    2  A    between atoms: C6_9  and  N3_10 
REMARK       I    between atoms: N3_10  and  C7_11 
REMARK    3  A    between atoms: C7_11  and  C8_13 
REMARK    4  A    between atoms: C9_14  and  C10_15 
REMARK    5  A    between atoms: C10_15  and  N4_16 
ROOT
HETATM    1  N3  UNL     1      -0.234   0.343  -1.255  1.00  0.00    -0.355 N 
HETATM    2  C7  UNL     1      -0.517   0.585   0.117  1.00  0.00     0.240 C 
HETATM    3  O2  UNL     1       0.258   1.419   0.648  1.00  0.00    -0.269 OA
HETATM    4  H9  UNL     1      -0.829  -0.338  -1.783  1.00  0.00     0.162 HD
ENDROOT
BRANCH   1   5
HETATM    5  C6  UNL     1       0.876   1.065  -1.856  1.00  0.00     0.165 C 
BRANCH   5   6
HETATM    6  C5  UNL     1       2.123   0.753  -1.171  1.00  0.00     0.126 C 
HETATM    7  O1  UNL     1       2.190  -0.664  -1.378  1.00  0.00    -0.328 OA
HETATM    8  C4  UNL     1       3.024  -1.350  -0.452  1.00  0.00     0.248 C 
HETATM    9  N2  UNL     1       4.211  -0.853  -0.473  1.00  0.00    -0.257 NA
HETATM   10  C3  UNL     1       5.299  -1.314   0.345  1.00  0.00     0.299 C 
HETATM   11  N1  UNL     1       6.014  -0.278   0.946  1.00  0.00    -0.273 NA
HETATM   12  C2  UNL     1       5.819   0.956   1.047  1.00  0.00     0.026 C 
HETATM   13  C1  UNL     1       7.038   1.265   1.818  1.00  0.00     0.070 C 
HETATM   14  C17 UNL     1       5.000   2.159   0.774  1.00  0.00     0.023 C 
HETATM   15  C16 UNL     1       3.833   2.334   0.115  1.00  0.00    -0.016 C 
HETATM   16  C15 UNL     1       2.639   1.918  -0.664  1.00  0.00     0.059 C 
ENDBRANCH   5   6
ENDBRANCH   1   5
BRANCH   2  17
HETATM   17  C8  UNL     1      -1.592  -0.057   0.860  1.00  0.00     0.072 C 
HETATM   18  C9  UNL     1      -2.407  -0.933   0.299  1.00  0.00     0.008 C 
BRANCH  18  19
HETATM   19  C10 UNL     1      -3.483  -1.558   1.094  1.00  0.00     0.300 C 
BRANCH  19  20
HETATM   20  N4  UNL     1      -4.747  -1.239   0.503  1.00  0.00     0.096 N 
HETATM   21  C11 UNL     1      -5.093   0.163   0.610  1.00  0.00     0.299 C 
HETATM   22  C12 UNL     1      -6.531   0.271   0.137  1.00  0.00     0.198 C 
HETATM   23  O3  UNL     1      -6.595   0.023  -1.210  1.00  0.00    -0.388 OA
HETATM   24  C13 UNL     1      -5.574  -0.716  -1.745  1.00  0.00     0.198 C 
HETATM   25  C14 UNL     1      -4.962  -1.733  -0.816  1.00  0.00     0.299 C 
ENDBRANCH  19  20
ENDBRANCH  18  19
ENDBRANCH   2  17
TORSDOF 5
