REMARK  7 active torsions:
REMARK  status: ('A' for Active; 'I' for Inactive)
REMARK    1  A    between atoms: C2_2  and  C3_3 
REMARK    2  A    between atoms: C2_2  and  N2_12 
REMARK    3  A    between atoms: C3_3  and  C4_4 
REMARK    4  A    between atoms: C4_4  and  N1_5 
REMARK    5  A    between atoms: N2_12  and  C9_13 
REMARK    6  A    between atoms: C11_15  and  N3_16 
REMARK    7  A    between atoms: N3_16  and  C12_17 
ROOT
HETATM    1  N2  UNL     1       0.634   0.184  -0.261  1.00  0.00    -0.371 N 
HETATM    2  H15 UNL     1       0.198   0.751  -1.015  1.00  0.00     0.161 HD
ENDROOT
BRANCH   1   3
HETATM    3  C2  UNL     1      -0.081  -0.688   0.639  1.00  0.00     0.080 C 
HETATM    4  C1  UNL     1       0.144  -0.219   2.044  1.00  0.00     0.032 C 
BRANCH   3   5
HETATM    5  C3  UNL     1      -1.536  -0.826   0.284  1.00  0.00     0.044 C 
BRANCH   5   6
HETATM    6  C4  UNL     1      -2.284   0.481   0.409  1.00  0.00     0.128 C 
BRANCH   6   7
HETATM    7  N1  UNL     1      -3.667   0.343   0.071  1.00  0.00    -0.348 N 
HETATM    8  C5  UNL     1      -4.687   0.001   1.076  1.00  0.00     0.152 C 
HETATM    9  C6  UNL     1      -5.478  -1.130   0.407  1.00  0.00     0.188 C 
HETATM   10  O1  UNL     1      -6.205  -0.710  -0.673  1.00  0.00    -0.380 OA
HETATM   11  C7  UNL     1      -5.697   0.430  -1.286  1.00  0.00     0.270 C 
HETATM   12  C8  UNL     1      -4.211   0.512  -1.234  1.00  0.00     0.243 C 
HETATM   13  O2  UNL     1      -3.418   0.709  -2.187  1.00  0.00    -0.271 OA
ENDBRANCH   6   7
ENDBRANCH   5   6
ENDBRANCH   3   5
ENDBRANCH   1   3
BRANCH   1  14
HETATM   14  C9  UNL     1       2.045   0.245  -0.067  1.00  0.00     0.121 A 
HETATM   15  C10 UNL     1       2.876  -0.612  -0.677  1.00  0.00     0.053 A 
HETATM   16  C11 UNL     1       4.289  -0.295  -0.275  1.00  0.00     0.148 A 
HETATM   17  C14 UNL     1       4.086   0.845   0.627  1.00  0.00     0.121 A 
HETATM   18  N4  UNL     1       2.823   1.134   0.732  1.00  0.00    -0.246 NA
BRANCH  16  19
HETATM   19  N3  UNL     1       5.109  -0.022  -1.418  1.00  0.00    -0.389 N 
HETATM   20  H18 UNL     1       4.666  -0.068  -2.366  1.00  0.00     0.159 HD
BRANCH  19  21
HETATM   21  C12 UNL     1       6.484   0.298  -1.194  1.00  0.00     0.074 C 
HETATM   22  C13 UNL     1       7.315  -0.750  -1.187  1.00  0.00     0.223 C 
HETATM   23 BR1  UNL     1       9.170  -1.129  -0.969  1.00  0.00    -0.192 Br
ENDBRANCH  19  21
ENDBRANCH  16  19
ENDBRANCH   1  14
TORSDOF 7
