REMARK  5 active torsions:
REMARK  status: ('A' for Active; 'I' for Inactive)
REMARK    1  A    between atoms: N1_1  and  N2_2 
REMARK    2  A    between atoms: N2_2  and  C1_3 
REMARK    3  A    between atoms: C2_4  and  C3_5 
REMARK    4  A    between atoms: C3_5  and  C4_6 
REMARK    5  A    between atoms: C5_8  and  C6_9 
ROOT
HETATM    1  C4  UNL     1       1.009  -0.266   0.548  1.00  0.00     0.146 A 
HETATM    2  N3  UNL     1      -0.017   0.705   0.402  1.00  0.00    -0.278 NA
HETATM    3  C5  UNL     1      -1.172   0.241   0.152  1.00  0.00     0.073 A 
HETATM    4  C12 UNL     1      -0.965  -1.189   0.114  1.00  0.00     0.002 A 
HETATM    5  C13 UNL     1      -1.832  -2.226  -0.111  1.00  0.00     0.014 A 
HETATM    6  C14 UNL     1      -1.441  -3.539  -0.106  1.00  0.00     0.001 A 
HETATM    7  C15 UNL     1      -0.135  -3.887   0.128  1.00  0.00     0.001 A 
HETATM    8  C16 UNL     1       0.760  -2.866   0.358  1.00  0.00     0.010 A 
HETATM    9  C17 UNL     1       0.335  -1.561   0.346  1.00  0.00    -0.021 A 
ENDROOT
BRANCH   1  10
HETATM   10  C3  UNL     1       2.055  -0.116  -0.564  1.00  0.00     0.060 C 
BRANCH  10  11
HETATM   11  C2  UNL     1       3.143  -1.102  -0.456  1.00  0.00    -0.006 C 
HETATM   12  C1  UNL     1       4.389  -0.652  -0.304  1.00  0.00     0.097 C 
BRANCH  12  13
HETATM   13  N2  UNL     1       4.374   0.787  -0.281  1.00  0.00    -0.335 N 
HETATM   14  H3  UNL     1       4.307   1.642  -0.902  1.00  0.00     0.179 HD
BRANCH  13  15
HETATM   15  N1  UNL     1       4.434   1.933   0.539  1.00  0.00    -0.250 NA
HETATM   16  H1  UNL     1       3.677   1.940   1.258  1.00  0.00     0.143 HD
HETATM   17  H2  UNL     1       5.329   1.916   1.106  1.00  0.00     0.143 HD
ENDBRANCH  13  15
ENDBRANCH  12  13
ENDBRANCH  10  11
ENDBRANCH   1  10
BRANCH   3  18
HETATM   18  C6  UNL     1      -2.333   1.075  -0.026  1.00  0.00    -0.007 A 
HETATM   19  C7  UNL     1      -3.629   0.757  -0.296  1.00  0.00     0.015 A 
HETATM   20  C8  UNL     1      -4.665   1.627  -0.448  1.00  0.00     0.024 A 
HETATM   21  C9  UNL     1      -4.439   2.979  -0.329  1.00  0.00     0.034 A 
HETATM   22 CL1  UNL     1      -5.730   4.139  -0.514  1.00  0.00    -0.084 Cl
HETATM   23  C10 UNL     1      -3.170   3.390  -0.059  1.00  0.00     0.024 A 
HETATM   24  C11 UNL     1      -2.176   2.451   0.081  1.00  0.00     0.015 A 
ENDBRANCH   3  18
TORSDOF 5
