REMARK  4 active torsions:
REMARK  status: ('A' for Active; 'I' for Inactive)
REMARK    1  A    between atoms: C1_2  and  C2_3 
REMARK    2  A    between atoms: C3_4  and  C4_5 
REMARK    3  A    between atoms: C4_5  and  C5_6 
REMARK    4  A    between atoms: N3_9  and  C6_10 
ROOT
HETATM    1  C5  UNL     1       1.224   1.133   1.019  1.00  0.00     0.070 C 
HETATM    2  N1  UNL     1       0.065   1.740   1.109  1.00  0.00    -0.163 NA
HETATM    3  N2  UNL     1      -1.209   1.220   1.192  1.00  0.00    -0.217 N 
HETATM    4  N3  UNL     1      -1.665   0.058   0.531  1.00  0.00    -0.272 N 
HETATM    5  C12 UNL     1      -0.982  -1.181   0.249  1.00  0.00     0.190 C 
HETATM    6  C13 UNL     1       0.417  -1.246   0.652  1.00  0.00    -0.026 A 
HETATM    7  C14 UNL     1       0.763  -2.596   0.678  1.00  0.00     0.010 A 
HETATM    8  C15 UNL     1       2.068  -2.949   1.039  1.00  0.00     0.001 A 
HETATM    9  C16 UNL     1       2.993  -2.004   1.361  1.00  0.00     0.001 A 
HETATM   10  C17 UNL     1       2.667  -0.670   1.340  1.00  0.00     0.014 A 
HETATM   11  C18 UNL     1       1.388  -0.315   0.987  1.00  0.00    -0.002 A 
HETATM   12  H6  UNL     1      -1.980   1.662   1.777  1.00  0.00     0.210 HD
ENDROOT
BRANCH   4  13
HETATM   13  C6  UNL     1      -3.002   0.052   0.041  1.00  0.00     0.052 A 
HETATM   14  C7  UNL     1      -3.589  -1.055  -0.547  1.00  0.00     0.033 A 
HETATM   15  C8  UNL     1      -4.878  -1.082  -1.031  1.00  0.00     0.026 A 
HETATM   16  C9  UNL     1      -5.658   0.040  -0.942  1.00  0.00     0.034 A 
HETATM   17 CL1  UNL     1      -7.294  -0.012  -1.563  1.00  0.00    -0.084 Cl
HETATM   18  C10 UNL     1      -5.134   1.179  -0.367  1.00  0.00     0.026 A 
HETATM   19  C11 UNL     1      -3.837   1.147   0.101  1.00  0.00     0.033 A 
ENDBRANCH   4  13
BRANCH   1  20
HETATM   20  C4  UNL     1       2.438   1.984   0.945  1.00  0.00     0.089 C 
BRANCH  20  21
HETATM   21  C3  UNL     1       3.241   1.803  -0.266  1.00  0.00    -0.018 C 
HETATM   22  C2  UNL     1       4.443   1.464  -0.748  1.00  0.00     0.037 C 
BRANCH  22  23
HETATM   23  C1  UNL     1       5.020   1.357  -2.104  1.00  0.00     0.258 C 
HETATM   24  O1  UNL     1       4.211   1.647  -2.996  1.00  0.00    -0.302 OA
ENDBRANCH  22  23
ENDBRANCH  20  21
ENDBRANCH   1  20
TORSDOF 4
