REMARK  2 active torsions:
REMARK  status: ('A' for Active; 'I' for Inactive)
REMARK    1  A    between atoms: C6_7  and  C7_8 
REMARK    2  A    between atoms: N4_12  and  C9_13 
ROOT
HETATM    1  C7  UNL     1       0.907  -1.020   0.452  1.00  0.00     0.090 C 
HETATM    2  N2  UNL     1      -0.223  -1.203  -0.126  1.00  0.00    -0.149 NA
HETATM    3  N3  UNL     1      -0.394  -0.941  -1.468  1.00  0.00    -0.144 NA
HETATM    4  C8  UNL     1      -0.976   0.113  -1.857  1.00  0.00     0.238 C 
HETATM    5  N4  UNL     1      -1.482   1.081  -0.920  1.00  0.00    -0.319 N 
HETATM    6  C14 UNL     1      -0.656   1.280   0.188  1.00  0.00     0.098 C 
HETATM    7  C15 UNL     1      -0.501   0.860   1.401  1.00  0.00     0.019 C 
HETATM    8  C16 UNL     1      -0.175   0.520   2.751  1.00  0.00     0.013 C 
HETATM    9  C17 UNL     1       0.198  -0.743   2.955  1.00  0.00    -0.024 C 
HETATM   10  C18 UNL     1       0.539  -1.403   1.851  1.00  0.00     0.046 C 
ENDROOT
BRANCH   1  11
HETATM   11  C6  UNL     1       2.303  -0.688   0.695  1.00  0.00     0.003 A 
HETATM   12  C2  UNL     1       3.125  -1.800   0.725  1.00  0.00    -0.032 A 
HETATM   13  C1  UNL     1       2.662  -3.212   0.556  1.00  0.00     0.050 C 
HETATM   14  C3  UNL     1       4.491  -1.687   0.918  1.00  0.00     0.123 A 
HETATM   15  N1  UNL     1       4.979  -0.454   1.072  1.00  0.00    -0.273 NA
HETATM   16  C4  UNL     1       4.145   0.591   1.033  1.00  0.00     0.117 A 
HETATM   17  C5  UNL     1       2.789   0.573   0.850  1.00  0.00     0.033 A 
ENDBRANCH   1  11
BRANCH   5  18
HETATM   18  C9  UNL     1      -2.638   1.389  -1.577  1.00  0.00     0.022 A 
HETATM   19  C10 UNL     1      -3.771   0.984  -1.035  1.00  0.00     0.027 A 
HETATM   20  C11 UNL     1      -4.959   1.358  -1.804  1.00  0.00     0.022 A 
HETATM   21  C12 UNL     1      -4.468   2.026  -2.864  1.00  0.00     0.017 A 
HETATM   22 CL1  UNL     1      -5.163   2.827  -4.286  1.00  0.00    -0.089 Cl
HETATM   23  C13 UNL     1      -2.963   2.108  -2.803  1.00  0.00     0.108 A 
ENDBRANCH   5  18
TORSDOF 2
