REMARK  6 active torsions:
REMARK  status: ('A' for Active; 'I' for Inactive)
REMARK    1  A    between atoms: N1_7  and  C7_8 
REMARK    2  A    between atoms: C11_12  and  C12_13 
REMARK    3  A    between atoms: C12_13  and  N2_14 
REMARK       I    between atoms: N2_14  and  C13_15 
REMARK    4  A    between atoms: C13_15  and  C14_17 
REMARK    5  A    between atoms: C15_18  and  C16_19 
REMARK    6  A    between atoms: C16_19  and  C17_20 
ROOT
HETATM    1  C12 UNL     1      -0.224   0.126  -1.531  1.00  0.00     0.161 C 
ENDROOT
BRANCH   1   2
HETATM    2  C11 UNL     1      -1.416   0.451  -0.718  1.00  0.00    -0.044 C 
HETATM    3  C10 UNL     1      -1.547   0.806   0.549  1.00  0.00    -0.014 C 
HETATM    4  C9  UNL     1      -2.617   1.164   1.515  1.00  0.00     0.057 C 
HETATM    5  C8  UNL     1      -3.950   0.679   1.146  1.00  0.00     0.007 C 
HETATM    6  C7  UNL     1      -4.537   0.293   0.024  1.00  0.00     0.035 C 
HETATM    7  C22 UNL     1      -3.911   0.251  -1.292  1.00  0.00     0.030 C 
HETATM    8  C21 UNL     1      -2.603   0.318  -1.599  1.00  0.00     0.011 C 
BRANCH   6   9
HETATM    9  N1  UNL     1      -5.898  -0.125   0.076  1.00  0.00    -0.324 N 
HETATM   10  C2  UNL     1      -7.050   0.670   0.015  1.00  0.00     0.029 A 
HETATM   11  C1  UNL     1      -6.857   1.954  -0.104  1.00  0.00     0.043 C 
HETATM   12  C3  UNL     1      -8.329  -0.010   0.090  1.00  0.00     0.029 A 
HETATM   13  C4  UNL     1      -8.378  -1.346   0.212  1.00  0.00     0.004 A 
HETATM   14  C5  UNL     1      -7.177  -2.165   0.275  1.00  0.00     0.018 A 
HETATM   15  C6  UNL     1      -5.997  -1.548   0.207  1.00  0.00     0.097 A 
ENDBRANCH   6   9
ENDBRANCH   1   2
BRANCH   1  16
HETATM   16  N2  UNL     1       1.032   0.250  -0.883  1.00  0.00    -0.353 N 
HETATM   17  C13 UNL     1       1.589   1.454  -0.374  1.00  0.00     0.241 C 
HETATM   18  O1  UNL     1       0.812   2.451  -0.582  1.00  0.00    -0.269 OA
HETATM   19  H13 UNL     1       1.609  -0.599  -0.761  1.00  0.00     0.163 HD
BRANCH  17  20
HETATM   20  C14 UNL     1       2.857   1.657   0.308  1.00  0.00     0.070 C 
HETATM   21  C15 UNL     1       3.862   0.883   0.674  1.00  0.00    -0.019 C 
BRANCH  21  22
HETATM   22  C16 UNL     1       4.380  -0.504   0.677  1.00  0.00     0.065 C 
BRANCH  22  23
HETATM   23  C17 UNL     1       5.699  -0.511  -0.082  1.00  0.00     0.247 C 
HETATM   24  C18 UNL     1       6.290  -1.906  -0.120  1.00  0.00     0.203 C 
HETATM   25  O2  UNL     1       7.065  -2.100   1.036  1.00  0.00    -0.387 OA
HETATM   26  C19 UNL     1       8.277  -1.421   0.915  1.00  0.00     0.197 C 
HETATM   27  C20 UNL     1       7.983  -0.077   0.259  1.00  0.00     0.296 C 
HETATM   28  N3  UNL     1       6.637   0.340   0.624  1.00  0.00     0.092 N 
HETATM   29  H25 UNL     1       6.570   1.337   0.326  1.00  0.00     0.316 HD
ENDBRANCH  22  23
ENDBRANCH  21  22
ENDBRANCH  17  20
ENDBRANCH   1  16
TORSDOF 6
