REMARK  3 active torsions:
REMARK  status: ('A' for Active; 'I' for Inactive)
REMARK    1  A    between atoms: N1_5  and  C4_6 
REMARK    2  A    between atoms: C5_9  and  C6_10 
REMARK    3  A    between atoms: C6_10  and  C7_11 
ROOT
HETATM    1  C4  UNL     1      -1.515  -0.404  -0.325  1.00  0.00     0.163 A 
HETATM    2  N2  UNL     1      -0.963  -1.602  -0.093  1.00  0.00    -0.131 NA
HETATM    3  N3  UNL     1       0.298  -1.894  -0.354  1.00  0.00    -0.152 NA
HETATM    4  C5  UNL     1       1.182  -1.004  -0.890  1.00  0.00     0.072 A 
HETATM    5  C12 UNL     1       0.652   0.237  -1.142  1.00  0.00     0.005 A 
HETATM    6  C13 UNL     1       1.517   1.158  -1.682  1.00  0.00     0.014 A 
HETATM    7  C14 UNL     1       1.039   2.422  -1.952  1.00  0.00     0.001 A 
HETATM    8  C15 UNL     1      -0.298   2.732  -1.673  1.00  0.00     0.001 A 
HETATM    9  C16 UNL     1      -1.149   1.792  -1.131  1.00  0.00     0.016 A 
HETATM   10  C17 UNL     1      -0.664   0.531  -0.866  1.00  0.00     0.024 A 
ENDROOT
BRANCH   1  11
HETATM   11  N1  UNL     1      -2.896  -0.197  -0.036  1.00  0.00    -0.336 N 
HETATM   12  C3  UNL     1      -3.966  -0.061  -1.003  1.00  0.00     0.159 A 
HETATM   13  C2  UNL     1      -5.218   0.186  -0.272  1.00  0.00     0.017 A 
HETATM   14  C1  UNL     1      -5.505   0.273   1.015  1.00  0.00     0.033 A 
HETATM   15 CL1  UNL     1      -7.111   0.578   1.600  1.00  0.00    -0.085 Cl
HETATM   16  C19 UNL     1      -4.327   0.098   1.857  1.00  0.00     0.041 A 
HETATM   17  C18 UNL     1      -3.106  -0.123   1.391  1.00  0.00     0.095 A 
ENDBRANCH   1  11
BRANCH   4  18
HETATM   18  C6  UNL     1       2.559  -1.495  -1.087  1.00  0.00     0.100 C 
BRANCH  18  19
HETATM   19  C7  UNL     1       3.512  -1.105  -0.047  1.00  0.00    -0.050 A 
HETATM   20  C8  UNL     1       4.475  -0.130   0.052  1.00  0.00     0.026 A 
HETATM   21  C9  UNL     1       5.257   0.060   1.157  1.00  0.00     0.116 A 
HETATM   22  N4  UNL     1       5.104  -0.745   2.249  1.00  0.00    -0.273 NA
HETATM   23  C10 UNL     1       4.175  -1.724   2.216  1.00  0.00     0.116 A 
HETATM   24  C11 UNL     1       3.398  -1.895   1.086  1.00  0.00     0.026 A 
ENDBRANCH  18  19
ENDBRANCH   4  18
TORSDOF 3
