REMARK  7 active torsions:
REMARK  status: ('A' for Active; 'I' for Inactive)
REMARK    1  A    between atoms: C2_2  and  O1_3 
REMARK    2  A    between atoms: O1_3  and  C3_4 
REMARK    3  A    between atoms: C7_10  and  N3_11 
REMARK    4  A    between atoms: N3_11  and  C8_12 
REMARK    5  A    between atoms: C16_22  and  N4_23 
REMARK    6  A    between atoms: C17_24  and  C18_25 
REMARK    7  A    between atoms: C18_25  and  C19_26 
REMARK       I    between atoms: C19_26  and  N5_27 
ROOT
HETATM    1  C3  UNL     1      -1.795  -1.451  -0.831  1.00  0.00     0.099 A 
HETATM    2  C4  UNL     1      -0.782  -1.945  -1.625  1.00  0.00     0.071 A 
HETATM    3  C5  UNL     1       0.517  -1.518  -1.453  1.00  0.00     0.075 A 
HETATM    4  N1  UNL     1       1.466  -2.033  -2.255  1.00  0.00    -0.241 NA
HETATM    5  C6  UNL     1       2.757  -1.631  -2.108  1.00  0.00     0.236 A 
HETATM    6  N2  UNL     1       3.050  -0.715  -1.147  1.00  0.00    -0.224 NA
HETATM    7  C7  UNL     1       2.091  -0.212  -0.354  1.00  0.00     0.142 A 
HETATM    8  C14 UNL     1       0.771  -0.588  -0.466  1.00  0.00     0.041 A 
HETATM    9  C15 UNL     1      -0.195  -0.058   0.358  1.00  0.00     0.052 A 
HETATM   10  C16 UNL     1      -1.492  -0.508   0.158  1.00  0.00     0.090 A 
ENDROOT
BRANCH   7  11
HETATM   11  N3  UNL     1       2.526   0.734   0.607  1.00  0.00    -0.338 N 
HETATM   12  H8  UNL     1       2.007   1.271   1.333  1.00  0.00     0.167 HD
BRANCH  11  13
HETATM   13  C8  UNL     1       3.898   1.094   0.688  1.00  0.00     0.074 A 
HETATM   14  C9  UNL     1       4.567   0.856   1.892  1.00  0.00     0.033 A 
HETATM   15  C10 UNL     1       5.896   1.150   2.120  1.00  0.00     0.004 A 
HETATM   16  C11 UNL     1       6.624   1.721   1.094  1.00  0.00     0.027 A 
HETATM   17  C12 UNL     1       5.987   1.967  -0.106  1.00  0.00     0.074 A 
HETATM   18 CL1  UNL     1       6.917   2.690  -1.402  1.00  0.00    -0.081 Cl
HETATM   19  C13 UNL     1       4.659   1.665  -0.315  1.00  0.00     0.164 A 
HETATM   20  F1  UNL     1       4.015   1.900  -1.490  1.00  0.00    -0.202 F 
ENDBRANCH  11  13
ENDBRANCH   7  11
BRANCH  10  21
HETATM   21  N4  UNL     1      -2.455   0.084   1.052  1.00  0.00    -0.262 NA
HETATM   22  C17 UNL     1      -2.660   1.348   0.891  1.00  0.00     0.099 C 
BRANCH  22  23
HETATM   23  C18 UNL     1      -3.657   1.964   1.813  1.00  0.00     0.149 C 
BRANCH  23  24
HETATM   24  C19 UNL     1      -4.901   2.266   1.051  1.00  0.00     0.220 C 
HETATM   25  N5  UNL     1      -6.000   2.865   1.737  1.00  0.00    -0.370 N 
HETATM   26  H16 UNL     1      -5.878   3.424   2.617  1.00  0.00     0.159 HD
HETATM   27  H17 UNL     1      -7.000   2.788   1.412  1.00  0.00     0.159 HD
HETATM   28  O2  UNL     1      -5.018   2.010  -0.185  1.00  0.00    -0.273 OA
ENDBRANCH  23  24
ENDBRANCH  22  23
ENDBRANCH  10  21
BRANCH   1  29
HETATM   29  O1  UNL     1      -3.148  -1.746  -0.843  1.00  0.00    -0.349 OA
BRANCH  29  30
HETATM   30  C2  UNL     1      -3.679  -2.669  -1.755  1.00  0.00     0.171 C 
HETATM   31  C1  UNL     1      -3.069  -4.031  -1.588  1.00  0.00     0.034 C 
ENDBRANCH  29  30
ENDBRANCH   1  29
TORSDOF 7
