REMARK  3 active torsions:
REMARK  status: ('A' for Active; 'I' for Inactive)
REMARK    1  A    between atoms: C1_2  and  C2_3 
REMARK    2  A    between atoms: C10_14  and  C11_15 
REMARK    3  A    between atoms: C11_15  and  C12_16 
ROOT
HETATM    1  C2  UNL     1      -2.729   1.274  -1.300  1.00  0.00    -0.116 C 
HETATM    2  B1  UNL     1      -1.117   0.326  -1.516  1.00  0.00     0.199 B 
HETATM    3  C3  UNL     1      -0.625  -0.737  -0.210  1.00  0.00     0.004 A 
HETATM    4  C4  UNL     1      -0.637  -2.167  -0.636  1.00  0.00     0.037 A 
HETATM    5  C5  UNL     1      -1.536  -3.056   0.126  1.00  0.00    -0.026 A 
HETATM    6  C6  UNL     1      -2.327  -2.804   1.145  1.00  0.00    -0.003 A 
HETATM    7  C7  UNL     1      -2.300  -1.417   1.573  1.00  0.00     0.011 A 
HETATM    8  C8  UNL     1      -1.523  -0.495   0.951  1.00  0.00    -0.006 A 
HETATM    9  C9  UNL     1      -1.245   0.943   1.134  1.00  0.00     0.152 C 
HETATM   10  N1  UNL     1      -0.076   1.195   1.764  1.00  0.00    -0.132 NA
HETATM   11  N2  UNL     1       1.075   0.507   1.237  1.00  0.00    -0.157 NA
HETATM   12  C10 UNL     1       0.750  -0.257   0.208  1.00  0.00     0.043 C 
HETATM   13  N4  UNL     1      -1.910   2.214   0.783  1.00  0.00    -0.370 N 
HETATM   14  C17 UNL     1      -2.886   2.416  -0.315  1.00  0.00     0.139 C 
HETATM   15  H14 UNL     1      -1.638   3.015   1.388  1.00  0.00     0.161 HD
ENDROOT
BRANCH  12  16
HETATM   16  C11 UNL     1       1.975  -0.625  -0.590  1.00  0.00     0.095 C 
BRANCH  16  17
HETATM   17  C12 UNL     1       3.221  -0.055  -0.050  1.00  0.00    -0.050 A 
HETATM   18  C13 UNL     1       3.712   1.177  -0.431  1.00  0.00     0.026 A 
HETATM   19  C14 UNL     1       4.874   1.719   0.066  1.00  0.00     0.116 A 
HETATM   20  N3  UNL     1       5.586   1.014   0.984  1.00  0.00    -0.273 NA
HETATM   21  C15 UNL     1       5.147  -0.193   1.387  1.00  0.00     0.116 A 
HETATM   22  C16 UNL     1       3.974  -0.744   0.886  1.00  0.00     0.026 A 
ENDBRANCH  16  17
ENDBRANCH  12  16
BRANCH   1  23
HETATM   23  C1  UNL     1      -3.980   1.017  -2.042  1.00  0.00     0.133 C 
HETATM   24 CL1  UNL     1      -4.388   2.507  -2.922  1.00  0.00    -0.127 Cl
ENDBRANCH   1  23
TORSDOF 3
