REMARK  3 active torsions:
REMARK  status: ('A' for Active; 'I' for Inactive)
REMARK    1  A    between atoms: C13_15  and  N2_16 
REMARK    2  A    between atoms: N2_16  and  C14_17 
REMARK    3  A    between atoms: C14_17  and  C15_18 
ROOT
HETATM    1  O1  UNL     1      -1.904   0.631   1.930  1.00  0.00    -0.273 OA
HETATM    2  C1  UNL     1      -0.932  -0.028   1.437  1.00  0.00     0.229 C 
HETATM    3  N1  UNL     1      -1.003  -1.419   1.482  1.00  0.00    -0.326 N 
HETATM    4  C2  UNL     1      -2.245  -1.788   2.054  1.00  0.00     0.043 A 
HETATM    5  C3  UNL     1      -2.432  -2.161   3.331  1.00  0.00     0.030 A 
HETATM    6  C4  UNL     1      -3.689  -2.508   3.747  1.00  0.00     0.002 A 
HETATM    7  C5  UNL     1      -4.705  -2.454   2.816  1.00  0.00     0.001 A 
HETATM    8  C6  UNL     1      -4.377  -2.052   1.535  1.00  0.00     0.011 A 
HETATM    9  C7  UNL     1      -3.136  -1.678   1.005  1.00  0.00    -0.006 A 
HETATM   10  C8  UNL     1      -3.318  -1.316  -0.433  1.00  0.00     0.146 C 
HETATM   11  C9  UNL     1      -2.920  -2.527  -1.260  1.00  0.00     0.059 C 
HETATM   12  C10 UNL     1      -1.508  -2.709  -1.542  1.00  0.00    -0.028 C 
HETATM   13  C11 UNL     1      -0.215  -2.309  -1.440  1.00  0.00    -0.023 C 
HETATM   14  C12 UNL     1       0.842  -1.368  -0.962  1.00  0.00     0.107 C 
HETATM   15  C13 UNL     1       0.863  -0.229  -0.193  1.00  0.00     0.031 C 
HETATM   16  C20 UNL     1       0.271   0.735   0.796  1.00  0.00     0.110 C 
HETATM   17  C21 UNL     1      -0.444   1.850   0.094  1.00  0.00     0.036 A 
HETATM   18  C22 UNL     1       0.245   3.110   0.040  1.00  0.00    -0.020 A 
HETATM   19  C23 UNL     1       0.272   4.073  -0.857  1.00  0.00    -0.004 A 
HETATM   20  C24 UNL     1      -0.541   3.856  -2.080  1.00  0.00    -0.004 A 
HETATM   21  C25 UNL     1      -1.145   2.660  -2.051  1.00  0.00    -0.016 A 
HETATM   22  C26 UNL     1      -1.191   1.515  -1.125  1.00  0.00     0.057 A 
HETATM   23  C27 UNL     1      -2.542   0.979  -1.020  1.00  0.00     0.093 C 
HETATM   24  N4  UNL     1      -2.589  -0.181  -0.714  1.00  0.00    -0.295 NA
HETATM   25  H1  UNL     1      -0.640  -2.381   1.332  1.00  0.00     0.169 HD
ENDROOT
BRANCH  15  26
HETATM   26  N2  UNL     1       2.296   0.046  -0.257  1.00  0.00    -0.411 N 
HETATM   27  H12 UNL     1       2.905  -0.646   0.241  1.00  0.00     0.153 HD
BRANCH  26  28
HETATM   28  C14 UNL     1       3.129   1.060  -0.821  1.00  0.00     0.153 C 
BRANCH  28  29
HETATM   29  C15 UNL     1       4.583   0.910  -0.564  1.00  0.00    -0.038 A 
HETATM   30  C16 UNL     1       5.313   0.158  -1.488  1.00  0.00     0.028 A 
HETATM   31  C17 UNL     1       6.651   0.097  -1.154  1.00  0.00     0.116 A 
HETATM   32  N3  UNL     1       7.194   0.687  -0.070  1.00  0.00    -0.273 NA
HETATM   33  C18 UNL     1       6.437   1.403   0.792  1.00  0.00     0.116 A 
HETATM   34  C19 UNL     1       5.078   1.551   0.585  1.00  0.00     0.028 A 
ENDBRANCH  28  29
ENDBRANCH  26  28
ENDBRANCH  15  26
TORSDOF 3
