REMARK  5 active torsions:
REMARK  status: ('A' for Active; 'I' for Inactive)
REMARK    1  A    between atoms: C14_14  and  C15_15 
REMARK    2  A    between atoms: C15_15  and  C16_16 
REMARK    3  A    between atoms: C20_21  and  O1_22 
REMARK    4  A    between atoms: C26_28  and  C27_29 
REMARK    5  A    between atoms: C27_29  and  N2_30 
ROOT
HETATM    1  C1  UNL     1      -0.637  -1.605  -2.608  1.00  0.00     0.021 C 
HETATM    2  C2  UNL     1       0.065  -1.083  -1.627  1.00  0.00    -0.045 C 
HETATM    3  C3  UNL     1       1.513  -0.930  -1.754  1.00  0.00    -0.021 A 
HETATM    4  C4  UNL     1       2.090  -2.121  -2.123  1.00  0.00     0.012 A 
HETATM    5  C5  UNL     1       3.417  -2.334  -2.353  1.00  0.00     0.001 A 
HETATM    6  C6  UNL     1       4.266  -1.274  -2.206  1.00  0.00     0.001 A 
HETATM    7  C7  UNL     1       3.700  -0.066  -1.833  1.00  0.00     0.010 A 
HETATM    8  C8  UNL     1       2.334   0.195  -1.587  1.00  0.00    -0.024 A 
HETATM    9  C9  UNL     1       2.252   1.637  -1.200  1.00  0.00     0.120 C 
HETATM   10  C10 UNL     1       0.919   2.164  -0.944  1.00  0.00     0.028 C 
HETATM   11  C11 UNL     1      -0.382   2.057  -1.092  1.00  0.00     0.024 C 
HETATM   12  C12 UNL     1      -1.755   1.728  -1.389  1.00  0.00    -0.009 C 
HETATM   13  C13 UNL     1      -1.978   1.139  -0.201  1.00  0.00    -0.026 C 
HETATM   14  C14 UNL     1      -1.644  -0.151  -0.165  1.00  0.00    -0.053 C 
HETATM   15  C22 UNL     1      -0.174  -0.421  -0.398  1.00  0.00     0.071 C 
HETATM   16  C23 UNL     1       0.308  -1.523   0.581  1.00  0.00    -0.016 C 
HETATM   17  C24 UNL     1       1.451  -1.465   1.313  1.00  0.00    -0.018 C 
HETATM   18  C25 UNL     1       2.093  -0.180   0.934  1.00  0.00     0.068 C 
HETATM   19  C26 UNL     1       3.116   0.634   1.130  1.00  0.00     0.019 C 
HETATM   20  N3  UNL     1       3.039   1.655   0.076  1.00  0.00    -0.385 N 
HETATM   21  H27 UNL     1       3.573   2.534   0.183  1.00  0.00     0.160 HD
ENDROOT
BRANCH  14  22
HETATM   22  C15 UNL     1      -2.765  -1.129   0.059  1.00  0.00     0.077 C 
BRANCH  22  23
HETATM   23  C16 UNL     1      -4.050  -0.415   0.249  1.00  0.00    -0.018 A 
HETATM   24  C17 UNL     1      -5.001  -0.358  -0.776  1.00  0.00     0.029 A 
HETATM   25  C18 UNL     1      -6.214   0.294  -0.659  1.00  0.00     0.117 A 
HETATM   26  N1  UNL     1      -6.478   0.909   0.529  1.00  0.00    -0.270 NA
HETATM   27  C19 UNL     1      -5.571   0.867   1.536  1.00  0.00     0.153 A 
HETATM   28  C20 UNL     1      -4.347   0.224   1.455  1.00  0.00     0.092 A 
BRANCH  28  29
HETATM   29  O1  UNL     1      -3.446   0.198   2.495  1.00  0.00    -0.354 OA
HETATM   30  C21 UNL     1      -3.627   0.796   3.745  1.00  0.00     0.210 C 
ENDBRANCH  28  29
ENDBRANCH  22  23
ENDBRANCH  14  22
BRANCH  19  31
HETATM   31  C27 UNL     1       4.416   0.898   1.891  1.00  0.00     0.319 C 
BRANCH  31  32
HETATM   32  N2  UNL     1       4.625  -0.219   2.794  1.00  0.00     0.083 N 
HETATM   33  H25 UNL     1       4.903   0.072   3.751  1.00  0.00     0.313 HD
HETATM   34  H26 UNL     1       5.252  -0.947   2.378  1.00  0.00     0.313 HD
ENDBRANCH  31  32
ENDBRANCH  19  31
TORSDOF 5
