REMARK  9 active torsions:
REMARK  status: ('A' for Active; 'I' for Inactive)
REMARK    1  A    between atoms: C1_2  and  C2_3 
REMARK       I    between atoms: C1_2  and  N3_16 
REMARK    2  A    between atoms: C2_3  and  C3_4 
REMARK    3  A    between atoms: C4_5  and  C5_6 
REMARK    4  A    between atoms: C6_7  and  N1_8 
REMARK    5  A    between atoms: N1_8  and  C7_9 
REMARK    6  A    between atoms: C7_9  and  C8_10 
REMARK    7  A    between atoms: N3_16  and  O2_17 
REMARK    8  A    between atoms: O2_17  and  C13_18 
REMARK    9  A    between atoms: C17_22  and  C18_23 
ROOT
HETATM    1  O1  UNL     1       1.684  -0.841   1.978  1.00  0.00    -0.271 OA
HETATM    2  C1  UNL     1       1.645  -1.346   0.813  1.00  0.00     0.244 C 
HETATM    3  N3  UNL     1       2.894  -1.595   0.180  1.00  0.00    -0.229 N 
HETATM    4  H14 UNL     1       3.207  -1.985  -0.735  1.00  0.00     0.198 HD
ENDROOT
BRANCH   2   5
HETATM    5  C2  UNL     1       0.554  -1.776  -0.129  1.00  0.00     0.132 C 
BRANCH   5   6
HETATM    6  C3  UNL     1      -0.724  -1.500   0.566  1.00  0.00    -0.017 C 
HETATM    7  C4  UNL     1      -1.718  -0.716   0.208  1.00  0.00    -0.002 C 
BRANCH   7   8
HETATM    8  C5  UNL     1      -1.688   0.051  -1.027  1.00  0.00     0.016 C 
HETATM    9  C6  UNL     1      -2.715   0.823  -1.337  1.00  0.00     0.083 C 
BRANCH   9  10
HETATM   10  N1  UNL     1      -3.887   0.978  -0.546  1.00  0.00    -0.395 N 
HETATM   11  H7  UNL     1      -4.129   1.661   0.183  1.00  0.00     0.159 HD
BRANCH  10  12
HETATM   12  C7  UNL     1      -4.801  -0.074  -0.949  1.00  0.00     0.157 C 
BRANCH  12  13
HETATM   13  C8  UNL     1      -6.042   0.057  -0.141  1.00  0.00    -0.038 A 
HETATM   14  C9  UNL     1      -7.067   0.837  -0.604  1.00  0.00     0.028 A 
HETATM   15  C10 UNL     1      -8.263   1.039   0.048  1.00  0.00     0.116 A 
HETATM   16  N2  UNL     1      -8.395   0.403   1.229  1.00  0.00    -0.273 NA
HETATM   17  C11 UNL     1      -7.425  -0.378   1.740  1.00  0.00     0.116 A 
HETATM   18  C12 UNL     1      -6.218  -0.578   1.074  1.00  0.00     0.028 A 
ENDBRANCH  12  13
ENDBRANCH  10  12
ENDBRANCH   9  10
ENDBRANCH   7   8
ENDBRANCH   5   6
ENDBRANCH   2   5
BRANCH   3  19
HETATM   19  O2  UNL     1       4.198  -1.414   0.537  1.00  0.00    -0.235 OA
BRANCH  19  20
HETATM   20  C13 UNL     1       4.903  -0.248   0.275  1.00  0.00     0.099 A 
HETATM   21  C14 UNL     1       4.410   0.987  -0.095  1.00  0.00     0.039 A 
HETATM   22  C15 UNL     1       5.287   2.033  -0.312  1.00  0.00     0.004 A 
HETATM   23  C16 UNL     1       6.654   1.879  -0.168  1.00  0.00     0.016 A 
HETATM   24  C17 UNL     1       7.147   0.625   0.207  1.00  0.00     0.050 A 
HETATM   25  C19 UNL     1       6.274  -0.426   0.426  1.00  0.00     0.055 A 
BRANCH  24  26
HETATM   26  C18 UNL     1       8.628   0.456   0.364  1.00  0.00     0.417 C 
HETATM   27  F1  UNL     1       9.000   0.775   1.654  1.00  0.00    -0.166 F 
HETATM   28  F2  UNL     1       9.305   1.215  -0.548  1.00  0.00    -0.166 F 
HETATM   29  F3  UNL     1       8.959  -0.892   0.197  1.00  0.00    -0.166 F 
ENDBRANCH  24  26
ENDBRANCH  19  20
ENDBRANCH   3  19
TORSDOF 9
