REMARK  3 active torsions:
REMARK  status: ('A' for Active; 'I' for Inactive)
REMARK    1  A    between atoms: C2_2  and  N1_3 
REMARK    2  A    between atoms: C2_2  and  C18_19 
REMARK    3  A    between atoms: N1_3  and  C3_4 
ROOT
HETATM    1  C3  UNL     1      -0.287   1.053  -0.301  1.00  0.00     0.040 A 
HETATM    2  C4  UNL     1      -0.168   2.386  -0.625  1.00  0.00     0.030 A 
HETATM    3  C5  UNL     1      -1.307   3.201  -0.623  1.00  0.00     0.003 A 
HETATM    4  C6  UNL     1      -2.589   2.748  -0.307  1.00  0.00     0.012 A 
HETATM    5  C7  UNL     1      -2.732   1.434   0.013  1.00  0.00    -0.022 A 
HETATM    6  C8  UNL     1      -1.571   0.667  -0.011  1.00  0.00     0.012 A 
HETATM    7  C9  UNL     1      -1.611  -0.820   0.119  1.00  0.00    -0.013 A 
HETATM    8  C10 UNL     1      -0.616  -1.348  -0.727  1.00  0.00     0.013 A 
HETATM    9  C11 UNL     1      -0.534  -2.754  -0.635  1.00  0.00     0.001 A 
HETATM   10  C12 UNL     1      -1.384  -3.466   0.222  1.00  0.00     0.001 A 
HETATM   11  C13 UNL     1      -2.338  -2.860   1.014  1.00  0.00     0.012 A 
HETATM   12  C14 UNL     1      -2.455  -1.512   0.959  1.00  0.00    -0.024 A 
HETATM   13  C15 UNL     1      -3.583  -0.909   1.724  1.00  0.00     0.024 C 
HETATM   14  C16 UNL     1      -4.266   0.113   1.377  1.00  0.00    -0.024 C 
HETATM   15  C17 UNL     1      -4.086   0.995   0.465  1.00  0.00     0.024 C 
ENDROOT
BRANCH   1  16
HETATM   16  N1  UNL     1       0.878   0.260  -0.065  1.00  0.00    -0.381 N 
HETATM   17  H5  UNL     1       1.108  -0.635   0.411  1.00  0.00     0.160 HD
BRANCH  16  18
HETATM   18  C2  UNL     1       2.161   0.789  -0.473  1.00  0.00     0.111 C 
HETATM   19  C1  UNL     1       2.580   1.948   0.382  1.00  0.00     0.037 C 
BRANCH  18  20
HETATM   20  C18 UNL     1       3.224  -0.233  -0.438  1.00  0.00    -0.036 A 
HETATM   21  C19 UNL     1       3.258  -1.506  -0.048  1.00  0.00     0.009 A 
HETATM   22  C20 UNL     1       4.678  -1.544  -0.417  1.00  0.00     0.001 A 
HETATM   23  C21 UNL     1       4.612  -0.268  -0.799  1.00  0.00     0.009 A 
ENDBRANCH  18  20
ENDBRANCH  16  18
ENDBRANCH   1  16
TORSDOF 3
