REMARK  7 active torsions:
REMARK  status: ('A' for Active; 'I' for Inactive)
REMARK    1  A    between atoms: O1_1  and  C1_2 
REMARK    2  A    between atoms: C5_7  and  P1_8 
REMARK    3  A    between atoms: P1_8  and  C6_9 
REMARK    4  A    between atoms: C11_14  and  C12_15 
REMARK    5  A    between atoms: C12_15  and  N2_16 
REMARK    6  A    between atoms: N2_16  and  C13_17 
REMARK    7  A    between atoms: C17_21  and  C18_22 
ROOT
HETATM    1  C6  UNL     1       1.069  -1.220   0.567  1.00  0.00    -0.021 A 
HETATM    2  C7  UNL     1       1.293  -2.385   1.309  1.00  0.00     0.013 A 
HETATM    3  C8  UNL     1       0.987  -3.655   0.829  1.00  0.00     0.001 A 
HETATM    4  C9  UNL     1       0.441  -3.765  -0.433  1.00  0.00     0.001 A 
HETATM    5  C10 UNL     1       0.226  -2.613  -1.151  1.00  0.00     0.010 A 
HETATM    6  C11 UNL     1       0.515  -1.340  -0.711  1.00  0.00    -0.029 A 
ENDROOT
BRANCH   6   7
HETATM    7  C12 UNL     1       0.349  -0.026  -1.384  1.00  0.00     0.159 C 
BRANCH   7   8
HETATM    8  N2  UNL     1      -0.747   0.671  -0.797  1.00  0.00    -0.386 N 
HETATM    9  H12 UNL     1      -0.455   1.561  -0.285  1.00  0.00     0.160 HD
BRANCH   8  10
HETATM   10  C13 UNL     1      -2.123   0.417  -0.765  1.00  0.00     0.029 A 
HETATM   11  C14 UNL     1      -2.770  -0.636  -1.369  1.00  0.00     0.029 A 
HETATM   12  C15 UNL     1      -4.107  -0.902  -1.338  1.00  0.00     0.003 A 
HETATM   13  C16 UNL     1      -4.901  -0.026  -0.629  1.00  0.00     0.016 A 
HETATM   14  C17 UNL     1      -4.337   1.050   0.002  1.00  0.00     0.050 A 
HETATM   15  C19 UNL     1      -2.995   1.238  -0.080  1.00  0.00     0.045 A 
BRANCH  14  16
HETATM   16  C18 UNL     1      -5.204   1.980   0.759  1.00  0.00     0.417 C 
HETATM   17  F1  UNL     1      -6.204   1.257   1.338  1.00  0.00    -0.166 F 
HETATM   18  F2  UNL     1      -4.536   2.687   1.717  1.00  0.00    -0.166 F 
HETATM   19  F3  UNL     1      -5.766   2.858  -0.141  1.00  0.00    -0.166 F 
ENDBRANCH  14  16
ENDBRANCH   8  10
ENDBRANCH   7   8
ENDBRANCH   6   7
BRANCH   1  20
HETATM   20  P1  UNL     1       1.570   0.253   1.464  1.00  0.00    -0.057 P 
HETATM   21  H5  UNL     1       0.518   1.137   1.858  1.00  0.00     0.067 HD
BRANCH  20  22
HETATM   22  C5  UNL     1       3.090   1.035   0.911  1.00  0.00     0.007 A 
HETATM   23  C1  UNL     1       4.215   0.231   1.040  1.00  0.00     0.094 A 
HETATM   24  C2  UNL     1       5.482   0.685   0.657  1.00  0.00     0.153 A 
HETATM   25  N1  UNL     1       5.623   1.922   0.153  1.00  0.00    -0.270 NA
HETATM   26  C3  UNL     1       4.538   2.739   0.012  1.00  0.00     0.117 A 
HETATM   27  C4  UNL     1       3.284   2.303   0.386  1.00  0.00     0.034 A 
BRANCH  23  28
HETATM   28  O1  UNL     1       4.235  -1.062   1.540  1.00  0.00    -0.358 OA
HETATM   29  H1  UNL     1       4.361  -1.824   0.887  1.00  0.00     0.217 HD
ENDBRANCH  23  28
ENDBRANCH  20  22
ENDBRANCH   1  20
TORSDOF 7
