REMARK  6 active torsions:
REMARK  status: ('A' for Active; 'I' for Inactive)
REMARK       I    between atoms: C1_2  and  N1_3 
REMARK    1  A    between atoms: C1_2  and  C9_14 
REMARK    2  A    between atoms: N1_3  and  C2_4 
REMARK    3  A    between atoms: C6_8  and  C7_9 
REMARK    4  A    between atoms: S1_19  and  N2_20 
REMARK    5  A    between atoms: N2_20  and  C14_21 
REMARK    6  A    between atoms: C14_21  and  C15_22 
ROOT
HETATM    1  C9  UNL     1      -0.263   1.477  -1.322  1.00  0.00     0.076 A 
HETATM    2  C10 UNL     1      -0.267   2.654  -1.919  1.00  0.00     0.025 A 
HETATM    3  C11 UNL     1      -1.392   3.096  -2.729  1.00  0.00     0.002 A 
HETATM    4  C12 UNL     1      -2.513   2.470  -2.997  1.00  0.00     0.007 A 
HETATM    5  C13 UNL     1      -2.879   1.149  -2.521  1.00  0.00     0.055 A 
HETATM    6  S1  UNL     1      -1.722   0.451  -1.565  1.00  0.00    -0.087 SA
ENDROOT
BRANCH   1   7
HETATM    7  C1  UNL     1       0.884   1.075  -0.521  1.00  0.00     0.263 C 
HETATM    8  O1  UNL     1       1.841   1.873  -0.427  1.00  0.00    -0.267 OA
HETATM    9  N1  UNL     1       1.030  -0.152   0.177  1.00  0.00    -0.322 N 
HETATM   10  H1  UNL     1       0.246  -0.835   0.116  1.00  0.00     0.169 HD
BRANCH   9  11
HETATM   11  C2  UNL     1       2.309  -0.154   0.844  1.00  0.00     0.035 A 
HETATM   12  C3  UNL     1       2.571   0.299   2.122  1.00  0.00     0.029 A 
HETATM   13  C4  UNL     1       3.878   0.212   2.590  1.00  0.00     0.003 A 
HETATM   14  C5  UNL     1       4.878  -0.315   1.792  1.00  0.00     0.016 A 
HETATM   15  C6  UNL     1       4.615  -0.767   0.517  1.00  0.00     0.050 A 
HETATM   16  C8  UNL     1       3.310  -0.680   0.048  1.00  0.00     0.045 A 
BRANCH  15  17
HETATM   17  C7  UNL     1       5.712  -1.322  -0.301  1.00  0.00     0.417 C 
HETATM   18  F1  UNL     1       6.770  -0.420  -0.282  1.00  0.00    -0.166 F 
HETATM   19  F2  UNL     1       6.161  -2.494   0.257  1.00  0.00    -0.166 F 
HETATM   20  F3  UNL     1       5.343  -1.446  -1.624  1.00  0.00    -0.166 F 
ENDBRANCH  15  17
ENDBRANCH   9  11
ENDBRANCH   1   7
BRANCH   6  21
HETATM   21  N2  UNL     1      -1.609  -1.293  -1.275  1.00  0.00    -0.265 NA
HETATM   22  H10 UNL     1      -1.415  -1.724  -2.217  1.00  0.00     0.135 HD
BRANCH  21  23
HETATM   23  C14 UNL     1      -2.835  -1.859  -0.765  1.00  0.00     0.137 C 
BRANCH  23  24
HETATM   24  C15 UNL     1      -3.222  -1.247   0.513  1.00  0.00    -0.042 A 
HETATM   25  C16 UNL     1      -2.715  -1.876   1.651  1.00  0.00     0.027 A 
HETATM   26  C17 UNL     1      -3.056  -1.331   2.884  1.00  0.00     0.116 A 
HETATM   27  N3  UNL     1      -3.835  -0.250   3.006  1.00  0.00    -0.273 NA
HETATM   28  C18 UNL     1      -4.342   0.383   1.923  1.00  0.00     0.116 A 
HETATM   29  C19 UNL     1      -4.020  -0.136   0.687  1.00  0.00     0.027 A 
ENDBRANCH  23  24
ENDBRANCH  21  23
ENDBRANCH   6  21
TORSDOF 6
