REMARK  2 active torsions:
REMARK  status: ('A' for Active; 'I' for Inactive)
REMARK    1  A    between atoms: N1_2  and  C2_3 
REMARK    2  A    between atoms: C6_8  and  C7_9 
ROOT
HETATM    1  C2  UNL     1      -3.164  -1.727  -0.074  1.00  0.00     0.723 A 
HETATM    2  N2  UNL     1      -2.374  -2.793   0.078  1.00  0.00    -0.074 NA
HETATM    3  C3  UNL     1      -1.026  -2.705   0.153  1.00  0.00     0.151 A 
HETATM    4  C4  UNL     1      -0.492  -1.439   0.063  1.00  0.00     0.030 A 
HETATM    5  C5  UNL     1       0.867  -1.267   0.130  1.00  0.00     0.034 A 
HETATM    6  C6  UNL     1       1.367  -0.001   0.038  1.00  0.00     0.047 A 
HETATM    7  C13 UNL     1       0.516   1.097  -0.121  1.00  0.00     0.260 A 
HETATM    8  O1  UNL     1       0.905   2.306  -0.215  1.00  0.00    -0.267 OA
HETATM    9  N3  UNL     1      -0.817   0.932  -0.188  1.00  0.00    -0.301 N 
HETATM   10  C14 UNL     1      -1.752   2.030  -0.352  1.00  0.00     0.161 C 
HETATM   11  C15 UNL     1      -1.293  -0.327  -0.095  1.00  0.00     0.163 A 
HETATM   12  N4  UNL     1      -2.599  -0.523  -0.156  1.00  0.00    -0.044 NA
ENDROOT
BRANCH   6  13
HETATM   13  C7  UNL     1       2.771   0.397   0.086  1.00  0.00     0.023 A 
HETATM   14  C8  UNL     1       3.271   0.680   1.342  1.00  0.00     0.046 A 
HETATM   15 CL1  UNL     1       2.298   0.576   2.811  1.00  0.00    -0.083 Cl
HETATM   16  C9  UNL     1       4.590   1.068   1.515  1.00  0.00     0.025 A 
HETATM   17  C10 UNL     1       5.371   1.156   0.379  1.00  0.00     0.003 A 
HETATM   18  C11 UNL     1       4.906   0.881  -0.891  1.00  0.00     0.025 A 
HETATM   19  C12 UNL     1       3.579   0.494  -1.032  1.00  0.00     0.046 A 
HETATM   20 CL2  UNL     1       2.835   0.110  -2.574  1.00  0.00    -0.083 Cl
ENDBRANCH   6  13
BRANCH   1  21
HETATM   21  N1  UNL     1      -4.582  -1.802  -0.154  1.00  0.00    -0.227 N 
HETATM   22  C1  UNL     1      -5.414  -0.621  -0.320  1.00  0.00     0.165 C 
HETATM   23  H4  UNL     1      -5.088  -2.726  -0.095  1.00  0.00     0.177 HD
ENDBRANCH   1  21
TORSDOF 2
