REMARK  2 active torsions:
REMARK  status: ('A' for Active; 'I' for Inactive)
REMARK    1  A    between atoms: C11_12  and  O2_13 
REMARK    2  A    between atoms: C16_21  and  N4_22 
ROOT
HETATM    1  C1  UNL     1      -2.355  -1.349  -1.782  1.00  0.00     0.015 C 
HETATM    2  C2  UNL     1      -2.384  -0.579  -0.485  1.00  0.00     0.019 C 
HETATM    3  C3  UNL     1      -3.155   0.703  -0.768  1.00  0.00     0.009 C 
HETATM    4  C4  UNL     1      -2.663   1.715   0.247  1.00  0.00     0.005 C 
HETATM    5  C5  UNL     1      -1.212   1.913   0.018  1.00  0.00     0.040 C 
HETATM    6  C6  UNL     1      -0.392   0.720   0.397  1.00  0.00    -0.030 C 
HETATM    7  C7  UNL     1      -1.063  -0.373   0.104  1.00  0.00     0.004 C 
HETATM    8  C8  UNL     1      -0.468  -1.684   0.331  1.00  0.00     0.189 C 
HETATM    9  O1  UNL     1      -0.918  -2.542   1.123  1.00  0.00    -0.287 OA
HETATM   10  C9  UNL     1       0.734  -1.811  -0.523  1.00  0.00     0.016 C 
HETATM   11  C10 UNL     1       0.994  -1.012  -1.547  1.00  0.00     0.053 C 
HETATM   12  C11 UNL     1       2.470  -1.036  -1.385  1.00  0.00     0.172 C 
HETATM   13  C12 UNL     1       2.669  -2.540  -1.362  1.00  0.00     0.039 C 
HETATM   14  C13 UNL     1       1.804  -2.825  -0.368  1.00  0.00     0.016 C 
HETATM   15  N1  UNL     1       2.732  -0.424  -0.113  1.00  0.00    -0.336 N 
HETATM   16  C14 UNL     1       2.181   0.437   0.864  1.00  0.00     0.142 A 
HETATM   17  N2  UNL     1       3.115   0.851   1.732  1.00  0.00    -0.224 NA
HETATM   18  C15 UNL     1       2.894   1.671   2.771  1.00  0.00     0.237 A 
HETATM   19  N3  UNL     1       1.654   2.126   2.981  1.00  0.00    -0.224 NA
HETATM   20  C16 UNL     1       0.710   1.704   2.097  1.00  0.00     0.137 A 
HETATM   21  C17 UNL     1       0.892   0.854   1.003  1.00  0.00     0.062 A 
HETATM   22  H15 UNL     1       3.700  -0.848   0.018  1.00  0.00     0.164 HD
ENDROOT
BRANCH  20  23
HETATM   23  N4  UNL     1      -0.538   2.290   2.495  1.00  0.00    -0.383 N 
HETATM   24  H17 UNL     1      -0.945   1.787   3.312  1.00  0.00     0.157 HD
HETATM   25  H18 UNL     1      -1.342   2.941   2.479  1.00  0.00     0.157 HD
ENDBRANCH  20  23
BRANCH  12  26
HETATM   26  O2  UNL     1       3.130  -0.435  -2.437  1.00  0.00    -0.364 OA
HETATM   27  H12 UNL     1       3.877  -1.048  -2.681  1.00  0.00     0.213 HD
ENDBRANCH  12  26
TORSDOF 2
