REMARK  4 active torsions:
REMARK  status: ('A' for Active; 'I' for Inactive)
REMARK    1  A    between atoms: C2_2  and  C3_3 
REMARK    2  A    between atoms: C2_2  and  N3_13 
REMARK    3  A    between atoms: C13_16  and  C14_17 
REMARK    4  A    between atoms: C16_22  and  O1_23 
ROOT
HETATM    1  C1  UNL     1       0.544  -2.204  -0.743  1.00  0.00     0.039 C 
HETATM    2  C2  UNL     1      -0.121  -1.093  -0.469  1.00  0.00     0.010 C 
ENDROOT
BRANCH   2   3
HETATM    3  C3  UNL     1      -1.616  -0.982  -0.651  1.00  0.00     0.086 C 
HETATM    4  C4  UNL     1      -1.876   0.097  -1.709  1.00  0.00     0.135 C 
HETATM    5  N1  UNL     1      -2.780   1.170  -1.221  1.00  0.00    -0.387 N 
HETATM    6  C5  UNL     1      -2.923   1.182   0.193  1.00  0.00     0.057 C 
HETATM    7  H6  UNL     1      -3.433   1.992  -1.385  1.00  0.00     0.159 HD
HETATM    8  C6  UNL     1      -1.732   0.653   0.698  1.00  0.00     0.012 C 
HETATM    9  C10 UNL     1      -4.004   1.525   1.153  1.00  0.00     0.146 C 
HETATM   10  C7  UNL     1      -2.153  -0.666   0.672  1.00  0.00    -0.032 C 
HETATM   11  C8  UNL     1      -2.940  -1.247   1.757  1.00  0.00     0.028 C 
HETATM   12  C9  UNL     1      -3.860  -0.519   2.464  1.00  0.00     0.117 C 
HETATM   13  N2  UNL     1      -4.112   0.933   2.350  1.00  0.00    -0.271 NA
ENDBRANCH   2   3
BRANCH   2  14
HETATM   14  N3  UNL     1       0.749  -0.077  -0.001  1.00  0.00    -0.354 N 
HETATM   15  C11 UNL     1       1.048  -0.070   1.440  1.00  0.00     0.153 C 
HETATM   16  C12 UNL     1       2.506  -0.410   1.562  1.00  0.00     0.005 C 
HETATM   17  C13 UNL     1       3.222   0.368   0.794  1.00  0.00     0.027 C 
HETATM   18  C15 UNL     1       2.672   1.438  -0.076  1.00  0.00     0.096 C 
HETATM   19  C16 UNL     1       1.399   0.969  -0.749  1.00  0.00     0.224 C 
BRANCH  17  20
HETATM   20  C14 UNL     1       4.701   0.152   0.805  1.00  0.00     0.413 C 
HETATM   21  F1  UNL     1       5.328   1.291   1.217  1.00  0.00    -0.166 F 
HETATM   22  F2  UNL     1       5.088  -0.079  -0.510  1.00  0.00    -0.166 F 
HETATM   23  F3  UNL     1       5.072  -0.937   1.531  1.00  0.00    -0.166 F 
ENDBRANCH  17  20
BRANCH  19  24
HETATM   24  O1  UNL     1       1.811   0.507  -2.017  1.00  0.00    -0.376 OA
HETATM   25  H16 UNL     1       1.469  -0.402  -2.178  1.00  0.00     0.212 HD
ENDBRANCH  19  24
ENDBRANCH   2  14
TORSDOF 4
