REMARK  12 active torsions:
REMARK  status: ('A' for Active; 'I' for Inactive)
REMARK    1  A    between atoms: O1_1  and  C1_2 
REMARK    2  A    between atoms: C5_7  and  C6_8 
REMARK    3  A    between atoms: C6_8  and  N2_9 
REMARK    4  A    between atoms: N2_9  and  C7_10 
REMARK    5  A    between atoms: C8_11  and  C9_12 
REMARK    6  A    between atoms: C9_12  and  C10_13 
REMARK    7  A    between atoms: C11_14  and  N3_15 
REMARK    8  A    between atoms: N3_15  and  C12_16 
REMARK    9  A    between atoms: C13_17  and  C14_18 
REMARK   10  A    between atoms: C15_19  and  C16_20 
REMARK   11  A    between atoms: C16_20  and  C17_21 
REMARK   12  A    between atoms: C17_21  and  C18_23 
ROOT
HETATM    1  C9  UNL     1      -1.581  -1.168   0.022  1.00  0.00     0.124 C 
ENDROOT
BRANCH   1   2
HETATM    2  C8  UNL     1      -2.171  -1.276   1.379  1.00  0.00     0.002 C 
HETATM    3  C7  UNL     1      -3.289  -0.748   1.846  1.00  0.00     0.080 C 
BRANCH   3   4
HETATM    4  N2  UNL     1      -4.058   0.047   0.921  1.00  0.00    -0.395 N 
HETATM    5  H7  UNL     1      -3.518   0.916   0.909  1.00  0.00     0.159 HD
BRANCH   4   6
HETATM    6  C6  UNL     1      -5.187  -0.758   0.475  1.00  0.00     0.160 C 
BRANCH   6   7
HETATM    7  C5  UNL     1      -6.049  -0.030  -0.500  1.00  0.00    -0.005 A 
HETATM    8  C1  UNL     1      -5.577   0.084  -1.779  1.00  0.00     0.091 A 
HETATM    9  C2  UNL     1      -6.327   0.742  -2.710  1.00  0.00     0.153 A 
HETATM   10  N1  UNL     1      -7.518   1.278  -2.392  1.00  0.00    -0.270 NA
HETATM   11  C3  UNL     1      -8.000   1.177  -1.138  1.00  0.00     0.117 A 
HETATM   12  C4  UNL     1      -7.269   0.514  -0.156  1.00  0.00     0.031 A 
BRANCH   8  13
HETATM   13  O1  UNL     1      -4.365  -0.416  -2.259  1.00  0.00    -0.359 OA
HETATM   14  H1  UNL     1      -3.588   0.208  -2.473  1.00  0.00     0.217 HD
ENDBRANCH   8  13
ENDBRANCH   6   7
ENDBRANCH   4   6
ENDBRANCH   3   4
ENDBRANCH   1   2
BRANCH   1  15
HETATM   15  C10 UNL     1      -0.232  -0.547   0.095  1.00  0.00    -0.079 C 
HETATM   16  C11 UNL     1       0.868  -0.047   0.171  1.00  0.00     0.018 C 
BRANCH  16  17
HETATM   17  N3  UNL     1       2.130   0.549   0.271  1.00  0.00    -0.274 N 
HETATM   18  H12 UNL     1       2.171   1.596   0.085  1.00  0.00     0.186 HD
BRANCH  17  19
HETATM   19  C12 UNL     1       3.303  -0.143   0.592  1.00  0.00     0.023 C 
HETATM   20  C13 UNL     1       4.322  -0.720   0.870  1.00  0.00    -0.055 C 
BRANCH  20  21
HETATM   21  C14 UNL     1       5.557  -1.394   1.216  1.00  0.00     0.062 C 
HETATM   22  C15 UNL     1       6.703  -1.184   0.590  1.00  0.00    -0.015 C 
BRANCH  22  23
HETATM   23  C16 UNL     1       6.716  -0.199  -0.532  1.00  0.00     0.067 C 
BRANCH  23  24
HETATM   24  C17 UNL     1       7.639   0.952  -0.323  1.00  0.00     0.202 C 
HETATM   25  F1  UNL     1       7.600   1.823  -1.390  1.00  0.00    -0.247 F 
BRANCH  24  26
HETATM   26  C18 UNL     1       7.355   1.727   0.932  1.00  0.00     0.259 C 
HETATM   27  F2  UNL     1       6.087   2.270   0.970  1.00  0.00    -0.253 F 
ENDBRANCH  24  26
ENDBRANCH  23  24
ENDBRANCH  22  23
ENDBRANCH  20  21
ENDBRANCH  17  19
ENDBRANCH  16  17
ENDBRANCH   1  15
TORSDOF 12
