REMARK  7 active torsions:
REMARK  status: ('A' for Active; 'I' for Inactive)
REMARK    1  A    between atoms: C2_2  and  C18_22 
REMARK    2  A    between atoms: C3_3  and  C4_4 
REMARK    3  A    between atoms: C4_4  and  N1_5 
REMARK       I    between atoms: N1_5  and  C5_6 
REMARK    4  A    between atoms: C5_6  and  C6_8 
REMARK    5  A    between atoms: C11_13  and  N2_14 
REMARK    6  A    between atoms: N2_14  and  C12_15 
REMARK    7  A    between atoms: C12_15  and  C13_16 
ROOT
HETATM    1  C6  UNL     1       0.108   1.430  -0.620  1.00  0.00     0.058 A 
HETATM    2  C7  UNL     1       0.807   2.581  -0.354  1.00  0.00     0.019 A 
HETATM    3  C8  UNL     1       0.088   3.737  -0.146  1.00  0.00     0.001 A 
HETATM    4  C9  UNL     1      -1.283   3.799  -0.191  1.00  0.00     0.002 A 
HETATM    5  C10 UNL     1      -1.968   2.639  -0.458  1.00  0.00     0.030 A 
HETATM    6  C11 UNL     1      -1.267   1.443  -0.675  1.00  0.00     0.044 A 
ENDROOT
BRANCH   1   7
HETATM    7  C5  UNL     1       0.929   0.249  -0.832  1.00  0.00     0.254 C 
HETATM    8  N1  UNL     1       2.343   0.279  -0.947  1.00  0.00    -0.353 N 
HETATM    9  H7  UNL     1       2.874   1.207  -0.877  1.00  0.00     0.163 HD
HETATM   10  O1  UNL     1       0.735  -0.989  -0.973  1.00  0.00    -0.268 OA
BRANCH   8  11
HETATM   11  C4  UNL     1       3.153  -0.936  -1.172  1.00  0.00     0.150 C 
BRANCH  11  12
HETATM   12  C3  UNL     1       3.028  -1.918  -0.070  1.00  0.00    -0.003 C 
HETATM   13  C2  UNL     1       4.274  -2.186   0.548  1.00  0.00    -0.058 C 
HETATM   14  C1  UNL     1       4.680  -3.125   1.734  1.00  0.00     0.045 C 
BRANCH  13  15
HETATM   15  C18 UNL     1       5.655  -1.674   0.250  1.00  0.00     0.256 C 
HETATM   16  F1  UNL     1       6.097  -1.014   1.394  1.00  0.00    -0.251 F 
ENDBRANCH  13  15
ENDBRANCH  11  12
ENDBRANCH   8  11
ENDBRANCH   1   7
BRANCH   6  17
HETATM   17  N2  UNL     1      -1.993   0.265  -0.953  1.00  0.00    -0.385 N 
HETATM   18  H12 UNL     1      -1.412  -0.596  -1.100  1.00  0.00     0.160 HD
BRANCH  17  19
HETATM   19  C12 UNL     1      -3.342  -0.170  -1.109  1.00  0.00     0.158 C 
BRANCH  19  20
HETATM   20  C13 UNL     1      -4.226  -0.050   0.077  1.00  0.00    -0.038 A 
HETATM   21  C14 UNL     1      -5.092   0.973   0.366  1.00  0.00     0.028 A 
HETATM   22  C15 UNL     1      -5.866   0.929   1.533  1.00  0.00     0.116 A 
HETATM   23  N3  UNL     1      -5.756  -0.143   2.384  1.00  0.00    -0.273 NA
HETATM   24  C16 UNL     1      -4.897  -1.126   2.067  1.00  0.00     0.116 A 
HETATM   25  C17 UNL     1      -4.094  -1.151   0.925  1.00  0.00     0.028 A 
ENDBRANCH  19  20
ENDBRANCH  17  19
ENDBRANCH   6  17
TORSDOF 7
