REMARK  4 active torsions:
REMARK  status: ('A' for Active; 'I' for Inactive)
REMARK    1  A    between atoms: C3_3  and  O1_4 
REMARK    2  A    between atoms: C8_10  and  C9_11 
REMARK    3  A    between atoms: C10_12  and  N1_13 
REMARK    4  A    between atoms: C10_12  and  C11_15 
ROOT
HETATM    1  C9  UNL     1      -0.121   0.098   0.013  1.00  0.00     0.015 C 
HETATM    2  C10 UNL     1       0.773  -0.518  -0.815  1.00  0.00     0.084 C 
ENDROOT
BRANCH   2   3
HETATM    3  N1  UNL     1       0.396  -1.602  -1.654  1.00  0.00    -0.101 NA
HETATM    4  O3  UNL     1       0.296  -2.739  -1.096  1.00  0.00    -0.061 OA
ENDBRANCH   2   3
BRANCH   2   5
HETATM    5  C11 UNL     1       2.186  -0.082  -0.831  1.00  0.00     0.135 C 
HETATM    6  C12 UNL     1       3.123  -0.785   0.085  1.00  0.00     0.033 C 
HETATM    7  C13 UNL     1       4.184   0.106   0.610  1.00  0.00    -0.017 C 
HETATM    8  C14 UNL     1       4.159   1.445   0.290  1.00  0.00     0.043 C 
HETATM    9  C15 UNL     1       5.278   2.228   0.894  1.00  0.00    -0.021 C 
HETATM   10  C16 UNL     1       4.916   3.490   0.424  1.00  0.00    -0.002 C 
HETATM   11  C17 UNL     1       3.710   3.348  -0.378  1.00  0.00     0.016 C 
HETATM   12  C18 UNL     1       2.671   2.738  -1.013  1.00  0.00     0.083 C 
HETATM   13  N2  UNL     1       2.480   1.290  -1.010  1.00  0.00    -0.389 N 
HETATM   14  H20 UNL     1       3.116   1.410  -1.885  1.00  0.00     0.159 HD
ENDBRANCH   2   5
BRANCH   1  15
HETATM   15  C8  UNL     1      -1.385  -0.593  -0.204  1.00  0.00     0.056 C 
HETATM   16  C7  UNL     1      -2.612  -0.872  -0.045  1.00  0.00    -0.039 C 
HETATM   17  C2  UNL     1      -3.810  -0.542   0.689  1.00  0.00     0.003 C 
HETATM   18  C6  UNL     1      -2.864  -1.904  -1.110  1.00  0.00     0.006 C 
HETATM   19  C1  UNL     1      -3.287   0.449   1.700  1.00  0.00     0.054 C 
HETATM   20  C3  UNL     1      -5.080  -0.809   0.778  1.00  0.00     0.185 C 
HETATM   21  O2  UNL     1      -5.504  -1.732  -0.185  1.00  0.00    -0.327 OA
HETATM   22  C4  UNL     1      -4.953  -2.987  -0.505  1.00  0.00     0.205 C 
HETATM   23  C5  UNL     1      -3.780  -2.846  -1.433  1.00  0.00     0.000 C 
BRANCH  20  24
HETATM   24  O1  UNL     1      -5.749  -0.141   1.783  1.00  0.00    -0.341 OA
HETATM   25  H4  UNL     1      -5.828  -0.669   2.667  1.00  0.00     0.220 HD
ENDBRANCH  20  24
ENDBRANCH   1  15
TORSDOF 4
