REMARK  4 active torsions:
REMARK  status: ('A' for Active; 'I' for Inactive)
REMARK    1  A    between atoms: C2_2  and  C3_3 
REMARK    2  A    between atoms: C6_8  and  C7_9 
REMARK    3  A    between atoms: C7_9  and  O2_10 
REMARK    4  A    between atoms: O2_10  and  C8_11 
ROOT
HETATM    1  C8  UNL     1       0.212   0.551  -1.144  1.00  0.00     0.107 C 
HETATM    2  C9  UNL     1       1.391   0.733  -1.761  1.00  0.00     0.057 C 
HETATM    3  C10 UNL     1       1.802   1.397  -3.019  1.00  0.00     0.120 C 
HETATM    4  N2  UNL     1       1.193   1.875  -4.085  1.00  0.00    -0.254 NA
HETATM    5  C11 UNL     1      -0.219   1.879  -4.347  1.00  0.00     0.229 C 
HETATM    6  N3  UNL     1      -1.237   1.955  -3.573  1.00  0.00    -0.242 NA
HETATM    7  C12 UNL     1      -1.446   2.062  -2.198  1.00  0.00     0.411 C 
HETATM    8  N4  UNL     1      -2.886   2.281  -1.867  1.00  0.00     0.151 N 
HETATM    9  C13 UNL     1      -3.670   1.262  -2.459  1.00  0.00     0.298 C 
HETATM   10  C14 UNL     1      -2.921  -0.040  -2.718  1.00  0.00     0.152 C 
HETATM   11  N5  UNL     1      -2.060  -0.273  -1.619  1.00  0.00    -0.357 N 
HETATM   12  C15 UNL     1      -1.569  -1.575  -1.375  1.00  0.00     0.240 C 
HETATM   13  N6  UNL     1      -2.452  -2.426  -0.501  1.00  0.00    -0.393 N 
HETATM   14  C16 UNL     1      -2.887  -1.519   0.588  1.00  0.00     0.060 A 
HETATM   15  C17 UNL     1      -1.803  -1.468   1.378  1.00  0.00     0.007 A 
HETATM   16  C18 UNL     1      -1.870  -0.197   1.968  1.00  0.00     0.031 A 
HETATM   17  C19 UNL     1      -3.053   0.333   1.387  1.00  0.00     0.053 A 
HETATM   18  C20 UNL     1      -3.853  -0.308   0.510  1.00  0.00     0.082 A 
HETATM   19  C21 UNL     1      -4.016  -1.469  -0.181  1.00  0.00     0.039 A 
HETATM   20  O3  UNL     1      -3.543   1.666   1.645  1.00  0.00    -0.351 OA
HETATM   21  C22 UNL     1      -3.904   2.377   0.421  1.00  0.00     0.239 C 
HETATM   22  C23 UNL     1      -2.707   2.341  -0.455  1.00  0.00     0.388 C 
HETATM   23  O4  UNL     1      -1.760   1.379  -0.110  1.00  0.00    -0.314 OA
HETATM   24  C24 UNL     1      -1.210   0.858  -1.318  1.00  0.00     0.237 C 
HETATM   25  H25 UNL     1      -2.600  -3.456  -0.776  1.00  0.00     0.155 HD
ENDROOT
BRANCH   1  26
HETATM   26  O2  UNL     1       0.697  -0.142  -0.062  1.00  0.00    -0.348 OA
BRANCH  26  27
HETATM   27  C7  UNL     1       1.684   0.216   0.846  1.00  0.00     0.213 C 
BRANCH  27  28
HETATM   28  C6  UNL     1       2.579  -0.959   1.196  1.00  0.00     0.273 C 
HETATM   29  C3  UNL     1       3.721  -0.612   2.095  1.00  0.00     0.156 C 
HETATM   30  O1  UNL     1       4.475  -1.753   2.427  1.00  0.00    -0.382 OA
HETATM   31  C4  UNL     1       3.781  -2.677   3.158  1.00  0.00     0.198 C 
HETATM   32  C5  UNL     1       2.313  -2.370   3.116  1.00  0.00     0.296 C 
HETATM   33  N1  UNL     1       1.834  -2.035   1.793  1.00  0.00     0.094 N 
HETATM   34  H11 UNL     1       1.887  -2.871   1.193  1.00  0.00     0.316 HD
BRANCH  29  35
HETATM   35  C2  UNL     1       4.717   0.326   1.420  1.00  0.00     0.029 C 
HETATM   36  C1  UNL     1       5.811   0.603   2.436  1.00  0.00     0.007 C 
ENDBRANCH  29  35
ENDBRANCH  27  28
ENDBRANCH  26  27
ENDBRANCH   1  26
TORSDOF 4
