REMARK  3 active torsions:
REMARK  status: ('A' for Active; 'I' for Inactive)
REMARK    1  A    between atoms: C2_2  and  C3_3 
REMARK    2  A    between atoms: C3_3  and  O1_4 
REMARK    3  A    between atoms: C4_5  and  C5_6 
ROOT
HETATM    1  C5  UNL     1       0.671  -0.012  -0.934  1.00  0.00     0.010 C 
HETATM    2  C6  UNL     1      -0.556  -0.469  -0.748  1.00  0.00    -0.048 C 
HETATM    3  C7  UNL     1      -0.560  -1.554   0.267  1.00  0.00     0.036 C 
HETATM    4  C8  UNL     1      -1.291  -1.955   1.302  1.00  0.00     0.113 C 
HETATM    5  C9  UNL     1      -0.905  -3.083   2.058  1.00  0.00     0.105 C 
HETATM    6  N1  UNL     1      -0.576  -3.996   2.658  1.00  0.00    -0.191 NA
HETATM    7  C10 UNL     1      -2.552  -1.411   1.895  1.00  0.00     0.266 C 
HETATM    8  O2  UNL     1      -3.065  -1.835   2.920  1.00  0.00    -0.267 OA
HETATM    9  N2  UNL     1      -3.373  -0.310   1.378  1.00  0.00    -0.326 N 
HETATM   10  C11 UNL     1      -3.307   0.313   0.059  1.00  0.00     0.013 C 
HETATM   11  C12 UNL     1      -3.554   1.638   0.176  1.00  0.00     0.025 C 
HETATM   12  C13 UNL     1      -2.586   2.414  -0.671  1.00  0.00    -0.001 C 
HETATM   13  C14 UNL     1      -1.679   1.681  -1.361  1.00  0.00    -0.017 C 
HETATM   14  C15 UNL     1      -1.568   0.194  -1.569  1.00  0.00     0.046 C 
HETATM   15  C16 UNL     1      -2.976  -0.312  -1.295  1.00  0.00     0.070 C 
HETATM   16  H10 UNL     1      -4.099   0.167   1.915  1.00  0.00     0.169 HD
ENDROOT
BRANCH   1  17
HETATM   17  C4  UNL     1       1.858  -0.470  -0.271  1.00  0.00     0.032 C 
HETATM   18  C3  UNL     1       3.032   0.042  -0.521  1.00  0.00     0.043 C 
BRANCH  18  19
HETATM   19  C2  UNL     1       4.347  -0.290   0.049  1.00  0.00     0.060 C 
HETATM   20  C1  UNL     1       5.007   0.873   0.749  1.00  0.00     0.012 C 
ENDBRANCH  18  19
BRANCH  18  21
HETATM   21  O1  UNL     1       3.259   1.055  -1.429  1.00  0.00    -0.365 OA
HETATM   22  H6  UNL     1       2.792   1.942  -1.431  1.00  0.00     0.217 HD
ENDBRANCH  18  21
ENDBRANCH   1  17
TORSDOF 3
