REMARK  2 active torsions:
REMARK  status: ('A' for Active; 'I' for Inactive)
REMARK    1  A    between atoms: C2_2  and  O1_4 
REMARK    2  A    between atoms: O1_4  and  C4_5 
ROOT
HETATM    1  C4  UNL     1       2.926   0.181  -0.506  1.00  0.00     0.100 A 
HETATM    2  C5  UNL     1       2.803   1.437  -0.174  1.00  0.00     0.058 A 
HETATM    3  C6  UNL     1       1.481   0.990   0.042  1.00  0.00     0.097 A 
HETATM    4  C7  UNL     1       1.602  -0.319  -0.302  1.00  0.00    -0.063 A 
HETATM    5  B1  UNL     1       0.531  -1.453  -0.308  1.00  0.00     0.298 B 
HETATM    6  N1  UNL     1      -0.279  -1.979   0.773  1.00  0.00    -0.455 N 
HETATM    7  C8  UNL     1      -1.568  -2.470   0.739  1.00  0.00     0.224 C 
HETATM    8  N2  UNL     1      -2.700  -1.687   0.394  1.00  0.00    -0.374 N 
HETATM    9  C9  UNL     1      -4.076  -1.907   0.415  1.00  0.00     0.088 C 
HETATM   10  C10 UNL     1      -5.073  -1.081   0.293  1.00  0.00     0.036 C 
HETATM   11  C11 UNL     1      -5.306   0.339   0.089  1.00  0.00     0.119 C 
HETATM   12  N3  UNL     1      -5.315   1.614  -0.097  1.00  0.00    -0.255 NA
HETATM   13  C12 UNL     1      -4.188   2.476  -0.246  1.00  0.00     0.228 C 
HETATM   14  N4  UNL     1      -3.041   3.021   0.013  1.00  0.00    -0.263 NA
HETATM   15  C13 UNL     1      -2.196   2.682   1.117  1.00  0.00     0.277 C 
HETATM   16  N5  UNL     1      -1.226   1.591   0.885  1.00  0.00    -0.332 N 
HETATM   17  C14 UNL     1      -1.876   0.320   1.186  1.00  0.00     0.147 C 
HETATM   18  C15 UNL     1      -2.352  -0.363  -0.054  1.00  0.00     0.143 C 
HETATM   19  C16 UNL     1       0.122   1.322   0.462  1.00  0.00     0.237 C 
HETATM   20  O2  UNL     1      -0.000   2.557   0.381  1.00  0.00    -0.272 OA
HETATM   21  H9  UNL     1       0.422  -1.964  -1.395  1.00  0.00     0.005 HD
HETATM   22  H10 UNL     1       0.212  -2.143   1.679  1.00  0.00     0.133 HD
ENDROOT
BRANCH   1  23
HETATM   23  O1  UNL     1       4.011  -0.521  -0.940  1.00  0.00    -0.370 OA
BRANCH  23  24
HETATM   24  C2  UNL     1       5.342  -0.081  -0.743  1.00  0.00     0.115 C 
HETATM   25  C1  UNL     1       6.214  -1.168  -1.332  1.00  0.00     0.039 C 
HETATM   26  C3  UNL     1       5.621   0.147   0.715  1.00  0.00     0.039 C 
ENDBRANCH  23  24
ENDBRANCH   1  23
TORSDOF 2
