REMARK  1 active torsions:
REMARK  status: ('A' for Active; 'I' for Inactive)
REMARK    1  A    between atoms: C5_7  and  C14_19 
ROOT
HETATM    1  C1  UNL     1       2.671   2.918   2.097  1.00  0.00     0.067 C 
HETATM    2  C2  UNL     1       1.694   2.386   1.089  1.00  0.00     0.026 C 
HETATM    3  N1  UNL     1       0.450   2.426   1.482  1.00  0.00    -0.257 NA
HETATM    4  C3  UNL     1      -0.535   1.932   0.570  1.00  0.00     0.184 C 
HETATM    5  N2  UNL     1      -1.289   0.867   0.579  1.00  0.00    -0.224 NA
HETATM    6  C4  UNL     1      -2.164   0.751  -0.574  1.00  0.00     0.074 A 
HETATM    7  C5  UNL     1      -1.374  -0.310  -0.812  1.00  0.00     0.075 A 
HETATM    8  C6  UNL     1      -0.336  -0.366   0.375  1.00  0.00     0.129 A 
HETATM    9  C7  UNL     1      -0.842  -1.507   0.054  1.00  0.00     0.132 A 
HETATM   10  O1  UNL     1      -1.736  -1.734   1.084  1.00  0.00    -0.355 OA
HETATM   11  C8  UNL     1      -3.159  -1.762   0.828  1.00  0.00     0.288 C 
HETATM   12  N3  UNL     1      -3.761  -0.538   1.129  1.00  0.00    -0.395 N 
HETATM   13  C9  UNL     1      -3.738  -0.187   2.492  1.00  0.00     0.145 C 
HETATM   14  C10 UNL     1      -4.741   0.057   0.368  1.00  0.00     0.138 C 
HETATM   15  C11 UNL     1      -4.329   0.547  -1.001  1.00  0.00     0.140 C 
HETATM   16  N4  UNL     1      -3.275   1.513  -1.010  1.00  0.00    -0.381 N 
HETATM   17  C12 UNL     1       0.109  -1.342  -1.108  1.00  0.00     0.116 A 
HETATM   18  C13 UNL     1      -0.408  -2.460  -1.472  1.00  0.00    -0.008 A 
HETATM   19  C14 UNL     1      -1.343  -1.332  -1.939  1.00  0.00     0.085 A 
HETATM   20  O2  UNL     1       1.066  -0.450  -1.571  1.00  0.00    -0.349 OA
HETATM   21  C15 UNL     1       2.391  -0.399  -1.167  1.00  0.00     0.220 C 
HETATM   22  C16 UNL     1       2.713  -1.746  -0.502  1.00  0.00     0.054 C 
HETATM   23  C17 UNL     1       4.198  -1.863  -0.441  1.00  0.00     0.006 C 
HETATM   24  C18 UNL     1       4.864  -0.534  -0.434  1.00  0.00     0.020 C 
HETATM   25  C19 UNL     1       4.085   0.579   0.215  1.00  0.00     0.119 C 
HETATM   26  N5  UNL     1       2.693   0.573  -0.139  1.00  0.00    -0.382 N 
HETATM   27  C20 UNL     1       2.066   1.836  -0.267  1.00  0.00     0.173 C 
HETATM   28  H15 UNL     1      -2.787   2.403  -1.125  1.00  0.00     0.160 HD
ENDROOT
TORSDOF 1
