REMARK  3 active torsions:
REMARK  status: ('A' for Active; 'I' for Inactive)
REMARK    1  A    between atoms: C2_2  and  O1_4 
REMARK    2  A    between atoms: O1_4  and  C4_5 
REMARK    3  A    between atoms: C7_8  and  N1_9 
ROOT
HETATM    1  N1  UNL     1      -0.974  -0.039   0.476  1.00  0.00    -0.219 N 
HETATM    2  N2  UNL     1      -1.209   0.003   1.890  1.00  0.00    -0.184 NA
HETATM    3  C8  UNL     1      -2.120  -0.631   2.594  1.00  0.00     0.124 C 
HETATM    4  C9  UNL     1      -3.012  -1.782   2.401  1.00  0.00     0.074 C 
HETATM    5  C10 UNL     1      -4.470  -1.379   2.133  1.00  0.00     0.004 C 
HETATM    6  C11 UNL     1      -4.933  -0.754   1.011  1.00  0.00     0.091 C 
HETATM    7  N3  UNL     1      -4.183  -0.067  -0.043  1.00  0.00    -0.323 N 
HETATM    8  C12 UNL     1      -4.676  -0.322  -1.405  1.00  0.00     0.161 C 
HETATM    9  C13 UNL     1      -3.447  -0.514  -2.253  1.00  0.00     0.294 C 
HETATM   10  N4  UNL     1      -2.145  -0.153  -1.764  1.00  0.00     0.129 N 
HETATM   11  C14 UNL     1      -2.010  -0.286  -0.412  1.00  0.00     0.350 C 
HETATM   12  C15 UNL     1      -2.388  -1.708  -0.059  1.00  0.00     0.046 C 
HETATM   13  C16 UNL     1      -2.566  -2.429   1.091  1.00  0.00    -0.012 C 
HETATM   14  C17 UNL     1      -3.011   0.787  -0.010  1.00  0.00     0.289 C 
HETATM   15  O2  UNL     1      -2.477   1.929   0.183  1.00  0.00    -0.268 OA
HETATM   16  H18 UNL     1      -1.933   0.806  -2.178  1.00  0.00     0.320 HD
ENDROOT
BRANCH   1  17
HETATM   17  C7  UNL     1       0.383   0.191   0.127  1.00  0.00     0.057 A 
HETATM   18  C6  UNL     1       0.886   0.097  -1.153  1.00  0.00     0.034 A 
HETATM   19  C5  UNL     1       2.235   0.345  -1.417  1.00  0.00     0.039 A 
HETATM   20  C4  UNL     1       3.147   0.700  -0.415  1.00  0.00     0.069 A 
HETATM   21  C19 UNL     1       2.625   0.789   0.858  1.00  0.00     0.039 A 
HETATM   22  C18 UNL     1       1.294   0.541   1.099  1.00  0.00     0.034 A 
BRANCH  20  23
HETATM   23  O1  UNL     1       4.409   0.896  -0.900  1.00  0.00    -0.347 OA
BRANCH  23  24
HETATM   24  C2  UNL     1       5.513   1.258  -0.105  1.00  0.00     0.120 C 
HETATM   25  C1  UNL     1       6.621   0.219  -0.208  1.00  0.00     0.040 C 
HETATM   26  C3  UNL     1       6.070   2.620  -0.522  1.00  0.00     0.040 C 
ENDBRANCH  23  24
ENDBRANCH  20  23
ENDBRANCH   1  17
TORSDOF 3
