REMARK  5 active torsions:
REMARK  status: ('A' for Active; 'I' for Inactive)
REMARK    1  A    between atoms: C2_2  and  C3_3 
REMARK    2  A    between atoms: C3_3  and  O3_22 
REMARK    3  A    between atoms: C4_4  and  N1_5 
REMARK    4  A    between atoms: C13_19  and  O2_20 
REMARK    5  A    between atoms: O3_22  and  C15_23 
ROOT
HETATM    1  N1  UNL     1      -0.151   0.560   0.621  1.00  0.00    -0.268 N 
HETATM    2  C5  UNL     1      -1.261   1.340   1.184  1.00  0.00     0.456 A 
HETATM    3  O1  UNL     1      -1.506   0.203   1.535  1.00  0.00    -0.124 OA
HETATM    4  N2  UNL     1      -2.451   1.227   1.947  1.00  0.00     0.112 N 
HETATM    5  C6  UNL     1      -3.440   0.458   2.667  1.00  0.00     0.297 C 
HETATM    6  C7  UNL     1      -4.191  -0.412   1.734  1.00  0.00     0.152 C 
HETATM    7  N3  UNL     1      -3.559  -1.322   0.846  1.00  0.00    -0.372 N 
HETATM    8  C8  UNL     1      -2.853  -1.576  -0.382  1.00  0.00     0.136 A 
HETATM    9  N4  UNL     1      -3.816  -1.626  -1.308  1.00  0.00    -0.224 NA
HETATM   10  C9  UNL     1      -3.541  -1.836  -2.628  1.00  0.00     0.234 A 
HETATM   11  N5  UNL     1      -2.267  -2.000  -3.013  1.00  0.00    -0.253 NA
HETATM   12  C10 UNL     1      -1.330  -1.939  -2.019  1.00  0.00     0.133 A 
HETATM   13  C11 UNL     1      -1.528  -1.727  -0.644  1.00  0.00     0.031 A 
HETATM   14  C12 UNL     1      -0.205  -1.757  -0.077  1.00  0.00     0.073 C 
HETATM   15  C13 UNL     1       0.475  -0.757   0.510  1.00  0.00     0.148 C 
HETATM   16  H5  UNL     1      -2.625   2.288   1.918  1.00  0.00     0.324 HD
HETATM   17  H10 UNL     1      -3.569  -2.331   1.193  1.00  0.00     0.161 HD
ENDROOT
BRANCH   1  18
HETATM   18  C4  UNL     1       0.510   1.583  -0.089  1.00  0.00     0.135 C 
HETATM   19  C3  UNL     1       1.598   1.396  -0.825  1.00  0.00     0.083 C 
BRANCH  19  20
HETATM   20  C2  UNL     1       2.150   2.540  -1.490  1.00  0.00     0.028 C 
HETATM   21  C1  UNL     1       3.050   3.006  -2.255  1.00  0.00     0.014 C 
ENDBRANCH  19  20
BRANCH  19  22
HETATM   22  O3  UNL     1       2.476   0.399  -1.220  1.00  0.00    -0.350 OA
BRANCH  22  23
HETATM   23  C15 UNL     1       3.837   0.311  -0.970  1.00  0.00     0.171 C 
HETATM   24  C16 UNL     1       4.285  -1.072  -1.450  1.00  0.00     0.034 C 
ENDBRANCH  22  23
ENDBRANCH  19  22
ENDBRANCH   1  18
BRANCH  15  25
HETATM   25  O2  UNL     1       1.722  -0.839   1.034  1.00  0.00    -0.341 OA
HETATM   26  C14 UNL     1       2.104  -0.143   2.230  1.00  0.00     0.211 C 
ENDBRANCH  15  25
TORSDOF 5
