REMARK  7 active torsions:
REMARK  status: ('A' for Active; 'I' for Inactive)
REMARK    1  A    between atoms: O1_2  and  C2_3 
REMARK    2  A    between atoms: N2_9  and  C7_10 
REMARK    3  A    between atoms: C9_12  and  O2_13 
REMARK    4  A    between atoms: O2_13  and  C10_14 
REMARK    5  A    between atoms: C10_14  and  C11_15 
REMARK    6  A    between atoms: C11_15  and  C12_16 
REMARK    7  A    between atoms: C12_16  and  N3_17 
ROOT
HETATM    1  C2  UNL     1      -0.395   1.642   0.505  1.00  0.00     0.098 A 
HETATM    2  C3  UNL     1      -1.797   1.808   0.438  1.00  0.00     0.033 A 
HETATM    3  C4  UNL     1      -2.327   0.599  -0.045  1.00  0.00     0.072 A 
HETATM    4  C5  UNL     1      -3.704   0.683  -0.107  1.00  0.00     0.045 A 
HETATM    5  N1  UNL     1      -3.454  -0.512  -0.503  1.00  0.00     0.000 N 
HETATM    6  C6  UNL     1      -4.058  -1.484  -0.873  1.00  0.00     0.136 A 
HETATM    7  N2  UNL     1      -2.763  -1.595  -0.834  1.00  0.00    -0.173 NA
HETATM    8  C7  UNL     1      -1.816  -0.682  -0.459  1.00  0.00     0.101 A 
HETATM    9  C8  UNL     1      -0.467  -0.734  -0.357  1.00  0.00     0.044 A 
HETATM   10  C9  UNL     1       0.142   0.406   0.109  1.00  0.00     0.100 A 
HETATM   11  N4  UNL     1      -5.381  -1.212  -0.869  1.00  0.00    -0.371 N 
HETATM   12  C16 UNL     1      -5.488  -2.635  -1.043  1.00  0.00     0.150 C 
HETATM   13  C17 UNL     1      -6.243  -0.034  -0.733  1.00  0.00     0.143 C 
HETATM   14  C18 UNL     1      -5.885   0.973   0.321  1.00  0.00     0.139 C 
HETATM   15  N5  UNL     1      -4.610   1.680   0.168  1.00  0.00    -0.389 N 
HETATM   16  H25 UNL     1      -3.981   2.467   0.136  1.00  0.00     0.159 HD
ENDROOT
BRANCH  10  17
HETATM   17  O2  UNL     1       1.507   0.232   0.169  1.00  0.00    -0.348 OA
BRANCH  17  18
HETATM   18  C10 UNL     1       2.224  -0.904  -0.199  1.00  0.00     0.177 C 
BRANCH  18  19
HETATM   19  C11 UNL     1       3.698  -0.592   0.099  1.00  0.00     0.057 C 
BRANCH  19  20
HETATM   20  C12 UNL     1       4.581  -1.739  -0.258  1.00  0.00     0.274 C 
BRANCH  20  21
HETATM   21  N3  UNL     1       5.974  -1.554  -0.022  1.00  0.00     0.088 N 
HETATM   22  C13 UNL     1       6.584  -0.572  -0.880  1.00  0.00     0.274 A 
HETATM   23  C14 UNL     1       7.158   0.154   0.337  1.00  0.00     0.060 A 
HETATM   24  C15 UNL     1       6.402  -0.870   1.152  1.00  0.00     0.274 A 
ENDBRANCH  20  21
ENDBRANCH  19  20
ENDBRANCH  18  19
ENDBRANCH  17  18
ENDBRANCH  10  17
BRANCH   1  25
HETATM   25  O1  UNL     1       0.330   2.702   0.953  1.00  0.00    -0.353 OA
HETATM   26  C1  UNL     1      -0.347   3.888   1.318  1.00  0.00     0.210 C 
ENDBRANCH   1  25
TORSDOF 7
