REMARK  3 active torsions:
REMARK  status: ('A' for Active; 'I' for Inactive)
REMARK    1  A    between atoms: C13_15  and  C14_16 
REMARK    2  A    between atoms: N2_17  and  C15_18 
REMARK    3  A    between atoms: C20_27  and  O3_28 
ROOT
HETATM    1  C1  UNL     1       0.054   4.134  -0.324  1.00  0.00     0.047 C 
HETATM    2  C2  UNL     1      -0.506   3.138   0.398  1.00  0.00     0.123 C 
HETATM    3  O1  UNL     1       0.734   3.185   1.056  1.00  0.00    -0.374 OA
HETATM    4  C3  UNL     1       1.900   2.475   0.685  1.00  0.00     0.171 C 
HETATM    5  C4  UNL     1       2.202   1.342   1.636  1.00  0.00     0.066 C 
HETATM    6  C5  UNL     1       2.957   0.191   1.179  1.00  0.00     0.253 C 
HETATM    7  N1  UNL     1       3.820   0.596   0.090  1.00  0.00     0.092 N 
HETATM    8  C6  UNL     1       4.969  -0.237  -0.053  1.00  0.00     0.271 C 
HETATM    9  C7  UNL     1       4.676  -1.658   0.243  1.00  0.00     0.034 C 
HETATM   10  C8  UNL     1       3.223  -2.067   0.114  1.00  0.00     0.039 C 
HETATM   11  C9  UNL     1       2.322  -1.044   0.731  1.00  0.00    -0.030 C 
HETATM   12  C10 UNL     1       1.151  -1.622   0.663  1.00  0.00    -0.012 C 
HETATM   13  C11 UNL     1       0.387  -2.747   0.287  1.00  0.00     0.051 C 
HETATM   14  C12 UNL     1      -0.696  -2.881  -0.646  1.00  0.00     0.017 C 
HETATM   15  C13 UNL     1      -2.062  -2.334  -0.649  1.00  0.00     0.055 C 
HETATM   16  C16 UNL     1      -2.367  -0.918  -0.852  1.00  0.00     0.280 C 
HETATM   17  N3  UNL     1      -2.112   0.089   0.138  1.00  0.00     0.096 N 
HETATM   18  C17 UNL     1      -2.153   1.375  -0.513  1.00  0.00     0.292 C 
HETATM   19  C18 UNL     1      -1.087   1.195  -1.580  1.00  0.00     0.128 C 
HETATM   20  N4  UNL     1      -0.078   0.568  -1.083  1.00  0.00    -0.262 NA
HETATM   21  C19 UNL     1      -0.119   0.166   0.322  1.00  0.00     0.333 C 
HETATM   22  N5  UNL     1       0.284  -0.658   1.223  1.00  0.00    -0.271 NA
HETATM   23  C20 UNL     1      -1.861   2.624   0.166  1.00  0.00     0.196 C 
HETATM   24  H8  UNL     1       4.030   1.615   0.076  1.00  0.00     0.316 HD
HETATM   25  H24 UNL     1      -2.749   0.030   0.958  1.00  0.00     0.316 HD
ENDROOT
BRANCH  15  26
HETATM   26  C14 UNL     1      -2.790  -2.960  -1.882  1.00  0.00     0.099 C 
HETATM   27  N2  UNL     1      -3.901  -3.610  -1.976  1.00  0.00    -0.238 NA
BRANCH  27  28
HETATM   28  C15 UNL     1      -4.647  -3.829  -0.761  1.00  0.00     0.375 C 
HETATM   29  O2  UNL     1      -5.409  -3.776   0.259  1.00  0.00    -0.281 OA
ENDBRANCH  27  28
ENDBRANCH  15  26
BRANCH  23  30
HETATM   30  O3  UNL     1      -2.716   2.900   1.260  1.00  0.00    -0.385 OA
HETATM   31  C21 UNL     1      -3.604   3.917   0.973  1.00  0.00     0.202 C 
ENDBRANCH  23  30
TORSDOF 3
