REMARK  1 active torsions:
REMARK  status: ('A' for Active; 'I' for Inactive)
REMARK    1  A    between atoms: C14_20  and  C15_21 
ROOT
HETATM    1  N1  UNL     1      -3.694   1.241   3.910  1.00  0.00    -0.195 NA
HETATM    2  C1  UNL     1      -3.461   1.241   2.780  1.00  0.00     0.088 C 
HETATM    3  C2  UNL     1      -3.176   1.224   1.306  1.00  0.00     0.213 C 
HETATM    4  C3  UNL     1      -1.766   1.435   1.193  1.00  0.00     0.034 C 
HETATM    5  C4  UNL     1      -0.826   2.234   1.572  1.00  0.00     0.028 C 
HETATM    6 CL1  UNL     1      -1.502   3.497   2.576  1.00  0.00    -0.087 Cl
HETATM    7  C5  UNL     1       0.653   2.193   1.233  1.00  0.00     0.170 C 
HETATM    8  N2  UNL     1       0.964   1.179   0.314  1.00  0.00    -0.381 N 
HETATM    9  C6  UNL     1       0.553   1.445  -0.991  1.00  0.00     0.241 C 
HETATM   10  N3  UNL     1       0.261   0.313  -1.848  1.00  0.00    -0.383 N 
HETATM   11  C7  UNL     1      -1.063  -0.077  -1.876  1.00  0.00     0.085 C 
HETATM   12  C8  UNL     1      -2.175  -0.670  -1.439  1.00  0.00     0.026 C 
HETATM   13  C9  UNL     1      -2.303  -1.414  -0.219  1.00  0.00    -0.033 A 
HETATM   14  C10 UNL     1      -3.474  -2.089  -0.202  1.00  0.00     0.063 A 
HETATM   15  C11 UNL     1      -4.344  -1.043  -0.132  1.00  0.00     0.078 C 
HETATM   16  N4  UNL     1      -3.777   0.069   0.648  1.00  0.00    -0.381 N 
HETATM   17  P1  UNL     1      -1.984  -2.071   1.387  1.00  0.00    -0.081 P 
HETATM   18  C12 UNL     1      -0.119  -1.856   1.547  1.00  0.00     0.003 C 
HETATM   19  C13 UNL     1       0.968  -1.113   1.264  1.00  0.00     0.003 C 
HETATM   20  C14 UNL     1       1.669   0.039   0.671  1.00  0.00     0.137 C 
HETATM   21  H7  UNL     1       1.103  -0.085  -2.304  1.00  0.00     0.160 HD
HETATM   22  H11 UNL     1      -4.189  -0.486   1.444  1.00  0.00     0.160 HD
HETATM   23  H12 UNL     1      -2.415  -1.440   2.566  1.00  0.00     0.063 HD
ENDROOT
BRANCH  20  24
HETATM   24  C15 UNL     1       2.680  -0.455  -0.339  1.00  0.00    -0.032 A 
HETATM   25  C16 UNL     1       2.664  -1.820  -0.648  1.00  0.00     0.009 A 
HETATM   26  C17 UNL     1       3.603  -2.274  -1.563  1.00  0.00     0.001 A 
HETATM   27  C18 UNL     1       4.523  -1.398  -2.149  1.00  0.00     0.000 A 
HETATM   28  C19 UNL     1       4.518  -0.059  -1.828  1.00  0.00     0.001 A 
HETATM   29  C20 UNL     1       3.589   0.401  -0.920  1.00  0.00     0.009 A 
ENDBRANCH  20  24
TORSDOF 1
