REMARK  2 active torsions:
REMARK  status: ('A' for Active; 'I' for Inactive)
REMARK    1  A    between atoms: C2_2  and  C3_3 
REMARK    2  A    between atoms: C3_3  and  N1_4 
ROOT
HETATM    1  N1  UNL     1       1.349  -0.489   1.828  1.00  0.00    -0.384 N 
HETATM    2  C4  UNL     1       0.010  -1.001   1.491  1.00  0.00     0.075 C 
HETATM    3  C5  UNL     1       0.045  -1.276   0.154  1.00  0.00     0.072 A 
HETATM    4  C6  UNL     1      -0.147  -1.354  -1.099  1.00  0.00     0.099 A 
HETATM    5  C7  UNL     1      -0.814  -2.487  -1.403  1.00  0.00     0.092 C 
HETATM    6  N2  UNL     1      -1.919  -1.924  -0.765  1.00  0.00    -0.379 N 
HETATM    7  C8  UNL     1      -3.101  -2.735  -0.537  1.00  0.00     0.150 C 
HETATM    8  C9  UNL     1      -1.113  -0.718  -0.725  1.00  0.00     0.096 A 
HETATM    9  C10 UNL     1      -1.930   0.340  -0.039  1.00  0.00     0.040 C 
HETATM   10 CL1  UNL     1      -2.941  -0.246   1.283  1.00  0.00    -0.086 Cl
HETATM   11  C11 UNL     1      -1.814   1.600  -0.525  1.00  0.00     0.015 C 
HETATM   12  C12 UNL     1      -1.478   2.833  -1.265  1.00  0.00     0.147 C 
HETATM   13  N3  UNL     1      -0.487   2.551  -2.255  1.00  0.00    -0.395 N 
HETATM   14  C13 UNL     1       0.367   2.128  -3.381  1.00  0.00     0.097 C 
HETATM   15  C14 UNL     1       1.312   1.113  -3.093  1.00  0.00     0.016 C 
HETATM   16  C15 UNL     1       0.662   0.434  -2.252  1.00  0.00     0.037 C 
HETATM   17  C16 UNL     1      -0.808  -0.105  -2.061  1.00  0.00     0.089 C 
HETATM   18  C17 UNL     1      -0.925  -1.038  -3.204  1.00  0.00     0.021 C 
HETATM   19  N4  UNL     1       0.620  -0.077  -1.075  1.00  0.00    -0.302 N 
HETATM   20  C18 UNL     1       1.689   0.658  -0.294  1.00  0.00     0.243 C 
HETATM   21  O1  UNL     1       2.230   1.587  -0.995  1.00  0.00    -0.271 OA
HETATM   22  C19 UNL     1       2.227   0.482   1.134  1.00  0.00     0.225 C 
HETATM   23  H16 UNL     1       0.382   3.129  -2.021  1.00  0.00     0.159 HD
ENDROOT
BRANCH   1  24
HETATM   24  C3  UNL     1       1.789  -1.034   3.052  1.00  0.00     0.122 C 
BRANCH  24  25
HETATM   25  C2  UNL     1       1.847  -0.147   4.229  1.00  0.00     0.015 C 
HETATM   26  C1  UNL     1       2.798   0.992   4.031  1.00  0.00     0.006 C 
ENDBRANCH  24  25
ENDBRANCH   1  24
TORSDOF 2
