REMARK  6 active torsions:
REMARK  status: ('A' for Active; 'I' for Inactive)
REMARK    1  A    between atoms: C4_4  and  C5_5 
REMARK    2  A    between atoms: C5_5  and  N1_6 
REMARK    3  A    between atoms: N2_9  and  C8_10 
REMARK    4  A    between atoms: N5_16  and  C12_17 
REMARK    5  A    between atoms: C12_17  and  C13_18 
REMARK    6  A    between atoms: C23_29  and  O1_30 
ROOT
HETATM    1  C8  UNL     1       0.184  -0.888  -0.492  1.00  0.00     0.326 C 
HETATM    2  N3  UNL     1      -0.774   0.077  -0.098  1.00  0.00    -0.366 N 
HETATM    3  C9  UNL     1      -1.396   0.797   0.951  1.00  0.00     0.126 C 
HETATM    4  C10 UNL     1      -2.549   0.705   1.537  1.00  0.00     0.131 C 
HETATM    5  C11 UNL     1      -2.934   1.573   2.597  1.00  0.00     0.119 C 
HETATM    6  N4  UNL     1      -3.240   2.288   3.454  1.00  0.00    -0.190 NA
HETATM    7  N5  UNL     1      -3.662  -0.163   1.352  1.00  0.00    -0.343 N 
HETATM    8  C19 UNL     1      -2.791  -1.211   1.746  1.00  0.00     0.088 C 
HETATM    9  C20 UNL     1      -2.057  -1.592   2.768  1.00  0.00    -0.009 C 
HETATM   10  C21 UNL     1      -1.358  -2.910   2.335  1.00  0.00     0.037 C 
HETATM   11  C22 UNL     1      -0.667  -2.457   1.069  1.00  0.00     0.038 C 
HETATM   12  C23 UNL     1      -0.019  -2.300  -0.119  1.00  0.00     0.145 C 
HETATM   13  H15 UNL     1      -1.383   0.601  -0.787  1.00  0.00     0.161 HD
ENDROOT
BRANCH   7  14
HETATM   14  C12 UNL     1      -5.035   0.005   0.976  1.00  0.00     0.169 C 
BRANCH  14  15
HETATM   15  C13 UNL     1      -5.140   0.966  -0.191  1.00  0.00    -0.018 A 
HETATM   16  C14 UNL     1      -4.898   0.501  -1.461  1.00  0.00     0.010 A 
HETATM   17  C15 UNL     1      -4.872   1.393  -2.548  1.00  0.00     0.001 A 
HETATM   18  C16 UNL     1      -5.085   2.739  -2.402  1.00  0.00     0.002 A 
HETATM   19  C17 UNL     1      -5.337   3.214  -1.120  1.00  0.00     0.024 A 
HETATM   20  C18 UNL     1      -5.357   2.332  -0.073  1.00  0.00     0.042 A 
HETATM   21 CL1  UNL     1      -5.804   3.018   1.500  1.00  0.00    -0.084 Cl
ENDBRANCH  14  15
ENDBRANCH   7  14
BRANCH   1  22
HETATM   22  N2  UNL     1       1.590  -0.440  -0.311  1.00  0.00    -0.033 N 
HETATM   23  C2  UNL     1       3.075  -0.322  -0.456  1.00  0.00     0.164 A 
HETATM   24  C1  UNL     1       2.461  -0.173  -1.643  1.00  0.00     0.278 A 
HETATM   25  C3  UNL     1       3.443  -0.570   0.961  1.00  0.00     0.039 A 
HETATM   26  C4  UNL     1       4.582  -0.215   0.439  1.00  0.00     0.059 A 
HETATM   27  H13 UNL     1       1.309   0.303   0.444  1.00  0.00     0.283 HD
BRANCH  26  28
HETATM   28  C5  UNL     1       5.609   0.209  -0.497  1.00  0.00     0.279 C 
BRANCH  28  29
HETATM   29  N1  UNL     1       6.166   1.469  -0.063  1.00  0.00     0.080 N 
HETATM   30  C6  UNL     1       7.068   2.038  -1.010  1.00  0.00     0.309 C 
HETATM   31  C7  UNL     1       5.158   2.384   0.351  1.00  0.00     0.309 C 
ENDBRANCH  28  29
ENDBRANCH  26  28
ENDBRANCH   1  22
BRANCH  12  32
HETATM   32  O1  UNL     1       0.516  -3.158  -1.095  1.00  0.00    -0.377 OA
HETATM   33  C24 UNL     1       0.445  -4.543  -1.104  1.00  0.00     0.202 C 
ENDBRANCH  12  32
TORSDOF 6
