REMARK  8 active torsions:
REMARK  status: ('A' for Active; 'I' for Inactive)
REMARK    1  A    between atoms: O1_2  and  C2_3 
REMARK    2  A    between atoms: C8_11  and  N3_12 
REMARK    3  A    between atoms: N3_12  and  C9_13 
REMARK    4  A    between atoms: C9_13  and  C10_14 
REMARK    5  A    between atoms: C14_20  and  C15_21 
REMARK    6  A    between atoms: C15_21  and  C16_23 
REMARK    7  A    between atoms: C17_24  and  C18_25 
REMARK    8  A    between atoms: C18_25  and  N4_26 
ROOT
HETATM    1  C2  UNL     1       0.081  -1.803   1.472  1.00  0.00     0.084 A 
HETATM    2  C3  UNL     1      -1.099  -2.479   1.665  1.00  0.00     0.070 A 
HETATM    3  C4  UNL     1      -2.204  -2.030   0.976  1.00  0.00     0.071 A 
HETATM    4  N1  UNL     1      -3.338  -2.737   1.207  1.00  0.00    -0.259 NA
HETATM    5  C5  UNL     1      -4.466  -2.390   0.594  1.00  0.00     0.142 A 
HETATM    6  C6  UNL     1      -4.477  -1.306  -0.279  1.00  0.00     0.089 A 
HETATM    7  C7  UNL     1      -5.688  -0.954  -0.921  1.00  0.00     0.103 C 
HETATM    8  N2  UNL     1      -6.673  -0.650  -1.456  1.00  0.00    -0.191 NA
HETATM    9  C8  UNL     1      -3.319  -0.581  -0.517  1.00  0.00     0.063 A 
HETATM   10  C12 UNL     1      -2.161  -0.951   0.123  1.00  0.00     0.022 A 
HETATM   11  C13 UNL     1      -0.949  -0.318  -0.025  1.00  0.00     0.034 A 
HETATM   12  C14 UNL     1       0.208  -0.718   0.639  1.00  0.00     0.048 A 
ENDROOT
BRANCH   9  13
HETATM   13  N3  UNL     1      -3.284   0.533  -1.400  1.00  0.00    -0.384 N 
HETATM   14  H6  UNL     1      -3.048   0.165  -2.368  1.00  0.00     0.160 HD
BRANCH  13  15
HETATM   15  C9  UNL     1      -3.534   1.913  -0.997  1.00  0.00     0.151 C 
BRANCH  15  16
HETATM   16  C10 UNL     1      -4.889   2.109  -0.428  1.00  0.00     0.047 C 
HETATM   17  C11 UNL     1      -5.711   2.965  -1.025  1.00  0.00     0.178 A 
HETATM   18  F1  UNL     1      -5.166   3.572  -2.132  1.00  0.00    -0.257 F 
HETATM   19 CL1  UNL     1      -6.961   4.031  -1.633  1.00  0.00     0.017 Cl
ENDBRANCH  15  16
ENDBRANCH  13  15
ENDBRANCH   9  13
BRANCH  12  20
HETATM   20  C15 UNL     1       1.363   0.088   0.332  1.00  0.00     0.184 C 
HETATM   21  O2  UNL     1       1.372   1.066  -0.448  1.00  0.00    -0.287 OA
BRANCH  20  22
HETATM   22  C16 UNL     1       2.725  -0.023   0.822  1.00  0.00     0.053 C 
HETATM   23  C17 UNL     1       3.707   0.782   0.465  1.00  0.00     0.007 C 
BRANCH  23  24
HETATM   24  C18 UNL     1       4.114   1.945  -0.348  1.00  0.00     0.299 C 
BRANCH  24  25
HETATM   25  N4  UNL     1       5.152   1.660  -1.314  1.00  0.00     0.083 N 
HETATM   26  C19 UNL     1       6.408   1.365  -0.676  1.00  0.00     0.309 C 
HETATM   27  C20 UNL     1       4.801   0.608  -2.219  1.00  0.00     0.309 C 
ENDBRANCH  24  25
ENDBRANCH  23  24
ENDBRANCH  20  22
ENDBRANCH  12  20
BRANCH   1  28
HETATM   28  O1  UNL     1       1.245  -2.179   2.119  1.00  0.00    -0.355 OA
HETATM   29  C1  UNL     1       1.198  -3.287   2.993  1.00  0.00     0.210 C 
ENDBRANCH   1  28
TORSDOF 8
