REMARK  5 active torsions:
REMARK  status: ('A' for Active; 'I' for Inactive)
REMARK    1  A    between atoms: O1_2  and  C2_3 
REMARK    2  A    between atoms: C6_9  and  C7_10 
REMARK    3  A    between atoms: C15_20  and  C16_21 
REMARK    4  A    between atoms: C16_21  and  N3_22 
REMARK    5  A    between atoms: C18_24  and  C19_25 
ROOT
HETATM    1  C2  UNL     1      -1.078   1.694  -0.375  1.00  0.00     0.078 A 
HETATM    2  C3  UNL     1      -0.231   2.730  -0.046  1.00  0.00     0.070 A 
HETATM    3  C4  UNL     1       1.096   2.549   0.167  1.00  0.00     0.073 A 
HETATM    4  N1  UNL     1       1.935   3.547   0.484  1.00  0.00    -0.241 NA
HETATM    5  C5  UNL     1       3.238   3.304   0.677  1.00  0.00     0.234 A 
HETATM    6  N2  UNL     1       3.728   2.059   0.557  1.00  0.00    -0.240 NA
HETATM    7  C6  UNL     1       2.945   0.994   0.240  1.00  0.00     0.084 A 
HETATM    8  C13 UNL     1       1.624   1.299   0.053  1.00  0.00     0.023 A 
HETATM    9  C14 UNL     1       0.773   0.268  -0.277  1.00  0.00     0.028 A 
HETATM   10  C15 UNL     1      -0.605   0.384  -0.509  1.00  0.00     0.004 A 
ENDROOT
BRANCH   7  11
HETATM   11  C7  UNL     1       3.555  -0.320   0.127  1.00  0.00     0.034 A 
HETATM   12  C8  UNL     1       3.207  -1.448   0.836  1.00  0.00     0.017 A 
HETATM   13  C9  UNL     1       3.811  -2.677   0.713  1.00  0.00     0.003 A 
HETATM   14  C10 UNL     1       4.849  -2.823  -0.183  1.00  0.00     0.027 A 
HETATM   15  C11 UNL     1       5.241  -1.724  -0.922  1.00  0.00     0.073 A 
HETATM   16 CL1  UNL     1       6.566  -1.962  -2.045  1.00  0.00    -0.081 Cl
HETATM   17  C12 UNL     1       4.606  -0.491  -0.772  1.00  0.00     0.150 A 
HETATM   18  F1  UNL     1       5.064   0.525  -1.544  1.00  0.00    -0.203 F 
ENDBRANCH   7  11
BRANCH  10  19
HETATM   19  C16 UNL     1      -1.386  -0.819  -0.820  1.00  0.00     0.314 C 
BRANCH  19  20
HETATM   20  N3  UNL     1      -2.058  -1.466   0.234  1.00  0.00     0.094 NA
HETATM   21  C17 UNL     1      -3.007  -0.845   1.068  1.00  0.00     0.286 C 
HETATM   22  C18 UNL     1      -4.089  -1.136   0.062  1.00  0.00     0.103 C 
HETATM   23  C20 UNL     1      -3.153  -2.286  -0.313  1.00  0.00     0.286 C 
BRANCH  22  24
HETATM   24  C19 UNL     1      -5.370  -1.630   0.687  1.00  0.00     0.239 C 
HETATM   25  O2  UNL     1      -5.640  -1.822   1.882  1.00  0.00    -0.306 OA
ENDBRANCH  22  24
ENDBRANCH  19  20
ENDBRANCH  10  19
BRANCH   1  26
HETATM   26  O1  UNL     1      -2.415   1.883  -0.590  1.00  0.00    -0.355 OA
HETATM   27  C1  UNL     1      -3.141   3.070  -0.526  1.00  0.00     0.210 C 
ENDBRANCH   1  26
TORSDOF 5
