REMARK  1 active torsions:
REMARK  status: ('A' for Active; 'I' for Inactive)
REMARK    1  A    between atoms: C2_3  and  C3_4 
ROOT
HETATM    1  N1  UNL     1       5.118   0.617  -2.324  1.00  0.00    -0.197 NA
HETATM    2  C1  UNL     1       4.444  -0.308  -2.350  1.00  0.00     0.063 C 
HETATM    3  C2  UNL     1       3.566  -1.502  -2.384  1.00  0.00     0.161 C 
ENDROOT
BRANCH   3   4
HETATM    4  C3  UNL     1       2.568  -1.387  -1.288  1.00  0.00    -0.032 C 
HETATM    5  C4  UNL     1       2.453  -2.274  -0.306  1.00  0.00     0.121 C 
HETATM    6  N2  UNL     1       1.546  -2.303   0.817  1.00  0.00    -0.274 NA
HETATM    7  C5  UNL     1       0.410  -1.706   0.939  1.00  0.00     0.119 C 
HETATM    8  C6  UNL     1      -0.203  -0.819  -0.147  1.00  0.00     0.155 C 
HETATM    9  C7  UNL     1      -1.518  -0.330   0.265  1.00  0.00    -0.022 A 
HETATM   10  N3  UNL     1       0.796   0.134  -0.615  1.00  0.00    -0.381 N 
HETATM   11  C8  UNL     1      -2.514  -0.716  -0.676  1.00  0.00     0.010 A 
HETATM   12  C12 UNL     1      -2.144   0.384   1.334  1.00  0.00    -0.026 A 
HETATM   13  C9  UNL     1      -3.914  -0.538  -0.741  1.00  0.00     0.001 A 
HETATM   14  C10 UNL     1      -4.398   0.157   0.342  1.00  0.00     0.001 A 
HETATM   15  C11 UNL     1      -3.522   0.580   1.310  1.00  0.00     0.010 A 
HETATM   16  C13 UNL     1      -1.590   1.038   2.576  1.00  0.00     0.208 C 
HETATM   17  O1  UNL     1      -0.741   2.200   2.128  1.00  0.00    -0.369 OA
HETATM   18  C14 UNL     1       0.259   1.646   1.229  1.00  0.00     0.108 A 
HETATM   19  C15 UNL     1       1.014   1.172   2.276  1.00  0.00    -0.002 A 
HETATM   20  C19 UNL     1      -0.636   2.219   0.406  1.00  0.00     0.118 A 
HETATM   21  C16 UNL     1       1.385   0.861   1.009  1.00  0.00     0.082 A 
HETATM   22  C17 UNL     1       0.571   1.376   0.082  1.00  0.00     0.088 A 
HETATM   23  C18 UNL     1      -0.291   1.922  -0.882  1.00  0.00     0.013 A 
HETATM   24 CL1  UNL     1      -1.958   3.155  -0.148  1.00  0.00    -0.108 Cl
HETATM   25  C20 UNL     1       1.839  -0.146  -1.593  1.00  0.00     0.156 C 
ENDBRANCH   3   4
TORSDOF 1
