REMARK  5 active torsions:
REMARK  status: ('A' for Active; 'I' for Inactive)
REMARK    1  A    between atoms: C7_9  and  C8_10 
REMARK    2  A    between atoms: C8_10  and  C10_12 
REMARK    3  A    between atoms: C10_12  and  N2_13 
REMARK    4  A    between atoms: N2_13  and  C11_14 
REMARK    5  A    between atoms: C11_14  and  C12_15 
ROOT
HETATM    1  C1  UNL     1      -5.849   2.755  -0.603  1.00  0.00     0.000 C 
HETATM    2  O1  UNL     1      -4.534   2.537  -0.364  1.00  0.00     0.000 OA
HETATM    3  C2  UNL     1      -3.673   1.643   0.010  1.00  0.00    -0.050 A 
HETATM    4  C3  UNL     1      -3.396   0.385   0.227  1.00  0.00    -0.017 C 
HETATM    5  C4  UNL     1      -3.031  -0.925   0.478  1.00  0.00     0.049 C 
HETATM    6  C5  UNL     1      -1.750  -1.480   0.970  1.00  0.00     0.119 C 
HETATM    7  C6  UNL     1      -1.882  -2.977   0.928  1.00  0.00     0.066 C 
HETATM    8  N1  UNL     1      -2.002  -4.121   0.900  1.00  0.00    -0.197 NA
HETATM    9  C7  UNL     1      -0.432  -1.053   0.605  1.00  0.00     0.099 C 
HETATM   10  N4  UNL     1       0.158  -0.017   1.529  1.00  0.00    -0.415 N 
HETATM   11  C17 UNL     1      -0.580   1.182   1.132  1.00  0.00     0.061 C 
HETATM   12  C18 UNL     1      -1.137   2.359   0.782  1.00  0.00     0.066 C 
HETATM   13  C19 UNL     1      -1.899   3.514   0.381  1.00  0.00    -0.012 C 
HETATM   14  C20 UNL     1      -3.122   2.996   0.041  1.00  0.00     0.056 A 
HETATM   15  H22 UNL     1       0.837   0.288   2.308  1.00  0.00     0.153 HD
ENDROOT
BRANCH   9  16
HETATM   16  C8  UNL     1       0.658  -2.132   0.476  1.00  0.00     0.033 C 
HETATM   17  C9  UNL     1       0.370  -3.052  -0.657  1.00  0.00     0.014 C 
BRANCH  16  18
HETATM   18  C10 UNL     1       1.984  -1.447   0.297  1.00  0.00     0.276 C 
BRANCH  18  19
HETATM   19  N2  UNL     1       3.112  -2.299   0.108  1.00  0.00     0.088 N 
HETATM   20  H15 UNL     1       3.071  -2.791  -0.837  1.00  0.00     0.316 HD
BRANCH  19  21
HETATM   21  C11 UNL     1       4.393  -1.613   0.208  1.00  0.00     0.309 C 
BRANCH  21  22
HETATM   22  C12 UNL     1       4.297  -0.326  -0.503  1.00  0.00    -0.013 A 
HETATM   23  C13 UNL     1       4.417  -0.083  -1.845  1.00  0.00     0.012 A 
HETATM   24  C14 UNL     1       4.313   1.236  -2.273  1.00  0.00     0.020 A 
HETATM   25  C15 UNL     1       4.096   2.304  -1.397  1.00  0.00     0.116 A 
HETATM   26  N3  UNL     1       3.977   2.057  -0.060  1.00  0.00    -0.273 NA
HETATM   27  C16 UNL     1       4.079   0.775   0.339  1.00  0.00     0.125 A 
ENDBRANCH  21  22
ENDBRANCH  19  21
ENDBRANCH  18  19
ENDBRANCH  16  18
ENDBRANCH   9  16
TORSDOF 5
