REMARK  5 active torsions:
REMARK  status: ('A' for Active; 'I' for Inactive)
REMARK    1  A    between atoms: C2_2  and  C3_3 
REMARK    2  A    between atoms: C2_2  and  C8_10 
REMARK    3  A    between atoms: C3_3  and  N1_4 
REMARK       I    between atoms: C8_10  and  N2_12 
REMARK    4  A    between atoms: C14_20  and  O3_21 
REMARK    5  A    between atoms: O3_21  and  C15_22 
ROOT
HETATM    1  C8  UNL     1      -0.947  -1.286   0.263  1.00  0.00     0.260 C 
HETATM    2  O2  UNL     1      -1.641  -2.282   0.009  1.00  0.00    -0.267 OA
HETATM    3  N2  UNL     1       0.296  -1.604   0.784  1.00  0.00    -0.265 N 
HETATM    4  C9  UNL     1       0.431  -3.146   0.887  1.00  0.00     0.141 C 
HETATM    5  C10 UNL     1      -0.642  -4.046   0.894  1.00  0.00     0.119 C 
HETATM    6  N3  UNL     1      -1.523  -4.765   0.913  1.00  0.00    -0.190 NA
HETATM    7  C11 UNL     1       1.685  -3.836   0.983  1.00  0.00     0.158 C 
HETATM    8  N4  UNL     1       3.073  -3.509   1.585  1.00  0.00    -0.262 NA
HETATM    9  C12 UNL     1       3.342  -2.142   1.712  1.00  0.00     0.040 C 
HETATM   10  C13 UNL     1       3.868  -0.759   1.009  1.00  0.00     0.066 C 
HETATM   11  C14 UNL     1       2.737  -0.868   0.239  1.00  0.00     0.097 C 
HETATM   12  C17 UNL     1       1.559  -0.888   1.268  1.00  0.00     0.073 C 
HETATM   13  C18 UNL     1       1.756  -0.717   2.639  1.00  0.00     0.012 C 
HETATM   14  C19 UNL     1       2.787  -1.746   3.096  1.00  0.00     0.088 C 
ENDROOT
BRANCH   1  15
HETATM   15  C2  UNL     1      -1.812  -0.207  -0.127  1.00  0.00     0.018 C 
HETATM   16  C1  UNL     1      -2.924  -0.769  -0.559  1.00  0.00     0.026 C 
BRANCH  15  17
HETATM   17  C3  UNL     1      -1.126   1.065   0.108  1.00  0.00     0.160 C 
BRANCH  17  18
HETATM   18  N1  UNL     1      -1.843   2.245  -0.221  1.00  0.00    -0.404 N 
HETATM   19  C4  UNL     1      -2.974   2.560   0.585  1.00  0.00     0.143 C 
HETATM   20  C5  UNL     1      -3.515   3.901   0.138  1.00  0.00     0.187 C 
HETATM   21  O1  UNL     1      -3.968   3.871  -1.172  1.00  0.00    -0.388 OA
HETATM   22  C6  UNL     1      -3.421   2.887  -1.959  1.00  0.00     0.187 C 
HETATM   23  C7  UNL     1      -1.994   2.548  -1.602  1.00  0.00     0.143 C 
ENDBRANCH  17  18
ENDBRANCH  15  17
ENDBRANCH   1  15
BRANCH  11  24
HETATM   24  O3  UNL     1       3.466  -0.876  -1.041  1.00  0.00    -0.349 OA
BRANCH  24  25
HETATM   25  C15 UNL     1       2.744  -0.516  -2.195  1.00  0.00     0.171 C 
HETATM   26  C16 UNL     1       3.592   0.071  -3.258  1.00  0.00     0.034 C 
ENDBRANCH  24  25
ENDBRANCH  11  24
TORSDOF 5
