REMARK  6 active torsions:
REMARK  status: ('A' for Active; 'I' for Inactive)
REMARK    1  A    between atoms: C2_2  and  C3_3 
REMARK    2  A    between atoms: C2_2  and  C8_10 
REMARK    3  A    between atoms: C3_3  and  N1_4 
REMARK       I    between atoms: C8_10  and  N2_12 
REMARK    4  A    between atoms: N2_12  and  C9_13 
REMARK    5  A    between atoms: C10_14  and  C17_23 
REMARK    6  A    between atoms: C17_23  and  C18_24 
ROOT
HETATM    1  C9  UNL     1       1.332  -1.252  -0.116  1.00  0.00     0.100 A 
HETATM    2  C10 UNL     1       1.834  -0.066  -0.476  1.00  0.00     0.073 A 
HETATM    3  C11 UNL     1       3.300   0.221  -0.308  1.00  0.00     0.043 A 
HETATM    4  C12 UNL     1       4.640   0.038   0.024  1.00  0.00    -0.042 A 
HETATM    5  C13 UNL     1       5.601   0.931  -0.135  1.00  0.00     0.065 A 
HETATM    6  C14 UNL     1       6.908   0.527   0.266  1.00  0.00     0.101 C 
HETATM    7  N3  UNL     1       7.970   0.217   0.604  1.00  0.00    -0.191 NA
HETATM    8  C15 UNL     1       5.592   2.164  -0.612  1.00  0.00     0.133 A 
HETATM    9  N4  UNL     1       4.366   2.609  -1.013  1.00  0.00    -0.293 NA
HETATM   10  C16 UNL     1       3.386   1.652  -0.833  1.00  0.00     0.059 A 
HETATM   11  C17 UNL     1       2.529   0.776  -0.661  1.00  0.00     0.135 A 
HETATM   12  C18 UNL     1       2.600  -0.666  -0.117  1.00  0.00     0.087 A 
HETATM   13  O3  UNL     1       3.226  -1.904   0.438  1.00  0.00    -0.378 OA
HETATM   14  C19 UNL     1       4.485  -2.232   0.888  1.00  0.00     0.173 A 
HETATM   15  C20 UNL     1       5.419  -1.083   0.624  1.00  0.00     0.063 A 
ENDROOT
BRANCH   1  16
HETATM   16  N2  UNL     1      -0.073  -1.649  -0.223  1.00  0.00    -0.342 N 
HETATM   17  C8  UNL     1      -1.177  -0.806  -0.682  1.00  0.00     0.245 C 
HETATM   18  O2  UNL     1      -1.288   0.370  -1.102  1.00  0.00    -0.268 OA
HETATM   19  H13 UNL     1      -0.281  -2.616   0.039  1.00  0.00     0.163 HD
BRANCH  17  20
HETATM   20  C2  UNL     1      -2.498  -1.497  -0.636  1.00  0.00    -0.004 C 
HETATM   21  C1  UNL     1      -2.982  -2.708  -0.285  1.00  0.00     0.091 C 
BRANCH  20  22
HETATM   22  C3  UNL     1      -3.610  -0.569  -1.039  1.00  0.00     0.094 C 
BRANCH  22  23
HETATM   23  N1  UNL     1      -3.616   0.583  -0.153  1.00  0.00    -0.312 N 
HETATM   24  C4  UNL     1      -4.027   0.140   1.146  1.00  0.00     0.116 C 
HETATM   25  C5  UNL     1      -4.648   1.254   1.960  1.00  0.00     0.182 C 
HETATM   26  O1  UNL     1      -5.784   1.761   1.357  1.00  0.00    -0.389 OA
HETATM   27  C6  UNL     1      -5.844   1.652  -0.005  1.00  0.00     0.182 C 
HETATM   28  C7  UNL     1      -4.489   1.586  -0.664  1.00  0.00     0.116 C 
ENDBRANCH  22  23
ENDBRANCH  20  22
ENDBRANCH  17  20
ENDBRANCH   1  16
TORSDOF 6
