REMARK  4 active torsions:
REMARK  status: ('A' for Active; 'I' for Inactive)
REMARK    1  A    between atoms: N1_1  and  O1_2 
REMARK    2  A    between atoms: O1_2  and  B1_3 
REMARK    3  A    between atoms: C10_17  and  C11_18 
REMARK    4  A    between atoms: C13_20  and  C14_21 
REMARK       I    between atoms: C14_21  and  N4_22 
ROOT
HETATM    1  B1  UNL     1      -0.475   2.150   0.360  1.00  0.00     0.392 B 
HETATM    2  C1  UNL     1       0.961   2.872   0.373  1.00  0.00     0.047 C 
HETATM    3  C2  UNL     1       1.999   1.779   0.365  1.00  0.00     0.016 A 
HETATM    4  N2  UNL     1       3.001   1.133   0.809  1.00  0.00    -0.260 NA
HETATM    5  C3  UNL     1       3.099   0.108  -0.212  1.00  0.00     0.192 A 
HETATM    6  N3  UNL     1       4.260   0.196  -1.023  1.00  0.00    -0.263 NA
HETATM    7  C4  UNL     1       5.038  -0.752  -1.311  1.00  0.00     0.115 A 
HETATM    8  C5  UNL     1       4.921  -2.126  -0.883  1.00  0.00     0.041 A 
HETATM    9  C6  UNL     1       3.845  -2.209  -0.132  1.00  0.00     0.051 A 
HETATM   10 CL1  UNL     1       3.478  -3.800   0.520  1.00  0.00    -0.086 Cl
HETATM   11  C7  UNL     1       2.826  -1.251   0.317  1.00  0.00     0.268 A 
HETATM   12  F1  UNL     1       2.759  -1.205   1.705  1.00  0.00    -0.239 F 
HETATM   13  C8  UNL     1       1.913   0.857  -0.769  1.00  0.00     0.110 A 
HETATM   14  C9  UNL     1       0.611   0.180  -0.762  1.00  0.00    -0.018 C 
HETATM   15  C10 UNL     1      -0.534   0.700  -0.264  1.00  0.00    -0.084 C 
ENDROOT
BRANCH  15  16
HETATM   16  C11 UNL     1      -1.860   0.068  -0.230  1.00  0.00     0.007 C 
HETATM   17  C12 UNL     1      -1.938  -1.416  -0.411  1.00  0.00     0.022 C 
HETATM   18  C13 UNL     1      -2.960  -1.515   0.704  1.00  0.00     0.079 C 
HETATM   19  C15 UNL     1      -2.478  -0.133   1.136  1.00  0.00     0.022 C 
BRANCH  18  20
HETATM   20  C14 UNL     1      -4.314  -1.580   0.148  1.00  0.00     0.219 C 
HETATM   21  N4  UNL     1      -5.415  -1.678   1.074  1.00  0.00    -0.370 N 
HETATM   22  H14 UNL     1      -6.296  -1.130   1.055  1.00  0.00     0.159 HD
HETATM   23  H15 UNL     1      -5.276  -2.386   1.833  1.00  0.00     0.159 HD
HETATM   24  O2  UNL     1      -4.626  -1.558  -1.082  1.00  0.00    -0.273 OA
ENDBRANCH  18  20
ENDBRANCH  15  16
BRANCH   1  25
HETATM   25  O1  UNL     1      -1.651   2.781   0.948  1.00  0.00    -0.369 OA
BRANCH  25  26
HETATM   26  N1  UNL     1      -1.879   4.017   0.448  1.00  0.00    -0.234 NA
HETATM   27  H1  UNL     1      -0.970   4.518   0.358  1.00  0.00     0.148 HD
HETATM   28  H2  UNL     1      -2.295   3.937  -0.506  1.00  0.00     0.148 HD
ENDBRANCH  25  26
ENDBRANCH   1  25
TORSDOF 4
