REMARK  6 active torsions:
REMARK  status: ('A' for Active; 'I' for Inactive)
REMARK    1  A    between atoms: O1_2  and  C2_3 
REMARK    2  A    between atoms: C4_5  and  N1_6 
REMARK    3  A    between atoms: C8_11  and  C9_12 
REMARK    4  A    between atoms: C12_15  and  N2_16 
REMARK    5  A    between atoms: N2_16  and  C13_17 
REMARK    6  A    between atoms: C13_17  and  C14_18 
ROOT
HETATM    1  C9  UNL     1      -1.349  -0.505   1.378  1.00  0.00    -0.036 A 
HETATM    2  C10 UNL     1      -0.448  -0.157   2.356  1.00  0.00     0.011 A 
HETATM    3  C11 UNL     1       0.902  -0.229   2.110  1.00  0.00     0.031 A 
HETATM    4  C12 UNL     1       1.324  -0.650   0.883  1.00  0.00     0.050 A 
HETATM    5  C20 UNL     1       0.399  -1.006  -0.118  1.00  0.00     0.060 A 
HETATM    6 CL1  UNL     1       0.688  -1.576  -1.769  1.00  0.00    -0.082 Cl
HETATM    7  C21 UNL     1      -0.988  -0.940   0.112  1.00  0.00     0.035 A 
ENDROOT
BRANCH   1   8
HETATM    8  C8  UNL     1      -2.769  -0.393   1.736  1.00  0.00     0.141 C 
HETATM    9  C2  UNL     1      -3.492   0.594   0.891  1.00  0.00     0.069 C 
HETATM   10  C3  UNL     1      -4.550   0.380   0.089  1.00  0.00    -0.006 A 
HETATM   11  C4  UNL     1      -5.704   0.431  -0.860  1.00  0.00     0.262 A 
HETATM   12  C5  UNL     1      -5.305  -0.854  -0.226  1.00  0.00     0.079 A 
HETATM   13  C6  UNL     1      -6.067  -1.345   0.952  1.00  0.00    -0.008 C 
HETATM   14  C7  UNL     1      -5.246  -1.911   1.860  1.00  0.00     0.043 C 
HETATM   15  S1  UNL     1      -3.473  -2.052   1.669  1.00  0.00    -0.125 SA
BRANCH   9  16
HETATM   16  O1  UNL     1      -2.981   1.878   0.970  1.00  0.00    -0.358 OA
HETATM   17  C1  UNL     1      -2.932   2.762  -0.129  1.00  0.00     0.209 C 
ENDBRANCH   9  16
BRANCH  11  18
HETATM   18  N1  UNL     1      -5.473   0.516  -2.275  1.00  0.00     0.088 N 
HETATM   19  H5  UNL     1      -5.663   1.463  -2.648  1.00  0.00     0.313 HD
HETATM   20  H6  UNL     1      -4.458   0.317  -2.449  1.00  0.00     0.313 HD
ENDBRANCH  11  18
ENDBRANCH   1   8
BRANCH   4  21
HETATM   21  N2  UNL     1       2.559  -0.858   0.248  1.00  0.00    -0.384 N 
HETATM   22  H13 UNL     1       3.142  -0.546   1.095  1.00  0.00     0.160 HD
BRANCH  21  23
HETATM   23  C13 UNL     1       3.777  -1.060  -0.372  1.00  0.00     0.160 C 
BRANCH  23  24
HETATM   24  C14 UNL     1       4.708   0.096  -0.502  1.00  0.00    -0.017 A 
HETATM   25  C15 UNL     1       4.305   1.343  -0.017  1.00  0.00     0.125 A 
HETATM   26  N3  UNL     1       5.140   2.400  -0.132  1.00  0.00    -0.272 NA
HETATM   27  C16 UNL     1       6.338   2.249  -0.705  1.00  0.00     0.116 A 
HETATM   28  C17 UNL     1       6.778   1.038  -1.197  1.00  0.00     0.026 A 
HETATM   29  C18 UNL     1       5.945  -0.055  -1.092  1.00  0.00    -0.051 A 
HETATM   30  C19 UNL     1       6.208  -1.455  -1.551  1.00  0.00     0.049 C 
ENDBRANCH  23  24
ENDBRANCH  21  23
ENDBRANCH   4  21
TORSDOF 6
