REMARK  5 active torsions:
REMARK  status: ('A' for Active; 'I' for Inactive)
REMARK    1  A    between atoms: S1_1  and  C1_2 
REMARK    2  A    between atoms: C1_2  and  C2_3 
REMARK    3  A    between atoms: C4_7  and  O1_8 
REMARK    4  A    between atoms: O1_8  and  C5_9 
REMARK    5  A    between atoms: C6_11  and  C7_12 
ROOT
HETATM    1  C5  UNL     1      -0.320   0.042   1.394  1.00  0.00     0.214 A 
HETATM    2  N1  UNL     1      -1.391  -0.113   0.811  1.00  0.00    -0.217 NA
HETATM    3  C6  UNL     1      -2.394   0.731   0.928  1.00  0.00     0.077 A 
HETATM    4  C13 UNL     1      -2.231   1.867   1.762  1.00  0.00     0.086 A 
HETATM    5  S2  UNL     1      -0.462   1.640   2.401  1.00  0.00    -0.054 SA
ENDROOT
BRANCH   1   6
HETATM    6  O1  UNL     1       0.850  -0.715   1.409  1.00  0.00    -0.290 OA
BRANCH   6   7
HETATM    7  C4  UNL     1       1.868  -0.486   0.492  1.00  0.00     0.061 C 
HETATM    8  C3  UNL     1       1.691  -0.752  -0.973  1.00  0.00     0.092 C 
HETATM    9  B1  UNL     1       3.164  -1.840  -1.367  1.00  0.00     0.205 B 
HETATM   10 CL1  UNL     1       0.254  -1.706  -1.263  1.00  0.00    -0.129 Cl
HETATM   11  C2  UNL     1       4.595  -1.002  -0.632  1.00  0.00    -0.134 C 
HETATM   12  C15 UNL     1       4.180   0.260   0.042  1.00  0.00     0.047 C 
HETATM   13  C14 UNL     1       3.021  -0.018   0.960  1.00  0.00     0.010 C 
BRANCH  11  14
HETATM   14  C1  UNL     1       5.987  -1.465  -0.670  1.00  0.00     0.088 C 
BRANCH  14  15
HETATM   15  S1  UNL     1       7.104  -0.293  -1.484  1.00  0.00    -0.179 SA
HETATM   16  H1  UNL     1       6.608   1.025  -1.430  1.00  0.00     0.101 HD
ENDBRANCH  14  15
ENDBRANCH  11  14
ENDBRANCH   6   7
ENDBRANCH   1   6
BRANCH   3  17
HETATM   17  C7  UNL     1      -3.641   0.499   0.215  1.00  0.00    -0.007 A 
HETATM   18  C8  UNL     1      -3.851  -0.586  -0.607  1.00  0.00     0.014 A 
HETATM   19  C9  UNL     1      -4.983  -0.874  -1.306  1.00  0.00     0.001 A 
HETATM   20  C10 UNL     1      -6.029   0.015  -1.177  1.00  0.00     0.000 A 
HETATM   21  C11 UNL     1      -5.911   1.130  -0.377  1.00  0.00     0.001 A 
HETATM   22  C12 UNL     1      -4.727   1.338   0.292  1.00  0.00     0.014 A 
ENDBRANCH   3  17
TORSDOF 5
