REMARK  3 active torsions:
REMARK  status: ('A' for Active; 'I' for Inactive)
REMARK    1  A    between atoms: C2_2  and  C3_3 
REMARK    2  A    between atoms: C3_3  and  O1_4 
REMARK    3  A    between atoms: O1_4  and  N1_5 
ROOT
HETATM    1  N1  UNL     1       2.198  -0.301  -0.090  1.00  0.00    -0.290 N 
HETATM    2  C4  UNL     1       2.291   0.831  -0.871  1.00  0.00     0.177 C 
HETATM    3  C5  UNL     1       3.037   1.893  -0.061  1.00  0.00    -0.000 C 
HETATM    4  C6  UNL     1       2.459   2.976   0.469  1.00  0.00     0.065 C 
HETATM    5  C7  UNL     1       1.129   3.567   0.561  1.00  0.00     0.221 C 
HETATM    6  O2  UNL     1       1.018   4.782   0.998  1.00  0.00    -0.275 OA
HETATM    7  N2  UNL     1       0.105   2.613   0.121  1.00  0.00    -0.250 NA
HETATM    8  C8  UNL     1      -1.308   3.018   0.045  1.00  0.00     0.093 A 
HETATM    9  C9  UNL     1      -1.993   1.961  -0.333  1.00  0.00    -0.060 C 
HETATM   10  C10 UNL     1      -1.506   0.584  -0.606  1.00  0.00    -0.016 C 
HETATM   11  C11 UNL     1      -0.656  -0.425  -0.694  1.00  0.00     0.024 A 
HETATM   12  C12 UNL     1       0.250  -1.621  -0.824  1.00  0.00    -0.016 A 
HETATM   13  C13 UNL     1      -1.009  -1.763  -1.227  1.00  0.00     0.060 A 
HETATM   14  C14 UNL     1      -1.583  -3.018  -1.800  1.00  0.00    -0.003 C 
HETATM   15  C15 UNL     1      -2.875  -2.791  -2.091  1.00  0.00     0.084 C 
HETATM   16  N3  UNL     1      -4.028  -1.904  -2.126  1.00  0.00    -0.375 N 
HETATM   17  C16 UNL     1      -5.360  -2.193  -1.653  1.00  0.00     0.101 C 
HETATM   18  C17 UNL     1      -5.896  -1.792  -0.514  1.00  0.00     0.010 C 
HETATM   19  C18 UNL     1      -5.012  -1.349   0.342  1.00  0.00     0.131 C 
HETATM   20  N4  UNL     1      -4.468  -0.260  -0.396  1.00  0.00    -0.252 NA
HETATM   21  C19 UNL     1      -4.020   0.743   0.275  1.00  0.00     0.107 C 
HETATM   22 CL1  UNL     1      -3.971   0.985   2.006  1.00  0.00    -0.067 Cl
HETATM   23  C20 UNL     1      -3.447   1.841  -0.589  1.00  0.00     0.107 C 
HETATM   24  C21 UNL     1       1.665  -1.522  -0.452  1.00  0.00     0.156 C 
HETATM   25  H12 UNL     1      -0.238   3.528   0.352  1.00  0.00     0.157 HD
HETATM   26  H19 UNL     1      -3.704  -1.014  -2.565  1.00  0.00     0.164 HD
ENDROOT
BRANCH   1  27
HETATM   27  O1  UNL     1       3.367  -0.534   0.578  1.00  0.00    -0.282 OA
BRANCH  27  28
HETATM   28  C3  UNL     1       3.214  -0.776   1.922  1.00  0.00     0.200 C 
BRANCH  28  29
HETATM   29  C2  UNL     1       4.602  -1.102   2.491  1.00  0.00     0.024 C 
HETATM   30  C1  UNL     1       5.474   0.109   2.230  1.00  0.00     0.007 C 
ENDBRANCH  28  29
ENDBRANCH  27  28
ENDBRANCH   1  27
TORSDOF 3
