REMARK  7 active torsions:
REMARK  status: ('A' for Active; 'I' for Inactive)
REMARK    1  A    between atoms: O1_2  and  C2_3 
REMARK    2  A    between atoms: C2_3  and  C3_4 
REMARK    3  A    between atoms: C3_4  and  N4_22 
REMARK    4  A    between atoms: C4_5  and  C5_6 
REMARK       I    between atoms: N4_22  and  C17_23 
REMARK    5  A    between atoms: C17_23  and  C18_25 
REMARK    6  A    between atoms: C19_26  and  C20_27 
REMARK    7  A    between atoms: C20_27  and  N5_28 
ROOT
HETATM    1  C5  UNL     1      -1.464   0.837  -0.385  1.00  0.00     0.011 A 
HETATM    2  C6  UNL     1      -0.579   1.178  -1.372  1.00  0.00     0.130 A 
HETATM    3  N1  UNL     1      -1.036   1.157  -2.632  1.00  0.00    -0.272 NA
HETATM    4  C7  UNL     1      -2.356   0.795  -2.838  1.00  0.00     0.127 A 
HETATM    5  C8  UNL     1      -3.334   0.430  -1.878  1.00  0.00     0.006 A 
HETATM    6  C9  UNL     1      -2.776   0.476  -0.564  1.00  0.00     0.053 A 
HETATM    7  N2  UNL     1      -3.577   0.136   0.587  1.00  0.00    -0.364 N 
HETATM    8  C10 UNL     1      -4.192  -0.906   1.325  1.00  0.00     0.100 C 
HETATM    9  C11 UNL     1      -5.181  -0.495   2.112  1.00  0.00    -0.011 C 
HETATM   10  C12 UNL     1      -6.114   0.153   1.411  1.00  0.00     0.008 C 
HETATM   11  C13 UNL     1      -6.021   0.300  -0.009  1.00  0.00     0.176 C 
HETATM   12  N3  UNL     1      -7.177   0.121  -0.863  1.00  0.00    -0.300 NA
HETATM   13  C14 UNL     1      -7.046   0.016  -2.150  1.00  0.00     0.105 C 
HETATM   14  C15 UNL     1      -5.671   0.089  -2.729  1.00  0.00     0.062 A 
HETATM   15 CL1  UNL     1      -5.566  -0.109  -4.506  1.00  0.00    -0.199 Cl
HETATM   16  C16 UNL     1      -4.365   0.198  -2.937  1.00  0.00     0.189 A 
HETATM   17  H9  UNL     1      -3.654   1.116   0.946  1.00  0.00     0.165 HD
ENDROOT
BRANCH   1  18
HETATM   18  C4  UNL     1      -1.101   0.782   0.993  1.00  0.00     0.042 C 
HETATM   19  C3  UNL     1       0.045   0.203   1.303  1.00  0.00     0.036 C 
BRANCH  19  20
HETATM   20  C2  UNL     1       0.556   0.070   2.692  1.00  0.00     0.224 C 
BRANCH  20  21
HETATM   21  O1  UNL     1      -0.310   0.625   3.631  1.00  0.00    -0.390 OA
HETATM   22  C1  UNL     1       0.161   0.494   4.928  1.00  0.00     0.201 C 
ENDBRANCH  20  21
ENDBRANCH  19  20
BRANCH  19  23
HETATM   23  N4  UNL     1       1.019  -0.383   0.461  1.00  0.00    -0.325 N 
HETATM   24  C17 UNL     1       2.403  -0.171   0.259  1.00  0.00     0.245 C 
HETATM   25  O2  UNL     1       2.927   0.723   0.966  1.00  0.00    -0.268 OA
HETATM   26  H16 UNL     1       0.442  -1.107  -0.059  1.00  0.00     0.169 HD
BRANCH  24  27
HETATM   27  C18 UNL     1       3.068  -0.985  -0.723  1.00  0.00     0.072 C 
HETATM   28  C19 UNL     1       4.361  -0.847  -0.957  1.00  0.00     0.008 C 
BRANCH  28  29
HETATM   29  C20 UNL     1       5.486  -0.033  -0.484  1.00  0.00     0.299 C 
BRANCH  29  30
HETATM   30  N5  UNL     1       6.573  -0.825   0.092  1.00  0.00     0.083 N 
HETATM   31  C21 UNL     1       7.244  -1.620  -0.922  1.00  0.00     0.309 C 
HETATM   32  C22 UNL     1       7.563   0.127   0.625  1.00  0.00     0.309 C 
ENDBRANCH  29  30
ENDBRANCH  28  29
ENDBRANCH  24  27
ENDBRANCH  19  23
ENDBRANCH   1  18
TORSDOF 7
