REMARK  7 active torsions:
REMARK  status: ('A' for Active; 'I' for Inactive)
REMARK    1  A    between atoms: C2_2  and  C4_5 
REMARK    2  A    between atoms: C4_5  and  N2_9 
REMARK    3  A    between atoms: C5_6  and  C6_7 
REMARK    4  A    between atoms: N2_9  and  C7_10 
REMARK    5  A    between atoms: C10_13  and  O1_14 
REMARK    6  A    between atoms: O1_14  and  C11_15 
REMARK    7  A    between atoms: C11_15  and  C12_16 
ROOT
HETATM    1  C1  UNL     1      -4.858  -0.242  -2.071  1.00  0.00     0.037 C 
HETATM    2  C2  UNL     1      -5.055   0.000  -0.784  1.00  0.00     0.061 C 
HETATM    3  C3  UNL     1      -6.344  -0.276  -0.170  1.00  0.00     0.101 C 
HETATM    4  N1  UNL     1      -7.375  -0.496   0.301  1.00  0.00    -0.191 NA
ENDROOT
BRANCH   2   5
HETATM    5  C4  UNL     1      -3.989   0.546   0.049  1.00  0.00     0.051 C 
HETATM    6  C5  UNL     1      -4.179   0.791   1.337  1.00  0.00     0.035 C 
BRANCH   6   7
HETATM    7  C6  UNL     1      -3.145   1.346   2.251  1.00  0.00     0.252 C 
HETATM    8  F1  UNL     1      -3.506   2.539   2.820  1.00  0.00    -0.251 F 
ENDBRANCH   6   7
BRANCH   5   9
HETATM    9  N2  UNL     1      -2.726   0.817  -0.543  1.00  0.00    -0.355 N 
HETATM   10  H6  UNL     1      -2.874   1.733  -1.016  1.00  0.00     0.166 HD
BRANCH   9  11
HETATM   11  C7  UNL     1      -1.487   0.124  -0.574  1.00  0.00     0.034 A 
HETATM   12  C8  UNL     1      -0.453   0.711  -1.267  1.00  0.00     0.032 A 
HETATM   13  C9  UNL     1       0.744   0.041  -1.297  1.00  0.00     0.041 A 
HETATM   14  C10 UNL     1       0.996  -1.167  -0.693  1.00  0.00     0.091 A 
HETATM   15  C18 UNL     1      -0.082  -1.735   0.004  1.00  0.00     0.069 A 
HETATM   16 CL1  UNL     1      -0.090  -3.256   0.877  1.00  0.00    -0.081 Cl
HETATM   17  C19 UNL     1      -1.322  -1.083   0.059  1.00  0.00     0.056 A 
BRANCH  14  18
HETATM   18  O1  UNL     1       2.068  -2.003  -0.585  1.00  0.00    -0.345 OA
BRANCH  18  19
HETATM   19  C11 UNL     1       3.326  -1.823  -1.116  1.00  0.00     0.217 C 
BRANCH  19  20
HETATM   20  C12 UNL     1       4.076  -0.638  -0.660  1.00  0.00     0.004 A 
HETATM   21  C13 UNL     1       4.391   0.564  -1.249  1.00  0.00     0.012 A 
HETATM   22  C14 UNL     1       5.129   1.552  -0.639  1.00  0.00     0.001 A 
HETATM   23  C15 UNL     1       5.608   1.371   0.656  1.00  0.00     0.003 A 
HETATM   24  C16 UNL     1       5.304   0.174   1.267  1.00  0.00     0.043 A 
HETATM   25  C17 UNL     1       4.564  -0.808   0.645  1.00  0.00     0.124 A 
HETATM   26  F2  UNL     1       4.374  -1.921   1.423  1.00  0.00    -0.205 F 
ENDBRANCH  19  20
ENDBRANCH  18  19
ENDBRANCH  14  18
ENDBRANCH   9  11
ENDBRANCH   5   9
ENDBRANCH   2   5
TORSDOF 7
