REMARK  8 active torsions:
REMARK  status: ('A' for Active; 'I' for Inactive)
REMARK    1  A    between atoms: C2_2  and  C3_3 
REMARK    2  A    between atoms: C9_11  and  N3_12 
REMARK    3  A    between atoms: N3_12  and  C10_13 
REMARK    4  A    between atoms: C11_14  and  C12_15 
REMARK    5  A    between atoms: C16_20  and  N4_21 
REMARK       I    between atoms: N4_21  and  C17_22 
REMARK    6  A    between atoms: C17_22  and  C18_24 
REMARK    7  A    between atoms: C19_25  and  C20_26 
REMARK    8  A    between atoms: C20_26  and  N5_27 
ROOT
HETATM    1  C3  UNL     1       0.239  -1.869   1.292  1.00  0.00    -0.029 A 
HETATM    2  C4  UNL     1       1.400  -2.449   1.757  1.00  0.00     0.042 A 
HETATM    3  C5  UNL     1       2.665  -1.989   1.402  1.00  0.00     0.069 A 
HETATM    4  N1  UNL     1       3.733  -2.624   1.915  1.00  0.00    -0.259 NA
HETATM    5  C6  UNL     1       4.986  -2.198   1.593  1.00  0.00     0.142 A 
HETATM    6  C7  UNL     1       5.162  -1.117   0.741  1.00  0.00     0.089 A 
HETATM    7  C8  UNL     1       6.512  -0.733   0.461  1.00  0.00     0.103 C 
HETATM    8  N2  UNL     1       7.600  -0.422   0.256  1.00  0.00    -0.191 NA
HETATM    9  C9  UNL     1       4.048  -0.491   0.234  1.00  0.00     0.067 A 
HETATM   10  C14 UNL     1       2.773  -0.898   0.541  1.00  0.00     0.023 A 
HETATM   11  C15 UNL     1       1.633  -0.295   0.058  1.00  0.00     0.046 A 
HETATM   12  C16 UNL     1       0.401  -0.786   0.438  1.00  0.00     0.042 A 
ENDROOT
BRANCH   9  13
HETATM   13  N3  UNL     1       4.220   0.608  -0.637  1.00  0.00    -0.363 N 
HETATM   14  H8  UNL     1       3.548   1.227  -1.131  1.00  0.00     0.165 HD
BRANCH  13  15
HETATM   15  C10 UNL     1       5.381   1.241  -1.134  1.00  0.00     0.097 C 
HETATM   16  C11 UNL     1       5.853   2.468  -1.005  1.00  0.00     0.082 C 
BRANCH  16  17
HETATM   17  C12 UNL     1       5.126   3.429  -0.230  1.00  0.00    -0.060 C 
HETATM   18  C13 UNL     1       4.514   4.231   0.437  1.00  0.00     0.009 C 
HETATM   19 CL1  UNL     1       3.644   5.408   1.388  1.00  0.00    -0.023 Cl
ENDBRANCH  16  17
ENDBRANCH  13  15
ENDBRANCH   9  13
BRANCH  12  20
HETATM   20  N4  UNL     1      -0.830  -0.216  -0.022  1.00  0.00    -0.323 N 
HETATM   21  C17 UNL     1      -1.242   0.815   0.871  1.00  0.00     0.245 C 
HETATM   22  O1  UNL     1      -0.358   0.875   1.783  1.00  0.00    -0.268 OA
HETATM   23  H12 UNL     1      -1.446  -0.406  -0.848  1.00  0.00     0.169 HD
BRANCH  21  24
HETATM   24  C18 UNL     1      -2.401   1.656   0.823  1.00  0.00     0.072 C 
HETATM   25  C19 UNL     1      -3.429   1.772   0.002  1.00  0.00    -0.002 C 
BRANCH  25  26
HETATM   26  C20 UNL     1      -4.089   1.290  -1.213  1.00  0.00     0.143 C 
BRANCH  26  27
HETATM   27  N5  UNL     1      -5.396   0.783  -0.924  1.00  0.00    -0.418 N 
HETATM   28  C21 UNL     1      -6.365   1.747  -0.516  1.00  0.00     0.142 C 
HETATM   29  C22 UNL     1      -5.865  -0.256  -1.781  1.00  0.00     0.142 C 
ENDBRANCH  26  27
ENDBRANCH  25  26
ENDBRANCH  21  24
ENDBRANCH  12  20
BRANCH   1  30
HETATM   30  C2  UNL     1      -1.086  -2.378   1.694  1.00  0.00     0.036 C 
HETATM   31  C1  UNL     1      -1.756  -3.155   0.607  1.00  0.00     0.010 C 
ENDBRANCH   1  30
TORSDOF 8
