REMARK  3 active torsions:
REMARK  status: ('A' for Active; 'I' for Inactive)
REMARK    1  A    between atoms: C6_8  and  C7_9 
REMARK    2  A    between atoms: C10_14  and  N4_15 
REMARK    3  A    between atoms: N4_15  and  C11_16 
ROOT
HETATM    1  O1  UNL     1      -5.882  -1.896  -0.349  1.00  0.00    -0.306 OA
HETATM    2  C1  UNL     1      -5.015  -1.289   0.231  1.00  0.00     0.237 C 
HETATM    3  C2  UNL     1      -3.886  -0.538   0.897  1.00  0.00     0.079 C 
HETATM    4  C3  UNL     1      -4.398   0.856   1.124  1.00  0.00     0.281 C 
HETATM    5  N1  UNL     1      -3.325   1.802   1.353  1.00  0.00     0.088 N 
HETATM    6  C4  UNL     1      -2.328   1.733   0.304  1.00  0.00     0.303 C 
HETATM    7  C5  UNL     1      -1.650   0.395   0.237  1.00  0.00    -0.051 C 
HETATM    8  C6  UNL     1      -0.327   0.293   0.383  1.00  0.00     0.021 C 
HETATM    9  C17 UNL     1      -2.705  -0.584  -0.021  1.00  0.00     0.049 C 
HETATM   10  H5  UNL     1      -2.926   1.711   2.317  1.00  0.00     0.316 HD
ENDROOT
BRANCH   8  11
HETATM   11  C7  UNL     1       0.381  -1.017   0.326  1.00  0.00     0.028 A 
HETATM   12  C8  UNL     1      -0.120  -2.049   1.171  1.00  0.00     0.133 A 
HETATM   13  N2  UNL     1       0.714  -2.978   0.785  1.00  0.00    -0.253 NA
HETATM   14  C9  UNL     1       1.642  -3.348   0.104  1.00  0.00     0.234 A 
HETATM   15  N3  UNL     1       2.045  -2.319  -0.649  1.00  0.00    -0.224 NA
HETATM   16  C10 UNL     1       1.450  -1.111  -0.587  1.00  0.00     0.141 A 
BRANCH  16  17
HETATM   17  N4  UNL     1       1.835   0.064  -1.346  1.00  0.00    -0.338 N 
HETATM   18  H11 UNL     1       1.172   0.421  -2.084  1.00  0.00     0.167 HD
BRANCH  17  19
HETATM   19  C11 UNL     1       3.117   0.628  -0.990  1.00  0.00     0.074 A 
HETATM   20  C12 UNL     1       3.250   1.931  -0.477  1.00  0.00     0.033 A 
HETATM   21  C13 UNL     1       4.533   2.316  -0.208  1.00  0.00     0.004 A 
HETATM   22  C14 UNL     1       5.694   1.615  -0.369  1.00  0.00     0.027 A 
HETATM   23  C15 UNL     1       5.552   0.318  -0.883  1.00  0.00     0.074 A 
HETATM   24 CL1  UNL     1       6.975  -0.675  -1.126  1.00  0.00    -0.081 Cl
HETATM   25  C16 UNL     1       4.271  -0.107  -1.166  1.00  0.00     0.164 A 
HETATM   26  F1  UNL     1       4.245  -1.390  -1.671  1.00  0.00    -0.202 F 
ENDBRANCH  17  19
ENDBRANCH  16  17
ENDBRANCH   8  11
TORSDOF 3
