REMARK  5 active torsions:
REMARK  status: ('A' for Active; 'I' for Inactive)
REMARK    1  A    between atoms: N1_2  and  C3_4 
REMARK    2  A    between atoms: C3_4  and  C4_5 
REMARK    3  A    between atoms: C4_5  and  C5_6 
REMARK    4  A    between atoms: C5_6  and  C6_7 
REMARK    5  A    between atoms: C7_9  and  N2_10 
ROOT
HETATM    1  C6  UNL     1       0.494  -0.922   0.438  1.00  0.00     0.105 A 
HETATM    2  O1  UNL     1       0.700  -0.398  -0.679  1.00  0.00    -0.312 OA
HETATM    3  C7  UNL     1      -0.698  -0.435  -0.216  1.00  0.00     0.196 A 
HETATM    4  C8  UNL     1      -1.998  -1.021   0.122  1.00  0.00     0.179 A 
HETATM    5  C9  UNL     1      -1.434  -0.907   1.423  1.00  0.00     0.071 A 
HETATM    6  C10 UNL     1      -0.879  -1.061   2.785  1.00  0.00     0.096 C 
HETATM    7  N3  UNL     1      -0.427  -1.182   3.842  1.00  0.00    -0.192 NA
HETATM    8  C11 UNL     1      -1.502   0.508   0.786  1.00  0.00     0.200 A 
HETATM    9  N4  UNL     1      -2.860   0.669   0.435  1.00  0.00    -0.369 N 
HETATM   10  C12 UNL     1      -3.180   1.156  -0.856  1.00  0.00     0.149 C 
HETATM   11  C13 UNL     1      -4.464   1.942  -0.690  1.00  0.00     0.012 C 
HETATM   12  C14 UNL     1      -5.482   1.337  -0.089  1.00  0.00     0.013 C 
HETATM   13 CL1  UNL     1      -6.993   2.157   0.147  1.00  0.00    -0.089 Cl
HETATM   14  C15 UNL     1      -5.222  -0.072   0.353  1.00  0.00     0.104 C 
HETATM   15  C16 UNL     1      -3.880  -0.272   0.885  1.00  0.00     0.226 C 
HETATM   16  O2  UNL     1      -3.297  -1.590   0.314  1.00  0.00    -0.342 OA
ENDROOT
BRANCH   3  17
HETATM   17  N2  UNL     1      -0.566   0.170  -1.492  1.00  0.00    -0.394 N 
HETATM   18  H11 UNL     1      -0.132   1.087  -1.429  1.00  0.00     0.153 HD
HETATM   19  H12 UNL     1      -0.347  -0.436  -2.276  1.00  0.00     0.153 HD
ENDBRANCH   3  17
BRANCH   1  20
HETATM   20  C5  UNL     1       1.675  -1.407   1.092  1.00  0.00     0.035 C 
BRANCH  20  21
HETATM   21  C4  UNL     1       2.885  -1.281   0.511  1.00  0.00     0.006 C 
BRANCH  21  22
HETATM   22  C3  UNL     1       3.588  -0.778  -0.689  1.00  0.00     0.299 C 
BRANCH  22  23
HETATM   23  N1  UNL     1       4.586   0.229  -0.361  1.00  0.00     0.083 N 
HETATM   24  C1  UNL     1       5.694  -0.310   0.365  1.00  0.00     0.309 C 
HETATM   25  C2  UNL     1       4.944   1.041  -1.493  1.00  0.00     0.309 C 
ENDBRANCH  22  23
ENDBRANCH  21  22
ENDBRANCH  20  21
ENDBRANCH   1  20
TORSDOF 5
