REMARK  5 active torsions:
REMARK  status: ('A' for Active; 'I' for Inactive)
REMARK    1  A    between atoms: N1_2  and  C3_4 
REMARK    2  A    between atoms: C3_4  and  C4_5 
REMARK    3  A    between atoms: C5_6  and  N2_7 
REMARK    4  A    between atoms: N2_7  and  O1_8 
REMARK    5  A    between atoms: N2_7  and  C6_9 
ROOT
HETATM    1  C6  UNL     1      -0.683  -0.907  -0.447  1.00  0.00     0.042 C 
HETATM    2  C7  UNL     1      -1.384   0.177  -0.056  1.00  0.00     0.060 C 
HETATM    3  C8  UNL     1      -2.829   0.515  -0.029  1.00  0.00     0.068 A 
HETATM    4  N3  UNL     1      -2.942   1.852  -0.191  1.00  0.00    -0.259 NA
HETATM    5  C9  UNL     1      -4.164   2.377  -0.217  1.00  0.00     0.140 A 
HETATM    6  C10 UNL     1      -5.270   1.576  -0.082  1.00  0.00     0.063 A 
HETATM    7  C11 UNL     1      -6.530   2.258  -0.133  1.00  0.00     0.101 C 
HETATM    8  N4  UNL     1      -7.546   2.826  -0.183  1.00  0.00    -0.191 NA
HETATM    9  C12 UNL     1      -5.206   0.210   0.086  1.00  0.00     0.038 A 
HETATM   10  C13 UNL     1      -3.953  -0.315   0.112  1.00  0.00    -0.006 A 
HETATM   11  C14 UNL     1      -4.122  -1.773   0.298  1.00  0.00     0.010 C 
HETATM   12  C15 UNL     1      -3.233  -2.754   0.187  1.00  0.00    -0.025 C 
HETATM   13  C16 UNL     1      -1.834  -3.111  -0.107  1.00  0.00     0.033 C 
HETATM   14  C17 UNL     1      -1.111  -2.193  -1.024  1.00  0.00     0.063 C 
ENDROOT
BRANCH   1  15
HETATM   15  N2  UNL     1       0.609  -0.511  -0.185  1.00  0.00    -0.240 N 
BRANCH  15  16
HETATM   16  C5  UNL     1       1.914  -0.122   0.093  1.00  0.00     0.120 C 
HETATM   17  C4  UNL     1       3.187  -0.311   0.172  1.00  0.00     0.023 C 
BRANCH  17  18
HETATM   18  C3  UNL     1       3.985   0.838   0.647  1.00  0.00     0.300 C 
BRANCH  18  19
HETATM   19  N1  UNL     1       4.968   1.299  -0.318  1.00  0.00     0.083 N 
HETATM   20  C1  UNL     1       6.037   0.364  -0.536  1.00  0.00     0.309 C 
HETATM   21  C2  UNL     1       5.487   2.574   0.092  1.00  0.00     0.309 C 
ENDBRANCH  18  19
ENDBRANCH  17  18
ENDBRANCH  15  16
BRANCH  15  22
HETATM   22  O1  UNL     1       0.557  -1.453   0.831  1.00  0.00    -0.283 OA
HETATM   23  H11 UNL     1       0.371  -0.999   1.705  1.00  0.00     0.245 HD
ENDBRANCH  15  22
ENDBRANCH   1  15
TORSDOF 5
