REMARK  9 active torsions:
REMARK  status: ('A' for Active; 'I' for Inactive)
REMARK    1  A    between atoms: N1_2  and  C3_4 
REMARK    2  A    between atoms: C3_4  and  C4_5 
REMARK    3  A    between atoms: C5_6  and  S1_7 
REMARK    4  A    between atoms: S1_7  and  C6_9 
REMARK    5  A    between atoms: C6_9  and  N2_10 
REMARK    6  A    between atoms: C7_11  and  C8_12 
REMARK    7  A    between atoms: C9_13  and  N3_14 
REMARK    8  A    between atoms: N3_14  and  C10_15 
REMARK    9  A    between atoms: C13_18  and  N4_19 
ROOT
HETATM    1  C8  UNL     1       0.018  -0.630   1.381  1.00  0.00     0.019 C 
HETATM    2  C9  UNL     1       1.260  -1.045   1.214  1.00  0.00     0.088 C 
ENDROOT
BRANCH   2   3
HETATM    3  N3  UNL     1       1.838  -0.990  -0.076  1.00  0.00    -0.366 N 
HETATM    4  H16 UNL     1       1.338  -1.267  -0.952  1.00  0.00     0.165 HD
BRANCH   3   5
HETATM    5  C10 UNL     1       3.190  -0.527  -0.177  1.00  0.00     0.033 A 
HETATM    6  C11 UNL     1       3.865  -0.173   0.981  1.00  0.00     0.032 A 
HETATM    7  C12 UNL     1       5.185   0.283   0.896  1.00  0.00     0.034 A 
HETATM    8  C13 UNL     1       5.824   0.384  -0.335  1.00  0.00     0.061 A 
HETATM    9  C17 UNL     1       5.155   0.030  -1.511  1.00  0.00     0.063 A 
HETATM   10 CL1  UNL     1       5.939   0.150  -3.059  1.00  0.00    -0.082 Cl
HETATM   11  C18 UNL     1       3.857  -0.414  -1.379  1.00  0.00     0.055 A 
BRANCH   8  12
HETATM   12  N4  UNL     1       7.185   0.858  -0.398  1.00  0.00    -0.314 N 
HETATM   13  C14 UNL     1       8.276   0.169  -0.823  1.00  0.00     0.117 A 
HETATM   14  C15 UNL     1       9.349   1.031  -0.703  1.00  0.00     0.135 A 
HETATM   15  N5  UNL     1       8.931   2.228  -0.214  1.00  0.00    -0.254 NA
HETATM   16  C16 UNL     1       7.596   2.098  -0.034  1.00  0.00     0.214 A 
ENDBRANCH   8  12
ENDBRANCH   3   5
ENDBRANCH   2   3
BRANCH   1  17
HETATM   17  C7  UNL     1      -0.698  -0.134   0.222  1.00  0.00     0.035 C 
HETATM   18  C6  UNL     1      -1.946   0.329   0.156  1.00  0.00     0.078 C 
BRANCH  18  19
HETATM   19  S1  UNL     1      -2.877   0.944  -1.205  1.00  0.00     0.085 S 
HETATM   20  O1  UNL     1      -3.166   2.420  -1.093  1.00  0.00    -0.247 OA
BRANCH  19  21
HETATM   21  C5  UNL     1      -4.326  -0.004  -1.544  1.00  0.00     0.082 C 
HETATM   22  C4  UNL     1      -5.619  -0.134  -1.278  1.00  0.00     0.012 C 
BRANCH  22  23
HETATM   23  C3  UNL     1      -6.280   0.794  -0.352  1.00  0.00     0.299 C 
BRANCH  23  24
HETATM   24  N1  UNL     1      -6.857   0.097   0.769  1.00  0.00     0.083 N 
HETATM   25  C1  UNL     1      -7.987  -0.727   0.359  1.00  0.00     0.309 C 
HETATM   26  C2  UNL     1      -5.824  -0.776   1.327  1.00  0.00     0.309 C 
ENDBRANCH  23  24
ENDBRANCH  22  23
ENDBRANCH  19  21
ENDBRANCH  18  19
BRANCH  18  27
HETATM   27  N2  UNL     1      -2.576   0.298   1.430  1.00  0.00    -0.295 NA
HETATM   28  H11 UNL     1      -2.831  -0.651   1.828  1.00  0.00     0.124 HD
HETATM   29  H12 UNL     1      -2.870  -0.596   1.915  1.00  0.00     0.124 HD
ENDBRANCH  18  27
ENDBRANCH   1  17
TORSDOF 9
