REMARK  10 active torsions:
REMARK  status: ('A' for Active; 'I' for Inactive)
REMARK    1  A    between atoms: C2_2  and  N1_3 
REMARK    2  A    between atoms: N1_3  and  C3_4 
REMARK    3  A    between atoms: C4_5  and  C5_6 
REMARK    4  A    between atoms: C7_8  and  N2_9 
REMARK       I    between atoms: N2_9  and  C8_10 
REMARK    5  A    between atoms: C8_10  and  C9_12 
REMARK    6  A    between atoms: C9_12  and  C10_13 
REMARK    7  A    between atoms: C10_13  and  C11_14 
REMARK    8  A    between atoms: C11_14  and  N3_15 
REMARK    9  A    between atoms: C14_18  and  O2_19 
REMARK   10  A    between atoms: O2_19  and  C15_20 
ROOT
HETATM    1  C5  UNL     1       3.847  -0.070   1.696  1.00  0.00     0.177 A 
HETATM    2  C6  UNL     1       2.508  -0.662   1.543  1.00  0.00     0.042 A 
HETATM    3  C7  UNL     1       1.780  -0.644   0.446  1.00  0.00     0.069 A 
HETATM    4  C14 UNL     1       2.305   0.017  -0.728  1.00  0.00     0.117 A 
HETATM    5  C17 UNL     1       3.507   0.572  -0.618  1.00  0.00     0.175 A 
HETATM    6  O3  UNL     1       4.279   0.559   0.534  1.00  0.00    -0.347 OA
ENDROOT
BRANCH   3   7
HETATM    7  N2  UNL     1       0.522  -1.284   0.560  1.00  0.00    -0.321 N 
HETATM    8  C8  UNL     1      -0.575  -0.444   0.263  1.00  0.00     0.245 C 
HETATM    9  O1  UNL     1      -0.158   0.693  -0.047  1.00  0.00    -0.268 OA
HETATM   10  H9  UNL     1       0.414  -2.308   0.844  1.00  0.00     0.169 HD
BRANCH   8  11
HETATM   11  C9  UNL     1      -1.910  -0.972   0.353  1.00  0.00     0.072 C 
BRANCH  11  12
HETATM   12  C10 UNL     1      -3.006  -1.634   0.498  1.00  0.00     0.008 C 
BRANCH  12  13
HETATM   13  C11 UNL     1      -4.480  -1.565   0.391  1.00  0.00     0.299 C 
BRANCH  13  14
HETATM   14  N3  UNL     1      -4.917  -2.581  -0.554  1.00  0.00     0.083 N 
HETATM   15  C12 UNL     1      -4.401  -2.176  -1.873  1.00  0.00     0.309 C 
HETATM   16  C13 UNL     1      -6.384  -2.402  -0.618  1.00  0.00     0.309 C 
ENDBRANCH  13  14
ENDBRANCH  12  13
ENDBRANCH  11  12
ENDBRANCH   8  11
ENDBRANCH   3   7
BRANCH   4  17
HETATM   17  O2  UNL     1       1.577   0.056  -1.895  1.00  0.00    -0.347 OA
BRANCH  17  18
HETATM   18  C15 UNL     1       2.159  -0.134  -3.171  1.00  0.00     0.171 C 
HETATM   19  C16 UNL     1       1.137   0.092  -4.252  1.00  0.00     0.034 C 
ENDBRANCH  17  18
ENDBRANCH   4  17
BRANCH   1  20
HETATM   20  C4  UNL     1       3.957   0.800   2.914  1.00  0.00     0.026 C 
HETATM   21  C3  UNL     1       3.077   1.718   2.469  1.00  0.00     0.081 C 
BRANCH  21  22
HETATM   22  N1  UNL     1       2.502   2.957   2.938  1.00  0.00    -0.399 N 
HETATM   23  H4  UNL     1       2.067   2.679   3.870  1.00  0.00     0.158 HD
BRANCH  22  24
HETATM   24  C2  UNL     1       2.184   4.301   2.905  1.00  0.00     0.061 C 
HETATM   25  C1  UNL     1       2.745   5.192   3.714  1.00  0.00     0.079 C 
ENDBRANCH  22  24
ENDBRANCH  21  22
ENDBRANCH   1  20
TORSDOF 10
