REMARK  6 active torsions:
REMARK  status: ('A' for Active; 'I' for Inactive)
REMARK    1  A    between atoms: O1_2  and  C2_3 
REMARK    2  A    between atoms: C7_8  and  C8_9 
REMARK    3  A    between atoms: C8_9  and  O2_10 
REMARK    4  A    between atoms: O2_10  and  C9_11 
REMARK    5  A    between atoms: C12_14  and  N1_15 
REMARK    6  A    between atoms: N1_15  and  C13_16 
ROOT
HETATM    1  C9  UNL     1       1.223   0.475   0.036  1.00  0.00     0.091 A 
HETATM    2  C10 UNL     1       1.620  -0.242   1.150  1.00  0.00     0.041 A 
HETATM    3  C11 UNL     1       2.913  -0.688   1.318  1.00  0.00     0.032 A 
HETATM    4  C12 UNL     1       3.830  -0.391   0.315  1.00  0.00     0.031 A 
HETATM    5  C14 UNL     1       3.528   0.326  -0.845  1.00  0.00     0.056 A 
HETATM    6  C15 UNL     1       2.193   0.743  -0.940  1.00  0.00     0.069 A 
HETATM    7 CL1  UNL     1       1.843   1.644  -2.422  1.00  0.00    -0.081 Cl
ENDROOT
BRANCH   1   8
HETATM    8  O2  UNL     1       0.070   0.944  -0.245  1.00  0.00    -0.345 OA
BRANCH   8   9
HETATM    9  C8  UNL     1      -1.179   1.328  -0.322  1.00  0.00     0.217 C 
BRANCH   9  10
HETATM   10  C7  UNL     1      -2.104   0.125  -0.313  1.00  0.00    -0.001 A 
HETATM   11  C2  UNL     1      -3.449   0.503  -0.351  1.00  0.00     0.076 A 
HETATM   12  C3  UNL     1      -4.343  -0.562  -0.352  1.00  0.00     0.037 A 
HETATM   13  C4  UNL     1      -3.971  -1.896  -0.319  1.00  0.00     0.003 A 
HETATM   14  C5  UNL     1      -2.628  -2.199  -0.283  1.00  0.00     0.001 A 
HETATM   15  C6  UNL     1      -1.689  -1.191  -0.280  1.00  0.00     0.012 A 
BRANCH  11  16
HETATM   16  O1  UNL     1      -3.875   1.814  -0.385  1.00  0.00    -0.355 OA
HETATM   17  C1  UNL     1      -5.269   2.054  -0.422  1.00  0.00     0.210 C 
ENDBRANCH  11  16
ENDBRANCH   9  10
ENDBRANCH   8   9
ENDBRANCH   1   8
BRANCH   4  18
HETATM   18  N1  UNL     1       5.157  -0.836   0.474  1.00  0.00    -0.365 N 
HETATM   19  H12 UNL     1       5.456  -1.377   1.332  1.00  0.00     0.162 HD
BRANCH  18  20
HETATM   20  C13 UNL     1       6.190  -0.578  -0.532  1.00  0.00     0.345 C 
HETATM   21  F1  UNL     1       5.752  -1.199  -1.703  1.00  0.00    -0.234 F 
ENDBRANCH  18  20
ENDBRANCH   4  18
TORSDOF 6
