REMARK  8 active torsions:
REMARK  status: ('A' for Active; 'I' for Inactive)
REMARK    1  A    between atoms: C2_2  and  O1_3 
REMARK    2  A    between atoms: O1_3  and  C3_4 
REMARK    3  A    between atoms: C5_6  and  C7_9 
REMARK    4  A    between atoms: C7_9  and  C8_10 
REMARK    5  A    between atoms: C10_12  and  N2_13 
REMARK       I    between atoms: N2_13  and  C11_14 
REMARK    6  A    between atoms: C11_14  and  C12_16 
REMARK    7  A    between atoms: C13_17  and  C14_18 
REMARK    8  A    between atoms: C14_18  and  N3_19 
ROOT
HETATM    1  N2  UNL     1      -1.723   0.825  -0.528  1.00  0.00    -0.325 N 
HETATM    2  C11 UNL     1      -0.300   0.453  -0.394  1.00  0.00     0.227 C 
HETATM    3  O2  UNL     1      -0.248   0.076   0.846  1.00  0.00    -0.273 OA
HETATM    4  H9  UNL     1      -1.901   1.198  -1.434  1.00  0.00     0.169 HD
ENDROOT
BRANCH   1   5
HETATM    5  C10 UNL     1      -2.351   0.574   0.700  1.00  0.00     0.065 C 
HETATM    6  C3  UNL     1      -2.901  -0.715   0.622  1.00  0.00     0.093 C 
HETATM    7  C4  UNL     1      -3.598  -1.309   1.506  1.00  0.00     0.040 C 
HETATM    8  C5  UNL     1      -3.710  -0.650   2.716  1.00  0.00     0.068 A 
HETATM    9  N1  UNL     1      -4.000  -0.134   4.706  1.00  0.00    -0.272 NA
HETATM   10  C8  UNL     1      -3.389   1.369   2.866  1.00  0.00     0.081 A 
HETATM   11  C6  UNL     1      -3.815   0.331   4.168  1.00  0.00     0.074 A 
HETATM   12  C7  UNL     1      -3.671   0.691   3.732  1.00  0.00     0.074 A 
HETATM   13  C9  UNL     1      -2.578   1.347   1.658  1.00  0.00     0.016 C 
BRANCH   6  14
HETATM   14  O1  UNL     1      -3.116  -1.825  -0.126  1.00  0.00    -0.349 OA
BRANCH  14  15
HETATM   15  C2  UNL     1      -4.041  -1.991  -1.177  1.00  0.00     0.171 C 
HETATM   16  C1  UNL     1      -3.813  -3.367  -1.810  1.00  0.00     0.034 C 
ENDBRANCH  14  15
ENDBRANCH   6  14
ENDBRANCH   1   5
BRANCH   2  17
HETATM   17  C12 UNL     1       0.439   0.654  -1.668  1.00  0.00     0.098 C 
HETATM   18  C13 UNL     1       1.655   0.683  -2.279  1.00  0.00     0.034 C 
BRANCH  18  19
HETATM   19  C14 UNL     1       3.154   0.568  -2.327  1.00  0.00     0.278 C 
BRANCH  19  20
HETATM   20  N3  UNL     1       3.598   0.372  -0.942  1.00  0.00     0.090 N 
HETATM   21  C15 UNL     1       4.954  -0.094  -0.827  1.00  0.00     0.282 C 
HETATM   22  C16 UNL     1       5.736   0.389   0.328  1.00  0.00     0.104 C 
HETATM   23  S1  UNL     1       4.687   0.602   1.782  1.00  0.00    -0.166 SA
HETATM   24  C17 UNL     1       3.182   1.425   1.138  1.00  0.00     0.104 C 
HETATM   25  C18 UNL     1       3.515   1.706  -0.288  1.00  0.00     0.282 C 
ENDBRANCH  19  20
ENDBRANCH  18  19
ENDBRANCH   2  17
TORSDOF 8
