REMARK  4 active torsions:
REMARK  status: ('A' for Active; 'I' for Inactive)
REMARK    1  A    between atoms: C2_2  and  C3_3 
REMARK    2  A    between atoms: C14_15  and  N1_16 
REMARK    3  A    between atoms: N1_16  and  C15_17 
REMARK    4  A    between atoms: C15_17  and  C16_18 
ROOT
HETATM    1  C3  UNL     1      -2.710  -0.499  -1.008  1.00  0.00     0.105 C 
HETATM    2  C4  UNL     1      -2.673   0.979  -0.857  1.00  0.00     0.017 C 
HETATM    3  C5  UNL     1      -2.485   2.057  -0.105  1.00  0.00     0.010 C 
HETATM    4 CL1  UNL     1      -2.587   3.792  -0.506  1.00  0.00    -0.089 Cl
HETATM    5  C6  UNL     1      -2.110   2.047   1.336  1.00  0.00     0.055 C 
HETATM    6  C7  UNL     1      -0.801   2.783   1.564  1.00  0.00     0.044 C 
HETATM    7  C8  UNL     1       0.313   2.185   0.805  1.00  0.00    -0.057 A 
HETATM    8  C9  UNL     1       1.152   3.031   0.111  1.00  0.00     0.007 A 
HETATM    9  C10 UNL     1       2.215   2.552  -0.625  1.00  0.00     0.001 A 
HETATM   10  C11 UNL     1       2.335   1.155  -0.584  1.00  0.00     0.013 A 
HETATM   11  C12 UNL     1       1.503   0.262   0.108  1.00  0.00    -0.013 A 
HETATM   12  C13 UNL     1       0.471   0.840   0.813  1.00  0.00     0.020 A 
HETATM   13  C14 UNL     1       1.915  -1.136  -0.072  1.00  0.00     0.024 C 
HETATM   14  C17 UNL     1       0.799  -1.517  -0.661  1.00  0.00     0.073 C 
HETATM   15  C18 UNL     1       0.263  -2.781  -1.226  1.00  0.00     0.002 C 
HETATM   16  C19 UNL     1      -0.938  -2.322  -1.628  1.00  0.00     0.080 C 
HETATM   17  N2  UNL     1      -1.397  -0.986  -1.472  1.00  0.00    -0.391 N 
HETATM   18  H23 UNL     1      -0.583  -0.412  -1.775  1.00  0.00     0.159 HD
ENDROOT
BRANCH  13  19
HETATM   19  N1  UNL     1       3.252  -1.269   0.479  1.00  0.00    -0.386 N 
HETATM   20  H16 UNL     1       3.410  -0.934   1.451  1.00  0.00     0.159 HD
BRANCH  19  21
HETATM   21  C15 UNL     1       4.247  -1.873  -0.385  1.00  0.00     0.188 C 
BRANCH  21  22
HETATM   22  C16 UNL     1       5.565  -1.954   0.283  1.00  0.00     0.250 C 
HETATM   23  O1  UNL     1       6.388  -2.473  -0.458  1.00  0.00    -0.305 OA
ENDBRANCH  21  22
ENDBRANCH  19  21
ENDBRANCH  13  19
BRANCH   1  24
HETATM   24  C2  UNL     1      -2.952  -1.219   0.315  1.00  0.00     0.024 C 
HETATM   25  C1  UNL     1      -4.247  -0.819   0.942  1.00  0.00     0.007 C 
ENDBRANCH   1  24
TORSDOF 4
