REMARK  0 active torsions:
REMARK  status: ('A' for Active; 'I' for Inactive)
ROOT
HETATM    1  O1  UNL     1      -4.028  -1.103  -2.148  1.00  0.00    -0.273 OA
HETATM    2  C1  UNL     1      -4.020  -0.836  -0.931  1.00  0.00     0.229 C 
HETATM    3  N1  UNL     1      -5.260  -0.476  -0.348  1.00  0.00    -0.358 N 
HETATM    4  C2  UNL     1      -5.781  -0.134   0.951  1.00  0.00     0.149 C 
HETATM    5  C3  UNL     1      -4.776   0.230   1.977  1.00  0.00     0.195 C 
HETATM    6  O2  UNL     1      -3.618   0.845   1.446  1.00  0.00    -0.353 OA
HETATM    7  C4  UNL     1      -2.621   0.376   0.600  1.00  0.00     0.064 C 
HETATM    8  C5  UNL     1      -1.616   1.233   0.599  1.00  0.00     0.083 C 
HETATM    9  C6  UNL     1      -0.478   0.908  -0.232  1.00  0.00     0.123 C 
HETATM   10  N2  UNL     1       0.526   1.733  -0.252  1.00  0.00    -0.268 NA
HETATM   11  C7  UNL     1       1.776   1.620  -1.008  1.00  0.00     0.190 C 
HETATM   12  C8  UNL     1       2.543   0.442  -0.681  1.00  0.00    -0.027 C 
HETATM   13  C9  UNL     1       3.822   0.291  -0.025  1.00  0.00     0.012 A 
HETATM   14  C10 UNL     1       4.409  -0.920   0.177  1.00  0.00     0.015 A 
HETATM   15  C11 UNL     1       5.610  -1.071   0.798  1.00  0.00     0.003 A 
HETATM   16  C12 UNL     1       6.343  -0.005   1.280  1.00  0.00     0.027 A 
HETATM   17  C13 UNL     1       5.776   1.250   1.091  1.00  0.00     0.073 A 
HETATM   18 CL1  UNL     1       6.671   2.626   1.686  1.00  0.00    -0.081 Cl
HETATM   19  C14 UNL     1       4.551   1.348   0.453  1.00  0.00     0.148 A 
HETATM   20  F1  UNL     1       4.142   2.617   0.354  1.00  0.00    -0.203 F 
HETATM   21  C15 UNL     1       1.916  -0.668  -1.081  1.00  0.00     0.003 C 
HETATM   22  C16 UNL     1       0.610  -0.813  -1.774  1.00  0.00     0.152 C 
HETATM   23  N3  UNL     1      -0.507  -0.313  -0.998  1.00  0.00    -0.361 N 
HETATM   24  C17 UNL     1      -1.651  -1.195  -1.097  1.00  0.00     0.145 C 
HETATM   25  C18 UNL     1      -2.751  -0.899  -0.144  1.00  0.00     0.152 C 
HETATM   26  H1  UNL     1      -6.043  -0.445  -1.066  1.00  0.00     0.162 HD
ENDROOT
TORSDOF 0
