REMARK  5 active torsions:
REMARK  status: ('A' for Active; 'I' for Inactive)
REMARK    1  A    between atoms: N1_2  and  C3_4 
REMARK    2  A    between atoms: C3_4  and  C4_5 
REMARK    3  A    between atoms: C5_6  and  C6_7 
REMARK       I    between atoms: C6_7  and  N2_9 
REMARK    4  A    between atoms: N2_9  and  C7_10 
REMARK    5  A    between atoms: C15_19  and  C16_21 
ROOT
HETATM    1  C7  UNL     1      -0.345   0.183   0.312  1.00  0.00     0.045 C 
HETATM    2  C8  UNL     1      -0.573  -1.037   0.795  1.00  0.00     0.032 C 
HETATM    3  C9  UNL     1      -1.293  -2.213   1.166  1.00  0.00     0.019 C 
HETATM    4  C10 UNL     1      -1.839  -3.377   1.569  1.00  0.00     0.084 C 
HETATM    5  N3  UNL     1      -3.257  -3.746   1.437  1.00  0.00    -0.386 N 
HETATM    6  C11 UNL     1      -4.361  -3.453   0.655  1.00  0.00     0.067 A 
HETATM    7  C12 UNL     1      -5.127  -2.401   0.211  1.00  0.00     0.052 A 
HETATM    8  C13 UNL     1      -5.866  -1.339  -0.199  1.00  0.00     0.071 A 
HETATM    9  C14 UNL     1      -5.647  -0.147   0.455  1.00  0.00     0.150 A 
HETATM   10  C15 UNL     1      -4.866  -1.160   0.937  1.00  0.00     0.069 A 
HETATM   11 CL1  UNL     1      -5.159  -0.233   2.483  1.00  0.00    -0.169 Cl
HETATM   12  C16 UNL     1      -4.080  -2.214   1.411  1.00  0.00     0.051 A 
HETATM   13  O2  UNL     1      -5.928   1.223   0.620  1.00  0.00    -0.359 OA
HETATM   14  C17 UNL     1      -4.828   2.035   1.033  1.00  0.00     0.216 C 
HETATM   15  C18 UNL     1      -3.635   1.962   0.226  1.00  0.00     0.007 A 
HETATM   16  C19 UNL     1      -2.594   1.133   0.575  1.00  0.00     0.031 A 
HETATM   17  C20 UNL     1      -1.412   1.073  -0.191  1.00  0.00    -0.002 A 
HETATM   18  C21 UNL     1      -1.314   1.847  -1.291  1.00  0.00     0.064 A 
HETATM   19  S1  UNL     1      -2.952   2.763  -1.330  1.00  0.00    -0.103 SA
HETATM   20  H15 UNL     1      -3.354  -4.453   2.237  1.00  0.00     0.159 HD
ENDROOT
BRANCH   1  21
HETATM   21  N2  UNL     1       1.055   0.507   0.435  1.00  0.00    -0.323 N 
HETATM   22  C6  UNL     1       1.972   0.810  -0.654  1.00  0.00     0.242 C 
HETATM   23  O1  UNL     1       1.739   0.799  -1.876  1.00  0.00    -0.269 OA
HETATM   24  H11 UNL     1       1.425   0.527   1.412  1.00  0.00     0.169 HD
BRANCH  22  25
HETATM   25  C5  UNL     1       3.367   1.212  -0.295  1.00  0.00     0.054 C 
HETATM   26  C4  UNL     1       3.827   1.360  -1.511  1.00  0.00     0.051 C 
BRANCH  26  27
HETATM   27  C3  UNL     1       5.213   1.787  -1.085  1.00  0.00     0.280 C 
BRANCH  27  28
HETATM   28  N1  UNL     1       6.262   0.919  -1.583  1.00  0.00     0.080 N 
HETATM   29  C1  UNL     1       6.279  -0.388  -0.978  1.00  0.00     0.309 C 
HETATM   30  C2  UNL     1       7.562   1.543  -1.516  1.00  0.00     0.309 C 
ENDBRANCH  27  28
ENDBRANCH  26  27
ENDBRANCH  22  25
ENDBRANCH   1  21
TORSDOF 5
