REMARK  5 active torsions:
REMARK  status: ('A' for Active; 'I' for Inactive)
REMARK    1  A    between atoms: O1_2  and  C2_3 
REMARK    2  A    between atoms: C5_6  and  N1_7 
REMARK    3  A    between atoms: C9_12  and  N3_13 
REMARK    4  A    between atoms: N5_20  and  C15_21 
REMARK    5  A    between atoms: C18_24  and  O2_25 
ROOT
HETATM    1  N1  UNL     1       1.545   0.396  -0.034  1.00  0.00    -0.295 N 
HETATM    2  C6  UNL     1       1.109   1.750  -0.178  1.00  0.00     0.178 A 
HETATM    3  C7  UNL     1      -0.372   1.828  -0.284  1.00  0.00     0.025 A 
HETATM    4  C8  UNL     1      -0.847   3.136  -0.428  1.00  0.00     0.149 A 
HETATM    5  N2  UNL     1      -2.197   3.308  -0.533  1.00  0.00    -0.074 NA
HETATM    6  C9  UNL     1      -3.037   2.244  -0.500  1.00  0.00     0.734 A 
HETATM    7  N4  UNL     1      -2.563   0.991  -0.362  1.00  0.00    -0.043 NA
HETATM    8  C14 UNL     1      -1.230   0.747  -0.251  1.00  0.00     0.162 A 
HETATM    9  N5  UNL     1      -0.673  -0.560  -0.102  1.00  0.00    -0.278 N 
HETATM   10  C20 UNL     1       0.732  -0.745   0.008  1.00  0.00     0.331 A 
HETATM   11  O3  UNL     1       1.268  -1.852   0.138  1.00  0.00    -0.246 OA
ENDROOT
BRANCH   1  12
HETATM   12  C5  UNL     1       2.962   0.359   0.065  1.00  0.00     0.039 A 
HETATM   13  C4  UNL     1       3.810   0.242  -1.035  1.00  0.00     0.032 A 
HETATM   14  C3  UNL     1       5.177   0.212  -0.870  1.00  0.00     0.039 A 
HETATM   15  C2  UNL     1       5.726   0.299   0.397  1.00  0.00     0.068 A 
HETATM   16  C22 UNL     1       4.872   0.416   1.482  1.00  0.00     0.039 A 
HETATM   17  C21 UNL     1       3.512   0.446   1.333  1.00  0.00     0.032 A 
BRANCH  15  18
HETATM   18  O1  UNL     1       7.085   0.278   0.666  1.00  0.00    -0.356 OA
HETATM   19  C1  UNL     1       8.057   0.163  -0.358  1.00  0.00     0.210 C 
ENDBRANCH  15  18
ENDBRANCH   1  12
BRANCH   9  20
HETATM   20  C15 UNL     1      -1.558  -1.677  -0.067  1.00  0.00     0.099 C 
HETATM   21  C16 UNL     1      -1.329  -2.737  -1.089  1.00  0.00     0.028 C 
HETATM   22  C17 UNL     1      -2.303  -3.809  -0.641  1.00  0.00     0.034 C 
HETATM   23  C18 UNL     1      -2.391  -3.674   0.848  1.00  0.00     0.120 C 
HETATM   24  C19 UNL     1      -1.506  -2.476   1.218  1.00  0.00     0.057 C 
BRANCH  23  25
HETATM   25  O2  UNL     1      -1.988  -4.834   1.487  1.00  0.00    -0.396 OA
HETATM   26  H19 UNL     1      -1.196  -4.701   2.082  1.00  0.00     0.210 HD
ENDBRANCH  23  25
ENDBRANCH   9  20
BRANCH   6  27
HETATM   27  N3  UNL     1      -4.447   2.466  -0.614  1.00  0.00    -0.165 N 
HETATM   28  C10 UNL     1      -5.099   2.341   0.557  1.00  0.00     0.114 A 
HETATM   29  C11 UNL     1      -6.451   2.577   0.317  1.00  0.00     0.020 A 
HETATM   30  C12 UNL     1      -6.593   2.847  -1.029  1.00  0.00     0.020 A 
HETATM   31  C13 UNL     1      -5.316   2.769  -1.587  1.00  0.00     0.114 A 
ENDBRANCH   6  27
TORSDOF 5
