REMARK  5 active torsions:
REMARK  status: ('A' for Active; 'I' for Inactive)
REMARK    1  A    between atoms: N1_3  and  C2_4 
REMARK    2  A    between atoms: C12_15  and  N3_16 
REMARK    3  A    between atoms: N3_16  and  C13_17 
REMARK    4  A    between atoms: N5_26  and  C20_27 
REMARK    5  A    between atoms: C23_30  and  O2_31 
ROOT
HETATM    1  O1  UNL     1      -2.687  -1.464   0.737  1.00  0.00    -0.246 OA
HETATM    2  C1  UNL     1      -1.804  -0.603   0.472  1.00  0.00     0.331 A 
HETATM    3  N1  UNL     1      -2.146   0.755   0.243  1.00  0.00    -0.295 N 
HETATM    4  C9  UNL     1      -1.199   1.782  -0.061  1.00  0.00     0.178 A 
HETATM    5  C10 UNL     1       0.185   1.283  -0.114  1.00  0.00     0.025 A 
HETATM    6  C11 UNL     1       1.219   2.142  -0.395  1.00  0.00     0.149 A 
HETATM    7  N2  UNL     1       2.505   1.777  -0.463  1.00  0.00    -0.074 NA
HETATM    8  C12 UNL     1       2.865   0.515  -0.254  1.00  0.00     0.728 A 
HETATM    9  N4  UNL     1       1.884  -0.361   0.024  1.00  0.00    -0.044 NA
HETATM   10  C19 UNL     1       0.593  -0.014   0.096  1.00  0.00     0.162 A 
HETATM   11  N5  UNL     1      -0.422  -0.994   0.399  1.00  0.00    -0.278 N 
ENDROOT
BRANCH   8  12
HETATM   12  N3  UNL     1       4.195   0.056  -0.309  1.00  0.00    -0.188 N 
HETATM   13  H11 UNL     1       4.349  -0.984  -0.121  1.00  0.00     0.184 HD
BRANCH  12  14
HETATM   14  C13 UNL     1       5.363   0.771  -0.576  1.00  0.00     0.049 A 
HETATM   15  C14 UNL     1       5.468   2.116  -0.851  1.00  0.00     0.033 A 
HETATM   16  C15 UNL     1       6.618   2.818  -1.114  1.00  0.00     0.044 A 
HETATM   17  C16 UNL     1       7.808   2.132  -1.108  1.00  0.00     0.116 A 
HETATM   18  F1  UNL     1       8.981   2.732  -1.353  1.00  0.00    -0.206 F 
HETATM   19  C17 UNL     1       7.793   0.782  -0.842  1.00  0.00     0.044 A 
HETATM   20  C18 UNL     1       6.596   0.156  -0.589  1.00  0.00     0.033 A 
ENDBRANCH  12  14
ENDBRANCH   8  12
BRANCH  11  21
HETATM   21  C20 UNL     1      -0.102  -2.358   0.632  1.00  0.00     0.099 C 
HETATM   22  C21 UNL     1      -0.430  -2.852   2.025  1.00  0.00     0.028 C 
HETATM   23  C22 UNL     1      -0.285  -4.357   1.822  1.00  0.00     0.034 C 
HETATM   24  C23 UNL     1      -1.039  -4.574   0.532  1.00  0.00     0.120 C 
HETATM   25  C24 UNL     1      -0.717  -3.349  -0.318  1.00  0.00     0.057 C 
BRANCH  24  26
HETATM   26  O2  UNL     1      -2.395  -4.661   0.828  1.00  0.00    -0.396 OA
HETATM   27  H22 UNL     1      -2.522  -4.813   1.797  1.00  0.00     0.210 HD
ENDBRANCH  24  26
ENDBRANCH  11  21
BRANCH   3  28
HETATM   28  C2  UNL     1      -3.515   1.141   0.316  1.00  0.00     0.038 C 
HETATM   29  C3  UNL     1      -4.035   0.894   1.526  1.00  0.00     0.029 C 
HETATM   30  C4  UNL     1      -5.408   1.153   1.985  1.00  0.00    -0.001 C 
HETATM   31  C5  UNL     1      -6.230   2.022   1.426  1.00  0.00    -0.023 C 
HETATM   32  C6  UNL     1      -6.131   2.960   0.276  1.00  0.00     0.054 C 
HETATM   33  C7  UNL     1      -5.275   2.480  -0.813  1.00  0.00    -0.021 C 
HETATM   34  C8  UNL     1      -4.185   1.726  -0.839  1.00  0.00     0.026 C 
ENDBRANCH   3  28
TORSDOF 5
