REMARK  7 active torsions:
REMARK  status: ('A' for Active; 'I' for Inactive)
REMARK    1  A    between atoms: O1_2  and  C2_3 
REMARK    2  A    between atoms: C9_10  and  O2_11 
REMARK    3  A    between atoms: S1_15  and  N2_16 
REMARK    4  A    between atoms: N2_16  and  C11_17 
REMARK    5  A    between atoms: C11_17  and  C12_18 
REMARK    6  A    between atoms: C14_21  and  N4_22 
REMARK    7  A    between atoms: N4_22  and  C15_23 
ROOT
HETATM    1  C2  UNL     1      -2.687  -1.134  -1.482  1.00  0.00     0.056 C 
HETATM    2  C3  UNL     1      -3.928  -0.919  -0.969  1.00  0.00     0.033 C 
HETATM    3  C4  UNL     1      -5.178  -0.403  -0.338  1.00  0.00     0.008 C 
HETATM    4  C5  UNL     1      -5.252   0.815   0.160  1.00  0.00    -0.050 C 
HETATM    5  C6  UNL     1      -4.453   1.999   0.322  1.00  0.00     0.062 C 
HETATM    6  C7  UNL     1      -3.915   1.354   1.750  1.00  0.00     0.092 C 
HETATM    7  C8  UNL     1      -4.995   1.990   2.329  1.00  0.00     0.061 C 
HETATM    8  C9  UNL     1      -6.074   1.564   1.203  1.00  0.00     0.149 C 
HETATM    9  N1  UNL     1      -2.727   0.947   1.209  1.00  0.00    -0.346 N 
HETATM   10  C10 UNL     1      -2.082  -0.318   1.248  1.00  0.00     0.290 C 
HETATM   11  O3  UNL     1      -2.807  -0.896   2.057  1.00  0.00    -0.259 OA
HETATM   12  S1  UNL     1      -0.613  -0.411   0.107  1.00  0.00    -0.010 SA
HETATM   13  C22 UNL     1      -1.636  -0.048  -1.474  1.00  0.00     0.161 C 
HETATM   14  H13 UNL     1      -2.165   1.644   0.709  1.00  0.00     0.163 HD
ENDROOT
BRANCH  12  15
HETATM   15  N2  UNL     1      -0.299  -1.937   0.072  1.00  0.00    -0.255 NA
BRANCH  15  16
HETATM   16  C11 UNL     1       0.747  -2.535  -0.666  1.00  0.00     0.199 C 
BRANCH  16  17
HETATM   17  C12 UNL     1       1.925  -1.622  -0.734  1.00  0.00    -0.002 A 
HETATM   18  C13 UNL     1       2.886  -1.686   0.228  1.00  0.00     0.146 A 
HETATM   19  N3  UNL     1       3.913  -0.865   0.135  1.00  0.00    -0.074 NA
HETATM   20  C14 UNL     1       4.117   0.039  -0.817  1.00  0.00     0.726 A 
HETATM   21  N5  UNL     1       3.175   0.094  -1.753  1.00  0.00    -0.074 NA
HETATM   22  C21 UNL     1       2.102  -0.703  -1.733  1.00  0.00     0.146 A 
BRANCH  20  23
HETATM   23  N4  UNL     1       5.227   0.911  -0.899  1.00  0.00    -0.188 N 
HETATM   24  H17 UNL     1       5.257   1.579  -1.715  1.00  0.00     0.184 HD
BRANCH  23  25
HETATM   25  C15 UNL     1       6.332   1.021  -0.021  1.00  0.00     0.049 A 
HETATM   26  C16 UNL     1       7.353   1.944  -0.252  1.00  0.00     0.033 A 
HETATM   27  C17 UNL     1       8.439   2.085   0.570  1.00  0.00     0.044 A 
HETATM   28  C18 UNL     1       8.581   1.308   1.686  1.00  0.00     0.116 A 
HETATM   29  F1  UNL     1       9.677   1.497   2.455  1.00  0.00    -0.206 F 
HETATM   30  C19 UNL     1       7.612   0.385   1.964  1.00  0.00     0.044 A 
HETATM   31  C20 UNL     1       6.541   0.278   1.113  1.00  0.00     0.033 A 
ENDBRANCH  23  25
ENDBRANCH  20  23
ENDBRANCH  16  17
ENDBRANCH  15  16
ENDBRANCH  12  15
BRANCH   1  32
HETATM   32  O1  UNL     1      -2.126  -2.245  -2.085  1.00  0.00    -0.359 OA
HETATM   33  C1  UNL     1      -2.698  -3.505  -1.838  1.00  0.00     0.209 C 
ENDBRANCH   1  32
BRANCH   8  34
HETATM   34  O2  UNL     1      -6.687   2.653   0.692  1.00  0.00    -0.391 OA
HETATM   35  H12 UNL     1      -7.652   2.532   0.542  1.00  0.00     0.210 HD
ENDBRANCH   8  34
TORSDOF 7
