REMARK  3 active torsions:
REMARK  status: ('A' for Active; 'I' for Inactive)
REMARK    1  A    between atoms: O1_1  and  C1_2 
REMARK    2  A    between atoms: C15_20  and  O3_21 
REMARK    3  A    between atoms: C16_22  and  N4_23 
ROOT
HETATM    1  C1  UNL     1      -2.201  -2.098  -0.289  1.00  0.00     0.392 C 
HETATM    2  O2  UNL     1      -3.368  -1.899  -0.955  1.00  0.00    -0.231 OA
HETATM    3  N1  UNL     1      -4.484  -1.699  -0.304  1.00  0.00    -0.294 N 
HETATM    4  C2  UNL     1      -5.033  -0.392  -0.320  1.00  0.00     0.173 C 
HETATM    5  C3  UNL     1      -4.350   0.619   0.502  1.00  0.00    -0.005 C 
HETATM    6  C4  UNL     1      -3.978   1.551   1.354  1.00  0.00    -0.003 C 
HETATM    7  C5  UNL     1      -3.051   2.463   1.986  1.00  0.00    -0.004 C 
HETATM    8  C6  UNL     1      -1.791   2.709   1.811  1.00  0.00    -0.027 C 
HETATM    9  C7  UNL     1      -0.476   2.508   1.156  1.00  0.00     0.027 C 
HETATM   10  C8  UNL     1      -0.644   1.435   0.142  1.00  0.00     0.011 C 
HETATM   11  C9  UNL     1       0.598   1.023  -0.606  1.00  0.00     0.025 C 
HETATM   12  C10 UNL     1       0.163   0.236  -1.797  1.00  0.00     0.033 A 
HETATM   13  C11 UNL     1       0.422  -0.209  -3.039  1.00  0.00     0.122 A 
HETATM   14  N2  UNL     1       0.076  -0.938  -4.207  1.00  0.00    -0.294 NA
HETATM   15  C12 UNL     1      -0.726  -0.873  -3.144  1.00  0.00     0.132 A 
HETATM   16  C13 UNL     1      -1.172  -0.487  -1.802  1.00  0.00     0.132 A 
HETATM   17  N3  UNL     1      -1.058  -1.483  -0.819  1.00  0.00    -0.354 N 
HETATM   18  C14 UNL     1       0.223  -1.897  -0.448  1.00  0.00     0.156 C 
HETATM   19  C15 UNL     1       0.962  -1.174   0.608  1.00  0.00     0.158 C 
HETATM   20  C16 UNL     1       1.484   0.184   0.294  1.00  0.00     0.114 C 
HETATM   21  H3  UNL     1      -4.670  -2.240   0.547  1.00  0.00     0.188 HD
ENDROOT
BRANCH  20  22
HETATM   22  N4  UNL     1       2.854   0.165  -0.007  1.00  0.00    -0.402 N 
HETATM   23  C17 UNL     1       3.339  -0.271  -1.240  1.00  0.00     0.147 C 
HETATM   24  C18 UNL     1       4.852  -0.178  -1.179  1.00  0.00     0.030 C 
HETATM   25  C19 UNL     1       5.695   0.309  -0.245  1.00  0.00     0.093 C 
HETATM   26  F1  UNL     1       7.057   0.316  -0.349  1.00  0.00    -0.211 F 
HETATM   27  C20 UNL     1       5.013   0.867   0.970  1.00  0.00     0.089 C 
HETATM   28  C21 UNL     1       3.737   0.079   1.119  1.00  0.00     0.124 C 
ENDBRANCH  20  22
BRANCH  19  29
HETATM   29  O3  UNL     1       0.287  -1.207   1.854  1.00  0.00    -0.392 OA
HETATM   30  H19 UNL     1       0.941  -1.043   2.598  1.00  0.00     0.210 HD
ENDBRANCH  19  29
BRANCH   1  31
HETATM   31  O1  UNL     1      -1.965  -3.509  -0.387  1.00  0.00    -0.353 OA
HETATM   32  H1  UNL     1      -1.977  -3.695  -1.379  1.00  0.00     0.214 HD
ENDBRANCH   1  31
TORSDOF 3
