REMARK  8 active torsions:
REMARK  status: ('A' for Active; 'I' for Inactive)
REMARK    1  A    between atoms: C2_2  and  O1_3 
REMARK    2  A    between atoms: O1_3  and  C3_4 
REMARK    3  A    between atoms: N1_7  and  C6_8 
REMARK    4  A    between atoms: C11_15  and  N3_16 
REMARK    5  A    between atoms: N3_16  and  C12_17 
REMARK    6  A    between atoms: C12_17  and  C14_19 
REMARK    7  A    between atoms: C15_20  and  C16_21 
REMARK    8  A    between atoms: C21_26  and  N4_27 
ROOT
HETATM    1  C6  UNL     1       5.382   1.687  -2.269  1.00  0.00     0.128 C 
HETATM    2  C7  UNL     1       6.189   2.149  -1.328  1.00  0.00     0.112 C 
HETATM    3  C8  UNL     1       5.567   2.759  -0.208  1.00  0.00     0.089 C 
HETATM    4  N2  UNL     1       5.037   3.258   0.715  1.00  0.00    -0.192 NA
ENDROOT
BRANCH   1   5
HETATM    5  N1  UNL     1       3.992   1.810  -2.136  1.00  0.00    -0.256 NA
HETATM    6  C5  UNL     1       3.237   1.006  -1.466  1.00  0.00     0.109 A 
HETATM    7  C4  UNL     1       3.728  -0.159  -0.742  1.00  0.00     0.075 A 
HETATM    8  C9  UNL     1       1.804   1.278  -1.429  1.00  0.00     0.202 A 
HETATM    9  C3  UNL     1       2.878  -0.928  -0.082  1.00  0.00     0.097 A 
HETATM   10  C11 UNL     1       1.417  -0.702  -0.009  1.00  0.00     0.066 A 
HETATM   11  C10 UNL     1       0.973   0.355  -0.666  1.00  0.00     0.089 A 
HETATM   12  O2  UNL     1       1.295   2.276  -2.035  1.00  0.00    -0.286 OA
BRANCH   9  13
HETATM   13  O1  UNL     1       3.365  -2.051   0.614  1.00  0.00    -0.349 OA
BRANCH  13  14
HETATM   14  C2  UNL     1       3.629  -3.283  -0.029  1.00  0.00     0.171 C 
HETATM   15  C1  UNL     1       4.131  -4.223   1.054  1.00  0.00     0.034 C 
ENDBRANCH  13  14
ENDBRANCH   9  13
BRANCH  10  16
HETATM   16  N3  UNL     1       0.573  -1.581   0.727  1.00  0.00    -0.380 N 
HETATM   17  H10 UNL     1       0.903  -2.587   0.661  1.00  0.00     0.160 HD
BRANCH  16  18
HETATM   18  C12 UNL     1      -0.591  -1.257   1.490  1.00  0.00     0.100 C 
HETATM   19  C13 UNL     1      -1.150  -2.537   2.121  1.00  0.00     0.036 C 
BRANCH  18  20
HETATM   20  C14 UNL     1      -1.704  -0.731   0.646  1.00  0.00    -0.001 C 
HETATM   21  C15 UNL     1      -2.558   0.241   0.791  1.00  0.00     0.012 C 
BRANCH  21  22
HETATM   22  C16 UNL     1      -3.608   0.650  -0.129  1.00  0.00    -0.010 A 
HETATM   23  C17 UNL     1      -3.766  -0.038  -1.311  1.00  0.00     0.013 A 
HETATM   24  C18 UNL     1      -4.735   0.311  -2.200  1.00  0.00     0.001 A 
HETATM   25  C19 UNL     1      -5.580   1.381  -1.909  1.00  0.00     0.002 A 
HETATM   26  C20 UNL     1      -5.377   2.031  -0.715  1.00  0.00     0.030 A 
HETATM   27  C21 UNL     1      -4.399   1.716   0.234  1.00  0.00     0.037 A 
BRANCH  27  28
HETATM   28  N4  UNL     1      -4.292   2.468   1.431  1.00  0.00    -0.394 N 
HETATM   29  C22 UNL     1      -5.219   3.567   1.649  1.00  0.00     0.146 C 
HETATM   30  H21 UNL     1      -3.568   2.233   2.130  1.00  0.00     0.159 HD
ENDBRANCH  27  28
ENDBRANCH  21  22
ENDBRANCH  18  20
ENDBRANCH  16  18
ENDBRANCH  10  16
ENDBRANCH   1   5
TORSDOF 8
