REMARK  5 active torsions:
REMARK  status: ('A' for Active; 'I' for Inactive)
REMARK    1  A    between atoms: O1_2  and  C2_3 
REMARK    2  A    between atoms: C5_6  and  N1_7 
REMARK    3  A    between atoms: C9_12  and  N3_13 
REMARK    4  A    between atoms: N5_21  and  C16_22 
REMARK    5  A    between atoms: C19_25  and  O2_26 
ROOT
HETATM    1  N1  UNL     1      -2.218  -0.384  -0.057  1.00  0.00    -0.295 N 
HETATM    2  C6  UNL     1      -1.476  -1.578   0.305  1.00  0.00     0.178 A 
HETATM    3  C7  UNL     1      -0.039  -1.295   0.302  1.00  0.00     0.025 A 
HETATM    4  C8  UNL     1       0.680  -2.444   0.655  1.00  0.00     0.149 A 
HETATM    5  N2  UNL     1       2.044  -2.433   0.722  1.00  0.00    -0.074 NA
HETATM    6  C9  UNL     1       2.711  -1.275   0.439  1.00  0.00     0.730 A 
HETATM    7  N4  UNL     1       2.040  -0.161   0.098  1.00  0.00    -0.044 NA
HETATM    8  C15 UNL     1       0.723  -0.184   0.036  1.00  0.00     0.162 A 
HETATM    9  N5  UNL     1      -0.089   0.955  -0.317  1.00  0.00    -0.278 N 
HETATM   10  C21 UNL     1      -1.503   0.791  -0.343  1.00  0.00     0.331 A 
HETATM   11  O3  UNL     1      -2.069   1.836  -0.658  1.00  0.00    -0.246 OA
ENDROOT
BRANCH   1  12
HETATM   12  C5  UNL     1      -3.614  -0.497  -0.093  1.00  0.00     0.039 A 
HETATM   13  C4  UNL     1      -4.554   0.440  -0.394  1.00  0.00     0.032 A 
HETATM   14  C3  UNL     1      -5.902   0.274  -0.414  1.00  0.00     0.039 A 
HETATM   15  C2  UNL     1      -6.432  -0.961  -0.103  1.00  0.00     0.068 A 
HETATM   16  C23 UNL     1      -5.571  -1.981   0.217  1.00  0.00     0.039 A 
HETATM   17  C22 UNL     1      -4.218  -1.726   0.212  1.00  0.00     0.032 A 
BRANCH  15  18
HETATM   18  O1  UNL     1      -7.782  -1.212  -0.100  1.00  0.00    -0.356 OA
HETATM   19  C1  UNL     1      -8.379  -2.452   0.209  1.00  0.00     0.210 C 
ENDBRANCH  15  18
ENDBRANCH   1  12
BRANCH   9  20
HETATM   20  C16 UNL     1       0.597   2.177  -0.618  1.00  0.00     0.099 C 
HETATM   21  C17 UNL     1       1.551   2.164  -1.750  1.00  0.00     0.028 C 
HETATM   22  C18 UNL     1       2.085   3.602  -1.652  1.00  0.00     0.034 C 
HETATM   23  C19 UNL     1       2.113   3.893  -0.156  1.00  0.00     0.120 C 
HETATM   24  C20 UNL     1       1.389   2.740   0.519  1.00  0.00     0.057 C 
BRANCH  23  25
HETATM   25  O2  UNL     1       3.415   4.021   0.310  1.00  0.00    -0.396 OA
HETATM   26  H21 UNL     1       3.439   4.817   0.872  1.00  0.00     0.210 HD
ENDBRANCH  23  25
ENDBRANCH   9  20
BRANCH   6  27
HETATM   27  N3  UNL     1       4.132  -1.158   0.479  1.00  0.00    -0.186 N 
HETATM   28  C10 UNL     1       4.836   0.051   0.183  1.00  0.00     0.109 A 
HETATM   29  C11 UNL     1       6.145   0.117   0.232  1.00  0.00     0.018 A 
HETATM   30  C12 UNL     1       6.968  -1.032   0.591  1.00  0.00    -0.001 A 
HETATM   31  C13 UNL     1       6.323  -2.152   0.866  1.00  0.00    -0.006 A 
HETATM   32  C14 UNL     1       4.860  -2.356   0.847  1.00  0.00     0.174 A 
ENDBRANCH   6  27
TORSDOF 5
