REMARK  6 active torsions:
REMARK  status: ('A' for Active; 'I' for Inactive)
REMARK    1  A    between atoms: C4_6  and  C5_7 
REMARK    2  A    between atoms: C7_10  and  N3_11 
REMARK    3  A    between atoms: N3_11  and  C8_12 
REMARK    4  A    between atoms: C11_15  and  O1_16 
REMARK    5  A    between atoms: O1_16  and  C12_17 
REMARK    6  A    between atoms: C12_17  and  C13_18 
ROOT
HETATM    1  N1  UNL     1      -4.815   2.198   3.406  1.00  0.00    -0.192 NA
HETATM    2  C1  UNL     1      -4.875   1.659   2.359  1.00  0.00     0.099 C 
HETATM    3  C2  UNL     1      -4.974   0.987   1.068  1.00  0.00     0.064 A 
HETATM    4  C3  UNL     1      -6.173   0.511   0.772  1.00  0.00     0.108 A 
HETATM    5  N2  UNL     1      -6.270  -0.145  -0.488  1.00  0.00    -0.366 N 
HETATM    6  C4  UNL     1      -5.127  -0.253  -1.329  1.00  0.00     0.036 A 
HETATM    7  C6  UNL     1      -3.956   0.249  -0.963  1.00  0.00     0.031 A 
HETATM    8  C7  UNL     1      -3.702   0.965   0.329  1.00  0.00     0.152 A 
HETATM    9  H2  UNL     1      -7.202  -0.519  -0.727  1.00  0.00     0.165 HD
ENDROOT
BRANCH   8  10
HETATM   10  N3  UNL     1      -2.622   0.367   1.070  1.00  0.00    -0.377 N 
HETATM   11  H7  UNL     1      -2.915  -0.038   2.010  1.00  0.00     0.160 HD
BRANCH  10  12
HETATM   12  C8  UNL     1      -1.214   0.195   0.817  1.00  0.00     0.030 A 
HETATM   13  C9  UNL     1      -0.351  -0.453   1.697  1.00  0.00     0.032 A 
HETATM   14  C10 UNL     1       0.959  -0.515   1.296  1.00  0.00     0.041 A 
HETATM   15  C11 UNL     1       1.465  -0.005   0.135  1.00  0.00     0.091 A 
HETATM   16  C19 UNL     1       0.601   0.629  -0.716  1.00  0.00     0.069 A 
HETATM   17 CL2  UNL     1       1.285   1.273  -2.200  1.00  0.00    -0.081 Cl
HETATM   18  C20 UNL     1      -0.743   0.726  -0.369  1.00  0.00     0.056 A 
BRANCH  15  19
HETATM   19  O1  UNL     1       2.812  -0.152  -0.120  1.00  0.00    -0.345 OA
BRANCH  19  20
HETATM   20  C12 UNL     1       3.682  -0.821   0.795  1.00  0.00     0.214 C 
BRANCH  20  21
HETATM   21  C13 UNL     1       5.075  -0.838   0.277  1.00  0.00    -0.034 A 
HETATM   22  C14 UNL     1       5.968   0.176   0.567  1.00  0.00     0.011 A 
HETATM   23  C15 UNL     1       7.271   0.186   0.098  1.00  0.00     0.024 A 
HETATM   24  C16 UNL     1       7.718  -0.864  -0.703  1.00  0.00     0.034 A 
HETATM   25 CL1  UNL     1       9.370  -0.844  -1.293  1.00  0.00    -0.084 Cl
HETATM   26  C17 UNL     1       6.834  -1.879  -0.997  1.00  0.00     0.024 A 
HETATM   27  C18 UNL     1       5.547  -1.880  -0.529  1.00  0.00     0.011 A 
ENDBRANCH  20  21
ENDBRANCH  19  20
ENDBRANCH  15  19
ENDBRANCH  10  12
ENDBRANCH   8  10
BRANCH   6  28
HETATM   28  C5  UNL     1      -5.404  -0.966  -2.604  1.00  0.00     0.278 C 
HETATM   29  F1  UNL     1      -6.390  -0.257  -3.291  1.00  0.00    -0.249 F 
ENDBRANCH   6  28
TORSDOF 6
