REMARK  6 active torsions:
REMARK  status: ('A' for Active; 'I' for Inactive)
REMARK    1  A    between atoms: O1_2  and  C2_3 
REMARK    2  A    between atoms: C5_6  and  N1_7 
REMARK    3  A    between atoms: C9_12  and  N3_13 
REMARK    4  A    between atoms: N3_13  and  C10_14 
REMARK    5  A    between atoms: N5_23  and  C16_24 
REMARK    6  A    between atoms: C19_27  and  O2_28 
ROOT
HETATM    1  N1  UNL     1      -1.618  -0.656   0.181  1.00  0.00    -0.295 N 
HETATM    2  C6  UNL     1      -0.907  -1.880  -0.105  1.00  0.00     0.178 A 
HETATM    3  C7  UNL     1       0.431  -1.598  -0.609  1.00  0.00     0.025 A 
HETATM    4  C8  UNL     1       1.127  -2.778  -0.881  1.00  0.00     0.149 A 
HETATM    5  N2  UNL     1       2.392  -2.763  -1.362  1.00  0.00    -0.075 NA
HETATM    6  C9  UNL     1       3.018  -1.576  -1.593  1.00  0.00     0.724 A 
HETATM    7  N4  UNL     1       2.368  -0.427  -1.339  1.00  0.00    -0.044 NA
HETATM    8  C15 UNL     1       1.115  -0.440  -0.863  1.00  0.00     0.162 A 
HETATM    9  N5  UNL     1       0.351   0.741  -0.563  1.00  0.00    -0.278 N 
HETATM   10  C21 UNL     1      -0.961   0.570  -0.063  1.00  0.00     0.331 A 
HETATM   11  O3  UNL     1      -1.529   1.661   0.162  1.00  0.00    -0.246 OA
ENDROOT
BRANCH   6  12
HETATM   12  N3  UNL     1       4.340  -1.429  -2.096  1.00  0.00    -0.224 N 
HETATM   13  H9  UNL     1       4.481  -1.364  -3.137  1.00  0.00     0.177 HD
BRANCH  12  14
HETATM   14  C10 UNL     1       5.411  -1.375  -1.149  1.00  0.00     0.076 C 
HETATM   15  B1  UNL     1       5.098   0.034  -0.092  1.00  0.00     0.221 B 
HETATM   16  C11 UNL     1       5.689  -0.355   1.625  1.00  0.00    -0.068 C 
HETATM   17  C12 UNL     1       6.220  -1.557   1.775  1.00  0.00     0.110 C 
HETATM   18  F1  UNL     1       7.263  -1.757   2.644  1.00  0.00    -0.207 F 
HETATM   19  C13 UNL     1       5.685  -2.671   1.006  1.00  0.00     0.039 C 
HETATM   20  C14 UNL     1       5.341  -2.564  -0.263  1.00  0.00    -0.009 C 
ENDBRANCH  12  14
ENDBRANCH   6  12
BRANCH   9  21
HETATM   21  C16 UNL     1       0.985   2.017  -0.802  1.00  0.00     0.099 C 
HETATM   22  C17 UNL     1       0.974   2.883   0.413  1.00  0.00     0.028 C 
HETATM   23  C18 UNL     1       0.378   4.203  -0.014  1.00  0.00     0.034 C 
HETATM   24  C19 UNL     1       0.440   4.217  -1.506  1.00  0.00     0.120 C 
HETATM   25  C20 UNL     1       0.246   2.769  -1.878  1.00  0.00     0.057 C 
BRANCH  24  26
HETATM   26  O2  UNL     1       1.646   4.718  -1.994  1.00  0.00    -0.396 OA
HETATM   27  H19 UNL     1       1.469   5.035  -2.915  1.00  0.00     0.210 HD
ENDBRANCH  24  26
ENDBRANCH   9  21
BRANCH   1  28
HETATM   28  C5  UNL     1      -2.932  -0.782   0.687  1.00  0.00     0.039 A 
HETATM   29  C4  UNL     1      -3.465  -2.053   0.889  1.00  0.00     0.032 A 
HETATM   30  C3  UNL     1      -4.718  -2.323   1.371  1.00  0.00     0.039 A 
HETATM   31  C2  UNL     1      -5.549  -1.277   1.695  1.00  0.00     0.068 A 
HETATM   32  C23 UNL     1      -5.095   0.010   1.524  1.00  0.00     0.039 A 
HETATM   33  C22 UNL     1      -3.825   0.185   1.035  1.00  0.00     0.032 A 
BRANCH  31  34
HETATM   34  O1  UNL     1      -6.817  -1.552   2.182  1.00  0.00    -0.356 OA
HETATM   35  C1  UNL     1      -7.655  -0.459   2.509  1.00  0.00     0.210 C 
ENDBRANCH  31  34
ENDBRANCH   1  28
TORSDOF 6
