REMARK  6 active torsions:
REMARK  status: ('A' for Active; 'I' for Inactive)
REMARK    1  A    between atoms: O1_2  and  C2_3 
REMARK    2  A    between atoms: C6_8  and  N2_9 
REMARK    3  A    between atoms: N2_9  and  C7_10 
REMARK    4  A    between atoms: C15_20  and  C16_21 
REMARK    5  A    between atoms: C16_21  and  N3_22 
REMARK    6  A    between atoms: C18_24  and  C19_25 
REMARK       I    between atoms: C19_25  and  N4_26 
ROOT
HETATM    1  C2  UNL     1       0.855  -2.356   0.367  1.00  0.00     0.077 C 
HETATM    2  C3  UNL     1      -0.135  -2.917   1.057  1.00  0.00     0.065 C 
HETATM    3  C4  UNL     1      -1.429  -2.434   0.613  1.00  0.00     0.050 C 
HETATM    4  N1  UNL     1      -2.636  -2.858   0.797  1.00  0.00    -0.262 NA
HETATM    5  C5  UNL     1      -3.584  -2.040   0.121  1.00  0.00     0.143 C 
HETATM    6  C6  UNL     1      -2.934  -1.055  -0.524  1.00  0.00     0.041 C 
HETATM    7  C13 UNL     1      -1.566  -1.206  -0.145  1.00  0.00     0.112 C 
HETATM    8  C14 UNL     1      -0.443  -0.730  -0.934  1.00  0.00     0.002 C 
HETATM    9  C15 UNL     1       0.737  -1.305  -0.634  1.00  0.00     0.001 C 
ENDROOT
BRANCH   6  10
HETATM   10  N2  UNL     1      -3.331   0.026  -1.347  1.00  0.00    -0.355 N 
HETATM   11  H6  UNL     1      -3.081  -0.072  -2.356  1.00  0.00     0.166 HD
BRANCH  10  12
HETATM   12  C7  UNL     1      -4.019   1.191  -0.916  1.00  0.00     0.073 A 
HETATM   13  C8  UNL     1      -4.358   2.192  -1.826  1.00  0.00     0.033 A 
HETATM   14  C9  UNL     1      -5.025   3.312  -1.384  1.00  0.00     0.004 A 
HETATM   15  C10 UNL     1      -5.390   3.517  -0.073  1.00  0.00     0.027 A 
HETATM   16  C11 UNL     1      -5.037   2.497   0.814  1.00  0.00     0.074 A 
HETATM   17 CL1  UNL     1      -5.482   2.709   2.511  1.00  0.00    -0.081 Cl
HETATM   18  C12 UNL     1      -4.368   1.366   0.390  1.00  0.00     0.164 A 
HETATM   19  F1  UNL     1      -4.081   0.445   1.348  1.00  0.00    -0.202 F 
ENDBRANCH  10  12
ENDBRANCH   6  10
BRANCH   9  20
HETATM   20  C16 UNL     1       1.923  -0.806  -1.389  1.00  0.00     0.313 C 
BRANCH  20  21
HETATM   21  N3  UNL     1       2.864  -0.273  -0.411  1.00  0.00     0.094 N 
HETATM   22  C17 UNL     1       4.086   0.264  -0.926  1.00  0.00     0.288 A 
HETATM   23  C18 UNL     1       3.756   1.573  -0.237  1.00  0.00     0.134 A 
HETATM   24  C20 UNL     1       2.452   0.960   0.201  1.00  0.00     0.288 A 
BRANCH  23  25
HETATM   25  C19 UNL     1       4.635   1.900   0.917  1.00  0.00     0.223 C 
HETATM   26  N4  UNL     1       6.002   2.019   0.601  1.00  0.00    -0.370 N 
HETATM   27  H17 UNL     1       7.017   2.091   0.399  1.00  0.00     0.159 HD
HETATM   28  H18 UNL     1       6.787   2.314  -0.016  1.00  0.00     0.159 HD
HETATM   29  O2  UNL     1       4.675   2.132   2.150  1.00  0.00    -0.273 OA
ENDBRANCH  23  25
ENDBRANCH  20  21
ENDBRANCH   9  20
BRANCH   1  30
HETATM   30  O1  UNL     1       2.180  -2.748   0.635  1.00  0.00    -0.355 OA
HETATM   31  C1  UNL     1       2.498  -4.062   0.149  1.00  0.00     0.210 C 
ENDBRANCH   1  30
TORSDOF 6
