REMARK  8 active torsions:
REMARK  status: ('A' for Active; 'I' for Inactive)
REMARK    1  A    between atoms: C2_2  and  N1_3 
REMARK    2  A    between atoms: N1_3  and  C4_5 
REMARK    3  A    between atoms: C4_5  and  C5_6 
REMARK    4  A    between atoms: C6_7  and  C7_8 
REMARK       I    between atoms: C7_8  and  N2_10 
REMARK    5  A    between atoms: N2_10  and  C8_11 
REMARK    6  A    between atoms: C11_14  and  N3_15 
REMARK    7  A    between atoms: N3_15  and  C12_16 
REMARK    8  A    between atoms: C13_17  and  O2_18 
ROOT
HETATM    1  C8  UNL     1       0.257   0.340  -1.277  1.00  0.00     0.099 C 
HETATM    2  C9  UNL     1       1.558   0.497  -1.222  1.00  0.00    -0.028 A 
HETATM    3  C10 UNL     1       2.375  -0.262  -0.241  1.00  0.00     0.119 A 
HETATM    4  C11 UNL     1       3.825   0.115  -0.402  1.00  0.00     0.107 A 
HETATM    5  N4  UNL     1       4.304   0.951  -1.240  1.00  0.00    -0.247 NA
HETATM    6  C15 UNL     1       3.482   1.668  -2.174  1.00  0.00     0.126 A 
HETATM    7  C16 UNL     1       2.161   1.445  -2.160  1.00  0.00    -0.036 A 
HETATM    8  C17 UNL     1       1.298   2.192  -3.132  1.00  0.00     0.050 C 
ENDROOT
BRANCH   1   9
HETATM    9  N2  UNL     1      -0.501  -0.531  -0.451  1.00  0.00    -0.333 N 
HETATM   10  C7  UNL     1      -1.887  -0.740  -0.465  1.00  0.00     0.244 C 
HETATM   11  O1  UNL     1      -2.527  -0.065  -1.322  1.00  0.00    -0.268 OA
HETATM   12  H13 UNL     1       0.053  -1.077   0.247  1.00  0.00     0.168 HD
BRANCH  10  13
HETATM   13  C6  UNL     1      -2.520  -1.674   0.455  1.00  0.00     0.072 C 
HETATM   14  C5  UNL     1      -3.808  -1.909   0.489  1.00  0.00    -0.002 C 
BRANCH  14  15
HETATM   15  C4  UNL     1      -5.016  -1.460  -0.216  1.00  0.00     0.144 C 
BRANCH  15  16
HETATM   16  N1  UNL     1      -5.963  -0.862   0.658  1.00  0.00    -0.414 N 
HETATM   17  C3  UNL     1      -7.337  -1.048   0.371  1.00  0.00     0.143 C 
BRANCH  16  18
HETATM   18  C2  UNL     1      -5.628   0.387   1.235  1.00  0.00     0.112 C 
HETATM   19  C1  UNL     1      -6.192   0.486   2.652  1.00  0.00     0.026 C 
ENDBRANCH  16  18
ENDBRANCH  15  16
ENDBRANCH  14  15
ENDBRANCH  10  13
ENDBRANCH   1   9
BRANCH   4  20
HETATM   20  N3  UNL     1       4.739  -0.529   0.470  1.00  0.00    -0.352 N 
HETATM   21  H17 UNL     1       4.447  -1.175   1.224  1.00  0.00     0.166 HD
BRANCH  20  22
HETATM   22  C12 UNL     1       6.135  -0.349   0.393  1.00  0.00     0.113 C 
HETATM   23  C13 UNL     1       6.961   0.400   1.106  1.00  0.00     0.151 C 
BRANCH  23  24
HETATM   24  O2  UNL     1       8.321   0.394   0.817  1.00  0.00    -0.366 OA
HETATM   25  C14 UNL     1       9.035  -0.770   1.205  1.00  0.00     0.209 C 
ENDBRANCH  23  24
ENDBRANCH  20  22
ENDBRANCH   4  20
TORSDOF 8
