REMARK  5 active torsions:
REMARK  status: ('A' for Active; 'I' for Inactive)
REMARK    1  A    between atoms: C2_2  and  C3_3 
REMARK    2  A    between atoms: C4_4  and  C5_5 
REMARK    3  A    between atoms: C5_5  and  C6_6 
REMARK    4  A    between atoms: C6_6  and  N1_7 
REMARK    5  A    between atoms: N1_7  and  C7_8 
ROOT
HETATM    1  C7  UNL     1       2.026   1.282  -0.603  1.00  0.00     0.141 C 
HETATM    2  C8  UNL     1       3.225   1.889  -1.254  1.00  0.00     0.023 C 
HETATM    3  C9  UNL     1       3.439   1.646  -2.543  1.00  0.00     0.045 C 
HETATM    4  C10 UNL     1       4.651   2.325  -2.986  1.00  0.00     0.097 C 
HETATM    5  N2  UNL     1       5.621   2.849  -3.348  1.00  0.00    -0.192 NA
HETATM    6  C11 UNL     1       2.727   0.861  -3.579  1.00  0.00     0.225 C 
HETATM    7  O1  UNL     1       2.130  -0.327  -3.090  1.00  0.00    -0.345 OA
HETATM    8  C12 UNL     1       2.210  -0.863  -1.785  1.00  0.00     0.077 C 
HETATM    9  C13 UNL     1       2.169  -0.179  -0.641  1.00  0.00     0.002 C 
HETATM   10  C14 UNL     1       2.262  -0.557   0.739  1.00  0.00     0.012 C 
HETATM   11  C15 UNL     1       1.992  -1.659   1.419  1.00  0.00     0.001 C 
HETATM   12  C16 UNL     1       1.473  -2.990   1.034  1.00  0.00     0.000 C 
HETATM   13  C17 UNL     1       1.494  -3.660  -0.128  1.00  0.00     0.000 C 
HETATM   14  C18 UNL     1       2.027  -3.354  -1.450  1.00  0.00     0.003 C 
HETATM   15  C19 UNL     1       2.335  -2.275  -2.171  1.00  0.00     0.037 C 
ENDROOT
BRANCH   1  16
HETATM   16  N1  UNL     1       1.714   1.856   0.668  1.00  0.00    -0.387 N 
HETATM   17  H8  UNL     1       2.207   2.582   1.230  1.00  0.00     0.159 HD
BRANCH  16  18
HETATM   18  C6  UNL     1       0.519   1.405   1.345  1.00  0.00     0.085 C 
BRANCH  18  19
HETATM   19  C5  UNL     1      -0.758   1.144   1.397  1.00  0.00     0.031 C 
BRANCH  19  20
HETATM   20  C4  UNL     1      -2.125   0.805   1.633  1.00  0.00     0.012 C 
HETATM   21  C3  UNL     1      -2.978   0.965   0.633  1.00  0.00     0.045 C 
HETATM   22  N5  UNL     1      -4.396   0.657   0.612  1.00  0.00    -0.263 NA
HETATM   23  C24 UNL     1      -5.100  -0.236   1.272  1.00  0.00     0.136 C 
HETATM   24  C23 UNL     1      -4.859  -1.282   2.273  1.00  0.00     0.135 C 
HETATM   25  N4  UNL     1      -4.017  -1.428   3.254  1.00  0.00    -0.270 NA
HETATM   26  C22 UNL     1      -2.972  -0.531   3.698  1.00  0.00     0.139 C 
HETATM   27  C20 UNL     1      -2.220   0.366   3.020  1.00  0.00     0.074 C 
HETATM   28  C21 UNL     1      -1.336   1.051   3.919  1.00  0.00     0.102 C 
HETATM   29  N3  UNL     1      -0.637   1.609   4.658  1.00  0.00    -0.191 NA
BRANCH  21  30
HETATM   30  C2  UNL     1      -2.737   1.460  -0.732  1.00  0.00     0.056 C 
HETATM   31  C1  UNL     1      -3.127   0.345  -1.707  1.00  0.00     0.011 C 
ENDBRANCH  21  30
ENDBRANCH  19  20
ENDBRANCH  18  19
ENDBRANCH  16  18
ENDBRANCH   1  16
TORSDOF 5
