REMARK  6 active torsions:
REMARK  status: ('A' for Active; 'I' for Inactive)
REMARK    1  A    between atoms: C2_2  and  N1_3 
REMARK    2  A    between atoms: N1_3  and  C3_4 
REMARK    3  A    between atoms: C6_7  and  O1_8 
REMARK    4  A    between atoms: O1_8  and  C7_9 
REMARK    5  A    between atoms: C7_9  and  C8_10 
REMARK    6  A    between atoms: C14_17  and  N2_18 
ROOT
HETATM    1  C3  UNL     1      -2.755  -0.051   0.661  1.00  0.00     0.030 A 
HETATM    2  C4  UNL     1      -2.231  -0.324  -0.586  1.00  0.00     0.032 A 
HETATM    3  C5  UNL     1      -0.873  -0.223  -0.804  1.00  0.00     0.041 A 
HETATM    4  C6  UNL     1       0.002   0.148   0.198  1.00  0.00     0.096 A 
HETATM    5  C14 UNL     1      -0.572   0.413   1.436  1.00  0.00     0.078 A 
HETATM    6  C15 UNL     1      -1.921   0.323   1.691  1.00  0.00     0.062 A 
ENDROOT
BRANCH   4   7
HETATM    7  O1  UNL     1       1.378   0.274   0.066  1.00  0.00    -0.344 OA
BRANCH   7   8
HETATM    8  C7  UNL     1       2.015   0.021  -1.153  1.00  0.00     0.214 C 
BRANCH   8   9
HETATM    9  C8  UNL     1       3.486   0.229  -1.021  1.00  0.00    -0.034 A 
HETATM   10  C9  UNL     1       4.166   1.391  -1.230  1.00  0.00     0.012 A 
HETATM   11  C10 UNL     1       5.535   1.473  -1.079  1.00  0.00     0.043 A 
HETATM   12  C11 UNL     1       6.196   0.302  -0.699  1.00  0.00     0.116 A 
HETATM   13  F1  UNL     1       7.548   0.361  -0.544  1.00  0.00    -0.206 F 
HETATM   14  C12 UNL     1       5.553  -0.910  -0.473  1.00  0.00     0.043 A 
HETATM   15  C13 UNL     1       4.186  -0.916  -0.643  1.00  0.00     0.012 A 
ENDBRANCH   8   9
ENDBRANCH   7   8
ENDBRANCH   4   7
BRANCH   5  16
HETATM   16  N2  UNL     1       0.280   0.800   2.506  1.00  0.00    -0.296 N 
HETATM   17 CL1  UNL     1      -0.114   1.194   4.148  1.00  0.00     0.011 Cl
HETATM   18  H15 UNL     1       1.308   0.890   2.391  1.00  0.00     0.180 HD
ENDBRANCH   5  16
BRANCH   1  19
HETATM   19  N1  UNL     1      -4.148  -0.150   0.900  1.00  0.00    -0.390 N 
HETATM   20  H6  UNL     1      -4.553   0.050   1.824  1.00  0.00     0.159 HD
BRANCH  19  21
HETATM   21  C2  UNL     1      -5.053  -0.545  -0.177  1.00  0.00     0.115 C 
HETATM   22  C1  UNL     1      -6.482  -0.588   0.290  1.00  0.00     0.026 C 
ENDBRANCH  19  21
ENDBRANCH   1  19
TORSDOF 6
