REMARK  6 active torsions:
REMARK  status: ('A' for Active; 'I' for Inactive)
REMARK    1  A    between atoms: C2_2  and  O1_3 
REMARK    2  A    between atoms: O1_3  and  C3_4 
REMARK    3  A    between atoms: C12_15  and  N3_16 
REMARK       I    between atoms: N3_16  and  C13_17 
REMARK    4  A    between atoms: C13_17  and  C14_19 
REMARK    5  A    between atoms: C15_20  and  C16_21 
REMARK    6  A    between atoms: C16_21  and  N4_22 
ROOT
HETATM    1  C3  UNL     1      -1.916  -0.482   0.519  1.00  0.00     0.097 A 
HETATM    2  C4  UNL     1      -3.286  -0.567   0.390  1.00  0.00     0.071 A 
HETATM    3  C5  UNL     1      -4.031   0.423  -0.217  1.00  0.00     0.069 A 
HETATM    4  N1  UNL     1      -5.345   0.236  -0.287  1.00  0.00    -0.259 NA
HETATM    5  C6  UNL     1      -6.124   1.165  -0.867  1.00  0.00     0.140 A 
HETATM    6  C7  UNL     1      -5.526   2.294  -1.377  1.00  0.00     0.063 A 
HETATM    7  C8  UNL     1      -6.383   3.263  -1.985  1.00  0.00     0.101 C 
HETATM    8  N2  UNL     1      -7.088   4.054  -2.462  1.00  0.00    -0.191 NA
HETATM    9  C9  UNL     1      -4.159   2.482  -1.301  1.00  0.00     0.038 A 
HETATM   10  C10 UNL     1      -3.348   1.516  -0.698  1.00  0.00    -0.004 A 
HETATM   11  C11 UNL     1      -1.988   1.630  -0.585  1.00  0.00     0.046 A 
HETATM   12  C12 UNL     1      -1.241   0.629   0.029  1.00  0.00     0.069 A 
ENDROOT
BRANCH  12  13
HETATM   13  N3  UNL     1       0.191   0.775   0.134  1.00  0.00    -0.321 N 
HETATM   14  C13 UNL     1       0.869   0.230  -0.983  1.00  0.00     0.245 C 
HETATM   15  O2  UNL     1       0.247  -0.303  -1.924  1.00  0.00    -0.268 OA
HETATM   16  H10 UNL     1       0.729   1.223   0.919  1.00  0.00     0.169 HD
BRANCH  14  17
HETATM   17  C14 UNL     1       2.313   0.253  -1.108  1.00  0.00     0.072 C 
HETATM   18  C15 UNL     1       3.256   0.726  -0.315  1.00  0.00     0.008 C 
BRANCH  18  19
HETATM   19  C16 UNL     1       4.738   0.788  -0.374  1.00  0.00     0.299 C 
BRANCH  19  20
HETATM   20  N4  UNL     1       5.325   0.082   0.750  1.00  0.00     0.083 N 
HETATM   21  C17 UNL     1       5.100  -1.335   0.652  1.00  0.00     0.309 C 
HETATM   22  C18 UNL     1       6.696   0.424   0.971  1.00  0.00     0.309 C 
ENDBRANCH  19  20
ENDBRANCH  18  19
ENDBRANCH  14  17
ENDBRANCH  12  13
BRANCH   1  23
HETATM   23  O1  UNL     1      -1.105  -1.436   1.117  1.00  0.00    -0.349 OA
BRANCH  23  24
HETATM   24  C2  UNL     1      -1.565  -2.641   1.680  1.00  0.00     0.171 C 
HETATM   25  C1  UNL     1      -2.268  -3.527   0.675  1.00  0.00     0.034 C 
ENDBRANCH  23  24
ENDBRANCH   1  23
TORSDOF 6
