REMARK  6 active torsions:
REMARK  status: ('A' for Active; 'I' for Inactive)
REMARK    1  A    between atoms: C2_2  and  O1_3 
REMARK    2  A    between atoms: O1_3  and  C3_4 
REMARK    3  A    between atoms: N3_13  and  C10_14 
REMARK    4  A    between atoms: C14_18  and  O2_19 
REMARK    5  A    between atoms: O2_19  and  C15_20 
REMARK    6  A    between atoms: C15_20  and  C16_21 
ROOT
HETATM    1  C3  UNL     1      -3.775  -0.666   0.098  1.00  0.00     0.049 C 
HETATM    2  C4  UNL     1      -4.358   0.600   0.185  1.00  0.00     0.051 C 
HETATM    3  C5  UNL     1      -5.056   1.938   0.306  1.00  0.00     0.113 C 
HETATM    4  N1  UNL     1      -4.671   3.217  -0.002  1.00  0.00    -0.292 NA
HETATM    5  C6  UNL     1      -3.311   3.229  -0.565  1.00  0.00     0.209 C 
HETATM    6  C7  UNL     1      -2.003   2.943  -0.298  1.00  0.00     0.065 C 
HETATM    7  C8  UNL     1      -1.495   3.321  -1.523  1.00  0.00    -0.011 C 
HETATM    8  N2  UNL     1      -1.010   3.654  -2.630  1.00  0.00    -0.101 N 
HETATM    9  C9  UNL     1      -0.899   2.497   0.631  1.00  0.00     0.144 C 
HETATM   10  N3  UNL     1      -0.497   1.152   0.148  1.00  0.00    -0.379 N 
HETATM   11  C22 UNL     1      -1.725   0.531   0.457  1.00  0.00     0.129 C 
HETATM   12  C23 UNL     1      -2.304  -0.595  -0.373  1.00  0.00     0.084 C 
ENDROOT
BRANCH  10  13
HETATM   13  C10 UNL     1       0.781   0.828  -0.350  1.00  0.00     0.032 A 
HETATM   14  C11 UNL     1       1.116  -0.463   0.070  1.00  0.00     0.039 A 
HETATM   15  C12 UNL     1       2.396  -0.967  -0.224  1.00  0.00    -0.025 A 
HETATM   16  C13 UNL     1       2.738  -2.332   0.238  1.00  0.00     0.051 C 
HETATM   17  C14 UNL     1       3.208  -0.094  -0.923  1.00  0.00     0.097 A 
HETATM   18  C20 UNL     1       2.855   1.156  -1.327  1.00  0.00     0.070 A 
HETATM   19 CL1  UNL     1       4.049   2.094  -2.193  1.00  0.00    -0.081 Cl
HETATM   20  C21 UNL     1       1.609   1.647  -1.042  1.00  0.00     0.056 A 
BRANCH  17  21
HETATM   21  O2  UNL     1       4.493  -0.732  -1.133  1.00  0.00    -0.344 OA
BRANCH  21  22
HETATM   22  C15 UNL     1       5.331  -0.394   0.005  1.00  0.00     0.214 C 
BRANCH  22  23
HETATM   23  C16 UNL     1       6.635  -1.026  -0.071  1.00  0.00    -0.034 A 
HETATM   24  C17 UNL     1       7.514  -1.797  -0.671  1.00  0.00     0.009 A 
HETATM   25  C18 UNL     1       8.469  -1.551   0.396  1.00  0.00     0.001 A 
HETATM   26  C19 UNL     1       7.607  -0.771   1.029  1.00  0.00     0.009 A 
ENDBRANCH  22  23
ENDBRANCH  21  22
ENDBRANCH  17  21
ENDBRANCH  10  13
BRANCH   1  27
HETATM   27  O1  UNL     1      -4.650  -1.586   0.455  1.00  0.00    -0.356 OA
BRANCH  27  28
HETATM   28  C2  UNL     1      -6.032  -1.391   0.510  1.00  0.00     0.170 C 
HETATM   29  C1  UNL     1      -6.767  -2.712   0.425  1.00  0.00     0.034 C 
ENDBRANCH  27  28
ENDBRANCH   1  27
TORSDOF 6
