REMARK  2 active torsions:
REMARK  status: ('A' for Active; 'I' for Inactive)
REMARK    1  A    between atoms: C2_2  and  O1_3 
REMARK    2  A    between atoms: O1_3  and  C3_4 
ROOT
HETATM    1  C3  UNL     1       2.975  -1.925   0.415  1.00  0.00     0.114 C 
HETATM    2  C4  UNL     1       2.273  -2.833  -0.377  1.00  0.00     0.040 C 
HETATM    3  C5  UNL     1       0.889  -2.665  -0.792  1.00  0.00     0.000 C 
HETATM    4  C6  UNL     1      -0.366  -2.312  -1.038  1.00  0.00    -0.011 C 
HETATM    5  C7  UNL     1      -1.467  -1.247  -0.734  1.00  0.00     0.021 A 
HETATM    6  C8  UNL     1      -2.487  -2.189  -0.272  1.00  0.00    -0.010 A 
HETATM    7  C9  UNL     1      -3.850  -2.049   0.231  1.00  0.00     0.001 A 
HETATM    8  C10 UNL     1      -3.481  -0.681  -0.029  1.00  0.00    -0.065 A 
HETATM    9  C11 UNL     1      -2.251  -0.354  -0.514  1.00  0.00     0.015 A 
HETATM   10  C12 UNL     1      -1.146   0.051  -0.960  1.00  0.00     0.015 A 
HETATM   11  C13 UNL     1      -1.688   1.425  -0.944  1.00  0.00    -0.068 C 
HETATM   12  C14 UNL     1      -2.706   2.046  -1.741  1.00  0.00     0.003 C 
HETATM   13  C15 UNL     1      -4.124   1.537  -1.953  1.00  0.00    -0.003 C 
HETATM   14  C16 UNL     1      -5.010   0.754  -1.276  1.00  0.00    -0.022 C 
HETATM   15  C17 UNL     1      -4.764   0.190   0.134  1.00  0.00     0.062 C 
HETATM   16  C18 UNL     1      -1.367   2.640  -0.073  1.00  0.00     0.040 C 
HETATM   17  C19 UNL     1      -0.166   3.189   0.557  1.00  0.00     0.056 C 
HETATM   18  C20 UNL     1       0.559   2.296   1.610  1.00  0.00     0.040 C 
HETATM   19  C21 UNL     1       0.136   2.259   2.952  1.00  0.00     0.096 C 
HETATM   20  N1  UNL     1      -0.208   2.211   4.047  1.00  0.00    -0.192 NA
HETATM   21  C22 UNL     1       1.601   1.474   1.625  1.00  0.00     0.137 C 
HETATM   22  N2  UNL     1       2.725   0.567   1.705  1.00  0.00    -0.240 NA
HETATM   23  C23 UNL     1       2.618  -0.559   1.001  1.00  0.00     0.157 C 
HETATM   24  N3  UNL     1       1.564  -0.253   0.005  1.00  0.00    -0.373 N 
HETATM   25  C24 UNL     1       0.306   0.294  -0.651  1.00  0.00     0.121 A 
HETATM   26  C25 UNL     1      -0.837  -0.251   0.059  1.00  0.00     0.049 A 
HETATM   27  H21 UNL     1       2.024  -0.636  -0.855  1.00  0.00     0.161 HD
ENDROOT
BRANCH   1  28
HETATM   28  O1  UNL     1       4.121  -1.625   1.028  1.00  0.00    -0.348 OA
BRANCH  28  29
HETATM   29  C2  UNL     1       5.344  -1.364   0.379  1.00  0.00     0.171 C 
HETATM   30  C1  UNL     1       6.470  -1.029   1.275  1.00  0.00     0.034 C 
ENDBRANCH  28  29
ENDBRANCH   1  28
TORSDOF 2
