REMARK  5 active torsions:
REMARK  status: ('A' for Active; 'I' for Inactive)
REMARK    1  A    between atoms: C1_2  and  C2_3 
REMARK    2  A    between atoms: C2_3  and  N1_4 
REMARK    3  A    between atoms: N1_4  and  C3_5 
REMARK    4  A    between atoms: C6_9  and  O1_10 
REMARK    5  A    between atoms: O1_10  and  C7_11 
ROOT
HETATM    1  C3  UNL     1       3.002   0.547   0.226  1.00  0.00     0.248 A 
HETATM    2  C4  UNL     1       2.063   0.850   1.342  1.00  0.00     0.035 A 
HETATM    3  C5  UNL     1       0.829   1.299   1.501  1.00  0.00     0.065 A 
HETATM    4 CL1  UNL     1      -0.022   1.557   2.984  1.00  0.00    -0.082 Cl
HETATM    5  C6  UNL     1       0.159   1.585   0.238  1.00  0.00     0.087 A 
HETATM    6  C16 UNL     1       0.892   1.346  -0.837  1.00  0.00     0.014 A 
HETATM    7  C17 UNL     1       2.293   0.835  -1.062  1.00  0.00     0.069 A 
ENDROOT
BRANCH   5   8
HETATM    8  O1  UNL     1      -1.115   2.059   0.105  1.00  0.00    -0.340 OA
BRANCH   8   9
HETATM    9  C7  UNL     1      -2.295   1.510   0.599  1.00  0.00     0.162 C 
HETATM   10  C8  UNL     1      -3.520   2.320   0.241  1.00  0.00     0.042 C 
HETATM   11  C9  UNL     1      -4.649   1.295   0.118  1.00  0.00     0.042 C 
HETATM   12  C10 UNL     1      -3.915   0.033  -0.219  1.00  0.00    -0.049 A 
HETATM   13  C11 UNL     1      -4.456  -1.138  -0.740  1.00  0.00     0.007 A 
HETATM   14  C15 UNL     1      -2.553   0.154   0.058  1.00  0.00    -0.023 A 
HETATM   15  C12 UNL     1      -3.658  -2.226  -1.002  1.00  0.00     0.001 A 
HETATM   16  C13 UNL     1      -2.327  -2.094  -0.727  1.00  0.00     0.001 A 
HETATM   17  C14 UNL     1      -1.770  -0.945  -0.210  1.00  0.00     0.010 A 
ENDBRANCH   8   9
ENDBRANCH   5   8
BRANCH   1  18
HETATM   18  N1  UNL     1       3.484  -0.792   0.278  1.00  0.00     0.094 N 
HETATM   19  H5  UNL     1       3.884  -1.047   1.208  1.00  0.00     0.316 HD
BRANCH  18  20
HETATM   20  C2  UNL     1       4.454  -1.092  -0.749  1.00  0.00     0.301 C 
BRANCH  20  21
HETATM   21  C1  UNL     1       4.918  -2.531  -0.615  1.00  0.00     0.252 C 
HETATM   22  F1  UNL     1       3.869  -3.410  -0.741  1.00  0.00    -0.254 F 
ENDBRANCH  20  21
ENDBRANCH  18  20
ENDBRANCH   1  18
TORSDOF 5
