REMARK  0 active torsions:
REMARK  status: ('A' for Active; 'I' for Inactive)
ROOT
HETATM    1  N1  UNL     1      -1.491  -4.381   0.663  1.00  0.00    -0.196 NA
HETATM    2  C1  UNL     1      -1.071  -3.438   0.128  1.00  0.00     0.075 C 
HETATM    3  C2  UNL     1      -0.533  -2.269  -0.523  1.00  0.00     0.160 C 
HETATM    4  C3  UNL     1       0.647  -1.673   0.203  1.00  0.00     0.058 C 
HETATM    5  C4  UNL     1       1.272  -0.579  -0.594  1.00  0.00     0.117 C 
HETATM    6  C5  UNL     1       2.506  -1.131  -1.246  1.00  0.00     0.236 C 
HETATM    7  O1  UNL     1       3.562  -1.353  -0.364  1.00  0.00    -0.234 OA
HETATM    8  O2  UNL     1       4.394  -0.279  -0.375  1.00  0.00    -0.209 OA
HETATM    9  C6  UNL     1       3.991   1.009  -0.082  1.00  0.00     0.193 C 
HETATM   10  C7  UNL     1       2.749   1.452   0.132  1.00  0.00     0.118 C 
HETATM   11  N2  UNL     1       1.551   0.644   0.096  1.00  0.00    -0.356 N 
HETATM   12  C8  UNL     1       0.508   1.221   0.906  1.00  0.00     0.110 C 
HETATM   13  C9  UNL     1      -0.294   1.529   1.909  1.00  0.00     0.133 C 
HETATM   14  N3  UNL     1      -1.321   2.483   1.612  1.00  0.00    -0.276 NA
HETATM   15  C10 UNL     1      -2.110   2.260   0.583  1.00  0.00     0.093 C 
HETATM   16  C11 UNL     1      -2.544   1.424  -0.580  1.00  0.00     0.074 C 
HETATM   17  C12 UNL     1      -3.789   0.711  -0.371  1.00  0.00    -0.009 C 
HETATM   18  C13 UNL     1      -3.785  -0.303   0.470  1.00  0.00    -0.023 C 
HETATM   19  C14 UNL     1      -2.579  -0.645   0.890  1.00  0.00     0.058 C 
HETATM   20  S1  UNL     1      -1.909  -1.096  -0.699  1.00  0.00    -0.121 SA
ENDROOT
TORSDOF 0
