REMARK  9 active torsions:
REMARK  status: ('A' for Active; 'I' for Inactive)
REMARK    1  A    between atoms: O1_2  and  N1_3 
REMARK    2  A    between atoms: N1_3  and  C2_4 
REMARK    3  A    between atoms: N1_3  and  C17_22 
REMARK    4  A    between atoms: C3_5  and  C4_6 
REMARK    5  A    between atoms: C4_6  and  C5_7 
REMARK    6  A    between atoms: C5_7  and  C6_8 
REMARK    7  A    between atoms: C7_9  and  N2_10 
REMARK    8  A    between atoms: C18_23  and  C19_24 
REMARK    9  A    between atoms: C19_24  and  N4_25 
ROOT
HETATM    1  C6  UNL     1      -2.404   0.737   0.163  1.00  0.00    -0.017 C 
HETATM    2  C7  UNL     1      -3.183   0.488  -0.914  1.00  0.00    -0.002 C 
HETATM    3  C8  UNL     1      -4.572   0.229  -1.318  1.00  0.00     0.094 C 
HETATM    4  C9  UNL     1      -5.347  -0.596  -0.379  1.00  0.00    -0.002 A 
HETATM    5  C10 UNL     1      -6.141  -1.396  -1.213  1.00  0.00     0.126 A 
HETATM    6  N3  UNL     1      -7.020  -2.317  -0.782  1.00  0.00    -0.272 NA
HETATM    7  C11 UNL     1      -7.210  -2.546   0.542  1.00  0.00     0.119 A 
HETATM    8  C12 UNL     1      -6.457  -1.789   1.445  1.00  0.00     0.057 A 
HETATM    9  C13 UNL     1      -5.552  -0.840   0.958  1.00  0.00     0.085 A 
HETATM   10  O2  UNL     1      -4.963  -0.256   2.067  1.00  0.00    -0.315 OA
HETATM   11  C14 UNL     1      -3.842   0.489   2.365  1.00  0.00     0.050 C 
HETATM   12  C15 UNL     1      -3.664   0.970   3.748  1.00  0.00     0.077 C 
HETATM   13  C16 UNL     1      -2.874   0.835   1.539  1.00  0.00     0.045 C 
ENDROOT
BRANCH   1  14
HETATM   14  C5  UNL     1      -1.057   0.875  -0.262  1.00  0.00     0.013 C 
BRANCH  14  15
HETATM   15  C4  UNL     1       0.210   1.029  -0.484  1.00  0.00     0.002 C 
BRANCH  15  16
HETATM   16  C3  UNL     1       0.506   0.878  -1.915  1.00  0.00     0.020 C 
HETATM   17  C2  UNL     1       1.727   0.981  -2.414  1.00  0.00     0.122 C 
BRANCH  17  18
HETATM   18  N1  UNL     1       2.613   1.259  -1.317  1.00  0.00    -0.246 N 
BRANCH  18  19
HETATM   19  O1  UNL     1       2.725   2.573  -1.069  1.00  0.00    -0.279 OA
HETATM   20  C1  UNL     1       3.896   2.939  -0.443  1.00  0.00     0.238 C 
ENDBRANCH  18  19
BRANCH  18  21
HETATM   21  C17 UNL     1       3.050  -0.044  -0.906  1.00  0.00     0.120 C 
HETATM   22  C18 UNL     1       4.221  -0.588  -1.075  1.00  0.00     0.023 C 
BRANCH  22  23
HETATM   23  C19 UNL     1       4.969  -1.822  -0.802  1.00  0.00     0.300 C 
BRANCH  23  24
HETATM   24  N4  UNL     1       6.141  -1.630   0.026  1.00  0.00     0.083 N 
HETATM   25  C20 UNL     1       5.735  -1.271   1.381  1.00  0.00     0.309 C 
HETATM   26  C21 UNL     1       6.978  -0.580  -0.567  1.00  0.00     0.309 C 
ENDBRANCH  23  24
ENDBRANCH  22  23
ENDBRANCH  18  21
ENDBRANCH  17  18
ENDBRANCH  15  16
ENDBRANCH  14  15
ENDBRANCH   1  14
BRANCH   2  27
HETATM   27  N2  UNL     1      -2.409   0.450  -2.100  1.00  0.00    -0.305 NA
HETATM   28  H8  UNL     1      -2.019  -0.503  -1.937  1.00  0.00     0.124 HD
HETATM   29  H9  UNL     1      -2.006  -0.533  -1.933  1.00  0.00     0.124 HD
ENDBRANCH   2  27
TORSDOF 9
