REMARK  5 active torsions:
REMARK  status: ('A' for Active; 'I' for Inactive)
REMARK    1  A    between atoms: O1_2  and  C2_3 
REMARK    2  A    between atoms: C7_10  and  N3_11 
REMARK    3  A    between atoms: N3_11  and  C8_12 
REMARK    4  A    between atoms: C15_21  and  C16_22 
REMARK    5  A    between atoms: C18_24  and  C19_25 
REMARK       I    between atoms: C19_25  and  N4_26 
ROOT
HETATM    1  C2  UNL     1       1.474  -1.030   0.506  1.00  0.00     0.079 A 
HETATM    2  C3  UNL     1       0.429  -1.777   0.801  1.00  0.00     0.070 A 
HETATM    3  C4  UNL     1      -0.896  -1.192   0.978  1.00  0.00     0.083 A 
HETATM    4  N1  UNL     1      -1.934  -1.897   1.267  1.00  0.00    -0.173 NA
HETATM    5  C5  UNL     1      -1.803  -3.281   1.420  1.00  0.00     0.206 C 
HETATM    6  N2  UNL     1      -1.699  -4.434   1.568  1.00  0.00    -0.170 NA
HETATM    7  C6  UNL     1      -0.999   0.254   0.812  1.00  0.00     0.010 A 
HETATM    8  C7  UNL     1      -2.127   0.896   0.943  1.00  0.00     0.102 C 
HETATM    9  C14 UNL     1       0.223   0.940   0.491  1.00  0.00     0.027 A 
HETATM   10  C15 UNL     1       1.454   0.420   0.323  1.00  0.00     0.009 A 
ENDROOT
BRANCH   1  11
HETATM   11  O1  UNL     1       2.664  -1.715   0.368  1.00  0.00    -0.355 OA
HETATM   12  C1  UNL     1       2.744  -2.748  -0.600  1.00  0.00     0.210 C 
ENDBRANCH   1  11
BRANCH   8  13
HETATM   13  N3  UNL     1      -3.304   0.176   1.260  1.00  0.00    -0.363 N 
HETATM   14  H6  UNL     1      -3.468  -0.296   2.175  1.00  0.00     0.165 HD
BRANCH  13  15
HETATM   15  C8  UNL     1      -4.341   0.082   0.274  1.00  0.00     0.072 A 
HETATM   16  C9  UNL     1      -5.508  -0.594   0.499  1.00  0.00     0.033 A 
HETATM   17  C10 UNL     1      -6.476  -0.660  -0.471  1.00  0.00     0.004 A 
HETATM   18  C11 UNL     1      -6.337  -0.061  -1.710  1.00  0.00     0.027 A 
HETATM   19  C12 UNL     1      -5.168   0.624  -1.955  1.00  0.00     0.074 A 
HETATM   20 CL1  UNL     1      -4.901   1.419  -3.504  1.00  0.00    -0.081 Cl
HETATM   21  C13 UNL     1      -4.202   0.679  -0.961  1.00  0.00     0.164 A 
HETATM   22  F1  UNL     1      -3.070   1.368  -1.257  1.00  0.00    -0.202 F 
ENDBRANCH  13  15
ENDBRANCH   8  13
BRANCH  10  23
HETATM   23  C16 UNL     1       2.612   1.220   0.000  1.00  0.00     0.259 A 
HETATM   24  C17 UNL     1       3.402   1.024  -1.204  1.00  0.00     0.086 A 
HETATM   25  C18 UNL     1       4.576   0.836  -0.254  1.00  0.00     0.314 A 
HETATM   26  N5  UNL     1       3.718   0.976   0.907  1.00  0.00     0.106 N 
HETATM   27  H17 UNL     1       3.597   0.123   1.463  1.00  0.00     0.317 HD
BRANCH  25  28
HETATM   28  C19 UNL     1       5.531   1.999  -0.258  1.00  0.00     0.248 C 
HETATM   29  N4  UNL     1       5.530   3.030   0.752  1.00  0.00    -0.368 N 
HETATM   30  H15 UNL     1       5.322   4.056   0.564  1.00  0.00     0.159 HD
HETATM   31  H16 UNL     1       5.599   3.542   1.658  1.00  0.00     0.159 HD
HETATM   32  O2  UNL     1       6.458   2.274  -1.095  1.00  0.00    -0.271 OA
ENDBRANCH  25  28
ENDBRANCH  10  23
TORSDOF 5
