REMARK  9 active torsions:
REMARK  status: ('A' for Active; 'I' for Inactive)
REMARK    1  A    between atoms: C2_2  and  O1_3 
REMARK    2  A    between atoms: O1_3  and  C3_4 
REMARK    3  A    between atoms: C3_4  and  C4_5 
REMARK    4  A    between atoms: C4_5  and  N1_6 
REMARK    5  A    between atoms: C4_5  and  C11_15 
REMARK       I    between atoms: N1_6  and  C5_7 
REMARK    6  A    between atoms: C5_7  and  C6_9 
REMARK    7  A    between atoms: C7_10  and  C8_11 
REMARK    8  A    between atoms: C8_11  and  N2_12 
REMARK    9  A    between atoms: C16_21  and  S1_22 
ROOT
HETATM    1  C4  UNL     1      -1.932   0.482   0.337  1.00  0.00     0.027 C 
ENDROOT
BRANCH   1   2
HETATM    2  C3  UNL     1      -2.832   1.644   0.449  1.00  0.00     0.221 C 
BRANCH   2   3
HETATM    3  O1  UNL     1      -2.110   2.751   0.966  1.00  0.00    -0.386 OA
BRANCH   3   4
HETATM    4  C2  UNL     1      -2.987   3.813   1.058  1.00  0.00     0.163 C 
HETATM    5  C1  UNL     1      -3.570   4.173  -0.313  1.00  0.00     0.033 C 
ENDBRANCH   3   4
ENDBRANCH   2   3
ENDBRANCH   1   2
BRANCH   1   6
HETATM    6  N1  UNL     1      -0.774   0.931  -0.324  1.00  0.00    -0.328 N 
HETATM    7  C5  UNL     1       0.389   0.142  -0.156  1.00  0.00     0.245 C 
HETATM    8  O2  UNL     1       0.748  -0.916   0.465  1.00  0.00    -0.268 OA
HETATM    9  H8  UNL     1      -0.625   1.741  -0.920  1.00  0.00     0.168 HD
BRANCH   7  10
HETATM   10  C6  UNL     1       1.683   0.334  -0.716  1.00  0.00     0.072 C 
HETATM   11  C7  UNL     1       2.936   0.012  -0.902  1.00  0.00     0.008 C 
BRANCH  11  12
HETATM   12  C8  UNL     1       4.093   0.520  -1.640  1.00  0.00     0.299 C 
BRANCH  12  13
HETATM   13  N2  UNL     1       5.209   0.857  -0.776  1.00  0.00     0.083 N 
HETATM   14  C9  UNL     1       4.915   2.007   0.058  1.00  0.00     0.309 C 
HETATM   15  C10 UNL     1       5.626  -0.278   0.024  1.00  0.00     0.309 C 
ENDBRANCH  12  13
ENDBRANCH  11  12
ENDBRANCH   7  10
ENDBRANCH   1   6
BRANCH   1  16
HETATM   16  C11 UNL     1      -2.371  -0.440   1.042  1.00  0.00     0.059 A 
HETATM   17  C12 UNL     1      -2.646  -1.483   1.682  1.00  0.00     0.088 A 
HETATM   18  C13 UNL     1      -2.868  -2.382   2.209  1.00  0.00    -0.060 C 
HETATM   19  C16 UNL     1      -1.906  -1.748   0.156  1.00  0.00     0.051 A 
HETATM   20  N3  UNL     1      -3.106  -3.411   2.789  1.00  0.00    -0.359 N 
HETATM   21  C14 UNL     1      -2.383  -4.043   1.651  1.00  0.00     0.135 C 
HETATM   22  H19 UNL     1      -3.302  -4.256   3.264  1.00  0.00     0.168 HD
HETATM   23  C15 UNL     1      -1.952  -3.169   0.499  1.00  0.00     0.033 C 
BRANCH  19  24
HETATM   24  S1  UNL     1      -1.374  -1.595  -1.628  1.00  0.00    -0.160 SA
HETATM   25  C17 UNL     1      -0.864  -3.178  -2.268  1.00  0.00     0.090 C 
ENDBRANCH  19  24
ENDBRANCH   1  16
TORSDOF 9
