REMARK  4 active torsions:
REMARK  status: ('A' for Active; 'I' for Inactive)
REMARK    1  A    between atoms: N1_3  and  C3_4 
REMARK    2  A    between atoms: C4_5  and  N2_6 
REMARK    3  A    between atoms: C4_5  and  C5_7 
REMARK    4  A    between atoms: C5_7  and  N3_8 
ROOT
HETATM    1  N3  UNL     1       1.246  -0.399  -0.728  1.00  0.00    -0.387 N 
HETATM    2  C6  UNL     1      -0.088  -0.159  -0.896  1.00  0.00     0.034 A 
HETATM    3  C7  UNL     1      -1.428  -0.242  -1.179  1.00  0.00     0.140 A 
HETATM    4  O1  UNL     1      -1.595  -0.641  -2.568  1.00  0.00    -0.368 OA
HETATM    5  C8  UNL     1      -1.001   0.754  -3.053  1.00  0.00     0.171 C 
HETATM    6  C9  UNL     1      -1.378   1.548  -1.723  1.00  0.00     0.044 C 
HETATM    7  C10 UNL     1      -0.615   1.070  -0.482  1.00  0.00     0.100 A 
HETATM    8  C11 UNL     1      -1.518   0.532   0.694  1.00  0.00    -0.035 A 
HETATM    9  C12 UNL     1      -1.755   0.626   2.051  1.00  0.00     0.009 A 
HETATM   10  C13 UNL     1      -3.063   0.254   2.424  1.00  0.00     0.013 A 
HETATM   11  C14 UNL     1      -4.008  -0.168   1.472  1.00  0.00    -0.025 A 
HETATM   12  C15 UNL     1      -5.279  -0.555   1.807  1.00  0.00     0.012 A 
HETATM   13  C16 UNL     1      -6.157  -0.989   0.804  1.00  0.00     0.001 A 
HETATM   14  C17 UNL     1      -5.762  -1.037  -0.537  1.00  0.00     0.001 A 
HETATM   15  C18 UNL     1      -4.508  -0.667  -0.953  1.00  0.00     0.013 A 
HETATM   16  C19 UNL     1      -3.747  -0.264   0.108  1.00  0.00    -0.016 A 
HETATM   17  C20 UNL     1      -2.437   0.118  -0.156  1.00  0.00     0.001 A 
HETATM   18  H10 UNL     1       1.982  -0.609  -1.376  1.00  0.00     0.159 HD
ENDROOT
BRANCH   1  19
HETATM   19  C5  UNL     1       1.718  -0.339   0.655  1.00  0.00     0.177 C 
BRANCH  19  20
HETATM   20  C4  UNL     1       3.108  -0.684   0.860  1.00  0.00     0.038 C 
HETATM   21  C3  UNL     1       4.015  -1.056  -0.013  1.00  0.00     0.142 C 
BRANCH  21  22
HETATM   22  N1  UNL     1       5.307  -1.461  -0.362  1.00  0.00    -0.276 NA
HETATM   23  C2  UNL     1       6.344  -0.707  -0.407  1.00  0.00     0.085 C 
HETATM   24  C1  UNL     1       7.112   0.581  -0.281  1.00  0.00     0.057 C 
ENDBRANCH  21  22
BRANCH  20  25
HETATM   25  N2  UNL     1       3.550  -0.618   2.210  1.00  0.00    -0.400 N 
HETATM   26  H6  UNL     1       4.132  -0.030   2.851  1.00  0.00     0.156 HD
HETATM   27  H7  UNL     1       3.187  -1.419   2.786  1.00  0.00     0.156 HD
ENDBRANCH  20  25
ENDBRANCH  19  20
ENDBRANCH   1  19
TORSDOF 4
