REMARK  6 active torsions:
REMARK  status: ('A' for Active; 'I' for Inactive)
REMARK    1  A    between atoms: C5_6  and  N1_7 
REMARK    2  A    between atoms: N1_7  and  C6_8 
REMARK    3  A    between atoms: C11_14  and  C12_15 
REMARK    4  A    between atoms: C13_16  and  C14_18 
REMARK    5  A    between atoms: C14_18  and  O3_19 
REMARK    6  A    between atoms: O3_19  and  C15_20 
ROOT
HETATM    1  C1  UNL     1      -4.905   2.896   1.827  1.00  0.00     0.052 C 
HETATM    2  C2  UNL     1      -4.498   1.492   1.569  1.00  0.00    -0.011 C 
HETATM    3  C3  UNL     1      -5.040   0.381   2.049  1.00  0.00     0.143 C 
HETATM    4  O1  UNL     1      -4.667  -0.929   1.813  1.00  0.00    -0.360 OA
HETATM    5  C4  UNL     1      -3.531  -1.627   1.366  1.00  0.00     0.206 C 
HETATM    6  C5  UNL     1      -2.924  -1.160   0.080  1.00  0.00     0.173 C 
HETATM    7  C7  UNL     1      -2.747   0.314   0.075  1.00  0.00     0.021 C 
HETATM    8  C8  UNL     1      -1.641   0.231  -0.623  1.00  0.00     0.025 C 
HETATM    9  C9  UNL     1      -0.882   1.060  -1.717  1.00  0.00     0.100 C 
HETATM   10  C10 UNL     1      -0.144   1.481  -0.389  1.00  0.00    -0.004 C 
HETATM   11  C11 UNL     1       0.522   0.328  -0.024  1.00  0.00     0.042 C 
HETATM   12  N3  UNL     1      -0.589  -0.727  -0.179  1.00  0.00    -0.358 N 
HETATM   13  C20 UNL     1      -0.227   2.565   0.581  1.00  0.00     0.071 C 
HETATM   14  C21 UNL     1       0.963   2.794   1.251  1.00  0.00     0.101 C 
HETATM   15  N4  UNL     1       1.890   2.986   1.793  1.00  0.00    -0.191 NA
HETATM   16  C22 UNL     1      -1.440   3.219   0.881  1.00  0.00     0.140 C 
HETATM   17  N5  UNL     1      -2.910   2.867   0.621  1.00  0.00    -0.258 NA
HETATM   18  C23 UNL     1      -3.358   1.575   0.692  1.00  0.00     0.074 C 
HETATM   19  H17 UNL     1      -0.764  -1.696  -0.030  1.00  0.00     0.166 HD
ENDROOT
BRANCH  11  20
HETATM   20  C12 UNL     1       1.797   0.336   0.405  1.00  0.00     0.051 C 
HETATM   21  C13 UNL     1       2.512  -0.677   0.790  1.00  0.00     0.038 C 
HETATM   22 CL1  UNL     1       1.627  -2.187   0.702  1.00  0.00    -0.087 Cl
BRANCH  21  23
HETATM   23  C14 UNL     1       3.855  -0.992   1.304  1.00  0.00     0.227 C 
BRANCH  23  24
HETATM   24  O3  UNL     1       4.574  -1.870   0.487  1.00  0.00    -0.346 OA
BRANCH  24  25
HETATM   25  C15 UNL     1       4.894  -1.536  -0.804  1.00  0.00     0.071 A 
HETATM   26  C16 UNL     1       4.711  -0.468  -1.653  1.00  0.00     0.056 A 
HETATM   27  C17 UNL     1       5.194  -0.492  -2.942  1.00  0.00     0.119 A 
HETATM   28  N2  UNL     1       5.864  -1.554  -3.433  1.00  0.00    -0.273 NA
HETATM   29  C18 UNL     1       6.078  -2.643  -2.641  1.00  0.00     0.119 A 
HETATM   30  C19 UNL     1       5.593  -2.634  -1.327  1.00  0.00     0.056 A 
ENDBRANCH  24  25
ENDBRANCH  23  24
ENDBRANCH  21  23
ENDBRANCH  11  20
BRANCH   6  31
HETATM   31  N1  UNL     1      -2.638  -1.933  -1.026  1.00  0.00    -0.235 NA
BRANCH  31  32
HETATM   32  C6  UNL     1      -2.594  -1.504  -2.187  1.00  0.00     0.332 C 
HETATM   33  O2  UNL     1      -2.653  -1.357  -3.410  1.00  0.00    -0.260 OA
ENDBRANCH  31  32
ENDBRANCH   6  31
TORSDOF 6
