REMARK  5 active torsions:
REMARK  status: ('A' for Active; 'I' for Inactive)
REMARK    1  A    between atoms: C8_10  and  N3_11 
REMARK    2  A    between atoms: N3_11  and  C9_12 
REMARK    3  A    between atoms: C13_17  and  N4_18 
REMARK    4  A    between atoms: N4_18  and  C14_19 
REMARK    5  A    between atoms: C14_19  and  C15_20 
ROOT
HETATM    1  C1  UNL     1      -2.898   3.574  -0.334  1.00  0.00     0.077 C 
HETATM    2  C2  UNL     1      -1.968   2.467  -0.136  1.00  0.00     0.053 C 
HETATM    3  C3  UNL     1      -0.744   2.966  -0.080  1.00  0.00     0.065 C 
HETATM    4  C4  UNL     1       0.487   2.213   0.108  1.00  0.00     0.071 A 
HETATM    5  N1  UNL     1       1.558   2.929   0.414  1.00  0.00    -0.259 NA
HETATM    6  C5  UNL     1       2.759   2.364   0.613  1.00  0.00     0.142 A 
HETATM    7  C6  UNL     1       2.947   1.011   0.512  1.00  0.00     0.089 A 
HETATM    8  C7  UNL     1       4.260   0.504   0.765  1.00  0.00     0.103 C 
HETATM    9  N2  UNL     1       5.345   0.073   0.958  1.00  0.00    -0.191 NA
HETATM   10  C8  UNL     1       1.876   0.159   0.190  1.00  0.00     0.067 A 
HETATM   11  C11 UNL     1       0.677   0.855   0.007  1.00  0.00     0.025 A 
HETATM   12  C12 UNL     1      -0.300  -0.201  -0.287  1.00  0.00     0.072 C 
HETATM   13  C13 UNL     1      -1.637  -0.059  -0.298  1.00  0.00     0.144 C 
HETATM   14  O2  UNL     1      -2.358   1.120  -0.030  1.00  0.00    -0.299 OA
ENDROOT
BRANCH  10  15
HETATM   15  N3  UNL     1       2.058  -1.212   0.055  1.00  0.00    -0.363 N 
HETATM   16  H6  UNL     1       1.945  -1.244  -1.003  1.00  0.00     0.165 HD
BRANCH  15  17
HETATM   17  C9  UNL     1       2.293  -2.331   0.859  1.00  0.00     0.096 C 
HETATM   18  C10 UNL     1       3.318  -2.969   0.262  1.00  0.00     0.073 C 
HETATM   19 BR1  UNL     1       4.203  -2.417  -1.325  1.00  0.00    -0.062 Br
ENDBRANCH  15  17
ENDBRANCH  10  15
BRANCH  13  20
HETATM   20  N4  UNL     1      -2.564  -1.099  -0.590  1.00  0.00    -0.364 N 
HETATM   21  H10 UNL     1      -3.413  -0.954  -1.169  1.00  0.00     0.162 HD
BRANCH  20  22
HETATM   22  C14 UNL     1      -2.270  -2.409  -0.050  1.00  0.00     0.191 C 
BRANCH  22  23
HETATM   23  C15 UNL     1      -3.378  -3.358  -0.429  1.00  0.00     0.250 C 
HETATM   24  O1  UNL     1      -3.735  -4.514  -0.305  1.00  0.00    -0.305 OA
ENDBRANCH  22  23
ENDBRANCH  20  22
ENDBRANCH  13  20
TORSDOF 5
