REMARK  7 active torsions:
REMARK  status: ('A' for Active; 'I' for Inactive)
REMARK    1  A    between atoms: C2_2  and  O1_3 
REMARK    2  A    between atoms: O1_3  and  C3_4 
REMARK    3  A    between atoms: C4_5  and  N1_6 
REMARK       I    between atoms: N1_6  and  C5_7 
REMARK    4  A    between atoms: C5_7  and  C6_9 
REMARK    5  A    between atoms: C7_10  and  C8_11 
REMARK    6  A    between atoms: C8_11  and  N2_12 
REMARK    7  A    between atoms: C17_23  and  C18_24 
ROOT
HETATM    1  C3  UNL     1      -1.876   1.339  -0.578  1.00  0.00     0.223 A 
HETATM    2  C4  UNL     1      -0.644   0.533  -0.396  1.00  0.00     0.048 A 
HETATM    3  C11 UNL     1      -0.786  -0.676  -0.904  1.00  0.00     0.042 A 
HETATM    4  C12 UNL     1      -2.123  -0.777  -1.464  1.00  0.00     0.006 A 
HETATM    5  C13 UNL     1      -2.790   0.424  -1.275  1.00  0.00     0.080 A 
HETATM    6  N3  UNL     1      -4.058   0.693  -1.668  1.00  0.00    -0.260 NA
HETATM    7  C14 UNL     1      -4.726  -0.310  -2.302  1.00  0.00     0.140 A 
HETATM    8  C15 UNL     1      -4.172  -1.570  -2.556  1.00  0.00     0.074 A 
HETATM    9  C16 UNL     1      -4.919  -2.591  -3.227  1.00  0.00     0.102 C 
HETATM   10  N4  UNL     1      -5.515  -3.418  -3.774  1.00  0.00    -0.191 NA
HETATM   11  C17 UNL     1      -2.879  -1.725  -2.111  1.00  0.00     0.009 A 
ENDROOT
BRANCH  11  12
HETATM   12  C18 UNL     1      -2.278  -3.030  -2.364  1.00  0.00    -0.022 A 
HETATM   13  C19 UNL     1      -2.400  -4.050  -1.423  1.00  0.00     0.015 A 
HETATM   14  C20 UNL     1      -1.857  -5.298  -1.607  1.00  0.00     0.045 A 
HETATM   15  C21 UNL     1      -1.148  -5.580  -2.776  1.00  0.00     0.138 A 
HETATM   16  F1  UNL     1      -0.640  -6.828  -2.891  1.00  0.00    -0.204 F 
HETATM   17  C22 UNL     1      -1.008  -4.596  -3.726  1.00  0.00     0.073 A 
HETATM   18 CL1  UNL     1      -0.119  -4.960  -5.190  1.00  0.00    -0.081 Cl
HETATM   19  C23 UNL     1      -1.569  -3.368  -3.494  1.00  0.00     0.039 A 
ENDBRANCH  11  12
BRANCH   1  20
HETATM   20  O1  UNL     1      -2.343   1.727   0.685  1.00  0.00    -0.374 OA
BRANCH  20  21
HETATM   21  C2  UNL     1      -2.391   3.111   0.765  1.00  0.00     0.165 C 
HETATM   22  C1  UNL     1      -2.885   3.610   2.108  1.00  0.00     0.033 C 
ENDBRANCH  20  21
ENDBRANCH   1  20
BRANCH   2  23
HETATM   23  N1  UNL     1       0.507   1.051   0.250  1.00  0.00    -0.324 N 
HETATM   24  C5  UNL     1       1.714   0.341   0.452  1.00  0.00     0.245 C 
HETATM   25  O2  UNL     1       1.856  -0.839   0.058  1.00  0.00    -0.268 OA
HETATM   26  H7  UNL     1       0.559   2.016   0.635  1.00  0.00     0.169 HD
BRANCH  24  27
HETATM   27  C6  UNL     1       2.885   0.884   1.119  1.00  0.00     0.072 C 
HETATM   28  C7  UNL     1       3.176   2.032   1.673  1.00  0.00     0.008 C 
BRANCH  28  29
HETATM   29  C8  UNL     1       4.154   2.854   2.371  1.00  0.00     0.299 C 
BRANCH  29  30
HETATM   30  N2  UNL     1       5.389   2.137   2.580  1.00  0.00     0.083 N 
HETATM   31  C9  UNL     1       6.093   1.881   1.354  1.00  0.00     0.309 C 
HETATM   32  C10 UNL     1       5.278   1.007   3.437  1.00  0.00     0.309 C 
ENDBRANCH  29  30
ENDBRANCH  28  29
ENDBRANCH  24  27
ENDBRANCH   2  23
TORSDOF 7
