REMARK  1 active torsions:
REMARK  status: ('A' for Active; 'I' for Inactive)
REMARK    1  A    between atoms: C2_2  and  O1_3 
ROOT
HETATM    1  O1  UNL     1       1.504  -0.600   0.659  1.00  0.00     0.000 OA
HETATM    2  C3  UNL     1       1.021   0.429  -0.174  1.00  0.00    -0.047 A 
HETATM    3  C4  UNL     1       0.236  -0.573  -0.306  1.00  0.00     0.081 A 
HETATM    4  C5  UNL     1      -0.517  -1.748  -0.336  1.00  0.00     0.054 A 
HETATM    5  N1  UNL     1      -0.219  -2.587  -1.271  1.00  0.00    -0.263 NA
HETATM    6  C6  UNL     1      -0.937  -3.821  -1.394  1.00  0.00     0.165 A 
HETATM    7  C7  UNL     1      -1.892  -4.012  -0.507  1.00  0.00     0.168 A 
HETATM    8  C8  UNL     1      -2.734  -5.199  -0.463  1.00  0.00     0.126 C 
HETATM    9  N2  UNL     1      -3.418  -6.163  -0.429  1.00  0.00    -0.189 NA
HETATM   10  O2  UNL     1      -2.215  -3.121   0.487  1.00  0.00    -0.324 OA
HETATM   11  C9  UNL     1      -1.561  -1.932   0.684  1.00  0.00     0.202 A 
HETATM   12  C10 UNL     1      -2.370  -0.742   0.945  1.00  0.00     0.028 C 
HETATM   13  C11 UNL     1      -3.082   0.316   1.316  1.00  0.00     0.090 C 
HETATM   14  N3  UNL     1      -3.690   1.127   0.230  1.00  0.00    -0.334 N 
HETATM   15  C12 UNL     1      -2.794   2.024  -0.284  1.00  0.00     0.244 C 
HETATM   16  O3  UNL     1      -2.131   1.483   0.557  1.00  0.00    -0.268 OA
HETATM   17  C13 UNL     1      -1.887   2.944  -0.817  1.00  0.00     0.072 C 
HETATM   18  C14 UNL     1      -0.624   3.097  -0.402  1.00  0.00    -0.002 C 
HETATM   19  C15 UNL     1       0.672   3.750  -0.493  1.00  0.00     0.144 C 
HETATM   20  N4  UNL     1       1.661   2.768  -0.772  1.00  0.00    -0.410 N 
HETATM   21  C16 UNL     1       2.907   3.444  -1.101  1.00  0.00     0.143 C 
HETATM   22  C17 UNL     1       1.841   1.584  -0.085  1.00  0.00     0.152 C 
HETATM   23  H11 UNL     1      -4.589   0.713   0.260  1.00  0.00     0.168 HD
ENDROOT
BRANCH   1  24
HETATM   24  C2  UNL     1       2.586  -1.425   0.492  1.00  0.00    -0.005 C 
HETATM   25  C1  UNL     1       2.480  -2.515   1.572  1.00  0.00     0.005 C 
ENDBRANCH   1  24
TORSDOF 1
