REMARK  6 active torsions:
REMARK  status: ('A' for Active; 'I' for Inactive)
REMARK    1  A    between atoms: C2_2  and  O1_3 
REMARK    2  A    between atoms: O1_3  and  C3_4 
REMARK    3  A    between atoms: C13_16  and  N3_17 
REMARK       I    between atoms: N3_17  and  C14_18 
REMARK    4  A    between atoms: C14_18  and  C15_20 
REMARK    5  A    between atoms: C16_21  and  C17_22 
REMARK    6  A    between atoms: C17_22  and  N4_23 
ROOT
HETATM    1  C3  UNL     1       1.410  -0.592   1.025  1.00  0.00     0.097 C 
HETATM    2  C4  UNL     1       2.588  -0.526   0.382  1.00  0.00     0.071 C 
HETATM    3  C5  UNL     1       3.313   0.722   0.058  1.00  0.00     0.066 A 
HETATM    4  N1  UNL     1       4.143   0.549  -0.964  1.00  0.00    -0.259 NA
HETATM    5  C6  UNL     1       4.890   1.575  -1.405  1.00  0.00     0.140 A 
HETATM    6  C7  UNL     1       4.781   2.808  -0.781  1.00  0.00     0.062 A 
HETATM    7  C8  UNL     1       5.560   3.936  -1.217  1.00  0.00     0.101 C 
HETATM    8  N2  UNL     1       6.180   4.848  -1.550  1.00  0.00    -0.191 NA
HETATM    9  C9  UNL     1       3.915   3.017   0.298  1.00  0.00     0.034 A 
HETATM   10  C10 UNL     1       3.176   1.927   0.703  1.00  0.00    -0.024 A 
HETATM   11  C11 UNL     1       2.326   2.310   1.833  1.00  0.00     0.070 C 
HETATM   12  C12 UNL     1       1.005   1.675   1.875  1.00  0.00     0.010 C 
HETATM   13  C13 UNL     1       0.563   0.472   1.552  1.00  0.00     0.065 C 
ENDROOT
BRANCH   1  14
HETATM   14  O1  UNL     1       1.028  -1.918   1.156  1.00  0.00    -0.349 OA
BRANCH  14  15
HETATM   15  C2  UNL     1       0.714  -2.578   2.340  1.00  0.00     0.171 C 
HETATM   16  C1  UNL     1       0.373  -4.023   2.164  1.00  0.00     0.034 C 
ENDBRANCH  14  15
ENDBRANCH   1  14
BRANCH  13  17
HETATM   17  N3  UNL     1      -0.785   0.076   1.680  1.00  0.00    -0.321 N 
HETATM   18  C14 UNL     1      -1.545  -0.354   0.532  1.00  0.00     0.245 C 
HETATM   19  O2  UNL     1      -0.847  -0.314  -0.509  1.00  0.00    -0.268 OA
HETATM   20  H12 UNL     1      -1.257   0.091   2.633  1.00  0.00     0.169 HD
BRANCH  18  21
HETATM   21  C15 UNL     1      -2.923  -0.764   0.632  1.00  0.00     0.072 C 
HETATM   22  C16 UNL     1      -3.667  -1.163  -0.365  1.00  0.00     0.008 C 
BRANCH  22  23
HETATM   23  C17 UNL     1      -3.460  -1.341  -1.802  1.00  0.00     0.299 C 
BRANCH  23  24
HETATM   24  N4  UNL     1      -4.349  -0.527  -2.608  1.00  0.00     0.083 N 
HETATM   25  C18 UNL     1      -4.097  -0.747  -4.036  1.00  0.00     0.309 C 
HETATM   26  C19 UNL     1      -4.227   0.872  -2.330  1.00  0.00     0.309 C 
ENDBRANCH  23  24
ENDBRANCH  22  23
ENDBRANCH  18  21
ENDBRANCH  13  17
TORSDOF 6
