REMARK  9 active torsions:
REMARK  status: ('A' for Active; 'I' for Inactive)
REMARK    1  A    between atoms: C2_2  and  C3_3 
REMARK    2  A    between atoms: C3_3  and  N4_20 
REMARK    3  A    between atoms: C4_4  and  C5_5 
REMARK    4  A    between atoms: C8_10  and  N3_11 
REMARK    5  A    between atoms: N3_11  and  C9_12 
REMARK    6  A    between atoms: C16_22  and  C17_23 
REMARK    7  A    between atoms: C17_23  and  C18_25 
REMARK    8  A    between atoms: C18_25  and  O2_26 
REMARK    9  A    between atoms: O2_26  and  N5_27 
ROOT
HETATM    1  C5  UNL     1      -1.772  -1.687   0.599  1.00  0.00     0.030 A 
HETATM    2  C6  UNL     1      -2.150  -3.002   0.750  1.00  0.00     0.133 A 
HETATM    3  N1  UNL     1      -3.435  -3.345   0.773  1.00  0.00    -0.253 NA
HETATM    4  C7  UNL     1      -4.395  -2.394   0.649  1.00  0.00     0.234 A 
HETATM    5  N2  UNL     1      -4.024  -1.117   0.503  1.00  0.00    -0.224 NA
HETATM    6  C8  UNL     1      -2.742  -0.720   0.472  1.00  0.00     0.141 A 
ENDROOT
BRANCH   1   7
HETATM    7  C4  UNL     1      -0.356  -1.398   0.564  1.00  0.00     0.046 C 
HETATM    8  C3  UNL     1       0.721  -1.873  -0.009  1.00  0.00     0.030 C 
BRANCH   8   9
HETATM    9  C2  UNL     1       0.496  -3.020  -0.869  1.00  0.00     0.019 C 
HETATM   10  C1  UNL     1       1.276  -3.776  -1.605  1.00  0.00     0.013 C 
ENDBRANCH   8   9
BRANCH   8  11
HETATM   11  N4  UNL     1       2.004  -1.356   0.165  1.00  0.00    -0.379 N 
HETATM   12  C15 UNL     1       2.579  -0.153   0.735  1.00  0.00     0.137 A 
HETATM   13  C16 UNL     1       3.964  -0.604   0.419  1.00  0.00     0.093 A 
HETATM   14  C19 UNL     1       3.325  -1.839  -0.166  1.00  0.00     0.137 A 
BRANCH  13  15
HETATM   15  C17 UNL     1       4.714   0.154  -0.617  1.00  0.00     0.159 C 
HETATM   16  O1  UNL     1       5.103  -0.388  -1.637  1.00  0.00    -0.295 OA
BRANCH  15  17
HETATM   17  C18 UNL     1       5.144   1.568  -0.707  1.00  0.00     0.272 C 
BRANCH  17  18
HETATM   18  O2  UNL     1       4.782   2.329   0.384  1.00  0.00    -0.301 OA
BRANCH  18  19
HETATM   19  N5  UNL     1       5.227   3.601   0.261  1.00  0.00    -0.215 NA
HETATM   20  H16 UNL     1       4.426   4.256   0.490  1.00  0.00     0.150 HD
HETATM   21  H17 UNL     1       5.942   3.731   1.038  1.00  0.00     0.150 HD
ENDBRANCH  18  19
ENDBRANCH  17  18
ENDBRANCH  15  17
ENDBRANCH  13  15
ENDBRANCH   8  11
ENDBRANCH   1   7
BRANCH   6  22
HETATM   22  N3  UNL     1      -2.393   0.642   0.310  1.00  0.00    -0.338 N 
HETATM   23  H7  UNL     1      -1.395   0.936   0.301  1.00  0.00     0.167 HD
BRANCH  22  24
HETATM   24  C9  UNL     1      -3.445   1.592   0.164  1.00  0.00     0.074 A 
HETATM   25  C10 UNL     1      -3.351   2.265  -1.057  1.00  0.00     0.033 A 
HETATM   26  C11 UNL     1      -4.272   3.232  -1.412  1.00  0.00     0.004 A 
HETATM   27  C12 UNL     1      -5.316   3.542  -0.536  1.00  0.00     0.027 A 
HETATM   28  C13 UNL     1      -5.395   2.874   0.659  1.00  0.00     0.074 A 
HETATM   29 CL1  UNL     1      -6.675   3.184   1.838  1.00  0.00    -0.081 Cl
HETATM   30  C14 UNL     1      -4.478   1.909   1.017  1.00  0.00     0.164 A 
HETATM   31  F1  UNL     1      -4.452   1.185   2.165  1.00  0.00    -0.202 F 
ENDBRANCH  22  24
ENDBRANCH   6  22
TORSDOF 9
