REMARK  8 active torsions:
REMARK  status: ('A' for Active; 'I' for Inactive)
REMARK    1  A    between atoms: C2_2  and  C3_3 
REMARK    2  A    between atoms: C4_4  and  C5_5 
REMARK    3  A    between atoms: C6_6  and  C7_7 
REMARK    4  A    between atoms: C7_7  and  C8_8 
REMARK    5  A    between atoms: C8_8  and  O1_9 
REMARK    6  A    between atoms: O1_9  and  C9_10 
REMARK    7  A    between atoms: C12_13  and  C13_14 
REMARK    8  A    between atoms: C18_20  and  N2_21 
ROOT
HETATM    1  C9  UNL     1       0.034  -0.673   1.171  1.00  0.00     0.090 A 
HETATM    2  C10 UNL     1      -0.434  -1.312   0.057  1.00  0.00     0.039 A 
HETATM    3  C11 UNL     1      -1.744  -1.258  -0.397  1.00  0.00     0.015 A 
HETATM    4  C12 UNL     1      -2.570  -0.479   0.394  1.00  0.00    -0.021 A 
HETATM    5  C21 UNL     1      -2.134   0.188   1.536  1.00  0.00     0.039 A 
HETATM    6  C22 UNL     1      -0.806   0.094   1.939  1.00  0.00     0.068 A 
HETATM    7 CL1  UNL     1      -0.281   0.939   3.376  1.00  0.00    -0.081 Cl
ENDROOT
BRANCH   4   8
HETATM    8  C13 UNL     1      -3.939  -0.329   0.057  1.00  0.00     0.008 C 
HETATM    9  C14 UNL     1      -4.262  -0.139  -1.264  1.00  0.00    -0.039 C 
HETATM   10  C15 UNL     1      -5.410  -0.640  -2.108  1.00  0.00     0.064 C 
HETATM   11  C20 UNL     1      -3.294   0.827  -1.937  1.00  0.00     0.066 C 
HETATM   12  C16 UNL     1      -5.915   0.552  -1.620  1.00  0.00     0.142 C 
HETATM   13  N1  UNL     1      -6.721   0.748  -0.384  1.00  0.00    -0.345 N 
HETATM   14  O2  UNL     1      -5.574   1.679  -2.448  1.00  0.00    -0.335 OA
HETATM   15  C17 UNL     1      -6.348   0.077   0.892  1.00  0.00     0.120 C 
HETATM   16  H15 UNL     1      -7.491   1.397  -0.597  1.00  0.00     0.167 HD
HETATM   17  C18 UNL     1      -5.053  -0.353   1.078  1.00  0.00     0.053 C 
HETATM   18  C19 UNL     1      -4.140   1.846  -2.749  1.00  0.00     0.182 C 
BRANCH  17  19
HETATM   19  N2  UNL     1      -4.771  -0.843   2.340  1.00  0.00    -0.397 N 
HETATM   20  H17 UNL     1      -4.126  -1.678   2.269  1.00  0.00     0.156 HD
HETATM   21  H18 UNL     1      -4.566  -1.199   3.261  1.00  0.00     0.156 HD
ENDBRANCH  17  19
ENDBRANCH   4   8
BRANCH   1  22
HETATM   22  O1  UNL     1       1.353  -0.747   1.599  1.00  0.00    -0.349 OA
BRANCH  22  23
HETATM   23  C8  UNL     1       2.283  -1.535   0.856  1.00  0.00     0.179 C 
BRANCH  23  24
HETATM   24  C7  UNL     1       3.667  -1.460   1.493  1.00  0.00     0.054 C 
BRANCH  24  25
HETATM   25  C6  UNL     1       4.135  -0.029   1.477  1.00  0.00    -0.025 C 
HETATM   26  C5  UNL     1       5.252   0.265   0.842  1.00  0.00    -0.004 C 
BRANCH  26  27
HETATM   27  C4  UNL     1       6.310   1.090   0.344  1.00  0.00    -0.000 C 
HETATM   28  C3  UNL     1       7.426   1.330  -0.298  1.00  0.00    -0.001 C 
BRANCH  28  29
HETATM   29  C2  UNL     1       8.123   0.201  -0.933  1.00  0.00    -0.010 C 
HETATM   30  C1  UNL     1       9.261   0.456  -1.588  1.00  0.00     0.011 C 
ENDBRANCH  28  29
ENDBRANCH  26  27
ENDBRANCH  24  25
ENDBRANCH  23  24
ENDBRANCH  22  23
ENDBRANCH   1  22
TORSDOF 8
