REMARK  5 active torsions:
REMARK  status: ('A' for Active; 'I' for Inactive)
REMARK    1  A    between atoms: O1_2  and  C2_3 
REMARK    2  A    between atoms: C10_13  and  N3_14 
REMARK       I    between atoms: N3_14  and  C11_15 
REMARK    3  A    between atoms: C11_15  and  C12_17 
REMARK    4  A    between atoms: C13_18  and  C14_19 
REMARK    5  A    between atoms: C14_19  and  N4_20 
ROOT
HETATM    1  C2  UNL     1      -1.795   1.188   0.212  1.00  0.00     0.093 A 
HETATM    2  C3  UNL     1      -2.785   2.036  -0.044  1.00  0.00     0.041 A 
HETATM    3  C4  UNL     1      -4.073   1.309  -0.052  1.00  0.00     0.319 A 
HETATM    4  N1  UNL     1      -5.332   1.320  -0.184  1.00  0.00    -0.433 NA
HETATM    5  C5  UNL     1      -6.174   0.182  -0.075  1.00  0.00     0.153 A 
HETATM    6  C6  UNL     1      -5.432  -1.046   0.224  1.00  0.00     0.038 A 
HETATM    7  C7  UNL     1      -6.488  -2.078   0.293  1.00  0.00     0.096 C 
HETATM    8  N2  UNL     1      -7.351  -2.908   0.366  1.00  0.00    -0.192 NA
HETATM    9  C8  UNL     1      -4.182  -1.504   0.440  1.00  0.00     0.022 A 
HETATM   10  C9  UNL     1      -2.748  -1.240   0.546  1.00  0.00     0.034 A 
HETATM   11  C10 UNL     1      -1.887  -0.269   0.463  1.00  0.00     0.068 A 
ENDROOT
BRANCH  11  12
HETATM   12  N3  UNL     1      -0.524  -0.651   0.683  1.00  0.00    -0.321 N 
HETATM   13  C11 UNL     1       0.518  -0.511  -0.260  1.00  0.00     0.245 C 
HETATM   14  O2  UNL     1       0.308  -0.026  -1.390  1.00  0.00    -0.268 OA
HETATM   15  H10 UNL     1      -0.339  -1.059   1.626  1.00  0.00     0.169 HD
BRANCH  13  16
HETATM   16  C12 UNL     1       1.859  -0.948   0.114  1.00  0.00     0.072 C 
HETATM   17  C13 UNL     1       2.869  -0.841  -0.735  1.00  0.00     0.008 C 
BRANCH  17  18
HETATM   18  C14 UNL     1       4.261  -1.265  -0.422  1.00  0.00     0.299 C 
BRANCH  18  19
HETATM   19  N4  UNL     1       5.097  -0.094  -0.543  1.00  0.00     0.083 N 
HETATM   20  C15 UNL     1       5.214   0.365  -1.898  1.00  0.00     0.309 C 
HETATM   21  C16 UNL     1       6.347  -0.210   0.143  1.00  0.00     0.309 C 
ENDBRANCH  18  19
ENDBRANCH  17  18
ENDBRANCH  13  16
ENDBRANCH  11  12
BRANCH   1  22
HETATM   22  O1  UNL     1      -0.595   1.893   0.214  1.00  0.00    -0.354 OA
HETATM   23  C1  UNL     1       0.072   2.307   1.369  1.00  0.00     0.210 C 
ENDBRANCH   1  22
TORSDOF 5
