REMARK  8 active torsions:
REMARK  status: ('A' for Active; 'I' for Inactive)
REMARK    1  A    between atoms: C2_2  and  C3_3 
REMARK    2  A    between atoms: C9_11  and  C10_12 
REMARK    3  A    between atoms: C10_12  and  C11_13 
REMARK    4  A    between atoms: C11_13  and  N3_14 
REMARK    5  A    between atoms: C12_15  and  C13_16 
REMARK    6  A    between atoms: C14_18  and  C15_19 
REMARK    7  A    between atoms: C15_19  and  C16_20 
REMARK    8  A    between atoms: C16_20  and  N4_21 
ROOT
HETATM    1  C3  UNL     1       3.328  -2.067  -0.271  1.00  0.00    -0.005 A 
HETATM    2  C4  UNL     1       4.686  -2.194  -0.451  1.00  0.00     0.072 A 
HETATM    3  C5  UNL     1       5.408  -3.427  -0.397  1.00  0.00     0.102 C 
HETATM    4  N1  UNL     1       5.993  -4.412  -0.335  1.00  0.00    -0.191 NA
HETATM    5  C6  UNL     1       5.436  -1.044  -0.709  1.00  0.00     0.140 A 
HETATM    6  N2  UNL     1       4.832   0.168  -0.778  1.00  0.00    -0.259 NA
HETATM    7  C7  UNL     1       3.505   0.291  -0.601  1.00  0.00     0.068 A 
HETATM    8  C8  UNL     1       3.013   1.555  -0.696  1.00  0.00     0.040 A 
HETATM    9  C9  UNL     1       1.638   1.765  -0.528  1.00  0.00    -0.041 A 
HETATM   10  C12 UNL     1       0.908   0.620  -0.276  1.00  0.00     0.003 A 
HETATM   11  C19 UNL     1       1.423  -0.655  -0.182  1.00  0.00     0.029 A 
HETATM   12  C20 UNL     1       2.759  -0.817  -0.350  1.00  0.00     0.005 A 
ENDROOT
BRANCH   1  13
HETATM   13  C2  UNL     1       2.559  -3.273  -0.004  1.00  0.00    -0.013 C 
HETATM   14  C1  UNL     1       3.223  -4.413   0.031  1.00  0.00     0.032 C 
ENDBRANCH   1  13
BRANCH  10  15
HETATM   15  C13 UNL     1      -0.518   0.752  -0.112  1.00  0.00     0.088 A 
HETATM   16  O1  UNL     1      -1.269  -0.223   0.126  1.00  0.00    -0.340 OA
HETATM   17  C14 UNL     1      -1.822   1.283  -0.022  1.00  0.00     0.192 A 
BRANCH  17  18
HETATM   18  C15 UNL     1      -2.898   0.604   0.217  1.00  0.00     0.058 C 
BRANCH  18  19
HETATM   19  C16 UNL     1      -3.703  -0.593   0.496  1.00  0.00     0.279 C 
BRANCH  19  20
HETATM   20  N4  UNL     1      -4.726  -0.872  -0.495  1.00  0.00     0.080 N 
HETATM   21  C17 UNL     1      -5.433  -2.053  -0.113  1.00  0.00     0.309 C 
HETATM   22  C18 UNL     1      -5.618   0.242  -0.713  1.00  0.00     0.309 C 
ENDBRANCH  19  20
ENDBRANCH  18  19
ENDBRANCH  17  18
ENDBRANCH  10  15
BRANCH   9  23
HETATM   23  C10 UNL     1       1.110   3.126  -0.619  1.00  0.00     0.069 C 
BRANCH  23  24
HETATM   24  C11 UNL     1       0.805   3.766   0.709  1.00  0.00     0.271 C 
BRANCH  24  25
HETATM   25  N3  UNL     1       0.283   5.109   0.539  1.00  0.00     0.078 N 
HETATM   26  H10 UNL     1       1.027   5.793   0.265  1.00  0.00     0.312 HD
HETATM   27  H11 UNL     1      -0.555   5.160  -0.063  1.00  0.00     0.312 HD
ENDBRANCH  24  25
ENDBRANCH  23  24
ENDBRANCH   9  23
TORSDOF 8
