REMARK  4 active torsions:
REMARK  status: ('A' for Active; 'I' for Inactive)
REMARK    1  A    between atoms: C2_2  and  O1_3 
REMARK    2  A    between atoms: O1_3  and  C3_4 
REMARK    3  A    between atoms: C3_4  and  C11_14 
REMARK    4  A    between atoms: C4_5  and  C5_6 
ROOT
HETATM    1  C5  UNL     1       2.771  -0.712  -0.149  1.00  0.00     0.059 A 
HETATM    2  C6  UNL     1       2.551  -1.564  -1.189  1.00  0.00     0.033 A 
HETATM    3  C7  UNL     1       3.203  -2.771  -1.207  1.00  0.00     0.026 A 
HETATM    4  C8  UNL     1       4.030  -2.983  -0.141  1.00  0.00     0.062 A 
HETATM    5  C9  UNL     1       4.733  -4.234  -0.135  1.00  0.00     0.101 C 
HETATM    6  N1  UNL     1       5.323  -5.241  -0.129  1.00  0.00    -0.191 NA
HETATM    7  C10 UNL     1       4.292  -2.158   0.935  1.00  0.00     0.140 A 
HETATM    8  N2  UNL     1       3.624  -0.993   0.898  1.00  0.00    -0.260 NA
ENDROOT
BRANCH   1   9
HETATM    9  C4  UNL     1       2.105   0.591   0.060  1.00  0.00     0.070 C 
HETATM   10  C3  UNL     1       1.021   1.393   0.067  1.00  0.00     0.108 C 
BRANCH  10  11
HETATM   11  O1  UNL     1       0.966   2.764   0.407  1.00  0.00    -0.349 OA
BRANCH  11  12
HETATM   12  C2  UNL     1       1.298   3.717  -0.612  1.00  0.00     0.171 C 
HETATM   13  C1  UNL     1       1.349   5.084   0.028  1.00  0.00     0.034 C 
ENDBRANCH  11  12
ENDBRANCH  10  11
BRANCH  10  14
HETATM   14  C11 UNL     1      -0.090   0.597  -0.351  1.00  0.00     0.206 C 
HETATM   15  C12 UNL     1      -1.001  -0.230  -0.749  1.00  0.00     0.036 C 
HETATM   16  C13 UNL     1      -2.453  -0.675  -1.085  1.00  0.00     0.146 C 
HETATM   17  N3  UNL     1      -2.796  -1.490   0.037  1.00  0.00    -0.410 N 
HETATM   18  C14 UNL     1      -2.107  -2.698   0.074  1.00  0.00     0.143 C 
HETATM   19  C15 UNL     1      -4.016  -1.328   0.672  1.00  0.00     0.144 C 
HETATM   20  C16 UNL     1      -4.205   0.059   1.232  1.00  0.00    -0.003 C 
HETATM   21  C17 UNL     1      -3.803   1.334   1.403  1.00  0.00     0.067 C 
HETATM   22  C18 UNL     1      -2.529   1.905   0.837  1.00  0.00     0.312 A 
HETATM   23  O2  UNL     1      -1.559   2.599   0.439  1.00  0.00    -0.120 OA
HETATM   24  N4  UNL     1      -1.292   1.238   0.234  1.00  0.00     0.139 N 
HETATM   25  H20 UNL     1      -1.686   0.424   0.857  1.00  0.00     0.335 HD
ENDBRANCH  10  14
ENDBRANCH   1   9
TORSDOF 4
