REMARK  7 active torsions:
REMARK  status: ('A' for Active; 'I' for Inactive)
REMARK    1  A    between atoms: C2_2  and  C3_3 
REMARK    2  A    between atoms: C5_5  and  N1_6 
REMARK    3  A    between atoms: N1_6  and  C6_7 
REMARK    4  A    between atoms: C6_7  and  C7_8 
REMARK    5  A    between atoms: C8_9  and  C9_10 
REMARK    6  A    between atoms: C11_13  and  O1_14 
REMARK    7  A    between atoms: O1_14  and  C12_15 
ROOT
HETATM    1  C3  UNL     1      -2.159  -2.161  -0.838  1.00  0.00     0.077 A 
HETATM    2  C4  UNL     1      -1.259  -1.081  -0.415  1.00  0.00     0.019 A 
HETATM    3  C5  UNL     1      -0.666   0.081  -0.061  1.00  0.00     0.055 A 
HETATM    4  C11 UNL     1      -1.357   1.409  -0.017  1.00  0.00     0.079 A 
HETATM    5  C14 UNL     1      -2.556   1.007  -0.402  1.00  0.00     0.122 A 
HETATM    6  C15 UNL     1      -3.824   1.684  -0.621  1.00  0.00     0.203 A 
HETATM    7  N3  UNL     1      -4.702   0.776  -1.006  1.00  0.00    -0.318 NA
HETATM    8  C16 UNL     1      -4.130  -0.537  -1.078  1.00  0.00     0.068 A 
HETATM    9  C17 UNL     1      -3.546  -1.711  -1.124  1.00  0.00     0.043 A 
HETATM   10  C18 UNL     1      -4.387  -2.834  -1.532  1.00  0.00     0.097 C 
HETATM   11  N4  UNL     1      -5.084  -3.730  -1.863  1.00  0.00    -0.192 NA
ENDROOT
BRANCH   1  12
HETATM   12  C2  UNL     1      -2.322  -3.232   0.215  1.00  0.00    -0.023 C 
HETATM   13  C1  UNL     1      -1.765  -3.147   1.439  1.00  0.00     0.008 C 
ENDBRANCH   1  12
BRANCH   3  14
HETATM   14  N1  UNL     1       0.715   0.161   0.321  1.00  0.00    -0.385 N 
HETATM   15  H6  UNL     1       0.674  -0.358   1.243  1.00  0.00     0.160 HD
BRANCH  14  16
HETATM   16  C6  UNL     1       1.859   0.759  -0.321  1.00  0.00     0.147 C 
BRANCH  16  17
HETATM   17  C7  UNL     1       3.030   0.516   0.562  1.00  0.00    -0.006 C 
HETATM   18  C8  UNL     1       4.068  -0.168   0.112  1.00  0.00     0.016 C 
BRANCH  18  19
HETATM   19  C9  UNL     1       4.132  -0.709  -1.228  1.00  0.00     0.109 C 
HETATM   20  N2  UNL     1       5.051  -1.390  -1.823  1.00  0.00    -0.306 NA
HETATM   21  C10 UNL     1       6.296  -1.760  -1.180  1.00  0.00     0.177 C 
ENDBRANCH  18  19
ENDBRANCH  16  17
ENDBRANCH  14  16
ENDBRANCH   3  14
BRANCH   4  22
HETATM   22  O1  UNL     1      -0.510   2.444   0.382  1.00  0.00    -0.353 OA
BRANCH  22  23
HETATM   23  C12 UNL     1      -0.908   3.500   1.217  1.00  0.00     0.171 C 
HETATM   24  C13 UNL     1       0.222   4.469   1.494  1.00  0.00     0.034 C 
ENDBRANCH  22  23
ENDBRANCH   4  22
TORSDOF 7
