REMARK  3 active torsions:
REMARK  status: ('A' for Active; 'I' for Inactive)
REMARK    1  A    between atoms: C10_13  and  O2_14 
REMARK    2  A    between atoms: O2_14  and  C11_15 
REMARK    3  A    between atoms: C11_15  and  C12_16 
ROOT
HETATM    1  C1  UNL     1       0.926  -1.933  -0.336  1.00  0.00     0.040 C 
HETATM    2  C2  UNL     1      -0.360  -1.543   0.314  1.00  0.00     0.127 C 
HETATM    3  O1  UNL     1      -0.116  -1.375   1.704  1.00  0.00    -0.385 OA
HETATM    4  C3  UNL     1      -0.794  -2.302   2.463  1.00  0.00     0.172 C 
HETATM    5  C4  UNL     1      -2.281  -2.221   2.422  1.00  0.00     0.056 C 
HETATM    6  C5  UNL     1      -2.867  -1.017   3.044  1.00  0.00     0.018 C 
HETATM    7  C6  UNL     1      -3.503   0.141   3.030  1.00  0.00     0.099 C 
HETATM    8 CL1  UNL     1      -3.973   1.265   4.324  1.00  0.00    -0.065 Cl
HETATM    9  N1  UNL     1      -3.974   0.910   1.968  1.00  0.00    -0.357 N 
HETATM   10  C7  UNL     1      -3.092   2.002   1.616  1.00  0.00     0.089 C 
HETATM   11  C8  UNL     1      -2.066   2.532   1.055  1.00  0.00     0.019 C 
HETATM   12  C9  UNL     1      -0.979   2.106   0.256  1.00  0.00     0.034 C 
HETATM   13  C10 UNL     1      -0.514   0.957  -0.288  1.00  0.00     0.053 C 
HETATM   14  C18 UNL     1      -1.053  -0.382  -0.220  1.00  0.00     0.067 C 
HETATM   15  C19 UNL     1      -1.577  -0.719  -1.596  1.00  0.00     0.020 C 
HETATM   16  H10 UNL     1      -4.878   0.665   1.520  1.00  0.00     0.166 HD
ENDROOT
BRANCH  13  17
HETATM   17  O2  UNL     1       0.599   0.699  -1.068  1.00  0.00    -0.350 OA
BRANCH  17  18
HETATM   18  C11 UNL     1       1.789   1.387  -0.773  1.00  0.00     0.214 C 
BRANCH  18  19
HETATM   19  C12 UNL     1       2.887   1.068  -1.727  1.00  0.00    -0.034 A 
HETATM   20  C13 UNL     1       3.834   0.070  -1.620  1.00  0.00     0.009 A 
HETATM   21  C14 UNL     1       4.791  -0.098  -2.597  1.00  0.00     0.001 A 
HETATM   22  C15 UNL     1       4.857   0.709  -3.724  1.00  0.00     0.000 A 
HETATM   23  C16 UNL     1       3.892   1.699  -3.799  1.00  0.00     0.001 A 
HETATM   24  C17 UNL     1       2.916   1.899  -2.837  1.00  0.00     0.009 A 
ENDBRANCH  18  19
ENDBRANCH  17  18
ENDBRANCH  13  17
TORSDOF 3
