REMARK  0 active torsions:
REMARK  status: ('A' for Active; 'I' for Inactive)
ROOT
HETATM    1  N1  UNL     1       0.823  -3.701  -1.972  1.00  0.00    -0.192 NA
HETATM    2  C1  UNL     1       0.106  -3.085  -1.283  1.00  0.00     0.098 C 
HETATM    3  C2  UNL     1      -0.786  -2.321  -0.457  1.00  0.00     0.060 A 
HETATM    4  C3  UNL     1      -2.113  -2.655  -0.594  1.00  0.00     0.047 A 
HETATM    5  C4  UNL     1      -2.992  -1.946   0.187  1.00  0.00     0.018 A 
HETATM    6  C5  UNL     1      -1.979  -1.237   0.719  1.00  0.00     0.084 A 
HETATM    7  C6  UNL     1      -0.948  -0.536   1.242  1.00  0.00     0.048 A 
HETATM    8  C7  UNL     1      -0.265  -1.363   0.371  1.00  0.00     0.112 A 
HETATM    9  O1  UNL     1       1.053  -1.032   0.486  1.00  0.00    -0.369 OA
HETATM   10  C8  UNL     1       2.184  -1.509  -0.132  1.00  0.00     0.208 C 
HETATM   11  C9  UNL     1       3.417  -0.766   0.294  1.00  0.00    -0.024 A 
HETATM   12  C10 UNL     1       4.578  -1.128   0.927  1.00  0.00     0.010 A 
HETATM   13  C11 UNL     1       5.527  -0.165   1.176  1.00  0.00     0.001 A 
HETATM   14  C12 UNL     1       5.385   1.141   0.829  1.00  0.00     0.001 A 
HETATM   15  C13 UNL     1       4.216   1.525   0.187  1.00  0.00     0.012 A 
HETATM   16  C14 UNL     1       3.245   0.581  -0.077  1.00  0.00    -0.026 A 
HETATM   17  C15 UNL     1       2.091   1.178  -0.762  1.00  0.00     0.031 C 
HETATM   18  C16 UNL     1       0.981   1.729  -0.310  1.00  0.00     0.115 C 
HETATM   19  N2  UNL     1      -0.206   2.337  -0.795  1.00  0.00    -0.278 N 
HETATM   20  O2  UNL     1      -1.433   1.807  -1.010  1.00  0.00    -0.278 OA
HETATM   21  C17 UNL     1      -2.441   2.520  -0.420  1.00  0.00     0.242 C 
HETATM   22  C18 UNL     1      -3.781   1.913  -0.846  1.00  0.00     0.220 C 
HETATM   23  F1  UNL     1      -3.828   1.997  -2.222  1.00  0.00    -0.243 F 
HETATM   24  C19 UNL     1      -3.958   0.531  -0.422  1.00  0.00     0.029 C 
HETATM   25  C20 UNL     1      -4.585  -0.430   0.285  1.00  0.00     0.087 C 
HETATM   26  N3  UNL     1      -4.381  -1.859   0.412  1.00  0.00    -0.369 N 
HETATM   27  H12 UNL     1      -0.008   3.364  -0.992  1.00  0.00     0.193 HD
HETATM   28  H18 UNL     1      -5.264  -2.323   0.617  1.00  0.00     0.165 HD
ENDROOT
TORSDOF 0
