REMARK  3 active torsions:
REMARK  status: ('A' for Active; 'I' for Inactive)
REMARK    1  A    between atoms: C2_2  and  O1_3 
REMARK    2  A    between atoms: O1_3  and  C3_4 
REMARK    3  A    between atoms: C26_31  and  N5_32 
ROOT
HETATM    1  C3  UNL     1       3.975   0.220  -0.179  1.00  0.00     0.089 C 
HETATM    2  C4  UNL     1       3.802  -1.062  -0.442  1.00  0.00     0.041 C 
HETATM    3  C5  UNL     1       2.945  -2.250  -0.368  1.00  0.00     0.327 C 
HETATM    4  N1  UNL     1       2.635  -3.447  -0.538  1.00  0.00    -0.413 NA
HETATM    5  C6  UNL     1       1.407  -4.020  -0.147  1.00  0.00     0.093 C 
HETATM    6  C7  UNL     1       0.068  -3.874  -0.096  1.00  0.00     0.054 C 
HETATM    7  C8  UNL     1      -0.774  -4.856   0.455  1.00  0.00     0.098 C 
HETATM    8  N2  UNL     1      -1.476  -5.644   0.913  1.00  0.00    -0.192 NA
HETATM    9  C9  UNL     1      -0.331  -2.555  -0.651  1.00  0.00     0.171 C 
HETATM   10  N3  UNL     1      -1.087  -1.821   0.374  1.00  0.00    -0.385 N 
HETATM   11  C10 UNL     1      -1.396  -0.402   0.390  1.00  0.00     0.029 C 
HETATM   12  C11 UNL     1      -0.265  -0.107   0.934  1.00  0.00     0.037 C 
HETATM   13  C12 UNL     1      -0.401   1.378   0.983  1.00  0.00    -0.040 C 
HETATM   14  C13 UNL     1      -1.243   2.317   0.588  1.00  0.00     0.090 C 
HETATM   15  N4  UNL     1      -2.481   2.353  -0.117  1.00  0.00    -0.394 N 
HETATM   16  C14 UNL     1      -3.712   2.391  -0.817  1.00  0.00     0.154 C 
HETATM   17  C15 UNL     1      -4.213   1.115  -1.406  1.00  0.00    -0.046 A 
HETATM   18  C16 UNL     1      -4.368   0.480  -2.571  1.00  0.00     0.006 A 
HETATM   19  C17 UNL     1      -4.971  -0.824  -2.319  1.00  0.00    -0.002 A 
HETATM   20  C18 UNL     1      -5.173  -0.959  -1.006  1.00  0.00    -0.008 A 
HETATM   21  C19 UNL     1      -4.732   0.221  -0.305  1.00  0.00     0.026 A 
HETATM   22  C20 UNL     1      -5.601   0.848   0.711  1.00  0.00     0.027 C 
HETATM   23  C21 UNL     1      -4.348   0.952   1.545  1.00  0.00     0.037 C 
HETATM   24  C22 UNL     1      -3.556   0.102   0.631  1.00  0.00    -0.061 C 
HETATM   25  C23 UNL     1      -2.705  -0.633  -0.125  1.00  0.00     0.033 C 
HETATM   26  C24 UNL     1       0.823   1.754   1.778  1.00  0.00     0.051 C 
HETATM   27  C25 UNL     1       2.084   1.432   1.070  1.00  0.00     0.052 C 
HETATM   28  C26 UNL     1       3.305   1.387   0.453  1.00  0.00     0.041 C 
HETATM   29  H11 UNL     1      -1.467  -2.381   1.165  1.00  0.00     0.160 HD
HETATM   30  H14 UNL     1      -2.628   3.386   0.165  1.00  0.00     0.159 HD
ENDROOT
BRANCH   1  31
HETATM   31  O1  UNL     1       5.228   0.636  -0.647  1.00  0.00    -0.350 OA
BRANCH  31  32
HETATM   32  C2  UNL     1       6.461   0.151  -0.244  1.00  0.00     0.171 C 
HETATM   33  C1  UNL     1       7.630   1.007  -0.763  1.00  0.00     0.034 C 
ENDBRANCH  31  32
ENDBRANCH   1  31
BRANCH  28  34
HETATM   34  N5  UNL     1       4.217   2.537   0.297  1.00  0.00    -0.400 N 
HETATM   35  H28 UNL     1       5.154   2.623   0.778  1.00  0.00     0.156 HD
HETATM   36  H29 UNL     1       3.943   3.342  -0.328  1.00  0.00     0.156 HD
ENDBRANCH  28  34
TORSDOF 3
