REMARK  5 active torsions:
REMARK  status: ('A' for Active; 'I' for Inactive)
REMARK    1  A    between atoms: C2_2  and  C4_5 
REMARK    2  A    between atoms: C7_8  and  C8_9 
REMARK    3  A    between atoms: C8_9  and  N2_10 
REMARK    4  A    between atoms: C14_18  and  O2_19 
REMARK    5  A    between atoms: O2_19  and  C15_20 
ROOT
HETATM    1  C1  UNL     1       1.152   5.007  -1.099  1.00  0.00     0.057 C 
HETATM    2  C2  UNL     1       0.270   4.073  -0.855  1.00  0.00     0.038 C 
HETATM    3  C3  UNL     1      -1.058   4.535  -0.829  1.00  0.00     0.018 C 
HETATM    4  N1  UNL     1      -2.191   4.933  -0.787  1.00  0.00    -0.096 N 
ENDROOT
BRANCH   2   5
HETATM    5  C4  UNL     1       0.644   2.698  -0.605  1.00  0.00     0.081 A 
HETATM    6  C5  UNL     1       0.092   1.493  -0.326  1.00  0.00     0.002 A 
HETATM    7  C6  UNL     1      -1.338   1.146  -0.162  1.00  0.00     0.056 C 
HETATM    8  C18 UNL     1       1.500   1.075  -0.335  1.00  0.00     0.068 A 
HETATM    9  C7  UNL     1      -1.672  -0.261   0.044  1.00  0.00     0.010 A 
HETATM   10  C11 UNL     1      -1.626  -1.562   0.226  1.00  0.00     0.059 A 
HETATM   11  O1  UNL     1      -0.903  -0.921   0.254  1.00  0.00     0.000 OA
HETATM   12  C12 UNL     1      -0.226  -1.893   0.276  1.00  0.00     0.034 A 
HETATM   13  N3  UNL     1       0.923  -2.661   0.334  1.00  0.00    -0.385 N 
HETATM   14  C13 UNL     1       2.366  -2.618   0.499  1.00  0.00     0.184 C 
HETATM   15  H14 UNL     1       0.216  -3.405   0.168  1.00  0.00     0.159 HD
HETATM   16  C14 UNL     1       2.841  -1.242   0.043  1.00  0.00     0.066 C 
HETATM   17  C17 UNL     1       2.177  -0.165  -0.124  1.00  0.00     0.066 C 
HETATM   18  N4  UNL     1       1.973   2.217  -0.598  1.00  0.00    -0.247 NA
BRANCH   9  19
HETATM   19  C8  UNL     1      -3.154  -0.207   0.297  1.00  0.00     0.282 C 
BRANCH  19  20
HETATM   20  N2  UNL     1      -3.767  -1.466   0.565  1.00  0.00     0.080 N 
HETATM   21  C9  UNL     1      -5.039  -1.126   1.269  1.00  0.00     0.309 C 
HETATM   22  C10 UNL     1      -4.251  -2.120  -0.671  1.00  0.00     0.309 C 
ENDBRANCH  19  20
ENDBRANCH   9  19
BRANCH  16  23
HETATM   23  O2  UNL     1       3.824  -0.357  -0.363  1.00  0.00    -0.354 OA
BRANCH  23  24
HETATM   24  C15 UNL     1       5.184  -0.659  -0.545  1.00  0.00     0.171 C 
HETATM   25  C16 UNL     1       5.909  -0.487   0.804  1.00  0.00     0.034 C 
ENDBRANCH  23  24
ENDBRANCH  16  23
ENDBRANCH   2   5
TORSDOF 5
