REMARK  6 active torsions:
REMARK  status: ('A' for Active; 'I' for Inactive)
REMARK    1  A    between atoms: C2_2  and  O1_3 
REMARK    2  A    between atoms: O1_3  and  C3_4 
REMARK    3  A    between atoms: C10_13  and  C11_14 
REMARK    4  A    between atoms: C11_14  and  N3_15 
REMARK    5  A    between atoms: C17_23  and  C18_24 
REMARK    6  A    between atoms: C18_24  and  C19_25 
ROOT
HETATM    1  C3  UNL     1      -0.267   1.455  -0.370  1.00  0.00     0.084 C 
HETATM    2  C4  UNL     1      -0.666   0.254  -0.711  1.00  0.00     0.054 C 
HETATM    3  N1  UNL     1      -1.260   0.553  -2.117  1.00  0.00    -0.372 N 
HETATM    4  C5  UNL     1      -2.019  -0.233  -3.107  1.00  0.00     0.269 C 
HETATM    5  N2  UNL     1      -2.692  -1.402  -2.696  1.00  0.00    -0.285 NA
HETATM    6  C6  UNL     1      -2.448  -2.384  -1.772  1.00  0.00     0.101 C 
HETATM    7  C7  UNL     1      -1.300  -2.374  -0.710  1.00  0.00     0.039 A 
HETATM    8  C8  UNL     1      -0.032  -2.185  -1.015  1.00  0.00    -0.066 A 
HETATM    9  C9  UNL     1       1.355  -2.126  -1.432  1.00  0.00     0.045 C 
HETATM   10  C10 UNL     1       2.216  -1.018  -1.067  1.00  0.00     0.004 C 
HETATM   11  C14 UNL     1       2.157   0.128  -0.383  1.00  0.00     0.007 C 
HETATM   12  O2  UNL     1       2.558   1.308   0.171  1.00  0.00     0.000 OA
HETATM   13  N4  UNL     1       1.701   2.142   0.850  1.00  0.00    -0.255 NA
HETATM   14  C15 UNL     1       0.373   1.644   0.951  1.00  0.00     0.171 C 
HETATM   15  C16 UNL     1      -0.749  -1.247  -0.208  1.00  0.00     0.047 A 
HETATM   16  C17 UNL     1      -1.702  -0.727   0.452  1.00  0.00    -0.076 A 
HETATM   17  C25 UNL     1      -1.809  -2.348   0.708  1.00  0.00     0.070 A 
HETATM   18  H6  UNL     1      -1.125   1.540  -2.519  1.00  0.00     0.161 HD
HETATM   19  H21 UNL     1       1.765   3.077   0.404  1.00  0.00     0.141 HD
ENDROOT
BRANCH  16  20
HETATM   20  C18 UNL     1      -2.704   0.060   1.128  1.00  0.00     0.070 C 
BRANCH  20  21
HETATM   21  C19 UNL     1      -2.726  -0.197   2.586  1.00  0.00    -0.054 A 
HETATM   22  C20 UNL     1      -1.987   0.417   3.555  1.00  0.00     0.007 A 
HETATM   23  C21 UNL     1      -2.040   0.155   4.901  1.00  0.00     0.001 A 
HETATM   24  C22 UNL     1      -2.907  -0.811   5.355  1.00  0.00     0.000 A 
HETATM   25  C23 UNL     1      -3.690  -1.479   4.438  1.00  0.00     0.001 A 
HETATM   26  C24 UNL     1      -3.594  -1.172   3.089  1.00  0.00     0.007 A 
ENDBRANCH  20  21
ENDBRANCH  16  20
BRANCH   1  27
HETATM   27  O1  UNL     1      -0.479   2.467  -1.278  1.00  0.00    -0.352 OA
BRANCH  27  28
HETATM   28  C2  UNL     1      -1.429   3.474  -0.934  1.00  0.00     0.171 C 
HETATM   29  C1  UNL     1      -1.421   4.494  -2.051  1.00  0.00     0.034 C 
ENDBRANCH  27  28
ENDBRANCH   1  27
BRANCH  10  30
HETATM   30  C11 UNL     1       3.549  -1.376  -1.651  1.00  0.00     0.282 C 
BRANCH  30  31
HETATM   31  N3  UNL     1       4.603  -0.465  -1.354  1.00  0.00     0.080 N 
HETATM   32  C12 UNL     1       5.760  -0.947  -2.157  1.00  0.00     0.309 C 
HETATM   33  C13 UNL     1       5.084  -0.605   0.021  1.00  0.00     0.309 C 
ENDBRANCH  30  31
ENDBRANCH  10  30
TORSDOF 6
