REMARK  7 active torsions:
REMARK  status: ('A' for Active; 'I' for Inactive)
REMARK    1  A    between atoms: N1_3  and  C3_4 
REMARK    2  A    between atoms: C4_5  and  C6_8 
REMARK    3  A    between atoms: C6_8  and  N3_9 
REMARK    4  A    between atoms: N3_9  and  C7_10 
REMARK    5  A    between atoms: C10_13  and  O1_14 
REMARK    6  A    between atoms: O1_14  and  C11_15 
REMARK    7  A    between atoms: C11_15  and  C12_16 
ROOT
HETATM    1  C3  UNL     1      -5.352  -0.066  -0.306  1.00  0.00     0.135 C 
HETATM    2  C4  UNL     1      -4.118   0.440  -0.347  1.00  0.00     0.057 C 
HETATM    3  C5  UNL     1      -3.785   1.045  -1.585  1.00  0.00     0.098 C 
HETATM    4  N2  UNL     1      -3.496   1.543  -2.583  1.00  0.00    -0.192 NA
ENDROOT
BRANCH   2   5
HETATM    5  C6  UNL     1      -3.336   0.278   0.890  1.00  0.00     0.171 C 
BRANCH   5   6
HETATM    6  N3  UNL     1      -2.124  -0.484   0.660  1.00  0.00    -0.385 N 
HETATM    7  H8  UNL     1      -2.220  -1.454   1.062  1.00  0.00     0.160 HD
BRANCH   6   8
HETATM    8  C7  UNL     1      -0.901  -0.160   0.017  1.00  0.00     0.029 A 
HETATM    9  C8  UNL     1       0.072  -1.160  -0.095  1.00  0.00     0.032 A 
HETATM   10  C9  UNL     1       1.247  -0.815  -0.700  1.00  0.00     0.041 A 
HETATM   11  C10 UNL     1       1.544   0.430  -1.203  1.00  0.00     0.091 A 
HETATM   12  C19 UNL     1       0.560   1.421  -1.084  1.00  0.00     0.069 A 
HETATM   13 CL1  UNL     1       0.788   3.065  -1.678  1.00  0.00    -0.081 Cl
HETATM   14  C20 UNL     1      -0.660   1.110  -0.469  1.00  0.00     0.056 A 
BRANCH  11  15
HETATM   15  O1  UNL     1       2.655   0.861  -1.807  1.00  0.00    -0.345 OA
BRANCH  15  16
HETATM   16  C11 UNL     1       3.862   0.344  -2.164  1.00  0.00     0.214 C 
BRANCH  16  17
HETATM   17  C12 UNL     1       4.747  -0.184  -1.126  1.00  0.00    -0.033 A 
HETATM   18  C13 UNL     1       4.924  -1.449  -0.605  1.00  0.00     0.009 A 
HETATM   19  C14 UNL     1       5.825  -1.706   0.391  1.00  0.00     0.002 A 
HETATM   20  C15 UNL     1       6.607  -0.709   0.929  1.00  0.00     0.022 A 
HETATM   21  C16 UNL     1       6.462   0.577   0.435  1.00  0.00     0.045 A 
HETATM   22  C17 UNL     1       7.294   1.586   1.019  1.00  0.00     0.099 C 
HETATM   23  C18 UNL     1       5.537   0.831  -0.585  1.00  0.00     0.032 A 
HETATM   24  N4  UNL     1       7.960   2.394   1.475  1.00  0.00    -0.191 NA
ENDBRANCH  16  17
ENDBRANCH  15  16
ENDBRANCH  11  15
ENDBRANCH   6   8
ENDBRANCH   5   6
ENDBRANCH   2   5
BRANCH   1  25
HETATM   25  N1  UNL     1      -6.114  -0.751   0.693  1.00  0.00    -0.276 NA
HETATM   26  C2  UNL     1      -7.011  -0.122   1.364  1.00  0.00     0.085 C 
HETATM   27  C1  UNL     1      -7.905  -0.642   2.437  1.00  0.00     0.057 C 
ENDBRANCH   1  25
TORSDOF 7
