REMARK  5 active torsions:
REMARK  status: ('A' for Active; 'I' for Inactive)
REMARK    1  A    between atoms: C3_3  and  C4_4 
REMARK    2  A    between atoms: C4_4  and  N1_5 
REMARK    3  A    between atoms: C13_16  and  O2_17 
REMARK    4  A    between atoms: O2_17  and  C14_18 
REMARK    5  A    between atoms: C14_18  and  C15_19 
ROOT
HETATM    1  C1  UNL     1      -2.120   1.527   2.284  1.00  0.00     0.044 C 
HETATM    2  C2  UNL     1      -1.628   0.544   1.225  1.00  0.00    -0.063 A 
HETATM    3  C3  UNL     1      -2.673   0.042   0.522  1.00  0.00     0.025 A 
HETATM    4  C7  UNL     1      -2.770  -0.916  -0.597  1.00  0.00     0.206 A 
HETATM    5  O1  UNL     1      -4.027  -1.044  -0.894  1.00  0.00    -0.285 OA
HETATM    6  C8  UNL     1      -1.771  -1.662  -1.341  1.00  0.00     0.086 A 
HETATM    7  C9  UNL     1      -2.269  -2.482  -2.356  1.00  0.00     0.035 A 
HETATM    8  C10 UNL     1      -1.319  -3.167  -3.044  1.00  0.00     0.020 A 
HETATM    9  C11 UNL     1      -0.159  -2.771  -2.449  1.00  0.00     0.092 A 
HETATM   10  N2  UNL     1      -0.472  -1.896  -1.464  1.00  0.00    -0.345 N 
HETATM   11  C12 UNL     1       0.133  -1.083  -0.445  1.00  0.00     0.208 A 
HETATM   12  C13 UNL     1       1.338  -0.769   0.088  1.00  0.00     0.084 A 
HETATM   13  C21 UNL     1       0.805   0.188   1.123  1.00  0.00     0.060 A 
HETATM   14 CL1  UNL     1       1.917   1.020   2.234  1.00  0.00    -0.121 Cl
HETATM   15  C22 UNL     1      -0.434  -0.129   0.602  1.00  0.00     0.123 A 
ENDROOT
BRANCH  12  16
HETATM   16  O2  UNL     1       2.757  -0.778   0.280  1.00  0.00    -0.377 OA
BRANCH  16  17
HETATM   17  C14 UNL     1       3.472   0.228  -0.437  1.00  0.00     0.207 C 
BRANCH  17  18
HETATM   18  C15 UNL     1       4.890   0.060  -0.048  1.00  0.00    -0.035 A 
HETATM   19  C16 UNL     1       5.776  -0.776  -0.740  1.00  0.00     0.009 A 
HETATM   20  C17 UNL     1       7.079  -0.896  -0.320  1.00  0.00     0.001 A 
HETATM   21  C18 UNL     1       7.598  -0.224   0.779  1.00  0.00     0.000 A 
HETATM   22  C19 UNL     1       6.755   0.620   1.498  1.00  0.00     0.001 A 
HETATM   23  C20 UNL     1       5.467   0.707   1.042  1.00  0.00     0.009 A 
ENDBRANCH  17  18
ENDBRANCH  16  17
ENDBRANCH  12  16
BRANCH   3  24
HETATM   24  C4  UNL     1      -4.076   0.502   0.870  1.00  0.00     0.314 C 
BRANCH  24  25
HETATM   25  N1  UNL     1      -4.699   1.110  -0.287  1.00  0.00     0.084 N 
HETATM   26  C5  UNL     1      -4.146   2.343  -0.711  1.00  0.00     0.309 C 
HETATM   27  C6  UNL     1      -6.087   1.338   0.054  1.00  0.00     0.309 C 
ENDBRANCH  24  25
ENDBRANCH   3  24
TORSDOF 5
