REMARK  12 active torsions:
REMARK  status: ('A' for Active; 'I' for Inactive)
REMARK    1  A    between atoms: C2_2  and  C3_3 
REMARK    2  A    between atoms: C2_2  and  C6_7 
REMARK    3  A    between atoms: C3_3  and  N1_4 
REMARK       I    between atoms: C6_7  and  N2_9 
REMARK    4  A    between atoms: N2_9  and  C7_10 
REMARK    5  A    between atoms: C8_11  and  C9_12 
REMARK    6  A    between atoms: C10_13  and  C11_14 
REMARK    7  A    between atoms: C14_17  and  O2_18 
REMARK    8  A    between atoms: O2_18  and  C15_19 
REMARK    9  A    between atoms: C15_19  and  C16_20 
REMARK   10  A    between atoms: C16_20  and  C17_21 
REMARK   11  A    between atoms: C17_21  and  C18_22 
REMARK   12  A    between atoms: C18_22  and  C19_23 
ROOT
HETATM    1  C11 UNL     1       0.903   1.368   0.356  1.00  0.00     0.019 A 
HETATM    2  C12 UNL     1       2.249   1.618   0.462  1.00  0.00     0.023 A 
HETATM    3  C13 UNL     1       3.160   1.750  -0.559  1.00  0.00     0.040 A 
HETATM    4  C14 UNL     1       2.675   1.617  -1.882  1.00  0.00     0.090 A 
HETATM    5  C23 UNL     1       1.331   1.367  -2.001  1.00  0.00     0.068 A 
HETATM    6 CL1  UNL     1       0.777   1.215  -3.662  1.00  0.00    -0.081 Cl
HETATM    7  C24 UNL     1       0.444   1.239  -0.964  1.00  0.00     0.047 A 
ENDROOT
BRANCH   1   8
HETATM    8  C10 UNL     1       0.049   1.262   1.496  1.00  0.00    -0.062 C 
HETATM    9  C9  UNL     1      -0.663   1.162   2.461  1.00  0.00    -0.072 C 
BRANCH   9  10
HETATM   10  C8  UNL     1      -1.521   1.063   3.600  1.00  0.00     0.082 C 
HETATM   11  C7  UNL     1      -2.804   0.792   3.548  1.00  0.00     0.100 C 
BRANCH  11  12
HETATM   12  N2  UNL     1      -3.713   0.525   2.488  1.00  0.00    -0.333 N 
HETATM   13  C6  UNL     1      -4.592  -0.474   2.037  1.00  0.00     0.252 C 
HETATM   14  O1  UNL     1      -4.610  -1.467   2.792  1.00  0.00    -0.268 OA
HETATM   15  H11 UNL     1      -3.550   1.443   2.012  1.00  0.00     0.168 HD
BRANCH  13  16
HETATM   16  C2  UNL     1      -5.327  -0.225   0.809  1.00  0.00     0.029 C 
HETATM   17  C1  UNL     1      -5.186   0.895   0.130  1.00  0.00     0.026 C 
BRANCH  16  18
HETATM   18  C3  UNL     1      -6.245  -1.309   0.396  1.00  0.00     0.314 C 
BRANCH  18  19
HETATM   19  N1  UNL     1      -6.922  -0.908  -0.838  1.00  0.00     0.084 N 
HETATM   20  C4  UNL     1      -7.828   0.175  -0.654  1.00  0.00     0.309 C 
HETATM   21  C5  UNL     1      -7.543  -2.070  -1.454  1.00  0.00     0.309 C 
ENDBRANCH  18  19
ENDBRANCH  16  18
ENDBRANCH  13  16
ENDBRANCH  11  12
ENDBRANCH   9  10
ENDBRANCH   1   8
BRANCH   4  22
HETATM   22  O2  UNL     1       3.617   1.761  -2.873  1.00  0.00    -0.346 OA
BRANCH  22  23
HETATM   23  C15 UNL     1       5.002   2.009  -2.632  1.00  0.00     0.203 C 
BRANCH  23  24
HETATM   24  C16 UNL     1       5.618   0.896  -1.933  1.00  0.00    -0.000 C 
BRANCH  24  25
HETATM   25  C17 UNL     1       5.461  -0.281  -1.407  1.00  0.00    -0.001 C 
BRANCH  25  26
HETATM   26  C18 UNL     1       6.630  -0.866  -0.813  1.00  0.00     0.012 C 
BRANCH  26  27
HETATM   27  C19 UNL     1       6.889  -1.998  -0.202  1.00  0.00    -0.030 A 
HETATM   28  C20 UNL     1       6.095  -3.198   0.160  1.00  0.00     0.019 A 
HETATM   29  C21 UNL     1       7.426  -3.121   0.476  1.00  0.00    -0.051 A 
HETATM   30  C22 UNL     1       8.654  -3.706   1.081  1.00  0.00     0.049 C 
ENDBRANCH  26  27
ENDBRANCH  25  26
ENDBRANCH  24  25
ENDBRANCH  23  24
ENDBRANCH  22  23
ENDBRANCH   4  22
TORSDOF 12
