REMARK  7 active torsions:
REMARK  status: ('A' for Active; 'I' for Inactive)
REMARK    1  A    between atoms: C2_2  and  O1_3 
REMARK    2  A    between atoms: O1_3  and  C3_4 
REMARK    3  A    between atoms: N1_7  and  C6_8 
REMARK    4  A    between atoms: C11_15  and  N3_16 
REMARK       I    between atoms: N3_16  and  C12_17 
REMARK    5  A    between atoms: C12_17  and  C13_19 
REMARK    6  A    between atoms: C14_20  and  C15_21 
REMARK    7  A    between atoms: C15_21  and  N4_22 
ROOT
HETATM    1  C6  UNL     1       6.117   0.937  -0.295  1.00  0.00     0.170 C 
HETATM    2  C7  UNL     1       6.856   1.163  -1.343  1.00  0.00     0.213 C 
HETATM    3  F1  UNL     1       6.777   0.331  -2.394  1.00  0.00    -0.193 F 
HETATM    4  C8  UNL     1       7.710   2.312  -1.278  1.00  0.00     0.132 C 
HETATM    5  N2  UNL     1       8.414   3.244  -1.243  1.00  0.00    -0.189 NA
ENDROOT
BRANCH   1   6
HETATM    6  N1  UNL     1       5.182  -0.088  -0.034  1.00  0.00    -0.261 NA
HETATM    7  C5  UNL     1       3.905   0.096  -0.071  1.00  0.00     0.040 A 
HETATM    8  C4  UNL     1       2.990  -1.008   0.210  1.00  0.00     0.066 A 
HETATM    9  C9  UNL     1       3.427   1.470  -0.409  1.00  0.00     0.088 A 
HETATM   10  C3  UNL     1       1.690  -0.757   0.156  1.00  0.00     0.097 A 
HETATM   11  C11 UNL     1       1.141   0.561  -0.167  1.00  0.00     0.065 A 
HETATM   12  C10 UNL     1       1.965   1.567  -0.423  1.00  0.00     0.012 A 
BRANCH  10  13
HETATM   13  O1  UNL     1       0.824  -1.795   0.420  1.00  0.00    -0.349 OA
BRANCH  13  14
HETATM   14  C2  UNL     1       1.208  -2.972   1.092  1.00  0.00     0.171 C 
HETATM   15  C1  UNL     1      -0.006  -3.857   1.187  1.00  0.00     0.034 C 
ENDBRANCH  13  14
ENDBRANCH  10  13
BRANCH  11  16
HETATM   16  N3  UNL     1      -0.285   0.734  -0.201  1.00  0.00    -0.321 N 
HETATM   17  C12 UNL     1      -0.888   0.445   1.032  1.00  0.00     0.245 C 
HETATM   18  O2  UNL     1      -0.154   0.083   1.988  1.00  0.00    -0.268 OA
HETATM   19  H11 UNL     1      -0.825   1.039  -1.037  1.00  0.00     0.169 HD
BRANCH  17  20
HETATM   20  C13 UNL     1      -2.328   0.555   1.223  1.00  0.00     0.072 C 
HETATM   21  C14 UNL     1      -3.139   0.923   0.274  1.00  0.00     0.008 C 
BRANCH  21  22
HETATM   22  C15 UNL     1      -4.611   1.043   0.445  1.00  0.00     0.299 C 
BRANCH  22  23
HETATM   23  N4  UNL     1      -5.263   0.152  -0.475  1.00  0.00     0.083 N 
HETATM   24  C16 UNL     1      -6.704   0.200  -0.381  1.00  0.00     0.309 C 
HETATM   25  C17 UNL     1      -4.762   0.274  -1.818  1.00  0.00     0.309 C 
ENDBRANCH  22  23
ENDBRANCH  21  22
ENDBRANCH  17  20
ENDBRANCH  11  16
ENDBRANCH   1   6
TORSDOF 7
