REMARK  0 active torsions:
REMARK  status: ('A' for Active; 'I' for Inactive)
ROOT
HETATM    1  C1  UNL     1      -4.538  -0.327   1.489  1.00  0.00     0.046 C 
HETATM    2  C2  UNL     1      -4.235  -0.398   0.022  1.00  0.00     0.169 C 
HETATM    3  O1  UNL     1      -3.541   0.825  -0.323  1.00  0.00    -0.340 OA
HETATM    4  C3  UNL     1      -2.161   0.874  -0.209  1.00  0.00     0.080 C 
HETATM    5  C4  UNL     1      -1.614   0.011  -1.101  1.00  0.00     0.050 C 
HETATM    6  C5  UNL     1      -2.236  -1.329  -1.055  1.00  0.00    -0.013 C 
HETATM    7  C6  UNL     1      -3.231  -1.512  -0.172  1.00  0.00     0.061 C 
HETATM    8  C7  UNL     1      -3.314  -2.770   0.556  1.00  0.00     0.098 C 
HETATM    9  N1  UNL     1      -3.390  -3.777   1.119  1.00  0.00    -0.192 NA
HETATM   10  C8  UNL     1      -1.858  -2.482  -1.862  1.00  0.00     0.030 C 
HETATM   11  C9  UNL     1      -0.553  -2.697  -1.987  1.00  0.00     0.089 C 
HETATM   12  N2  UNL     1       0.832  -3.097  -1.847  1.00  0.00    -0.366 N 
HETATM   13  C10 UNL     1       1.569  -2.109  -1.139  1.00  0.00     0.032 A 
HETATM   14  C11 UNL     1       1.925  -2.267   0.184  1.00  0.00     0.032 A 
HETATM   15  C12 UNL     1       2.619  -1.293   0.862  1.00  0.00     0.039 A 
HETATM   16  C13 UNL     1       3.004  -0.105   0.281  1.00  0.00     0.069 A 
HETATM   17  C14 UNL     1       2.649   0.050  -1.043  1.00  0.00     0.039 A 
HETATM   18  C15 UNL     1       1.954  -0.921  -1.729  1.00  0.00     0.032 A 
HETATM   19  O2  UNL     1       3.712   0.904   0.980  1.00  0.00    -0.341 OA
HETATM   20  C16 UNL     1       2.901   1.972   1.535  1.00  0.00     0.162 C 
HETATM   21  C17 UNL     1       3.193   3.290   0.878  1.00  0.00     0.042 C 
HETATM   22  C18 UNL     1       2.217   3.414  -0.271  1.00  0.00     0.042 C 
HETATM   23  C19 UNL     1       1.148   2.489   0.096  1.00  0.00    -0.048 A 
HETATM   24  C20 UNL     1      -0.113   2.228  -0.386  1.00  0.00     0.022 A 
HETATM   25  C21 UNL     1      -0.847   1.268   0.270  1.00  0.00    -0.002 A 
HETATM   26  C22 UNL     1      -0.418   0.557   1.368  1.00  0.00     0.015 A 
HETATM   27  C23 UNL     1       0.832   0.767   1.901  1.00  0.00     0.011 A 
HETATM   28  C24 UNL     1       1.481   1.729   1.181  1.00  0.00    -0.023 A 
HETATM   29  H8  UNL     1       1.045  -4.031  -2.285  1.00  0.00     0.165 HD
ENDROOT
TORSDOF 0
