REMARK  3 active torsions:
REMARK  status: ('A' for Active; 'I' for Inactive)
REMARK    1  A    between atoms: C6_8  and  N2_9 
REMARK    2  A    between atoms: N2_9  and  C7_10 
REMARK    3  A    between atoms: C7_10  and  C8_11 
ROOT
HETATM    1  N2  UNL     1       0.962  -1.290   0.367  1.00  0.00     0.102 N 
HETATM    2  H4  UNL     1       0.801  -2.218  -0.102  1.00  0.00     0.317 HD
ENDROOT
BRANCH   1   3
HETATM    3  C6  UNL     1       2.344  -1.197   0.752  1.00  0.00     0.303 A 
HETATM    4  C1  UNL     1       3.350  -1.302  -0.297  1.00  0.00     0.076 A 
HETATM    5 CL1  UNL     1       3.809  -2.705  -1.245  1.00  0.00    -0.084 Cl
HETATM    6  C2  UNL     1       3.757  -0.041  -0.278  1.00  0.00     0.062 A 
HETATM    7  N1  UNL     1       4.451   1.164  -0.568  1.00  0.00    -0.363 N 
HETATM    8  C5  UNL     1       2.802   0.220   0.791  1.00  0.00     0.021 A 
HETATM    9  C3  UNL     1       3.906   2.129   0.326  1.00  0.00     0.101 A 
HETATM   10  H1  UNL     1       5.199   1.377  -1.260  1.00  0.00     0.165 HD
HETATM   11  C4  UNL     1       3.016   1.481   1.023  1.00  0.00     0.003 A 
ENDBRANCH   1   3
BRANCH   1  12
HETATM   12  C7  UNL     1       0.562  -0.271  -0.574  1.00  0.00     0.310 C 
BRANCH  12  13
HETATM   13  C8  UNL     1      -0.874  -0.405  -0.907  1.00  0.00    -0.019 A 
HETATM   14  C9  UNL     1      -1.397  -0.932  -2.058  1.00  0.00     0.010 A 
HETATM   15  C10 UNL     1      -2.759  -1.015  -2.279  1.00  0.00     0.002 A 
HETATM   16  C11 UNL     1      -3.607  -0.535  -1.272  1.00  0.00     0.012 A 
HETATM   17  C12 UNL     1      -3.089  -0.002  -0.110  1.00  0.00    -0.025 A 
HETATM   18  C13 UNL     1      -3.938   0.474   0.885  1.00  0.00     0.012 A 
HETATM   19  C17 UNL     1      -1.709   0.076   0.102  1.00  0.00    -0.018 A 
HETATM   20  C14 UNL     1      -3.456   1.021   2.074  1.00  0.00     0.001 A 
HETATM   21  C15 UNL     1      -2.083   1.089   2.262  1.00  0.00     0.001 A 
HETATM   22  C16 UNL     1      -1.275   0.616   1.273  1.00  0.00     0.013 A 
ENDBRANCH  12  13
ENDBRANCH   1  12
TORSDOF 3
