REMARK  6 active torsions:
REMARK  status: ('A' for Active; 'I' for Inactive)
REMARK    1  A    between atoms: C2_2  and  C3_4 
REMARK    2  A    between atoms: C3_4  and  N1_5 
REMARK    3  A    between atoms: N1_5  and  C4_6 
REMARK    4  A    between atoms: C7_9  and  O1_10 
REMARK    5  A    between atoms: O1_10  and  C8_11 
REMARK    6  A    between atoms: C8_11  and  C9_12 
ROOT
HETATM    1  C4  UNL     1      -3.291   0.184   0.561  1.00  0.00     0.028 A 
HETATM    2  C5  UNL     1      -2.401   0.049   1.629  1.00  0.00     0.032 A 
HETATM    3  C6  UNL     1      -1.041  -0.027   1.373  1.00  0.00     0.039 A 
HETATM    4  C7  UNL     1      -0.537   0.026   0.090  1.00  0.00     0.069 A 
HETATM    5  C16 UNL     1      -1.406   0.157  -0.961  1.00  0.00     0.039 A 
HETATM    6  C17 UNL     1      -2.774   0.236  -0.729  1.00  0.00     0.032 A 
ENDROOT
BRANCH   4   7
HETATM    7  O1  UNL     1       0.840  -0.068   0.072  1.00  0.00    -0.345 OA
BRANCH   7   8
HETATM    8  C8  UNL     1       1.554  -0.035  -1.147  1.00  0.00     0.242 C 
BRANCH   8   9
HETATM    9  C9  UNL     1       3.018  -0.165  -0.721  1.00  0.00     0.100 A 
HETATM   10  N2  UNL     1       3.853  -0.900  -0.505  1.00  0.00    -0.243 NA
HETATM   11  C10 UNL     1       5.103  -0.693  -0.131  1.00  0.00     0.075 A 
HETATM   12  C11 UNL     1       6.106  -1.605   0.127  1.00  0.00     0.033 A 
HETATM   13  C15 UNL     1       5.458   0.628   0.026  1.00  0.00     0.035 A 
HETATM   14  C12 UNL     1       7.348  -1.148   0.509  1.00  0.00     0.002 A 
HETATM   15  C13 UNL     1       7.704   0.175   0.666  1.00  0.00     0.002 A 
HETATM   16  C14 UNL     1       6.718   1.105   0.414  1.00  0.00     0.021 A 
HETATM   17  S1  UNL     1       3.902   1.485  -0.396  1.00  0.00    -0.070 SA
ENDBRANCH   8   9
ENDBRANCH   7   8
ENDBRANCH   4   7
BRANCH   1  18
HETATM   18  N1  UNL     1      -4.695   0.267   0.767  1.00  0.00    -0.385 N 
HETATM   19  H5  UNL     1      -5.044   0.223   1.757  1.00  0.00     0.160 HD
BRANCH  18  20
HETATM   20  C3  UNL     1      -5.589   0.406  -0.364  1.00  0.00     0.170 C 
BRANCH  20  21
HETATM   21  C2  UNL     1      -7.011   0.476   0.038  1.00  0.00     0.020 C 
HETATM   22  C1  UNL     1      -7.864  -0.450  -0.414  1.00  0.00     0.034 C 
HETATM   23 CL1  UNL     1      -7.420   1.809   1.092  1.00  0.00    -0.088 Cl
ENDBRANCH  20  21
ENDBRANCH  18  20
ENDBRANCH   1  18
TORSDOF 6
