REMARK  10 active torsions:
REMARK  status: ('A' for Active; 'I' for Inactive)
REMARK    1  A    between atoms: C2_2  and  O1_3 
REMARK    2  A    between atoms: O1_3  and  C3_4 
REMARK    3  A    between atoms: C9_12  and  C10_13 
REMARK    4  A    between atoms: C10_13  and  C11_14 
REMARK    5  A    between atoms: C16_20  and  N3_21 
REMARK       I    between atoms: N3_21  and  C17_22 
REMARK    6  A    between atoms: C17_22  and  C18_24 
REMARK    7  A    between atoms: C18_24  and  C19_25 
REMARK    8  A    between atoms: C19_25  and  N4_26 
REMARK    9  A    between atoms: N4_26  and  C21_28 
REMARK   10  A    between atoms: C21_28  and  N5_29 
ROOT
HETATM    1  C3  UNL     1      -0.705   2.495   1.010  1.00  0.00     0.097 A 
HETATM    2  C4  UNL     1      -1.916   2.878   0.473  1.00  0.00     0.071 A 
HETATM    3  C5  UNL     1      -2.925   1.963   0.261  1.00  0.00     0.070 A 
HETATM    4  N1  UNL     1      -4.069   2.422  -0.265  1.00  0.00    -0.259 NA
HETATM    5  C6  UNL     1      -5.065   1.518  -0.476  1.00  0.00     0.140 A 
HETATM    6  C7  UNL     1      -4.918   0.185  -0.166  1.00  0.00     0.069 A 
HETATM    7  C8  UNL     1      -6.057  -0.647  -0.442  1.00  0.00     0.101 C 
HETATM    8  N2  UNL     1      -6.980  -1.316  -0.667  1.00  0.00    -0.191 NA
HETATM    9  C9  UNL     1      -3.755  -0.325   0.377  1.00  0.00    -0.020 A 
HETATM   10  C14 UNL     1      -2.776   0.630   0.570  1.00  0.00     0.003 A 
HETATM   11  C15 UNL     1      -1.571   0.230   1.107  1.00  0.00     0.046 A 
HETATM   12  C16 UNL     1      -0.549   1.140   1.326  1.00  0.00     0.069 A 
ENDROOT
BRANCH   9  13
HETATM   13  C10 UNL     1      -3.637  -1.748   0.692  1.00  0.00     0.069 C 
BRANCH  13  14
HETATM   14  C11 UNL     1      -3.404  -2.625  -0.487  1.00  0.00    -0.003 C 
HETATM   15  C12 UNL     1      -4.069  -3.665  -1.027  1.00  0.00     0.004 C 
HETATM   16  C13 UNL     1      -3.732  -4.491  -2.245  1.00  0.00     0.061 C 
HETATM   17 CL1  UNL     1      -5.578  -4.399  -0.453  1.00  0.00    -0.090 Cl
ENDBRANCH  13  14
ENDBRANCH   9  13
BRANCH  12  18
HETATM   18  N3  UNL     1       0.693   0.669   1.891  1.00  0.00    -0.325 N 
HETATM   19  C17 UNL     1       1.611   0.291   0.859  1.00  0.00     0.223 C 
HETATM   20  O2  UNL     1       1.088   0.473  -0.280  1.00  0.00    -0.273 OA
HETATM   21  H15 UNL     1       0.981   0.578   2.904  1.00  0.00     0.169 HD
BRANCH  19  22
HETATM   22  C18 UNL     1       2.972  -0.232   1.171  1.00  0.00     0.133 C 
BRANCH  22  23
HETATM   23  C19 UNL     1       3.670  -0.472  -0.165  1.00  0.00     0.283 C 
BRANCH  23  24
HETATM   24  N4  UNL     1       4.994  -0.978   0.004  1.00  0.00     0.112 N 
HETATM   25  C20 UNL     1       5.079  -2.301   0.525  1.00  0.00     0.312 C 
BRANCH  24  26
HETATM   26  C21 UNL     1       5.870  -0.797  -1.124  1.00  0.00     0.536 C 
BRANCH  26  27
HETATM   27  N5  UNL     1       7.152  -1.383  -0.750  1.00  0.00     0.106 N 
HETATM   28  H25 UNL     1       7.789  -0.592  -0.528  1.00  0.00     0.315 HD
HETATM   29  H26 UNL     1       7.576  -1.963  -1.504  1.00  0.00     0.315 HD
ENDBRANCH  26  27
ENDBRANCH  24  26
ENDBRANCH  23  24
ENDBRANCH  22  23
ENDBRANCH  19  22
ENDBRANCH  12  18
BRANCH   1  30
HETATM   30  O1  UNL     1       0.359   3.312   1.263  1.00  0.00    -0.349 OA
BRANCH  30  31
HETATM   31  C2  UNL     1       0.414   4.695   1.020  1.00  0.00     0.171 C 
HETATM   32  C1  UNL     1       0.209   4.947  -0.457  1.00  0.00     0.034 C 
ENDBRANCH  30  31
ENDBRANCH   1  30
TORSDOF 10
