REMARK  7 active torsions:
REMARK  status: ('A' for Active; 'I' for Inactive)
REMARK    1  A    between atoms: C2_3  and  C3_4 
REMARK    2  A    between atoms: C3_4  and  C4_5 
REMARK    3  A    between atoms: C5_6  and  N2_7 
REMARK    4  A    between atoms: N2_7  and  C6_8 
REMARK    5  A    between atoms: C9_11  and  O1_12 
REMARK    6  A    between atoms: O1_12  and  C10_13 
REMARK    7  A    between atoms: C10_13  and  C11_14 
ROOT
HETATM    1  N1  UNL     1       8.069  -1.058  -1.095  1.00  0.00    -0.197 NA
HETATM    2  C1  UNL     1       7.316  -0.518  -0.432  1.00  0.00     0.059 C 
HETATM    3  C2  UNL     1       6.372   0.156   0.423  1.00  0.00     0.127 C 
ENDROOT
BRANCH   3   4
HETATM    4  C3  UNL     1       4.944  -0.315   0.271  1.00  0.00     0.042 C 
BRANCH   4   5
HETATM    5  C4  UNL     1       4.401  -0.141  -1.074  1.00  0.00    -0.009 C 
HETATM    6  C5  UNL     1       3.355   0.559  -1.459  1.00  0.00     0.084 C 
BRANCH   6   7
HETATM    7  N2  UNL     1       2.423   1.360  -0.741  1.00  0.00    -0.366 N 
HETATM    8  H7  UNL     1       2.695   2.333  -0.494  1.00  0.00     0.165 HD
BRANCH   7   9
HETATM    9  C6  UNL     1       1.207   0.648  -0.470  1.00  0.00     0.033 A 
HETATM   10  C7  UNL     1       0.131   0.821  -1.314  1.00  0.00     0.032 A 
HETATM   11  C8  UNL     1      -1.011   0.118  -1.042  1.00  0.00     0.041 A 
HETATM   12  C9  UNL     1      -1.157  -0.749   0.016  1.00  0.00     0.091 A 
HETATM   13  C17 UNL     1      -0.028  -0.889   0.848  1.00  0.00     0.069 A 
HETATM   14 CL1  UNL     1       0.093  -1.922   2.275  1.00  0.00    -0.081 Cl
HETATM   15  C18 UNL     1       1.161  -0.207   0.630  1.00  0.00     0.056 A 
BRANCH  12  16
HETATM   16  O1  UNL     1      -2.127  -1.554   0.516  1.00  0.00    -0.345 OA
BRANCH  16  17
HETATM   17  C10 UNL     1      -3.423  -1.824   0.148  1.00  0.00     0.214 C 
BRANCH  17  18
HETATM   18  C11 UNL     1      -4.253  -0.600   0.209  1.00  0.00    -0.034 A 
HETATM   19  C12 UNL     1      -4.730  -0.366   1.494  1.00  0.00     0.009 A 
HETATM   20  C13 UNL     1      -5.548   0.690   1.862  1.00  0.00     0.001 A 
HETATM   21  C14 UNL     1      -5.919   1.583   0.872  1.00  0.00     0.000 A 
HETATM   22  C15 UNL     1      -5.464   1.384  -0.421  1.00  0.00     0.001 A 
HETATM   23  C16 UNL     1      -4.652   0.317  -0.734  1.00  0.00     0.009 A 
ENDBRANCH  17  18
ENDBRANCH  16  17
ENDBRANCH  12  16
ENDBRANCH   7   9
ENDBRANCH   6   7
ENDBRANCH   4   5
ENDBRANCH   3   4
TORSDOF 7
