REMARK  6 active torsions:
REMARK  status: ('A' for Active; 'I' for Inactive)
REMARK    1  A    between atoms: C2_2  and  O1_3 
REMARK    2  A    between atoms: O1_3  and  C3_4 
REMARK    3  A    between atoms: C7_8  and  N2_11 
REMARK    4  A    between atoms: N2_11  and  C9_12 
REMARK    5  A    between atoms: C17_23  and  C18_24 
REMARK    6  A    between atoms: C18_24  and  N4_25 
ROOT
HETATM    1  C3  UNL     1      -1.457   2.072  -0.208  1.00  0.00     0.094 C 
HETATM    2  C4  UNL     1      -0.334   1.776   0.539  1.00  0.00     0.051 C 
HETATM    3  C5  UNL     1       1.119   2.011   0.306  1.00  0.00     0.057 C 
HETATM    4  C6  UNL     1       1.015   0.957  -0.467  1.00  0.00     0.064 C 
HETATM    5  C7  UNL     1       1.107  -0.198  -1.371  1.00  0.00     0.283 C 
HETATM    6  C8  UNL     1       1.763   0.221  -2.636  1.00  0.00     0.108 C 
HETATM    7  N1  UNL     1       2.274   0.571  -3.643  1.00  0.00    -0.194 NA
HETATM    8  C14 UNL     1      -0.234  -0.689  -1.854  1.00  0.00     0.147 C 
HETATM    9  N3  UNL     1      -1.530  -0.877  -1.920  1.00  0.00    -0.261 NA
HETATM   10  C15 UNL     1      -2.167  -0.152  -0.815  1.00  0.00     0.067 C 
HETATM   11  C16 UNL     1      -2.453   1.176  -0.889  1.00  0.00     0.071 C 
HETATM   12  C17 UNL     1      -2.321  -1.132   0.264  1.00  0.00     0.004 C 
HETATM   13  C21 UNL     1      -2.096  -0.982   1.589  1.00  0.00     0.085 C 
HETATM   14  C22 UNL     1      -1.222  -0.027   2.348  1.00  0.00     0.246 C 
HETATM   15  O2  UNL     1      -1.163  -0.199   3.566  1.00  0.00    -0.268 OA
HETATM   16  N5  UNL     1      -0.438   1.074   1.812  1.00  0.00    -0.324 N 
HETATM   17  H25 UNL     1       0.247   1.494   2.471  1.00  0.00     0.169 HD
ENDROOT
BRANCH   5  18
HETATM   18  N2  UNL     1       1.862  -1.277  -0.837  1.00  0.00     0.124 N 
HETATM   19  H8  UNL     1       1.728  -2.099  -1.459  1.00  0.00     0.320 HD
BRANCH  18  20
HETATM   20  C9  UNL     1       3.206  -1.125  -0.499  1.00  0.00     0.271 A 
HETATM   21  C10 UNL     1       4.071  -0.808  -1.648  1.00  0.00     0.024 A 
HETATM   22  P1  UNL     1       5.325   0.312  -1.599  1.00  0.00    -0.058 P 
HETATM   23  C11 UNL     1       5.481   1.096   0.090  1.00  0.00     0.094 A 
HETATM   24  C12 UNL     1       4.372   0.657   0.979  1.00  0.00     0.015 A 
HETATM   25 CL1  UNL     1       4.297   1.451   2.547  1.00  0.00    -0.089 Cl
HETATM   26  C13 UNL     1       3.466  -0.261   0.683  1.00  0.00     0.032 A 
ENDBRANCH  18  20
ENDBRANCH   5  18
BRANCH   1  27
HETATM   27  O1  UNL     1      -1.574   3.435  -0.262  1.00  0.00    -0.349 OA
BRANCH  27  28
HETATM   28  C2  UNL     1      -1.527   4.082  -1.527  1.00  0.00     0.171 C 
HETATM   29  C1  UNL     1      -1.654   5.583  -1.297  1.00  0.00     0.034 C 
ENDBRANCH  27  28
ENDBRANCH   1  27
BRANCH  12  30
HETATM   30  C18 UNL     1      -2.757  -2.435  -0.248  1.00  0.00     0.312 C 
BRANCH  30  31
HETATM   31  N4  UNL     1      -2.830  -3.356   0.865  1.00  0.00     0.084 N 
HETATM   32  C19 UNL     1      -1.541  -3.703   1.425  1.00  0.00     0.309 C 
HETATM   33  C20 UNL     1      -3.600  -4.541   0.538  1.00  0.00     0.309 C 
ENDBRANCH  30  31
ENDBRANCH  12  30
TORSDOF 6
