REMARK  6 active torsions:
REMARK  status: ('A' for Active; 'I' for Inactive)
REMARK    1  A    between atoms: C2_2  and  O1_3 
REMARK    2  A    between atoms: O1_3  and  C3_4 
REMARK    3  A    between atoms: C9_12  and  N3_13 
REMARK    4  A    between atoms: N3_13  and  C10_14 
REMARK    5  A    between atoms: C10_14  and  C11_15 
REMARK    6  A    between atoms: C16_21  and  C17_22 
ROOT
HETATM    1  C3  UNL     1       2.303   0.679  -0.652  1.00  0.00     0.084 A 
HETATM    2  C4  UNL     1       1.594   1.820  -0.277  1.00  0.00     0.070 A 
HETATM    3  C5  UNL     1       0.401   1.750   0.416  1.00  0.00     0.071 A 
HETATM    4  N1  UNL     1      -0.201   2.912   0.727  1.00  0.00    -0.259 NA
HETATM    5  C6  UNL     1      -1.353   2.882   1.395  1.00  0.00     0.142 A 
HETATM    6  C7  UNL     1      -1.870   1.653   1.732  1.00  0.00     0.089 A 
HETATM    7  C8  UNL     1      -3.108   1.640   2.455  1.00  0.00     0.103 C 
HETATM    8  N2  UNL     1      -4.092   1.643   3.048  1.00  0.00    -0.191 NA
HETATM    9  C9  UNL     1      -1.277   0.446   1.427  1.00  0.00     0.063 A 
HETATM   10  C14 UNL     1      -0.086   0.508   0.736  1.00  0.00     0.022 A 
HETATM   11  C15 UNL     1       0.552  -0.676   0.404  1.00  0.00     0.033 A 
HETATM   12  C16 UNL     1       1.755  -0.545  -0.296  1.00  0.00     0.036 A 
ENDROOT
BRANCH   9  13
HETATM   13  N3  UNL     1      -1.791  -0.832   1.759  1.00  0.00    -0.384 N 
HETATM   14  H8  UNL     1      -1.393  -1.060   2.715  1.00  0.00     0.160 HD
BRANCH  13  15
HETATM   15  C10 UNL     1      -2.658  -1.732   1.068  1.00  0.00     0.148 C 
BRANCH  15  16
HETATM   16  C11 UNL     1      -3.964  -1.065   0.833  1.00  0.00     0.011 C 
HETATM   17  C12 UNL     1      -4.400  -0.892  -0.418  1.00  0.00     0.005 C 
HETATM   18  C13 UNL     1      -3.549  -1.382  -1.559  1.00  0.00     0.061 C 
HETATM   19 CL1  UNL     1      -5.933  -0.111  -0.733  1.00  0.00    -0.090 Cl
ENDBRANCH  15  16
ENDBRANCH  13  15
ENDBRANCH   9  13
BRANCH  12  20
HETATM   20  C17 UNL     1       2.421  -1.778  -0.643  1.00  0.00     0.272 C 
HETATM   21  O2  UNL     1       2.105  -2.974  -0.423  1.00  0.00    -0.301 OA
ENDBRANCH  12  20
BRANCH   1  22
HETATM   22  O1  UNL     1       3.396   0.713  -1.285  1.00  0.00    -0.350 OA
BRANCH  22  23
HETATM   23  C2  UNL     1       4.504   0.817  -1.929  1.00  0.00     0.171 C 
HETATM   24  C1  UNL     1       5.584   1.610  -1.150  1.00  0.00     0.034 C 
ENDBRANCH  22  23
ENDBRANCH   1  22
TORSDOF 6
