REMARK  3 active torsions:
REMARK  status: ('A' for Active; 'I' for Inactive)
REMARK    1  A    between atoms: O1_2  and  C2_3 
REMARK    2  A    between atoms: C6_9  and  N3_10 
REMARK    3  A    between atoms: N3_10  and  C7_11 
ROOT
HETATM    1  C2  UNL     1      -3.367  -0.305   0.168  1.00  0.00     0.090 C 
HETATM    2  C3  UNL     1      -3.460  -0.640  -1.183  1.00  0.00     0.057 C 
HETATM    3  C4  UNL     1      -2.590  -0.443  -2.236  1.00  0.00     0.120 C 
HETATM    4  N1  UNL     1      -1.320  -0.760  -1.982  1.00  0.00    -0.254 NA
HETATM    5  C5  UNL     1      -0.402   0.149  -1.564  1.00  0.00     0.234 C 
HETATM    6  N2  UNL     1       0.727  -0.374  -1.030  1.00  0.00    -0.225 NA
HETATM    7  C6  UNL     1       0.742  -0.863   0.233  1.00  0.00     0.129 C 
HETATM    8  C13 UNL     1      -0.220  -1.475   1.011  1.00  0.00     0.052 C 
HETATM    9  C14 UNL     1      -1.427  -1.105   1.569  1.00  0.00     0.029 C 
HETATM   10  C15 UNL     1      -2.769  -1.016   1.214  1.00  0.00     0.078 C 
HETATM   11  C16 UNL     1      -3.676  -1.771   2.051  1.00  0.00     0.102 C 
HETATM   12  N4  UNL     1      -4.412  -2.359   2.712  1.00  0.00    -0.191 NA
ENDROOT
BRANCH   1  13
HETATM   13  O1  UNL     1      -3.767   0.743   0.987  1.00  0.00    -0.354 OA
HETATM   14  C1  UNL     1      -4.470   1.815   0.389  1.00  0.00     0.210 C 
ENDBRANCH   1  13
BRANCH   7  15
HETATM   15  N3  UNL     1       1.986  -0.723   0.893  1.00  0.00    -0.338 N 
HETATM   16  H7  UNL     1       2.246  -1.021   1.869  1.00  0.00     0.167 HD
BRANCH  15  17
HETATM   17  C7  UNL     1       3.191  -0.146   0.406  1.00  0.00     0.074 A 
HETATM   18  C8  UNL     1       4.378  -0.834   0.297  1.00  0.00     0.033 A 
HETATM   19  C9  UNL     1       5.539  -0.235  -0.187  1.00  0.00     0.004 A 
HETATM   20  C10 UNL     1       5.521   1.091  -0.574  1.00  0.00     0.027 A 
HETATM   21  C11 UNL     1       4.322   1.782  -0.463  1.00  0.00     0.074 A 
HETATM   22 CL1  UNL     1       4.344   3.456  -0.965  1.00  0.00    -0.081 Cl
HETATM   23  C12 UNL     1       3.192   1.172   0.015  1.00  0.00     0.164 A 
HETATM   24  F1  UNL     1       2.086   1.961   0.073  1.00  0.00    -0.202 F 
ENDBRANCH  15  17
ENDBRANCH   7  15
TORSDOF 3
