REMARK  7 active torsions:
REMARK  status: ('A' for Active; 'I' for Inactive)
REMARK    1  A    between atoms: N1_2  and  C3_4 
REMARK    2  A    between atoms: C3_4  and  C4_5 
REMARK    3  A    between atoms: C5_6  and  C6_7 
REMARK       I    between atoms: C6_7  and  N2_9 
REMARK    4  A    between atoms: N2_9  and  C7_10 
REMARK    5  A    between atoms: C7_10  and  C8_11 
REMARK    6  A    between atoms: C8_11  and  C9_12 
REMARK    7  A    between atoms: C14_18  and  S1_19 
ROOT
HETATM    1  C7  UNL     1       1.339  -0.190   0.079  1.00  0.00     0.127 C 
ENDROOT
BRANCH   1   2
HETATM    2  N2  UNL     1       0.050   0.521   0.112  1.00  0.00    -0.357 N 
HETATM    3  C6  UNL     1      -1.134  -0.254   0.249  1.00  0.00     0.240 C 
HETATM    4  O1  UNL     1      -1.194  -1.504   0.346  1.00  0.00    -0.269 OA
HETATM    5  H11 UNL     1      -0.037   1.578   0.040  1.00  0.00     0.162 HD
BRANCH   3   6
HETATM    6  C5  UNL     1      -2.421   0.474   0.280  1.00  0.00     0.072 C 
HETATM    7  C4  UNL     1      -3.592  -0.175   0.406  1.00  0.00     0.008 C 
BRANCH   7   8
HETATM    8  C3  UNL     1      -4.862   0.549   0.437  1.00  0.00     0.299 C 
BRANCH   8   9
HETATM    9  N1  UNL     1      -5.706   0.141  -0.639  1.00  0.00     0.083 N 
HETATM   10  C1  UNL     1      -6.972   0.896  -0.611  1.00  0.00     0.309 C 
HETATM   11  C2  UNL     1      -6.103  -1.249  -0.545  1.00  0.00     0.309 C 
ENDBRANCH   8   9
ENDBRANCH   7   8
ENDBRANCH   3   6
ENDBRANCH   1   2
BRANCH   1  12
HETATM   12  C8  UNL     1       2.392   0.872  -0.071  1.00  0.00     0.059 C 
BRANCH  12  13
HETATM   13  C9  UNL     1       3.771   0.382  -0.128  1.00  0.00    -0.043 A 
HETATM   14  C10 UNL     1       4.600   0.574  -1.169  1.00  0.00    -0.017 A 
HETATM   15  C11 UNL     1       6.003   0.189  -1.461  1.00  0.00     0.047 A 
HETATM   16  C12 UNL     1       6.656  -0.590  -0.350  1.00  0.00     0.085 A 
HETATM   17 BR1  UNL     1       8.130   0.431   0.363  1.00  0.00    -0.087 Br
HETATM   18  C13 UNL     1       5.658  -0.741   0.739  1.00  0.00     0.009 A 
HETATM   19  C14 UNL     1       4.415  -0.372   0.938  1.00  0.00     0.020 A 
BRANCH  19  20
HETATM   20  S1  UNL     1       3.537  -0.751   2.419  1.00  0.00    -0.019 SA
HETATM   21 CL1  UNL     1       4.803  -1.844   3.704  1.00  0.00    -0.038 Cl
ENDBRANCH  19  20
ENDBRANCH  12  13
ENDBRANCH   1  12
TORSDOF 7
