REMARK  6 active torsions:
REMARK  status: ('A' for Active; 'I' for Inactive)
REMARK    1  A    between atoms: B1_1  and  C1_2 
REMARK    2  A    between atoms: C2_4  and  C3_5 
REMARK    3  A    between atoms: C3_5  and  N1_6 
REMARK    4  A    between atoms: N1_6  and  C4_7 
REMARK    5  A    between atoms: C8_11  and  O1_12 
REMARK    6  A    between atoms: O1_12  and  C9_13 
ROOT
HETATM    1  C4  UNL     1       0.904  -1.191  -0.209  1.00  0.00     0.065 A 
HETATM    2  C5  UNL     1      -0.291  -0.585  -0.279  1.00  0.00     0.021 A 
HETATM    3  C6  UNL     1      -0.193   0.791  -0.231  1.00  0.00     0.019 A 
HETATM    4  C7  UNL     1      -1.299   1.637  -0.290  1.00  0.00     0.038 A 
HETATM    5  C8  UNL     1      -2.542   1.050  -0.402  1.00  0.00     0.070 A 
HETATM    6  C11 UNL     1      -2.684  -0.340  -0.453  1.00  0.00     0.069 A 
HETATM    7  C12 UNL     1      -1.553  -1.123  -0.391  1.00  0.00     0.068 A 
HETATM    8  N2  UNL     1      -1.842  -2.358  -0.445  1.00  0.00    -0.268 NA
HETATM    9  C13 UNL     1      -1.149  -3.596  -0.423  1.00  0.00     0.298 A 
HETATM   10  N3  UNL     1       0.274  -3.550  -0.321  1.00  0.00    -0.271 NA
HETATM   11  C14 UNL     1       1.163  -2.618  -0.232  1.00  0.00     0.054 A 
HETATM   12  C15 UNL     1       2.603  -2.971  -0.142  1.00  0.00     0.072 C 
ENDROOT
BRANCH   1  13
HETATM   13  N1  UNL     1       1.953  -0.257  -0.104  1.00  0.00    -0.384 N 
HETATM   14  H6  UNL     1       2.166   0.169  -1.056  1.00  0.00     0.160 HD
BRANCH  13  15
HETATM   15  C3  UNL     1       2.670   0.101   1.101  1.00  0.00     0.147 C 
BRANCH  15  16
HETATM   16  C2  UNL     1       3.687   1.150   0.829  1.00  0.00    -0.002 C 
HETATM   17  C1  UNL     1       4.988   1.198   0.960  1.00  0.00    -0.044 C 
HETATM   18 CL1  UNL     1       5.747  -0.266   1.586  1.00  0.00    -0.103 Cl
BRANCH  17  19
HETATM   19  B1  UNL     1       5.942   2.404   0.623  1.00  0.00     0.189 B 
HETATM   20  H1  UNL     1       5.857   3.333   1.375  1.00  0.00    -0.025 HD
HETATM   21  H2  UNL     1       6.371   2.543  -0.473  1.00  0.00    -0.025 HD
ENDBRANCH  17  19
ENDBRANCH  15  16
ENDBRANCH  13  15
ENDBRANCH   1  13
BRANCH   5  22
HETATM   22  O1  UNL     1      -3.640   1.880  -0.460  1.00  0.00    -0.351 OA
BRANCH  22  23
HETATM   23  C9  UNL     1      -4.973   1.478  -0.574  1.00  0.00     0.171 C 
HETATM   24  C10 UNL     1      -5.817   2.749  -0.597  1.00  0.00     0.034 C 
ENDBRANCH  22  23
ENDBRANCH   5  22
TORSDOF 6
