REMARK  7 active torsions:
REMARK  status: ('A' for Active; 'I' for Inactive)
REMARK    1  A    between atoms: C2_3  and  C3_4 
REMARK    2  A    between atoms: C3_4  and  C4_5 
REMARK    3  A    between atoms: C6_8  and  N3_10 
REMARK    4  A    between atoms: N3_10  and  C7_11 
REMARK    5  A    between atoms: C7_11  and  C8_12 
REMARK    6  A    between atoms: C9_13  and  N4_14 
REMARK    7  A    between atoms: C9_13  and  C10_15 
ROOT
HETATM    1  C4  UNL     1       4.582   1.489  -0.011  1.00  0.00     0.167 C 
HETATM    2  C5  UNL     1       3.311   2.095  -0.328  1.00  0.00     0.063 C 
HETATM    3  N2  UNL     1       2.288   2.565  -0.593  1.00  0.00    -0.197 NA
ENDROOT
BRANCH   1   4
HETATM    4  C3  UNL     1       4.552   0.012  -0.126  1.00  0.00     0.010 C 
HETATM    5  C6  UNL     1       3.343  -0.324  -0.488  1.00  0.00     0.108 C 
HETATM    6 CL1  UNL     1       3.723  -2.058  -0.506  1.00  0.00    -0.064 Cl
BRANCH   4   7
HETATM    7  C2  UNL     1       5.656  -0.882   0.119  1.00  0.00     0.121 C 
HETATM    8  N1  UNL     1       6.722  -0.252   0.463  1.00  0.00    -0.306 NA
HETATM    9  C1  UNL     1       7.940  -0.980   0.752  1.00  0.00     0.177 C 
ENDBRANCH   4   7
BRANCH   5  10
HETATM   10  N3  UNL     1       2.008  -0.533  -0.877  1.00  0.00    -0.377 N 
HETATM   11  H7  UNL     1       1.784  -0.541  -1.917  1.00  0.00     0.160 HD
BRANCH  10  12
HETATM   12  C7  UNL     1       1.188  -0.695   0.328  1.00  0.00     0.150 C 
BRANCH  12  13
HETATM   13  C8  UNL     1      -0.225  -0.933  -0.016  1.00  0.00     0.024 C 
HETATM   14  C9  UNL     1      -1.149  -0.112   0.398  1.00  0.00     0.057 C 
BRANCH  14  15
HETATM   15  N4  UNL     1      -0.547   0.920   1.154  1.00  0.00    -0.397 N 
HETATM   16  H11 UNL     1      -0.110   1.484   1.875  1.00  0.00     0.156 HD
HETATM   17  H12 UNL     1      -0.228   1.905   1.098  1.00  0.00     0.156 HD
ENDBRANCH  14  15
BRANCH  14  18
HETATM   18  C10 UNL     1      -2.585  -0.073   0.233  1.00  0.00     0.090 C 
HETATM   19  C11 UNL     1      -3.047  -1.080  -0.486  1.00  0.00     0.012 C 
HETATM   20  C12 UNL     1      -4.331  -1.587  -0.987  1.00  0.00     0.030 C 
HETATM   21  C13 UNL     1      -5.513  -0.849  -0.401  1.00  0.00     0.004 C 
HETATM   22  C14 UNL     1      -5.810   0.449  -1.078  1.00  0.00     0.002 C 
HETATM   23  C15 UNL     1      -4.920   1.585  -0.710  1.00  0.00     0.027 C 
HETATM   24  C16 UNL     1      -4.478   1.641   0.710  1.00  0.00     0.175 C 
HETATM   25  O1  UNL     1      -3.199   1.004   0.853  1.00  0.00    -0.349 OA
ENDBRANCH  14  18
ENDBRANCH  12  13
ENDBRANCH  10  12
ENDBRANCH   5  10
ENDBRANCH   1   4
TORSDOF 7
