REMARK  7 active torsions:
REMARK  status: ('A' for Active; 'I' for Inactive)
REMARK    1  A    between atoms: C2_2  and  C3_3 
REMARK    2  A    between atoms: C3_3  and  C4_5 
REMARK    3  A    between atoms: C4_5  and  N1_6 
REMARK    4  A    between atoms: N1_6  and  C5_7 
REMARK    5  A    between atoms: C8_10  and  O1_11 
REMARK    6  A    between atoms: O1_11  and  C9_12 
REMARK    7  A    between atoms: C9_12  and  C10_13 
ROOT
HETATM    1  C5  UNL     1       1.403  -1.048  -1.044  1.00  0.00     0.028 A 
HETATM    2  C6  UNL     1       0.806  -2.292  -1.248  1.00  0.00     0.032 A 
HETATM    3  C7  UNL     1      -0.450  -2.509  -0.696  1.00  0.00     0.039 A 
HETATM    4  C8  UNL     1      -1.143  -1.543   0.052  1.00  0.00     0.069 A 
HETATM    5  C16 UNL     1      -0.501  -0.340   0.216  1.00  0.00     0.039 A 
HETATM    6  C17 UNL     1       0.742  -0.087  -0.314  1.00  0.00     0.032 A 
ENDROOT
BRANCH   4   7
HETATM    7  O1  UNL     1      -2.321  -2.093   0.428  1.00  0.00    -0.347 OA
BRANCH   7   8
HETATM    8  C9  UNL     1      -3.402  -1.671   1.145  1.00  0.00     0.214 C 
BRANCH   8   9
HETATM    9  C10 UNL     1      -4.053  -0.505   0.504  1.00  0.00    -0.034 A 
HETATM   10  C11 UNL     1      -3.921   0.846   0.711  1.00  0.00     0.009 A 
HETATM   11  C12 UNL     1      -4.615   1.781  -0.009  1.00  0.00     0.001 A 
HETATM   12  C13 UNL     1      -5.496   1.431  -0.994  1.00  0.00     0.000 A 
HETATM   13  C14 UNL     1      -5.677   0.091  -1.254  1.00  0.00     0.001 A 
HETATM   14  C15 UNL     1      -4.969  -0.804  -0.516  1.00  0.00     0.009 A 
ENDBRANCH   8   9
ENDBRANCH   7   8
ENDBRANCH   4   7
BRANCH   1  15
HETATM   15  N1  UNL     1       2.668  -0.693  -1.571  1.00  0.00    -0.388 N 
HETATM   16  H9  UNL     1       3.101  -1.437  -2.170  1.00  0.00     0.159 HD
BRANCH  15  17
HETATM   17  C4  UNL     1       3.472   0.503  -1.435  1.00  0.00     0.140 C 
BRANCH  17  18
HETATM   18  C3  UNL     1       4.016   0.563  -0.027  1.00  0.00     0.099 C 
HETATM   19 CL1  UNL     1       5.045  -0.890   0.214  1.00  0.00    -0.123 Cl
BRANCH  18  20
HETATM   20  C2  UNL     1       4.868   1.808   0.173  1.00  0.00     0.017 C 
HETATM   21  C1  UNL     1       5.414   1.763   1.591  1.00  0.00     0.006 C 
ENDBRANCH  18  20
ENDBRANCH  17  18
ENDBRANCH  15  17
ENDBRANCH   1  15
TORSDOF 7
