REMARK  5 active torsions:
REMARK  status: ('A' for Active; 'I' for Inactive)
REMARK    1  A    between atoms: C2_3  and  C3_4 
REMARK    2  A    between atoms: C3_4  and  C4_5 
REMARK    3  A    between atoms: C4_5  and  C5_6 
REMARK    4  A    between atoms: C7_9  and  N3_11 
REMARK    5  A    between atoms: N3_11  and  C8_12 
ROOT
HETATM    1  C5  UNL     1      -2.848   2.500  -0.715  1.00  0.00     0.128 C 
HETATM    2  C6  UNL     1      -2.471   3.903  -0.959  1.00  0.00     0.059 C 
HETATM    3  N2  UNL     1      -2.182   5.016  -1.169  1.00  0.00    -0.197 NA
ENDROOT
BRANCH   1   4
HETATM    4  C4  UNL     1      -2.535   1.769  -2.019  1.00  0.00     0.057 C 
BRANCH   4   5
HETATM    5  C3  UNL     1      -2.877   0.334  -1.895  1.00  0.00    -0.002 C 
HETATM    6  C7  UNL     1      -2.003  -0.638  -2.038  1.00  0.00     0.111 C 
HETATM    7 CL1  UNL     1      -2.514  -2.300  -1.874  1.00  0.00    -0.064 Cl
BRANCH   5   8
HETATM    8  C2  UNL     1      -4.262  -0.011  -1.599  1.00  0.00     0.120 C 
HETATM    9  N1  UNL     1      -4.611  -1.251  -1.486  1.00  0.00    -0.306 NA
HETATM   10  C1  UNL     1      -5.978  -1.625  -1.194  1.00  0.00     0.177 C 
ENDBRANCH   5   8
BRANCH   6  11
HETATM   11  N3  UNL     1      -0.625  -0.454  -2.324  1.00  0.00    -0.349 N 
HETATM   12  H9  UNL     1       0.079  -0.315  -3.076  1.00  0.00     0.166 HD
BRANCH  11  13
HETATM   13  C8  UNL     1       0.296  -0.430  -1.192  1.00  0.00     0.020 C 
HETATM   14  C9  UNL     1       0.977   0.437  -0.496  1.00  0.00     0.090 C 
HETATM   15  C10 UNL     1       1.414   1.774  -0.196  1.00  0.00     0.258 C 
HETATM   16  N4  UNL     1       2.104   2.079   0.862  1.00  0.00    -0.424 NA
HETATM   17  C11 UNL     1       2.506   1.166   1.861  1.00  0.00     0.107 C 
HETATM   18  C12 UNL     1       3.939   0.730   1.924  1.00  0.00     0.021 C 
HETATM   19  C13 UNL     1       4.119  -0.356   2.928  1.00  0.00     0.028 C 
HETATM   20  C14 UNL     1       3.812  -1.746   2.657  1.00  0.00     0.168 C 
HETATM   21  O1  UNL     1       2.691  -2.241   2.060  1.00  0.00    -0.387 OA
HETATM   22  C15 UNL     1       2.641  -2.002   0.753  1.00  0.00     0.195 C 
HETATM   23  C16 UNL     1       1.589  -2.526  -0.116  1.00  0.00     0.001 C 
HETATM   24  C17 UNL     1       0.719  -1.799  -0.848  1.00  0.00     0.024 C 
ENDBRANCH  11  13
ENDBRANCH   6  11
ENDBRANCH   4   5
ENDBRANCH   1   4
TORSDOF 5
