REMARK  3 active torsions:
REMARK  status: ('A' for Active; 'I' for Inactive)
REMARK    1  A    between atoms: C4_5  and  O1_6 
REMARK    2  A    between atoms: O1_6  and  C5_7 
REMARK    3  A    between atoms: C5_7  and  C6_8 
ROOT
HETATM    1  C6  UNL     1       1.253  -1.105  -0.093  1.00  0.00    -0.033 A 
HETATM    2  C7  UNL     1       1.996  -1.680   0.937  1.00  0.00     0.010 A 
HETATM    3  C8  UNL     1       3.302  -1.322   1.217  1.00  0.00     0.013 A 
HETATM    4  C9  UNL     1       3.863  -0.344   0.418  1.00  0.00    -0.026 A 
HETATM    5  C10 UNL     1       5.179   0.025   0.691  1.00  0.00     0.012 A 
HETATM    6  C11 UNL     1       5.766   1.006  -0.099  1.00  0.00     0.001 A 
HETATM    7  C12 UNL     1       5.057   1.601  -1.133  1.00  0.00     0.001 A 
HETATM    8  C13 UNL     1       3.741   1.223  -1.396  1.00  0.00     0.012 A 
HETATM    9  C14 UNL     1       3.156   0.250  -0.615  1.00  0.00    -0.025 A 
HETATM   10  C15 UNL     1       1.858  -0.132  -0.865  1.00  0.00     0.021 A 
ENDROOT
BRANCH   1  11
HETATM   11  C5  UNL     1      -0.135  -1.623  -0.238  1.00  0.00     0.213 C 
BRANCH  11  12
HETATM   12  O1  UNL     1      -0.974  -0.818   0.574  1.00  0.00    -0.358 OA
BRANCH  12  13
HETATM   13  C4  UNL     1      -2.321  -0.989   0.701  1.00  0.00     0.146 C 
HETATM   14  C3  UNL     1      -3.352  -0.218   0.402  1.00  0.00    -0.013 A 
HETATM   15  C2  UNL     1      -3.120   1.073  -0.177  1.00  0.00     0.033 A 
HETATM   16  C16 UNL     1      -4.662  -0.772   0.697  1.00  0.00     0.009 A 
HETATM   17  C1  UNL     1      -4.227   1.774  -0.442  1.00  0.00     0.016 A 
HETATM   18 CL1  UNL     1      -4.037   3.363  -1.150  1.00  0.00    -0.089 Cl
HETATM   19  C18 UNL     1      -5.603   1.336  -0.196  1.00  0.00     0.078 A 
HETATM   20  C17 UNL     1      -5.716  -0.016   0.405  1.00  0.00    -0.020 A 
ENDBRANCH  12  13
ENDBRANCH  11  12
ENDBRANCH   1  11
TORSDOF 3
