REMARK  0 active torsions:
REMARK  status: ('A' for Active; 'I' for Inactive)
ROOT
HETATM    1  N1  UNL     1      -4.834  -3.336   1.379  1.00  0.00    -0.192 NA
HETATM    2  C1  UNL     1      -3.726  -3.131   1.127  1.00  0.00     0.096 C 
HETATM    3  C2  UNL     1      -2.348  -2.900   0.805  1.00  0.00     0.040 C 
HETATM    4  C3  UNL     1      -1.468  -3.888   0.537  1.00  0.00     0.134 C 
HETATM    5  N2  UNL     1      -0.132  -3.617   0.226  1.00  0.00    -0.276 NA
HETATM    6  C4  UNL     1       0.445  -4.072  -0.813  1.00  0.00     0.093 C 
HETATM    7  C5  UNL     1       1.833  -3.524  -0.718  1.00  0.00     0.075 C 
HETATM    8  C6  UNL     1       1.749  -2.018  -0.689  1.00  0.00    -0.005 C 
HETATM    9  C7  UNL     1       2.088  -1.088   0.173  1.00  0.00     0.084 C 
HETATM   10  N3  UNL     1       2.326   0.099   0.855  1.00  0.00    -0.376 N 
HETATM   11  C8  UNL     1       3.413   0.990   0.717  1.00  0.00     0.087 C 
HETATM   12  C9  UNL     1       3.666   2.259   0.474  1.00  0.00     0.019 C 
HETATM   13  C10 UNL     1       2.880   3.451   0.210  1.00  0.00     0.025 C 
HETATM   14  C11 UNL     1       1.635   3.844   0.087  1.00  0.00     0.134 C 
HETATM   15  O1  UNL     1       0.339   3.296   0.147  1.00  0.00    -0.363 OA
HETATM   16  C12 UNL     1      -0.619   3.717  -0.811  1.00  0.00     0.178 C 
HETATM   17  C13 UNL     1      -2.009   3.325  -0.470  1.00  0.00     0.053 C 
HETATM   18  C14 UNL     1      -2.290   1.888  -0.399  1.00  0.00    -0.029 C 
HETATM   19  C15 UNL     1      -1.985   0.616  -0.469  1.00  0.00    -0.030 C 
HETATM   20  C16 UNL     1      -2.529  -0.760  -0.336  1.00  0.00     0.032 C 
HETATM   21  C17 UNL     1      -1.814  -1.524   0.759  1.00  0.00     0.055 C 
HETATM   22  H7  UNL     1       1.695   0.486   1.582  1.00  0.00     0.164 HD
ENDROOT
TORSDOF 0
