REMARK  5 active torsions:
REMARK  status: ('A' for Active; 'I' for Inactive)
REMARK    1  A    between atoms: C6_8  and  N2_9 
REMARK    2  A    between atoms: N2_9  and  C7_10 
REMARK    3  A    between atoms: C10_13  and  O1_14 
REMARK    4  A    between atoms: O1_14  and  C11_15 
REMARK    5  A    between atoms: C11_15  and  C12_16 
ROOT
HETATM    1  N1  UNL     1      -6.934  -2.609  -0.997  1.00  0.00    -0.191 NA
HETATM    2  C1  UNL     1      -6.551  -1.623  -0.507  1.00  0.00     0.102 C 
HETATM    3  C2  UNL     1      -6.057  -0.405   0.107  1.00  0.00     0.084 C 
HETATM    4  C3  UNL     1      -6.714   0.370   0.923  1.00  0.00     0.022 C 
HETATM    5  C4  UNL     1      -5.970   1.304   1.491  1.00  0.00     0.049 C 
HETATM    6 CL1  UNL     1      -6.424   2.360   2.777  1.00  0.00    -0.083 Cl
HETATM    7  C5  UNL     1      -4.701   1.224   0.778  1.00  0.00     0.056 C 
HETATM    8  C6  UNL     1      -4.720   0.204  -0.063  1.00  0.00     0.056 C 
ENDROOT
BRANCH   8   9
HETATM    9  N2  UNL     1      -3.758  -0.307  -0.976  1.00  0.00    -0.355 N 
HETATM   10  H2  UNL     1      -4.069  -0.789  -1.845  1.00  0.00     0.166 HD
BRANCH   9  11
HETATM   11  C7  UNL     1      -2.354  -0.215  -0.804  1.00  0.00     0.034 A 
HETATM   12  C8  UNL     1      -1.525   0.789  -1.269  1.00  0.00     0.032 A 
HETATM   13  C9  UNL     1      -0.181   0.686  -0.986  1.00  0.00     0.041 A 
HETATM   14  C10 UNL     1       0.355  -0.364  -0.269  1.00  0.00     0.091 A 
HETATM   15  C18 UNL     1      -0.489  -1.356   0.186  1.00  0.00     0.069 A 
HETATM   16 CL2  UNL     1       0.195  -2.697   1.101  1.00  0.00    -0.081 Cl
HETATM   17  C19 UNL     1      -1.848  -1.296  -0.074  1.00  0.00     0.056 A 
BRANCH  14  18
HETATM   18  O1  UNL     1       1.703  -0.458   0.009  1.00  0.00    -0.345 OA
BRANCH  18  19
HETATM   19  C11 UNL     1       2.560   0.571  -0.466  1.00  0.00     0.214 C 
BRANCH  19  20
HETATM   20  C12 UNL     1       3.975   0.310  -0.077  1.00  0.00    -0.034 A 
HETATM   21  C13 UNL     1       4.770  -0.429  -0.934  1.00  0.00     0.009 A 
HETATM   22  C14 UNL     1       6.080  -0.748  -0.718  1.00  0.00     0.001 A 
HETATM   23  C15 UNL     1       6.619  -0.272   0.470  1.00  0.00     0.000 A 
HETATM   24  C16 UNL     1       5.850   0.479   1.365  1.00  0.00     0.001 A 
HETATM   25  C17 UNL     1       4.514   0.770   1.083  1.00  0.00     0.009 A 
ENDBRANCH  19  20
ENDBRANCH  18  19
ENDBRANCH  14  18
ENDBRANCH   9  11
ENDBRANCH   8   9
TORSDOF 5
