REMARK  7 active torsions:
REMARK  status: ('A' for Active; 'I' for Inactive)
REMARK    1  A    between atoms: C4_6  and  S1_7 
REMARK    2  A    between atoms: S1_7  and  C5_8 
REMARK    3  A    between atoms: C8_11  and  N3_12 
REMARK    4  A    between atoms: N3_12  and  C9_13 
REMARK    5  A    between atoms: C12_16  and  N4_17 
REMARK    6  A    between atoms: N4_17  and  C13_18 
REMARK    7  A    between atoms: C13_18  and  C14_19 
ROOT
HETATM    1  C9  UNL     1      -1.734  -1.508  -0.472  1.00  0.00     0.056 C 
HETATM    2  C10 UNL     1      -2.153  -0.263  -0.760  1.00  0.00     0.033 C 
HETATM    3  C11 UNL     1      -3.343   0.501  -0.381  1.00  0.00     0.027 C 
HETATM    4  C12 UNL     1      -4.572   0.095  -0.124  1.00  0.00     0.011 C 
HETATM    5  C15 UNL     1      -5.466  -1.052  -0.039  1.00  0.00     0.118 C 
HETATM    6  C16 UNL     1      -4.841  -2.215   0.606  1.00  0.00     0.071 A 
HETATM    7  N5  UNL     1      -4.762  -3.301   1.309  1.00  0.00    -0.247 NA
HETATM    8  C17 UNL     1      -3.543  -2.850   0.766  1.00  0.00     0.105 A 
HETATM    9  C18 UNL     1      -2.318  -2.591   0.347  1.00  0.00     0.102 C 
HETATM   10  C19 UNL     1      -1.364  -3.561   0.774  1.00  0.00     0.104 C 
HETATM   11  N6  UNL     1      -0.600  -4.357   1.105  1.00  0.00    -0.191 NA
ENDROOT
BRANCH   1  12
HETATM   12  N3  UNL     1      -0.492  -1.895  -1.046  1.00  0.00    -0.355 N 
HETATM   13  H8  UNL     1      -0.630  -2.432  -1.906  1.00  0.00     0.166 HD
BRANCH  12  14
HETATM   14  C8  UNL     1       0.766  -1.579  -0.499  1.00  0.00     0.034 A 
HETATM   15  C7  UNL     1       0.854  -0.849   0.668  1.00  0.00     0.031 A 
HETATM   16  C6  UNL     1       2.108  -0.564   1.165  1.00  0.00     0.023 A 
HETATM   17  C5  UNL     1       3.245  -0.999   0.511  1.00  0.00     0.030 A 
HETATM   18  C21 UNL     1       3.148  -1.734  -0.663  1.00  0.00     0.053 A 
HETATM   19  C20 UNL     1       1.883  -2.026  -1.173  1.00  0.00     0.054 A 
HETATM   20 CL1  UNL     1       4.526  -2.337  -1.576  1.00  0.00    -0.083 Cl
BRANCH  17  21
HETATM   21  S1  UNL     1       4.931  -0.712   1.028  1.00  0.00    -0.051 SA
BRANCH  21  22
HETATM   22  C4  UNL     1       5.525   0.812   0.305  1.00  0.00     0.172 A 
HETATM   23  N1  UNL     1       6.749   1.328   0.485  1.00  0.00    -0.339 N 
HETATM   24  C1  UNL     1       7.842   0.809   1.269  1.00  0.00     0.158 C 
HETATM   25  C2  UNL     1       6.877   2.485  -0.199  1.00  0.00     0.112 A 
HETATM   26  C3  UNL     1       5.658   2.688  -0.833  1.00  0.00     0.136 A 
HETATM   27  N2  UNL     1       4.850   1.661  -0.516  1.00  0.00    -0.235 NA
ENDBRANCH  21  22
ENDBRANCH  17  21
ENDBRANCH  12  14
ENDBRANCH   1  12
BRANCH   4  28
HETATM   28  N4  UNL     1      -5.261   1.329   0.185  1.00  0.00    -0.387 N 
HETATM   29  H11 UNL     1      -5.280   1.296   1.241  1.00  0.00     0.159 HD
BRANCH  28  30
HETATM   30  C13 UNL     1      -5.851   2.448  -0.519  1.00  0.00     0.188 C 
BRANCH  30  31
HETATM   31  C14 UNL     1      -6.422   3.423   0.463  1.00  0.00     0.250 C 
HETATM   32  O1  UNL     1      -6.390   3.289   1.666  1.00  0.00    -0.305 OA
ENDBRANCH  30  31
ENDBRANCH  28  30
ENDBRANCH   4  28
TORSDOF 7
