REMARK  7 active torsions:
REMARK  status: ('A' for Active; 'I' for Inactive)
REMARK    1  A    between atoms: C1_2  and  C2_3 
REMARK       I    between atoms: C1_2  and  N3_10 
REMARK    2  A    between atoms: C3_4  and  C4_5 
REMARK    3  A    between atoms: N3_10  and  C7_11 
REMARK    4  A    between atoms: N4_15  and  C11_16 
REMARK    5  A    between atoms: C14_19  and  O2_20 
REMARK    6  A    between atoms: O2_20  and  C15_21 
REMARK    7  A    between atoms: C15_21  and  C16_22 
ROOT
HETATM    1  C7  UNL     1       2.068   1.935  -0.238  1.00  0.00     0.114 A 
HETATM    2  C8  UNL     1       3.003   2.931  -0.059  1.00  0.00     0.050 A 
HETATM    3  C9  UNL     1       2.399   4.190  -0.103  1.00  0.00     0.021 A 
HETATM    4  C10 UNL     1       1.071   3.894  -0.315  1.00  0.00     0.099 A 
HETATM    5  N4  UNL     1       0.891   2.564  -0.392  1.00  0.00    -0.308 N 
ENDROOT
BRANCH   5   6
HETATM    6  C11 UNL     1      -0.408   2.024  -0.608  1.00  0.00     0.042 A 
HETATM    7  C12 UNL     1      -0.906   1.453   0.558  1.00  0.00     0.033 A 
HETATM    8  C13 UNL     1      -2.170   0.862   0.573  1.00  0.00     0.041 A 
HETATM    9  C14 UNL     1      -2.931   0.846  -0.584  1.00  0.00     0.091 A 
HETATM   10  C22 UNL     1      -2.419   1.416  -1.727  1.00  0.00     0.069 A 
HETATM   11 CL1  UNL     1      -3.314   1.440  -3.236  1.00  0.00    -0.081 Cl
HETATM   12  C23 UNL     1      -1.171   2.004  -1.759  1.00  0.00     0.056 A 
BRANCH   9  13
HETATM   13  O2  UNL     1      -4.205   0.262  -0.611  1.00  0.00    -0.345 OA
BRANCH  13  14
HETATM   14  C15 UNL     1      -4.694  -0.316   0.597  1.00  0.00     0.214 C 
BRANCH  14  15
HETATM   15  C16 UNL     1      -6.040  -0.893   0.435  1.00  0.00    -0.034 A 
HETATM   16  C17 UNL     1      -7.117  -0.038   0.686  1.00  0.00     0.009 A 
HETATM   17  C18 UNL     1      -8.395  -0.580   0.534  1.00  0.00     0.001 A 
HETATM   18  C19 UNL     1      -8.638  -1.898   0.153  1.00  0.00     0.000 A 
HETATM   19  C20 UNL     1      -7.533  -2.676  -0.077  1.00  0.00     0.001 A 
HETATM   20  C21 UNL     1      -6.240  -2.207   0.055  1.00  0.00     0.009 A 
ENDBRANCH  14  15
ENDBRANCH  13  14
ENDBRANCH   9  13
ENDBRANCH   5   6
BRANCH   1  21
HETATM   21  N3  UNL     1       2.249   0.527  -0.263  1.00  0.00    -0.309 N 
HETATM   22  C1  UNL     1       3.491  -0.138  -0.101  1.00  0.00     0.246 C 
HETATM   23  O1  UNL     1       4.529   0.548   0.081  1.00  0.00    -0.268 OA
HETATM   24  H8  UNL     1       1.426  -0.098  -0.411  1.00  0.00     0.170 HD
BRANCH  22  25
HETATM   25  C2  UNL     1       3.576  -1.589  -0.143  1.00  0.00     0.072 C 
HETATM   26  C3  UNL     1       4.708  -2.249   0.004  1.00  0.00     0.007 C 
BRANCH  26  27
HETATM   27  C4  UNL     1       6.010  -1.571   0.226  1.00  0.00     0.150 C 
HETATM   28  C5  UNL     1       7.124  -2.582   0.454  1.00  0.00     0.151 C 
HETATM   29  N1  UNL     1       8.285  -1.762   0.085  1.00  0.00    -0.383 N 
HETATM   30  C6  UNL     1       7.785  -1.033  -1.019  1.00  0.00     0.197 C 
HETATM   31  H6  UNL     1       9.284  -1.549   0.342  1.00  0.00     0.160 HD
HETATM   32  N2  UNL     1       6.506  -0.910  -0.967  1.00  0.00    -0.274 NA
ENDBRANCH  26  27
ENDBRANCH  22  25
ENDBRANCH   1  21
TORSDOF 7
