REMARK  7 active torsions:
REMARK  status: ('A' for Active; 'I' for Inactive)
REMARK    1  A    between atoms: C3_3  and  O1_4 
REMARK    2  A    between atoms: O1_4  and  C4_5 
REMARK    3  A    between atoms: C11_14  and  N3_15 
REMARK    4  A    between atoms: N3_15  and  C12_16 
REMARK    5  A    between atoms: C15_19  and  O2_20 
REMARK    6  A    between atoms: O2_20  and  C16_21 
REMARK    7  A    between atoms: C16_21  and  C17_22 
ROOT
HETATM    1  C1  UNL     1       3.225   0.712   0.971  1.00  0.00     0.027 C 
HETATM    2  C2  UNL     1       3.767  -0.244   0.263  1.00  0.00     0.003 A 
HETATM    3  C3  UNL     1       4.878  -0.035  -0.650  1.00  0.00     0.081 A 
HETATM    4  C6  UNL     1       5.169  -1.206  -1.192  1.00  0.00     0.070 A 
HETATM    5  C7  UNL     1       4.260  -2.210  -0.652  1.00  0.00     0.072 A 
HETATM    6  N1  UNL     1       4.123  -3.549  -0.864  1.00  0.00    -0.259 NA
HETATM    7  C8  UNL     1       3.184  -4.269  -0.227  1.00  0.00     0.142 A 
HETATM    8  C9  UNL     1       2.296  -3.725   0.678  1.00  0.00     0.089 A 
HETATM    9  C10 UNL     1       1.293  -4.495   1.359  1.00  0.00     0.103 C 
HETATM   10  N2  UNL     1       0.490  -5.110   1.922  1.00  0.00    -0.191 NA
HETATM   11  C11 UNL     1       2.409  -2.375   0.914  1.00  0.00     0.068 A 
HETATM   12  C24 UNL     1       3.372  -1.632   0.262  1.00  0.00     0.033 A 
ENDROOT
BRANCH  11  13
HETATM   13  N3  UNL     1       1.530  -1.742   1.832  1.00  0.00    -0.354 N 
HETATM   14  H10 UNL     1       1.855  -1.695   2.822  1.00  0.00     0.166 HD
BRANCH  13  15
HETATM   15  C12 UNL     1       0.263  -1.202   1.406  1.00  0.00     0.034 A 
HETATM   16  C13 UNL     1      -0.050  -1.326   0.068  1.00  0.00     0.032 A 
HETATM   17  C14 UNL     1      -1.286  -0.787  -0.298  1.00  0.00     0.041 A 
HETATM   18  C15 UNL     1      -2.121  -0.177   0.640  1.00  0.00     0.090 A 
HETATM   19  C22 UNL     1      -1.732  -0.094   1.960  1.00  0.00     0.069 A 
HETATM   20 CL1  UNL     1      -2.752   0.664   3.166  1.00  0.00    -0.081 Cl
HETATM   21  C23 UNL     1      -0.521  -0.609   2.381  1.00  0.00     0.056 A 
BRANCH  18  22
HETATM   22  O2  UNL     1      -3.355   0.359   0.271  1.00  0.00    -0.346 OA
BRANCH  22  23
HETATM   23  C16 UNL     1      -3.792   0.293  -1.090  1.00  0.00     0.197 C 
BRANCH  23  24
HETATM   24  C17 UNL     1      -5.135   0.952  -1.128  1.00  0.00    -0.100 A 
HETATM   25  C18 UNL     1      -5.308   2.015  -1.897  1.00  0.00    -0.008 A 
HETATM   26  C19 UNL     1      -6.616   2.662  -1.937  1.00  0.00    -0.006 A 
HETATM   27  C20 UNL     1      -7.620   2.211  -1.230  1.00  0.00    -0.036 A 
HETATM   28  C21 UNL     1      -7.715   1.058  -0.296  1.00  0.00    -0.021 A 
HETATM   29  B1  UNL     1      -6.287   0.364  -0.261  1.00  0.00     0.195 B 
HETATM   30  H20 UNL     1      -6.025  -0.518   0.473  1.00  0.00    -0.021 HD
ENDBRANCH  23  24
ENDBRANCH  22  23
ENDBRANCH  18  22
ENDBRANCH  13  15
ENDBRANCH  11  13
BRANCH   3  31
HETATM   31  O1  UNL     1       5.612   1.059  -1.016  1.00  0.00    -0.351 OA
BRANCH  31  32
HETATM   32  C4  UNL     1       5.493   2.363  -0.546  1.00  0.00     0.171 C 
HETATM   33  C5  UNL     1       6.488   3.311  -1.185  1.00  0.00     0.034 C 
ENDBRANCH  31  32
ENDBRANCH   3  31
TORSDOF 7
