REMARK  5 active torsions:
REMARK  status: ('A' for Active; 'I' for Inactive)
REMARK    1  A    between atoms: C15_20  and  N4_21 
REMARK    2  A    between atoms: N4_21  and  C16_22 
REMARK    3  A    between atoms: C16_22  and  C18_24 
REMARK    4  A    between atoms: C18_24  and  C19_25 
REMARK    5  A    between atoms: C19_25  and  C20_26 
ROOT
HETATM    1  C1  UNL     1      -2.046   4.667   0.210  1.00  0.00     0.046 C 
HETATM    2  C2  UNL     1      -2.364   3.497   0.696  1.00  0.00     0.060 C 
HETATM    3  N1  UNL     1      -1.119   2.863   0.219  1.00  0.00    -0.362 N 
HETATM    4  C3  UNL     1      -1.122   1.508   0.489  1.00  0.00     0.238 C 
HETATM    5  N2  UNL     1      -2.170   1.061  -0.432  1.00  0.00    -0.253 NA
HETATM    6  C4  UNL     1      -1.813   0.007  -1.147  1.00  0.00     0.229 C 
HETATM    7  N3  UNL     1      -2.158  -0.971  -2.153  1.00  0.00    -0.255 NA
HETATM    8  C5  UNL     1      -2.623  -2.150  -1.744  1.00  0.00     0.117 C 
HETATM    9  C6  UNL     1      -2.859  -2.698  -0.388  1.00  0.00     0.016 C 
HETATM   10  C7  UNL     1      -2.636  -2.418   0.878  1.00  0.00    -0.016 C 
HETATM   11  C8  UNL     1      -1.982  -1.391   1.821  1.00  0.00     0.036 C 
HETATM   12  C9  UNL     1      -3.242  -0.679   2.329  1.00  0.00     0.042 C 
HETATM   13  C10 UNL     1      -3.865   0.551   2.342  1.00  0.00     0.025 C 
HETATM   14  C11 UNL     1      -4.163   2.004   2.112  1.00  0.00     0.053 C 
HETATM   15 CL1  UNL     1      -5.696   2.439   2.841  1.00  0.00    -0.086 Cl
HETATM   16  C12 UNL     1      -3.425   2.859   1.466  1.00  0.00     0.159 C 
HETATM   17  F1  UNL     1      -4.118   4.052   1.533  1.00  0.00    -0.202 F 
HETATM   18  C13 UNL     1      -1.035  -0.569   1.139  1.00  0.00    -0.009 C 
HETATM   19  C14 UNL     1      -0.289   0.380   0.504  1.00  0.00    -0.012 C 
HETATM   20  C15 UNL     1       0.998   0.576  -0.116  1.00  0.00     0.308 C 
HETATM   21  H3  UNL     1      -0.224   2.682  -0.180  1.00  0.00     0.162 HD
ENDROOT
BRANCH  20  22
HETATM   22  N4  UNL     1       1.850  -0.581  -0.119  1.00  0.00     0.091 NA
HETATM   23  H15 UNL     1       1.312  -1.381  -0.498  1.00  0.00     0.316 HD
BRANCH  22  24
HETATM   24  C16 UNL     1       3.128  -0.406  -0.731  1.00  0.00     0.217 C 
HETATM   25  C17 UNL     1       3.102  -0.119  -2.204  1.00  0.00     0.042 C 
BRANCH  24  26
HETATM   26  C18 UNL     1       4.008  -1.632  -0.531  1.00  0.00     0.042 C 
BRANCH  26  27
HETATM   27  C19 UNL     1       5.349  -1.389  -1.190  1.00  0.00     0.071 C 
BRANCH  27  28
HETATM   28  C20 UNL     1       6.237  -2.595  -1.014  1.00  0.00     0.231 C 
HETATM   29  O1  UNL     1       7.316  -2.350  -1.553  1.00  0.00    -0.307 OA
ENDBRANCH  27  28
ENDBRANCH  26  27
ENDBRANCH  24  26
ENDBRANCH  22  24
ENDBRANCH  20  22
TORSDOF 5
