REMARK  4 active torsions:
REMARK  status: ('A' for Active; 'I' for Inactive)
REMARK    1  A    between atoms: C1_2  and  C2_3 
REMARK    2  A    between atoms: C2_3  and  N1_4 
REMARK    3  A    between atoms: N1_4  and  C3_5 
REMARK    4  A    between atoms: C7_10  and  C8_11 
ROOT
HETATM    1  C3  UNL     1      -2.779   0.234  -0.518  1.00  0.00     0.098 C 
HETATM    2  C4  UNL     1      -2.408  -0.995  -0.804  1.00  0.00     0.050 C 
HETATM    3  C5  UNL     1      -1.412  -2.028  -1.044  1.00  0.00     0.028 C 
HETATM    4  C6  UNL     1      -0.100  -1.945  -1.022  1.00  0.00     0.136 C 
HETATM    5  O2  UNL     1       1.306  -1.755  -0.976  1.00  0.00    -0.348 OA
HETATM    6  C7  UNL     1       1.684  -0.360  -0.834  1.00  0.00     0.203 C 
HETATM    7  C14 UNL     1       0.786   0.179   0.249  1.00  0.00     0.046 A 
HETATM    8 CL1  UNL     1       0.103   0.627   1.785  1.00  0.00    -0.155 Cl
HETATM    9  C15 UNL     1      -0.409   0.672  -0.045  1.00  0.00     0.212 A 
HETATM   10  N2  UNL     1      -1.723   1.223  -0.302  1.00  0.00    -0.355 N 
HETATM   11  H15 UNL     1      -1.773   2.287  -0.300  1.00  0.00     0.163 HD
ENDROOT
BRANCH   6  12
HETATM   12  C8  UNL     1       3.064  -0.224  -0.407  1.00  0.00    -0.024 A 
HETATM   13  C9  UNL     1       3.597  -0.978   0.593  1.00  0.00     0.010 A 
HETATM   14  C10 UNL     1       4.929  -0.842   1.000  1.00  0.00     0.001 A 
HETATM   15  C11 UNL     1       5.722   0.107   0.345  1.00  0.00     0.000 A 
HETATM   16  C12 UNL     1       5.172   0.877  -0.679  1.00  0.00     0.001 A 
HETATM   17  C13 UNL     1       3.863   0.712  -1.046  1.00  0.00     0.010 A 
ENDBRANCH   6  12
BRANCH   1  18
HETATM   18  N1  UNL     1      -3.980   0.956  -0.349  1.00  0.00    -0.374 N 
HETATM   19  H4  UNL     1      -4.263   1.594  -1.118  1.00  0.00     0.161 HD
BRANCH  18  20
HETATM   20  C2  UNL     1      -4.527   0.570   0.957  1.00  0.00     0.157 C 
BRANCH  20  21
HETATM   21  C1  UNL     1      -5.800   1.310   1.178  1.00  0.00     0.410 C 
HETATM   22  O1  UNL     1      -6.573   2.117   0.696  1.00  0.00    -0.428 OA
ENDBRANCH  20  21
ENDBRANCH  18  20
ENDBRANCH   1  18
TORSDOF 4
