REMARK  7 active torsions:
REMARK  status: ('A' for Active; 'I' for Inactive)
REMARK    1  A    between atoms: C2_2  and  C3_3 
REMARK    2  A    between atoms: C2_2  and  N2_8 
REMARK       I    between atoms: C3_3  and  N1_5 
REMARK    3  A    between atoms: N2_8  and  C7_10 
REMARK    4  A    between atoms: C7_10  and  C8_11 
REMARK    5  A    between atoms: C9_12  and  C10_13 
REMARK    6  A    between atoms: C11_14  and  N3_16 
REMARK    7  A    between atoms: N3_16  and  C12_17 
ROOT
HETATM    1  C8  UNL     1       0.393  -0.132   0.206  1.00  0.00    -0.007 C 
HETATM    2  C9  UNL     1       1.622  -0.011  -0.241  1.00  0.00     0.001 C 
ENDROOT
BRANCH   2   3
HETATM    3  C10 UNL     1       2.219   0.972  -1.129  1.00  0.00     0.042 C 
HETATM    4  C11 UNL     1       3.460   1.088  -1.576  1.00  0.00     0.103 C 
HETATM    5 CL1  UNL     1       3.858   2.417  -2.654  1.00  0.00    -0.065 Cl
BRANCH   4   6
HETATM    6  N3  UNL     1       4.342   0.103  -1.118  1.00  0.00    -0.344 N 
HETATM    7  H19 UNL     1       4.243  -0.406  -2.046  1.00  0.00     0.167 HD
BRANCH   6   8
HETATM    8  C12 UNL     1       5.180  -0.415  -0.097  1.00  0.00     0.072 A 
HETATM    9  C13 UNL     1       5.856  -1.590  -0.310  1.00  0.00     0.033 A 
HETATM   10  C14 UNL     1       6.618  -1.941   0.783  1.00  0.00     0.002 A 
HETATM   11  C15 UNL     1       6.715  -1.233   1.952  1.00  0.00     0.003 A 
HETATM   12  C16 UNL     1       6.010  -0.073   2.085  1.00  0.00     0.044 A 
HETATM   13  C17 UNL     1       5.218   0.358   1.040  1.00  0.00     0.143 A 
HETATM   14  F1  UNL     1       4.526   1.510   1.187  1.00  0.00    -0.204 F 
ENDBRANCH   6   8
ENDBRANCH   4   6
ENDBRANCH   2   3
BRANCH   1  15
HETATM   15  C7  UNL     1      -0.778   0.730  -0.076  1.00  0.00     0.144 C 
BRANCH  15  16
HETATM   16  N2  UNL     1      -1.820  -0.003  -0.688  1.00  0.00    -0.401 N 
HETATM   17  C6  UNL     1      -1.722  -1.412  -0.666  1.00  0.00     0.144 C 
BRANCH  16  18
HETATM   18  C2  UNL     1      -3.013   0.621  -1.043  1.00  0.00     0.167 C 
HETATM   19  C1  UNL     1      -2.871   2.138  -1.025  1.00  0.00     0.042 C 
BRANCH  18  20
HETATM   20  C3  UNL     1      -4.207   0.187  -0.281  1.00  0.00     0.241 C 
HETATM   21  O1  UNL     1      -3.655  -0.648   0.482  1.00  0.00    -0.271 OA
HETATM   22  N1  UNL     1      -5.473  -0.058   0.297  1.00  0.00    -0.359 N 
HETATM   23  C4  UNL     1      -5.420  -1.059   1.364  1.00  0.00     0.152 C 
HETATM   24  C5  UNL     1      -6.515   0.748  -0.312  1.00  0.00     0.152 C 
ENDBRANCH  18  20
ENDBRANCH  16  18
ENDBRANCH  15  16
ENDBRANCH   1  15
TORSDOF 7
