REMARK  7 active torsions:
REMARK  status: ('A' for Active; 'I' for Inactive)
REMARK    1  A    between atoms: C3_3  and  N1_5 
REMARK    2  A    between atoms: N1_5  and  C4_6 
REMARK    3  A    between atoms: C4_6  and  C5_7 
REMARK    4  A    between atoms: C7_9  and  O1_10 
REMARK    5  A    between atoms: O1_10  and  C8_11 
REMARK    6  A    between atoms: C8_11  and  C9_12 
REMARK    7  A    between atoms: C9_12  and  C10_13 
ROOT
HETATM    1  C5  UNL     1       2.026   0.580   0.416  1.00  0.00    -0.056 A 
HETATM    2  C6  UNL     1       1.123   1.492   0.504  1.00  0.00     0.041 A 
HETATM    3  C7  UNL     1      -0.095   1.067  -0.142  1.00  0.00     0.065 A 
HETATM    4  C15 UNL     1       0.080  -0.134  -0.651  1.00  0.00     0.014 A 
HETATM    5  C16 UNL     1       1.477  -0.523  -0.418  1.00  0.00     0.066 A 
ENDROOT
BRANCH   3   6
HETATM    6  O1  UNL     1      -1.293   1.600  -0.314  1.00  0.00    -0.351 OA
BRANCH   6   7
HETATM    7  C8  UNL     1      -2.573   1.400   0.100  1.00  0.00     0.181 C 
BRANCH   7   8
HETATM    8  C9  UNL     1      -3.115   0.032  -0.359  1.00  0.00     0.086 C 
BRANCH   8   9
HETATM    9  C10 UNL     1      -4.550  -0.102  -0.041  1.00  0.00     0.036 A 
HETATM   10  C11 UNL     1      -5.164  -1.307  -0.275  1.00  0.00     0.027 A 
HETATM   11  C12 UNL     1      -6.449  -1.251   0.147  1.00  0.00     0.003 A 
HETATM   12  C13 UNL     1      -7.205  -0.295   0.701  1.00  0.00     0.019 A 
HETATM   13  C14 UNL     1      -6.466   0.893   0.874  1.00  0.00     0.117 A 
HETATM   14  N2  UNL     1      -5.143   1.025   0.525  1.00  0.00    -0.266 NA
ENDBRANCH   8   9
ENDBRANCH   7   8
ENDBRANCH   6   7
ENDBRANCH   3   6
BRANCH   1  15
HETATM   15  C4  UNL     1       3.402   0.463   0.879  1.00  0.00     0.155 C 
BRANCH  15  16
HETATM   16  N1  UNL     1       4.317  -0.044  -0.102  1.00  0.00    -0.377 N 
HETATM   17  H5  UNL     1       4.303  -1.000   0.482  1.00  0.00     0.160 HD
BRANCH  16  18
HETATM   18  C3  UNL     1       5.274  -0.566  -1.135  1.00  0.00     0.095 C 
HETATM   19  C2  UNL     1       6.167   0.131  -0.502  1.00  0.00     0.011 C 
HETATM   20  C1  UNL     1       7.257  -0.824  -0.327  1.00  0.00     0.039 C 
HETATM   21 CL1  UNL     1       4.313  -1.738  -1.969  1.00  0.00    -0.065 Cl
ENDBRANCH  16  18
ENDBRANCH  15  16
ENDBRANCH   1  15
TORSDOF 7
