REMARK  8 active torsions:
REMARK  status: ('A' for Active; 'I' for Inactive)
REMARK    1  A    between atoms: C2_2  and  O1_3 
REMARK    2  A    between atoms: O1_3  and  C3_4 
REMARK    3  A    between atoms: C9_12  and  N3_13 
REMARK    4  A    between atoms: C12_16  and  N4_17 
REMARK       I    between atoms: N4_17  and  C13_18 
REMARK    5  A    between atoms: C13_18  and  C14_20 
REMARK    6  A    between atoms: C14_20  and  C15_21 
REMARK    7  A    between atoms: C15_21  and  C16_22 
REMARK    8  A    between atoms: C16_22  and  N5_23 
ROOT
HETATM    1  C3  UNL     1      -4.653  -0.926  -0.073  1.00  0.00     0.097 A 
HETATM    2  C4  UNL     1      -6.003  -0.753   0.182  1.00  0.00     0.071 A 
HETATM    3  C5  UNL     1      -6.580   0.509   0.234  1.00  0.00     0.071 A 
HETATM    4  N1  UNL     1      -7.909   0.606   0.487  1.00  0.00    -0.259 NA
HETATM    5  C6  UNL     1      -8.505   1.799   0.546  1.00  0.00     0.142 A 
HETATM    6  C7  UNL     1      -7.738   2.942   0.342  1.00  0.00     0.089 A 
HETATM    7  C8  UNL     1      -8.323   4.248   0.393  1.00  0.00     0.103 C 
HETATM    8  N2  UNL     1      -8.820   5.309   0.441  1.00  0.00    -0.191 NA
HETATM    9  C9  UNL     1      -6.394   2.814   0.088  1.00  0.00     0.061 A 
HETATM   10  C10 UNL     1      -5.741   1.603   0.020  1.00  0.00     0.023 A 
HETATM   11  C11 UNL     1      -4.397   1.429  -0.233  1.00  0.00     0.048 A 
HETATM   12  C12 UNL     1      -3.826   0.178  -0.286  1.00  0.00     0.069 A 
ENDROOT
BRANCH   9  13
HETATM   13  N3  UNL     1      -5.595   3.987  -0.122  1.00  0.00    -0.397 N 
HETATM   14  H8  UNL     1      -5.225   4.753   0.513  1.00  0.00     0.156 HD
HETATM   15  H9  UNL     1      -5.116   4.487  -0.906  1.00  0.00     0.156 HD
ENDBRANCH   9  13
BRANCH  12  16
HETATM   16  N4  UNL     1      -2.435   0.081  -0.552  1.00  0.00    -0.321 N 
HETATM   17  C13 UNL     1      -1.427   0.065   0.445  1.00  0.00     0.245 C 
HETATM   18  O2  UNL     1      -1.401   0.120   1.694  1.00  0.00    -0.268 OA
HETATM   19  H11 UNL     1      -2.201   0.022  -1.551  1.00  0.00     0.169 HD
BRANCH  17  20
HETATM   20  C14 UNL     1      -0.060  -0.039  -0.039  1.00  0.00     0.072 C 
BRANCH  20  21
HETATM   21  C15 UNL     1       0.743  -0.133  -1.079  1.00  0.00    -0.002 C 
BRANCH  21  22
HETATM   22  C16 UNL     1       1.988  -0.243  -1.877  1.00  0.00     0.144 C 
BRANCH  22  23
HETATM   23  N5  UNL     1       3.169  -0.282  -1.150  1.00  0.00    -0.405 N 
HETATM   24  C17 UNL     1       3.735   0.724  -0.428  1.00  0.00     0.143 C 
HETATM   25  C18 UNL     1       4.191   2.020  -1.062  1.00  0.00     0.187 C 
HETATM   26  O3  UNL     1       5.028   2.491   0.087  1.00  0.00    -0.387 OA
HETATM   27  C19 UNL     1       6.096   1.585  -0.032  1.00  0.00     0.193 C 
HETATM   28  C20 UNL     1       6.967   1.204   1.062  1.00  0.00     0.193 C 
HETATM   29  O4  UNL     1       7.937   0.283   0.650  1.00  0.00    -0.387 OA
HETATM   30  C21 UNL     1       7.565  -0.857   0.047  1.00  0.00     0.193 C 
HETATM   31  C22 UNL     1       6.685  -1.844   0.717  1.00  0.00     0.193 C 
HETATM   32  O5  UNL     1       5.449  -1.496   1.067  1.00  0.00    -0.387 OA
HETATM   33  C23 UNL     1       4.294  -1.771   0.555  1.00  0.00     0.187 C 
HETATM   34  C24 UNL     1       3.528  -1.597  -0.644  1.00  0.00     0.143 C 
ENDBRANCH  22  23
ENDBRANCH  21  22
ENDBRANCH  20  21
ENDBRANCH  17  20
ENDBRANCH  12  16
BRANCH   1  35
HETATM   35  O1  UNL     1      -4.068  -2.202  -0.126  1.00  0.00    -0.349 OA
BRANCH  35  36
HETATM   36  C2  UNL     1      -4.912  -3.320   0.091  1.00  0.00     0.171 C 
HETATM   37  C1  UNL     1      -4.138  -4.610   0.003  1.00  0.00     0.034 C 
ENDBRANCH  35  36
ENDBRANCH   1  35
TORSDOF 8
