REMARK  2 active torsions:
REMARK  status: ('A' for Active; 'I' for Inactive)
REMARK    1  A    between atoms: C2_2  and  O1_3 
REMARK    2  A    between atoms: O1_3  and  C3_4 
ROOT
HETATM    1  C3  UNL     1      -2.017   0.282   0.821  1.00  0.00     0.082 C 
HETATM    2  C4  UNL     1      -0.889   0.967   0.803  1.00  0.00     0.053 C 
HETATM    3  C5  UNL     1      -1.017   2.211   0.048  1.00  0.00     0.285 C 
HETATM    4  N1  UNL     1      -0.098   3.091  -0.147  1.00  0.00    -0.395 NA
HETATM    5  C6  UNL     1       1.234   3.028   0.337  1.00  0.00     0.118 C 
HETATM    6  C7  UNL     1       2.049   3.476  -0.639  1.00  0.00     0.129 C 
HETATM    7  C8  UNL     1       1.313   3.868  -1.835  1.00  0.00     0.119 C 
HETATM    8  N2  UNL     1       0.706   4.173  -2.799  1.00  0.00    -0.190 NA
HETATM    9  N3  UNL     1       3.474   3.661  -0.796  1.00  0.00    -0.346 N 
HETATM   10  C9  UNL     1       3.624   2.227  -0.850  1.00  0.00     0.034 A 
HETATM   11  C10 UNL     1       3.504   1.547  -2.044  1.00  0.00     0.032 A 
HETATM   12  C11 UNL     1       3.647   0.175  -2.041  1.00  0.00     0.041 A 
HETATM   13  C12 UNL     1       3.904  -0.512  -0.872  1.00  0.00     0.091 A 
HETATM   14  C13 UNL     1       4.023   0.175   0.316  1.00  0.00     0.069 A 
HETATM   15 CL1  UNL     1       4.353  -0.665   1.818  1.00  0.00    -0.081 Cl
HETATM   16  C14 UNL     1       3.882   1.547   0.324  1.00  0.00     0.056 A 
HETATM   17  O2  UNL     1       4.023  -1.889  -1.002  1.00  0.00    -0.345 OA
HETATM   18  C15 UNL     1       3.261  -2.803  -0.244  1.00  0.00     0.214 C 
HETATM   19  C16 UNL     1       1.802  -2.614  -0.461  1.00  0.00    -0.034 A 
HETATM   20  C17 UNL     1       1.337  -2.665  -1.757  1.00  0.00     0.009 A 
HETATM   21  C18 UNL     1      -0.012  -2.484  -1.959  1.00  0.00     0.001 A 
HETATM   22  C19 UNL     1      -0.842  -2.261  -0.880  1.00  0.00     0.008 A 
HETATM   23  C20 UNL     1      -0.405  -2.206   0.424  1.00  0.00    -0.044 A 
HETATM   24  C21 UNL     1       0.949  -2.388   0.625  1.00  0.00     0.017 A 
HETATM   25  C22 UNL     1      -1.245  -1.972   1.620  1.00  0.00     0.130 C 
HETATM   26  C23 UNL     1      -2.027  -3.201   2.017  1.00  0.00     0.165 C 
HETATM   27  O3  UNL     1      -1.715  -4.256   2.564  1.00  0.00    -0.295 OA
HETATM   28  C24 UNL     1      -3.442  -2.939   1.599  1.00  0.00     0.349 C 
HETATM   29  N4  UNL     1      -3.330  -1.758   0.730  1.00  0.00     0.102 N 
HETATM   30  C25 UNL     1      -2.350  -0.993   1.443  1.00  0.00     0.292 C 
HETATM   31  H9  UNL     1       3.883   4.620  -0.818  1.00  0.00     0.167 HD
HETATM   32  H22 UNL     1      -4.229  -1.302   0.565  1.00  0.00     0.317 HD
ENDROOT
BRANCH   1  33
HETATM   33  O1  UNL     1      -3.079   0.859   0.138  1.00  0.00    -0.353 OA
BRANCH  33  34
HETATM   34  C2  UNL     1      -3.862   1.880   0.722  1.00  0.00     0.171 C 
HETATM   35  C1  UNL     1      -5.009   2.326  -0.178  1.00  0.00     0.034 C 
ENDBRANCH  33  34
ENDBRANCH   1  33
TORSDOF 2
