REMARK  5 active torsions:
REMARK  status: ('A' for Active; 'I' for Inactive)
REMARK    1  A    between atoms: C2_2  and  O1_3 
REMARK    2  A    between atoms: C2_2  and  C14_19 
REMARK    3  A    between atoms: O1_3  and  C3_4 
REMARK    4  A    between atoms: C6_7  and  N1_8 
REMARK    5  A    between atoms: N1_8  and  C7_9 
ROOT
HETATM    1  C3  UNL     1      -0.392   0.263  -0.801  1.00  0.00     0.069 A 
HETATM    2  C4  UNL     1      -0.074  -0.179  -2.086  1.00  0.00     0.039 A 
HETATM    3  C5  UNL     1       1.190  -0.641  -2.404  1.00  0.00     0.032 A 
HETATM    4  C6  UNL     1       2.174  -0.675  -1.443  1.00  0.00     0.030 A 
HETATM    5  C12 UNL     1       1.870  -0.240  -0.165  1.00  0.00     0.032 A 
HETATM    6  C13 UNL     1       0.612   0.218   0.143  1.00  0.00     0.039 A 
ENDROOT
BRANCH   4   7
HETATM    7  N1  UNL     1       3.498  -1.149  -1.742  1.00  0.00    -0.349 N 
HETATM    8  H7  UNL     1       3.713  -1.466  -2.704  1.00  0.00     0.162 HD
BRANCH   7   9
HETATM    9  C7  UNL     1       4.524  -1.157  -0.600  1.00  0.00     0.306 A 
HETATM   10  C8  UNL     1       5.082   0.246  -0.766  1.00  0.00     0.085 A 
HETATM   11  C9  UNL     1       6.233   1.037   0.067  1.00  0.00     0.136 A 
HETATM   12 CL1  UNL     1       6.315   2.577  -0.703  1.00  0.00    -0.062 Cl
HETATM   13  N2  UNL     1       6.899   0.224   1.259  1.00  0.00    -0.196 NA
HETATM   14  C10 UNL     1       6.096  -0.813   0.949  1.00  0.00     0.009 A 
HETATM   15  C11 UNL     1       5.488  -1.573   0.701  1.00  0.00     0.343 A 
HETATM   16  N3  UNL     1       4.755  -2.462   0.385  1.00  0.00     0.152 N 
HETATM   17  H9  UNL     1       4.030  -2.829  -0.213  1.00  0.00     0.322 HD
ENDBRANCH   7   9
ENDBRANCH   4   7
BRANCH   1  18
HETATM   18  O1  UNL     1      -1.692   0.676  -0.706  1.00  0.00    -0.342 OA
BRANCH  18  19
HETATM   19  C2  UNL     1      -2.331   1.177   0.445  1.00  0.00     0.158 C 
HETATM   20  C1  UNL     1      -2.731   2.611   0.145  1.00  0.00     0.045 C 
BRANCH  19  21
HETATM   21  C14 UNL     1      -3.548   0.340   0.716  1.00  0.00    -0.029 A 
HETATM   22  C15 UNL     1      -3.891  -0.126   1.969  1.00  0.00     0.010 A 
HETATM   23  C16 UNL     1      -5.023  -0.894   2.163  1.00  0.00     0.001 A 
HETATM   24  C17 UNL     1      -5.773  -1.154   1.019  1.00  0.00     0.000 A 
HETATM   25  C18 UNL     1      -5.455  -0.702  -0.246  1.00  0.00     0.001 A 
HETATM   26  C19 UNL     1      -4.316   0.063  -0.404  1.00  0.00     0.010 A 
ENDBRANCH  19  21
ENDBRANCH  18  19
ENDBRANCH   1  18
TORSDOF 5
