REMARK  2 active torsions:
REMARK  status: ('A' for Active; 'I' for Inactive)
REMARK    1  A    between atoms: C16_18  and  N1_19 
REMARK    2  A    between atoms: N1_19  and  C17_20 
ROOT
HETATM    1  C1  UNL     1      -1.039   1.424   1.898  1.00  0.00     0.051 C 
HETATM    2  C2  UNL     1      -0.390   0.715   0.779  1.00  0.00    -0.028 C 
HETATM    3  C3  UNL     1       0.886   1.040   0.787  1.00  0.00     0.051 C 
HETATM    4 CL1  UNL     1       1.223   2.163   2.122  1.00  0.00    -0.083 Cl
HETATM    5  C4  UNL     1       2.134   0.800   0.080  1.00  0.00    -0.005 A 
HETATM    6  C5  UNL     1       2.779   1.925  -0.391  1.00  0.00     0.014 A 
HETATM    7  C6  UNL     1       3.986   1.936  -1.102  1.00  0.00     0.001 A 
HETATM    8  C7  UNL     1       4.495   0.674  -1.297  1.00  0.00     0.001 A 
HETATM    9  C8  UNL     1       3.906  -0.487  -0.856  1.00  0.00     0.011 A 
HETATM   10  C9  UNL     1       2.722  -0.422  -0.166  1.00  0.00    -0.017 A 
HETATM   11  C10 UNL     1       2.148  -1.745   0.261  1.00  0.00     0.157 C 
HETATM   12  C11 UNL     1       2.515  -2.770  -0.781  1.00  0.00     0.045 C 
HETATM   13  O1  UNL     1       0.769  -1.629   0.498  1.00  0.00    -0.353 OA
HETATM   14  C12 UNL     1      -0.100  -2.612   0.076  1.00  0.00     0.147 C 
HETATM   15  C13 UNL     1      -0.169  -2.164  -1.145  1.00  0.00    -0.001 C 
HETATM   16  C14 UNL     1      -0.724  -0.972  -1.294  1.00  0.00     0.027 C 
HETATM   17  C15 UNL     1      -1.096  -0.170  -0.135  1.00  0.00    -0.012 C 
HETATM   18  C16 UNL     1      -2.420  -0.361   0.041  1.00  0.00     0.100 C 
ENDROOT
BRANCH  18  19
HETATM   19  N1  UNL     1      -3.604  -0.052   0.816  1.00  0.00    -0.368 N 
HETATM   20  H15 UNL     1      -3.831  -0.550   1.731  1.00  0.00     0.165 HD
BRANCH  19  21
HETATM   21  C17 UNL     1      -4.568   0.950   0.430  1.00  0.00     0.009 A 
HETATM   22  C18 UNL     1      -4.944   2.240   0.228  1.00  0.00     0.004 A 
HETATM   23  C19 UNL     1      -5.963   1.213  -0.059  1.00  0.00     0.085 A 
ENDBRANCH  19  21
ENDBRANCH  18  19
TORSDOF 2
