REMARK  5 active torsions:
REMARK  status: ('A' for Active; 'I' for Inactive)
REMARK    1  A    between atoms: C2_2  and  O1_3 
REMARK    2  A    between atoms: O1_3  and  C3_4 
REMARK    3  A    between atoms: C6_7  and  C7_8 
REMARK    4  A    between atoms: C9_10  and  C11_12 
REMARK    5  A    between atoms: C11_12  and  C12_13 
ROOT
HETATM    1  C3  UNL     1       3.428   0.172  -1.028  1.00  0.00     0.159 C 
HETATM    2  C4  UNL     1       2.642   0.176   0.045  1.00  0.00     0.032 C 
HETATM    3  C5  UNL     1       1.639  -0.912   0.073  1.00  0.00     0.073 C 
HETATM    4  C6  UNL     1       0.950  -1.037   1.413  1.00  0.00     0.065 C 
HETATM    5  C20 UNL     1       1.262   0.062   2.321  1.00  0.00     0.046 C 
HETATM    6  C21 UNL     1       0.563   0.070   3.598  1.00  0.00     0.097 C 
HETATM    7  N1  UNL     1      -0.005   0.055   4.633  1.00  0.00    -0.192 NA
HETATM    8  C22 UNL     1       2.106   1.096   2.202  1.00  0.00     0.107 C 
HETATM    9  N2  UNL     1       2.880   1.210   0.990  1.00  0.00    -0.366 N 
HETATM   10  H25 UNL     1       3.547   1.963   0.812  1.00  0.00     0.165 HD
ENDROOT
BRANCH   4  11
HETATM   11  C7  UNL     1      -0.532  -1.191   1.133  1.00  0.00    -0.073 C 
HETATM   12  C8  UNL     1      -1.671  -0.551   1.506  1.00  0.00    -0.014 C 
HETATM   13  C9  UNL     1      -2.856  -1.178   0.891  1.00  0.00    -0.022 C 
HETATM   14  C10 UNL     1      -3.423  -2.275   1.772  1.00  0.00     0.020 C 
HETATM   15  C18 UNL     1      -2.227  -1.883  -0.329  1.00  0.00     0.018 C 
HETATM   16  C19 UNL     1      -0.923  -2.334   0.233  1.00  0.00     0.036 C 
BRANCH  13  17
HETATM   17  C11 UNL     1      -3.912  -0.294   0.357  1.00  0.00     0.053 C 
BRANCH  17  18
HETATM   18  C12 UNL     1      -3.564   0.634  -0.715  1.00  0.00    -0.035 A 
HETATM   19  C13 UNL     1      -3.870   0.206  -2.016  1.00  0.00     0.009 A 
HETATM   20  C14 UNL     1      -3.620   0.884  -3.186  1.00  0.00     0.001 A 
HETATM   21  C15 UNL     1      -3.015   2.100  -3.109  1.00  0.00     0.002 A 
HETATM   22  C16 UNL     1      -2.681   2.593  -1.868  1.00  0.00     0.024 A 
HETATM   23  C17 UNL     1      -2.958   1.866  -0.734  1.00  0.00     0.040 A 
HETATM   24 CL1  UNL     1      -2.562   2.533   0.832  1.00  0.00    -0.084 Cl
ENDBRANCH  17  18
ENDBRANCH  13  17
ENDBRANCH   4  11
BRANCH   1  25
HETATM   25  O1  UNL     1       4.441   1.122  -1.239  1.00  0.00    -0.361 OA
BRANCH  25  26
HETATM   26  C2  UNL     1       5.772   0.709  -1.416  1.00  0.00     0.170 C 
HETATM   27  C1  UNL     1       6.685   1.913  -1.578  1.00  0.00     0.034 C 
ENDBRANCH  25  26
ENDBRANCH   1  25
TORSDOF 5
