REMARK  4 active torsions:
REMARK  status: ('A' for Active; 'I' for Inactive)
REMARK    1  A    between atoms: C2_2  and  O1_3 
REMARK    2  A    between atoms: O1_3  and  C3_4 
REMARK    3  A    between atoms: C7_8  and  N1_9 
REMARK    4  A    between atoms: N1_9  and  C8_10 
ROOT
HETATM    1  C8  UNL     1      -0.752  -0.715   0.655  1.00  0.00     0.095 C 
HETATM    2  C9  UNL     1      -1.123  -0.199  -0.736  1.00  0.00     0.051 C 
HETATM    3  C10 UNL     1      -2.193   0.334  -1.354  1.00  0.00     0.001 C 
HETATM    4  C11 UNL     1      -3.613   0.797  -1.259  1.00  0.00    -0.028 C 
HETATM    5  C12 UNL     1      -4.320   0.836  -0.142  1.00  0.00    -0.011 C 
HETATM    6  C13 UNL     1      -4.517   0.675   1.286  1.00  0.00     0.128 A 
HETATM    7  C14 UNL     1      -5.078   0.615   2.467  1.00  0.00     0.127 A 
HETATM    8  S1  UNL     1      -6.243   0.959   1.131  1.00  0.00     0.040 S 
HETATM    9  O2  UNL     1      -7.601   1.299   1.660  1.00  0.00    -0.248 OA
HETATM   10  N2  UNL     1      -6.374  -0.669   0.242  1.00  0.00    -0.326 N 
HETATM   11  C15 UNL     1      -5.537  -1.743   0.790  1.00  0.00     0.096 C 
HETATM   12  C16 UNL     1      -4.433  -2.404   1.169  1.00  0.00     0.014 C 
HETATM   13  C17 UNL     1      -2.975  -2.341   1.247  1.00  0.00    -0.018 C 
HETATM   14  C18 UNL     1      -1.791  -1.782   1.076  1.00  0.00     0.041 C 
HETATM   15  H16 UNL     1      -6.975  -0.823  -0.589  1.00  0.00     0.174 HD
ENDROOT
BRANCH   1  16
HETATM   16  N1  UNL     1       0.485  -1.385   0.469  1.00  0.00    -0.383 N 
HETATM   17  H8  UNL     1       0.174  -2.364   0.635  1.00  0.00     0.160 HD
BRANCH  16  18
HETATM   18  C7  UNL     1       1.833  -1.516   0.205  1.00  0.00     0.042 A 
HETATM   19  C6  UNL     1       2.545  -0.346   0.021  1.00  0.00     0.019 A 
HETATM   20  C5  UNL     1       2.120   0.943   0.095  1.00  0.00     0.019 A 
HETATM   21  C21 UNL     1       3.880  -0.465  -0.272  1.00  0.00     0.071 A 
HETATM   22  C4  UNL     1       2.902   2.042  -0.095  1.00  0.00     0.038 A 
HETATM   23  C3  UNL     1       4.261   1.894  -0.392  1.00  0.00     0.070 A 
HETATM   24  C22 UNL     1       4.736   0.604  -0.477  1.00  0.00     0.069 A 
HETATM   25  N3  UNL     1       4.482  -1.644  -0.377  1.00  0.00    -0.260 NA
HETATM   26  C20 UNL     1       3.851  -2.792  -0.210  1.00  0.00     0.119 A 
HETATM   27  C19 UNL     1       2.530  -2.696   0.080  1.00  0.00     0.049 A 
BRANCH  23  28
HETATM   28  O1  UNL     1       4.954   3.081  -0.563  1.00  0.00    -0.351 OA
BRANCH  28  29
HETATM   29  C2  UNL     1       6.325   3.077  -0.864  1.00  0.00     0.171 C 
HETATM   30  C1  UNL     1       6.659   2.377  -2.154  1.00  0.00     0.034 C 
ENDBRANCH  28  29
ENDBRANCH  23  28
ENDBRANCH  16  18
ENDBRANCH   1  16
TORSDOF 4
