REMARK  5 active torsions:
REMARK  status: ('A' for Active; 'I' for Inactive)
REMARK    1  A    between atoms: O1_2  and  C2_3 
REMARK    2  A    between atoms: C7_9  and  N2_10 
REMARK    3  A    between atoms: C15_20  and  N3_21 
REMARK    4  A    between atoms: N3_21  and  C17_23 
REMARK    5  A    between atoms: C17_23  and  C19_25 
REMARK       I    between atoms: C19_25  and  N4_27 
ROOT
HETATM    1  C2  UNL     1       0.307   1.771   1.293  1.00  0.00     0.098 A 
HETATM    2  C3  UNL     1       1.321   2.587   1.405  1.00  0.00    -0.009 A 
HETATM    3  C4  UNL     1       1.511   3.979   1.754  1.00  0.00     0.052 C 
HETATM    4  C5  UNL     1       2.670   2.053   1.111  1.00  0.00     0.120 A 
HETATM    5  N1  UNL     1       2.129   0.922   0.862  1.00  0.00    -0.295 NA
HETATM    6  C6  UNL     1       2.959  -0.185   0.471  1.00  0.00     0.205 A 
HETATM    7  C7  UNL     1       2.112  -1.408   0.234  1.00  0.00     0.031 A 
HETATM    8  C13 UNL     1       0.783  -1.600   0.329  1.00  0.00     0.012 A 
HETATM    9  C14 UNL     1       0.302  -0.290   0.736  1.00  0.00     0.076 A 
HETATM   10  C15 UNL     1      -0.566   0.633   1.081  1.00  0.00     0.051 A 
ENDROOT
BRANCH  10  11
HETATM   11  N3  UNL     1      -2.005   0.780   1.271  1.00  0.00    -0.372 N 
HETATM   12  C16 UNL     1      -2.511   1.482   2.447  1.00  0.00     0.150 C 
BRANCH  11  13
HETATM   13  C17 UNL     1      -2.981   0.237   0.387  1.00  0.00     0.172 C 
HETATM   14  C18 UNL     1      -3.088  -1.277   0.532  1.00  0.00     0.042 C 
BRANCH  13  15
HETATM   15  C19 UNL     1      -2.710   0.591  -1.040  1.00  0.00     0.241 C 
HETATM   16  O2  UNL     1      -2.057   1.155  -1.961  1.00  0.00    -0.271 OA
HETATM   17  N4  UNL     1      -3.517   0.145  -2.116  1.00  0.00    -0.359 N 
HETATM   18  C20 UNL     1      -3.076   0.600  -3.429  1.00  0.00     0.152 C 
HETATM   19  C21 UNL     1      -4.702  -0.704  -1.976  1.00  0.00     0.152 C 
ENDBRANCH  13  15
ENDBRANCH  11  13
ENDBRANCH  10  11
BRANCH   1  20
HETATM   20  O1  UNL     1      -0.402   2.905   1.665  1.00  0.00    -0.353 OA
HETATM   21  C1  UNL     1      -1.054   3.679   0.675  1.00  0.00     0.210 C 
ENDBRANCH   1  20
BRANCH   7  22
HETATM   22  N2  UNL     1       3.066  -2.422  -0.151  1.00  0.00    -0.321 N 
HETATM   23  C8  UNL     1       3.004  -2.672  -1.568  1.00  0.00     0.158 A 
HETATM   24  C9  UNL     1       3.984  -3.721  -1.975  1.00  0.00    -0.005 A 
HETATM   25  C10 UNL     1       4.786  -4.320  -1.137  1.00  0.00     0.026 A 
HETATM   26  C11 UNL     1       4.727  -3.949   0.283  1.00  0.00     0.090 A 
HETATM   27 CL1  UNL     1       5.841  -4.803   1.358  1.00  0.00    -0.079 Cl
HETATM   28  C12 UNL     1       3.921  -3.051   0.782  1.00  0.00     0.213 A 
HETATM   29  F1  UNL     1       3.863  -2.705   2.079  1.00  0.00    -0.184 F 
ENDBRANCH   7  22
TORSDOF 5
