REMARK  0 active torsions:
REMARK  status: ('A' for Active; 'I' for Inactive)
ROOT
HETATM    1  C1  UNL     1      -0.810   0.496  -1.859  1.00  0.00     0.051 C 
HETATM    2  C2  UNL     1      -1.094  -0.436  -0.709  1.00  0.00    -0.028 C 
HETATM    3  C3  UNL     1      -0.858  -1.783  -0.709  1.00  0.00     0.058 C 
HETATM    4  N1  UNL     1       0.311  -2.647  -0.631  1.00  0.00    -0.374 N 
HETATM    5  C4  UNL     1       1.205  -1.556  -0.314  1.00  0.00     0.064 A 
HETATM    6  C5  UNL     1       1.006  -1.376   1.031  1.00  0.00     0.039 A 
HETATM    7  C6  UNL     1       1.734  -0.370   0.582  1.00  0.00     0.077 A 
HETATM    8  C7  UNL     1       2.463   0.613   0.067  1.00  0.00     0.044 A 
HETATM    9  C8  UNL     1       2.546   0.226  -1.247  1.00  0.00    -0.012 A 
HETATM   10  C9  UNL     1       3.288   1.230  -1.809  1.00  0.00     0.031 A 
HETATM   11  C10 UNL     1       3.571   2.112  -0.795  1.00  0.00     0.110 A 
HETATM   12  N2  UNL     1       3.060   1.741   0.378  1.00  0.00    -0.253 N 
HETATM   13  S1  UNL     1       2.816   2.207   2.018  1.00  0.00     0.242 S 
HETATM   14  O1  UNL     1       3.290   1.175   2.970  1.00  0.00    -0.205 OA
HETATM   15  O2  UNL     1       3.407   3.560   2.293  1.00  0.00    -0.205 OA
HETATM   16  C11 UNL     1       1.034   2.454   2.237  1.00  0.00     0.159 C 
HETATM   17  C12 UNL     1      -0.303   2.287   2.045  1.00  0.00     0.039 C 
HETATM   18  C13 UNL     1      -1.169   1.436   1.173  1.00  0.00    -0.012 C 
HETATM   19  C14 UNL     1      -1.649   0.541   0.263  1.00  0.00    -0.049 C 
HETATM   20  C15 UNL     1      -3.112   0.637   0.332  1.00  0.00     0.085 C 
HETATM   21  C16 UNL     1      -3.816  -0.568   0.804  1.00  0.00     0.093 C 
HETATM   22  N3  UNL     1      -4.014  -1.803   0.457  1.00  0.00    -0.275 NA
HETATM   23  C17 UNL     1      -3.297  -2.748  -0.366  1.00  0.00     0.140 C 
HETATM   24  C18 UNL     1      -2.017  -2.705  -0.792  1.00  0.00     0.088 C 
HETATM   25  C19 UNL     1      -1.627  -3.889  -1.545  1.00  0.00     0.103 C 
HETATM   26  N4  UNL     1      -1.320  -4.830  -2.167  1.00  0.00    -0.191 NA
HETATM   27  C20 UNL     1       1.838  -0.942  -1.350  1.00  0.00     0.018 A 
HETATM   28  H4  UNL     1       0.137  -3.644  -0.806  1.00  0.00     0.161 HD
ENDROOT
TORSDOF 0
