REMARK  6 active torsions:
REMARK  status: ('A' for Active; 'I' for Inactive)
REMARK    1  A    between atoms: C1_2  and  C12_15 
REMARK    2  A    between atoms: C2_3  and  C3_4 
REMARK    3  A    between atoms: C3_4  and  N1_5 
REMARK    4  A    between atoms: C12_15  and  O1_16 
REMARK    5  A    between atoms: O1_16  and  C13_17 
REMARK    6  A    between atoms: C13_17  and  C14_18 
ROOT
HETATM    1 CL1  UNL     1      -0.664  -2.887   0.023  1.00  0.00    -0.087 Cl
HETATM    2  C1  UNL     1      -0.850  -1.120  -0.161  1.00  0.00     0.033 C 
HETATM    3  C2  UNL     1      -0.156  -0.280   0.649  1.00  0.00     0.024 C 
ENDROOT
BRANCH   3   4
HETATM    4  C3  UNL     1       0.221   1.056   1.101  1.00  0.00     0.301 C 
BRANCH   4   5
HETATM    5  N1  UNL     1       1.659   1.299   0.964  1.00  0.00     0.092 N 
HETATM    6  C4  UNL     1       1.912   1.330  -0.522  1.00  0.00     0.280 C 
HETATM    7  C5  UNL     1       3.352   1.617  -0.710  1.00  0.00     0.049 C 
HETATM    8  C6  UNL     1       4.631   1.362  -1.068  1.00  0.00     0.139 C 
HETATM    9  N2  UNL     1       5.709   0.566  -1.585  1.00  0.00    -0.294 NA
HETATM   10  C7  UNL     1       6.029  -0.461  -0.770  1.00  0.00     0.110 C 
HETATM   11  C8  UNL     1       5.573  -1.000   0.529  1.00  0.00     0.015 C 
HETATM   12  C9  UNL     1       4.730  -0.785   1.563  1.00  0.00    -0.024 C 
HETATM   13  C10 UNL     1       3.844   0.406   1.602  1.00  0.00     0.057 C 
HETATM   14  C11 UNL     1       2.412   0.111   1.448  1.00  0.00     0.276 C 
ENDBRANCH   4   5
ENDBRANCH   3   4
BRANCH   2  15
HETATM   15  C12 UNL     1      -1.844  -1.044  -1.265  1.00  0.00     0.219 C 
BRANCH  15  16
HETATM   16  O1  UNL     1      -2.189   0.250  -1.570  1.00  0.00    -0.381 OA
BRANCH  16  17
HETATM   17  C13 UNL     1      -2.923   0.905  -0.585  1.00  0.00     0.206 C 
BRANCH  17  18
HETATM   18  C14 UNL     1      -4.237   0.173  -0.410  1.00  0.00    -0.035 A 
HETATM   19  C15 UNL     1      -5.275   0.613  -1.228  1.00  0.00     0.009 A 
HETATM   20  C16 UNL     1      -6.505  -0.004  -1.123  1.00  0.00     0.001 A 
HETATM   21  C17 UNL     1      -6.742  -1.038  -0.241  1.00  0.00     0.000 A 
HETATM   22  C18 UNL     1      -5.689  -1.452   0.558  1.00  0.00     0.001 A 
HETATM   23  C19 UNL     1      -4.440  -0.858   0.483  1.00  0.00     0.009 A 
ENDBRANCH  17  18
ENDBRANCH  16  17
ENDBRANCH  15  16
ENDBRANCH   2  15
TORSDOF 6
