REMARK  7 active torsions:
REMARK  status: ('A' for Active; 'I' for Inactive)
REMARK    1  A    between atoms: C2_2  and  C3_3 
REMARK    2  A    between atoms: C2_2  and  O1_10 
REMARK    3  A    between atoms: C3_3  and  C4_4 
REMARK    4  A    between atoms: C5_5  and  C6_6 
REMARK    5  A    between atoms: C7_7  and  C8_8 
REMARK    6  A    between atoms: O1_10  and  C9_11 
REMARK    7  A    between atoms: N1_15  and  C13_16 
ROOT
HETATM    1  C9  UNL     1      -1.583   0.092   1.066  1.00  0.00     0.069 A 
HETATM    2  C10 UNL     1      -1.724   1.345   1.467  1.00  0.00     0.036 A 
HETATM    3  C11 UNL     1      -2.874   2.161   1.069  1.00  0.00     0.020 A 
HETATM    4  C12 UNL     1      -3.804   1.655   0.291  1.00  0.00     0.092 A 
HETATM    5  N1  UNL     1      -3.685   0.332  -0.152  1.00  0.00    -0.350 N 
HETATM    6  C16 UNL     1      -2.582  -0.538   0.196  1.00  0.00     0.142 A 
HETATM    7  C17 UNL     1      -1.938  -1.164  -1.000  1.00  0.00     0.040 C 
ENDROOT
BRANCH   1   8
HETATM    8  O1  UNL     1      -0.564  -0.804   1.352  1.00  0.00    -0.348 OA
BRANCH   8   9
HETATM    9  C2  UNL     1       0.748  -0.421   1.651  1.00  0.00     0.128 C 
HETATM   10  C1  UNL     1       1.664  -1.568   1.922  1.00  0.00     0.040 C 
BRANCH   9  11
HETATM   11  C3  UNL     1       1.254   0.455   0.512  1.00  0.00     0.059 C 
BRANCH  11  12
HETATM   12  C4  UNL     1       2.575   0.987   0.876  1.00  0.00    -0.024 C 
HETATM   13  C5  UNL     1       3.743   0.845   0.282  1.00  0.00    -0.004 C 
BRANCH  13  14
HETATM   14  C6  UNL     1       3.863   0.068  -0.920  1.00  0.00    -0.003 C 
HETATM   15  C7  UNL     1       5.035  -0.075  -1.516  1.00  0.00    -0.012 C 
BRANCH  15  16
HETATM   16  C8  UNL     1       6.363   0.470  -1.135  1.00  0.00     0.141 C 
HETATM   17 CL1  UNL     1       6.895   1.494  -2.516  1.00  0.00    -0.126 Cl
ENDBRANCH  15  16
ENDBRANCH  13  14
ENDBRANCH  11  12
ENDBRANCH   9  11
ENDBRANCH   8   9
ENDBRANCH   1   8
BRANCH   5  18
HETATM   18  C13 UNL     1      -4.684  -0.239  -0.998  1.00  0.00     0.012 A 
HETATM   19  C14 UNL     1      -5.462  -0.492  -2.188  1.00  0.00     0.005 A 
HETATM   20  C15 UNL     1      -5.786  -1.225  -0.950  1.00  0.00     0.086 A 
ENDBRANCH   5  18
TORSDOF 7
