REMARK  13 active torsions:
REMARK  status: ('A' for Active; 'I' for Inactive)
REMARK    1  A    between atoms: C2_2  and  O1_3 
REMARK    2  A    between atoms: O1_3  and  C3_4 
REMARK    3  A    between atoms: C8_10  and  N2_11 
REMARK    4  A    between atoms: N2_11  and  C9_12 
REMARK    5  A    between atoms: C9_12  and  C10_13 
REMARK    6  A    between atoms: C10_13  and  C11_14 
REMARK    7  A    between atoms: C14_18  and  C15_19 
REMARK    8  A    between atoms: C15_19  and  C16_20 
REMARK    9  A    between atoms: C16_20  and  C17_21 
REMARK   10  A    between atoms: C17_21  and  N3_22 
REMARK   11  A    between atoms: N3_22  and  C19_24 
REMARK   12  A    between atoms: C19_24  and  C20_25 
REMARK   13  A    between atoms: C20_25  and  O2_26 
ROOT
HETATM    1  C3  UNL     1      -0.735   1.741  -0.962  1.00  0.00     0.080 C 
HETATM    2  C4  UNL     1      -1.784   2.444  -1.176  1.00  0.00     0.054 C 
HETATM    3  C5  UNL     1      -3.161   2.743  -1.011  1.00  0.00     0.089 C 
HETATM    4  N1  UNL     1      -3.552   1.826  -0.140  1.00  0.00    -0.372 N 
HETATM    5  C6  UNL     1      -4.960   1.868   0.250  1.00  0.00     0.134 A 
HETATM    6  C7  UNL     1      -4.108   0.831   0.642  1.00  0.00     0.146 A 
HETATM    7  C8  UNL     1      -3.126  -0.231   1.011  1.00  0.00     0.269 C 
HETATM    8  C13 UNL     1      -1.774  -0.012   0.521  1.00  0.00     0.024 C 
HETATM    9  C14 UNL     1      -0.774   0.554  -0.124  1.00  0.00    -0.005 C 
ENDROOT
BRANCH   9  10
HETATM   10  C15 UNL     1       0.481  -0.126   0.021  1.00  0.00     0.011 C 
BRANCH  10  11
HETATM   11  C16 UNL     1       1.732  -0.184  -0.261  1.00  0.00     0.004 C 
BRANCH  11  12
HETATM   12  C17 UNL     1       3.147  -0.492  -0.413  1.00  0.00     0.299 C 
BRANCH  12  13
HETATM   13  N3  UNL     1       4.006   0.585   0.101  1.00  0.00     0.089 N 
HETATM   14  C18 UNL     1       5.361   0.191  -0.241  1.00  0.00     0.310 C 
BRANCH  13  15
HETATM   15  C19 UNL     1       3.846   0.680   1.549  1.00  0.00     0.298 C 
BRANCH  15  16
HETATM   16  C20 UNL     1       4.396  -0.482   2.305  1.00  0.00     0.197 C 
BRANCH  16  17
HETATM   17  O2  UNL     1       5.741  -0.658   2.110  1.00  0.00    -0.394 OA
HETATM   18  C21 UNL     1       6.282  -1.721   2.808  1.00  0.00     0.201 C 
ENDBRANCH  16  17
ENDBRANCH  15  16
ENDBRANCH  13  15
ENDBRANCH  12  13
ENDBRANCH  11  12
ENDBRANCH  10  11
ENDBRANCH   9  10
BRANCH   1  19
HETATM   19  O1  UNL     1       0.348   2.274  -1.630  1.00  0.00    -0.351 OA
BRANCH  19  20
HETATM   20  C2  UNL     1       0.854   3.482  -1.033  1.00  0.00     0.171 C 
HETATM   21  C1  UNL     1       1.476   4.313  -2.151  1.00  0.00     0.034 C 
ENDBRANCH  19  20
ENDBRANCH   1  19
BRANCH   7  22
HETATM   22  N2  UNL     1      -3.608  -1.546   0.584  1.00  0.00     0.097 N 
HETATM   23  H11 UNL     1      -4.441  -1.855   1.101  1.00  0.00     0.317 HD
BRANCH  22  24
HETATM   24  C9  UNL     1      -3.790  -1.545  -0.860  1.00  0.00     0.299 C 
BRANCH  24  25
HETATM   25  C10 UNL     1      -4.310  -2.797  -1.417  1.00  0.00     0.022 C 
BRANCH  25  26
HETATM   26  C11 UNL     1      -4.663  -3.910  -1.981  1.00  0.00     0.006 C 
HETATM   27  C12 UNL     1      -5.808  -4.898  -1.963  1.00  0.00     0.061 C 
HETATM   28 CL1  UNL     1      -3.225  -4.005  -2.945  1.00  0.00    -0.090 Cl
ENDBRANCH  25  26
ENDBRANCH  24  25
ENDBRANCH  22  24
ENDBRANCH   7  22
TORSDOF 13
