REMARK  3 active torsions:
REMARK  status: ('A' for Active; 'I' for Inactive)
REMARK    1  A    between atoms: C4_5  and  C9_11 
REMARK    2  A    between atoms: N3_16  and  C14_17 
REMARK    3  A    between atoms: C14_17  and  C15_18 
ROOT
HETATM    1  N1  UNL     1       3.186   1.036   3.165  1.00  0.00    -0.190 NA
HETATM    2  C1  UNL     1       2.994   0.497   2.235  1.00  0.00     0.126 C 
HETATM    3  C2  UNL     1       2.759  -0.231   0.967  1.00  0.00     0.219 C 
HETATM    4  C3  UNL     1       2.280  -1.316   1.232  1.00  0.00     0.036 C 
HETATM    5  C4  UNL     1       1.280  -1.435   0.005  1.00  0.00     0.068 C 
HETATM    6  C5  UNL     1       2.462  -2.384  -0.575  1.00  0.00     0.012 C 
HETATM    7  C6  UNL     1       2.992  -1.577  -1.389  1.00  0.00     0.208 C 
HETATM    8  N2  UNL     1       3.198  -0.180  -0.587  1.00  0.00     0.009 N 
HETATM    9  C7  UNL     1       3.270   1.304  -1.420  1.00  0.00     0.166 A 
HETATM   10  C8  UNL     1       2.358   0.665  -1.129  1.00  0.00     0.324 A 
HETATM   11  C9  UNL     1       1.142  -0.186  -0.742  1.00  0.00    -0.008 A 
HETATM   12  C10 UNL     1       0.196   0.486  -1.424  1.00  0.00     0.046 A 
HETATM   13  C11 UNL     1       0.388   1.652  -2.269  1.00  0.00    -0.021 A 
HETATM   14  C12 UNL     1      -0.849   1.876  -2.687  1.00  0.00     0.027 A 
HETATM   15  C13 UNL     1      -1.650   0.910  -2.115  1.00  0.00     0.092 A 
HETATM   16  N3  UNL     1      -1.036   0.038  -1.331  1.00  0.00    -0.352 N 
HETATM   17  C21 UNL     1       1.820   1.644  -1.973  1.00  0.00     0.093 A 
ENDROOT
BRANCH  16  18
HETATM   18  C14 UNL     1      -1.696  -1.007  -0.643  1.00  0.00     0.167 C 
BRANCH  18  19
HETATM   19  C15 UNL     1      -2.176  -0.431   0.635  1.00  0.00    -0.040 A 
HETATM   20  C16 UNL     1      -1.631  -0.454   1.900  1.00  0.00     0.009 A 
HETATM   21  C17 UNL     1      -2.204   0.146   2.996  1.00  0.00     0.001 A 
HETATM   22  C18 UNL     1      -3.395   0.827   2.887  1.00  0.00     0.000 A 
HETATM   23  C19 UNL     1      -4.037   0.914   1.652  1.00  0.00     0.001 A 
HETATM   24  C20 UNL     1      -3.370   0.272   0.610  1.00  0.00     0.009 A 
ENDBRANCH  18  19
ENDBRANCH  16  18
TORSDOF 3
