REMARK  5 active torsions:
REMARK  status: ('A' for Active; 'I' for Inactive)
REMARK    1  A    between atoms: O1_2  and  C2_3 
REMARK    2  A    between atoms: C9_12  and  N3_13 
REMARK       I    between atoms: N3_13  and  C10_14 
REMARK    3  A    between atoms: C10_14  and  C11_16 
REMARK    4  A    between atoms: C12_17  and  C13_18 
REMARK    5  A    between atoms: C13_18  and  N4_19 
ROOT
HETATM    1  C2  UNL     1      -2.281  -0.205  -0.075  1.00  0.00     0.092 C 
HETATM    2  C3  UNL     1      -3.218  -0.751  -0.786  1.00  0.00     0.036 C 
HETATM    3  C4  UNL     1      -4.297  -1.243  -1.608  1.00  0.00     0.279 C 
HETATM    4  N1  UNL     1      -5.070  -0.197  -2.024  1.00  0.00    -0.260 NA
HETATM    5  C5  UNL     1      -4.592   0.992  -1.497  1.00  0.00    -0.004 C 
HETATM    6  C6  UNL     1      -4.216   1.924  -1.061  1.00  0.00     0.022 C 
HETATM    7  N2  UNL     1      -3.772   3.015  -0.523  1.00  0.00    -0.346 N 
HETATM    8  C7  UNL     1      -2.428   3.489  -0.403  1.00  0.00     0.159 C 
HETATM    9  C8  UNL     1      -1.611   2.410   0.287  1.00  0.00     0.026 C 
HETATM   10  C9  UNL     1      -1.727   1.080   0.280  1.00  0.00     0.066 C 
HETATM   11  H6  UNL     1      -4.645   3.491  -0.183  1.00  0.00     0.170 HD
ENDROOT
BRANCH  10  12
HETATM   12  N3  UNL     1      -0.639   0.789   1.143  1.00  0.00    -0.321 N 
HETATM   13  C10 UNL     1       0.476   0.046   0.673  1.00  0.00     0.245 C 
HETATM   14  O2  UNL     1       0.532  -0.372  -0.521  1.00  0.00    -0.268 OA
HETATM   15  H10 UNL     1      -0.467   1.032   2.166  1.00  0.00     0.169 HD
BRANCH  13  16
HETATM   16  C11 UNL     1       1.679  -0.360   1.382  1.00  0.00     0.072 C 
HETATM   17  C12 UNL     1       2.719  -1.046   0.967  1.00  0.00     0.008 C 
BRANCH  17  18
HETATM   18  C13 UNL     1       3.209  -1.701  -0.247  1.00  0.00     0.299 C 
BRANCH  18  19
HETATM   19  N4  UNL     1       4.472  -1.180  -0.733  1.00  0.00     0.083 N 
HETATM   20  C14 UNL     1       5.565  -1.491   0.155  1.00  0.00     0.309 C 
HETATM   21  C15 UNL     1       4.347   0.213  -1.054  1.00  0.00     0.309 C 
ENDBRANCH  18  19
ENDBRANCH  17  18
ENDBRANCH  13  16
ENDBRANCH  10  12
BRANCH   1  22
HETATM   22  O1  UNL     1      -1.645  -1.356   0.475  1.00  0.00    -0.354 OA
HETATM   23  C1  UNL     1      -2.356  -1.894   1.594  1.00  0.00     0.210 C 
ENDBRANCH   1  22
TORSDOF 5
