REMARK  7 active torsions:
REMARK  status: ('A' for Active; 'I' for Inactive)
REMARK    1  A    between atoms: O1_2  and  C2_3 
REMARK    2  A    between atoms: C5_9  and  N4_10 
REMARK    3  A    between atoms: N4_10  and  C6_11 
REMARK    4  A    between atoms: C14_20  and  C15_21 
REMARK    5  A    between atoms: C15_21  and  N5_22 
REMARK    6  A    between atoms: N5_22  and  C17_24 
REMARK    7  A    between atoms: C17_24  and  C19_26 
REMARK       I    between atoms: C19_26  and  N6_28 
ROOT
HETATM    1  C2  UNL     1      -0.157  -3.225  -0.472  1.00  0.00     0.174 A 
HETATM    2  N1  UNL     1       0.783  -3.513   0.447  1.00  0.00    -0.204 NA
HETATM    3  C3  UNL     1       1.592  -2.582   0.962  1.00  0.00     0.167 A 
HETATM    4  N2  UNL     1       2.542  -2.863   1.889  1.00  0.00    -0.221 NA
HETATM    5  C4  UNL     1       3.354  -1.889   2.397  1.00  0.00     0.237 A 
HETATM    6  N3  UNL     1       3.229  -0.595   1.980  1.00  0.00    -0.223 NA
HETATM    7  C5  UNL     1       2.292  -0.301   1.062  1.00  0.00     0.143 A 
HETATM    8  C12 UNL     1       1.470  -1.268   0.544  1.00  0.00     0.059 A 
HETATM    9  C13 UNL     1       0.511  -0.953  -0.399  1.00  0.00     0.032 A 
HETATM   10  C14 UNL     1      -0.313  -1.931  -0.917  1.00  0.00     0.024 A 
ENDROOT
BRANCH  10  11
HETATM   11  C15 UNL     1      -1.364  -1.668  -1.931  1.00  0.00     0.316 C 
BRANCH  11  12
HETATM   12  N5  UNL     1      -2.686  -1.661  -1.363  1.00  0.00     0.101 N 
HETATM   13  C16 UNL     1      -3.653  -1.398  -2.405  1.00  0.00     0.311 C 
BRANCH  12  14
HETATM   14  C17 UNL     1      -2.815  -0.667  -0.319  1.00  0.00     0.310 C 
HETATM   15  C18 UNL     1      -4.232  -0.732   0.246  1.00  0.00     0.053 C 
BRANCH  14  16
HETATM   16  C19 UNL     1      -2.515   0.699  -0.825  1.00  0.00     0.252 C 
HETATM   17  O2  UNL     1      -2.191   1.324  -1.867  1.00  0.00    -0.271 OA
HETATM   18  N6  UNL     1      -2.561   1.829   0.030  1.00  0.00    -0.359 N 
HETATM   19  C20 UNL     1      -2.260   3.127  -0.535  1.00  0.00     0.152 C 
HETATM   20  C21 UNL     1      -2.898   1.719   1.442  1.00  0.00     0.152 C 
ENDBRANCH  14  16
ENDBRANCH  12  14
ENDBRANCH  11  12
ENDBRANCH  10  11
BRANCH   1  21
HETATM   21  O1  UNL     1      -0.989  -4.230  -0.991  1.00  0.00    -0.339 OA
HETATM   22  C1  UNL     1      -0.822  -5.558  -0.528  1.00  0.00     0.211 C 
ENDBRANCH   1  21
BRANCH   7  23
HETATM   23  N4  UNL     1       2.213   1.053   0.673  1.00  0.00    -0.342 N 
HETATM   24  H5  UNL     1       1.594   1.540  -0.002  1.00  0.00     0.167 HD
BRANCH  23  25
HETATM   25  C6  UNL     1       3.094   2.009   1.251  1.00  0.00     0.038 A 
HETATM   26  C7  UNL     1       3.100   2.683   2.403  1.00  0.00     0.027 A 
HETATM   27  C8  UNL     1       4.295   3.541   2.434  1.00  0.00     0.000 A 
HETATM   28  C9  UNL     1       4.958   3.350   1.304  1.00  0.00     0.005 A 
HETATM   29  C10 UNL     1       4.292   2.360   0.407  1.00  0.00     0.093 A 
HETATM   30  C11 UNL     1       3.902   3.090  -0.837  1.00  0.00     0.044 C 
HETATM   31 CL1  UNL     1       5.302   0.943   0.080  1.00  0.00    -0.108 Cl
ENDBRANCH  23  25
ENDBRANCH   7  23
TORSDOF 7
