REMARK  0 active torsions:
REMARK  status: ('A' for Active; 'I' for Inactive)
ROOT
HETATM    1  N1  UNL     1       4.254  -1.398   0.090  1.00  0.00    -0.191 NA
HETATM    2  C1  UNL     1       3.471  -0.553  -0.079  1.00  0.00     0.103 C 
HETATM    3  C2  UNL     1       2.500   0.489  -0.290  1.00  0.00     0.090 A 
HETATM    4  C3  UNL     1       2.892   1.781  -0.539  1.00  0.00     0.141 A 
HETATM    5  N2  UNL     1       1.948   2.738  -0.733  1.00  0.00    -0.270 NA
HETATM    6  C4  UNL     1       0.627   2.484  -0.693  1.00  0.00     0.136 A 
HETATM    7  C5  UNL     1       0.167   1.201  -0.447  1.00  0.00     0.035 A 
HETATM    8  C6  UNL     1       1.129   0.196  -0.243  1.00  0.00     0.072 A 
HETATM    9  N3  UNL     1       0.953  -1.217   0.029  1.00  0.00    -0.353 N 
HETATM   10  C7  UNL     1      -0.251  -2.003  -0.169  1.00  0.00     0.046 C 
HETATM   11  C8  UNL     1      -0.043  -2.794   0.886  1.00  0.00     0.010 C 
HETATM   12  C9  UNL     1      -0.665  -2.281   1.944  1.00  0.00     0.061 C 
HETATM   13  S1  UNL     1      -1.719  -0.963   2.499  1.00  0.00    -0.118 SA
HETATM   14  C10 UNL     1      -2.082   0.249   1.249  1.00  0.00     0.076 A 
HETATM   15  C11 UNL     1      -3.136   1.001   1.513  1.00  0.00     0.025 A 
HETATM   16  C12 UNL     1      -2.738   1.720   0.475  1.00  0.00     0.082 A 
HETATM   17  S2  UNL     1      -1.538   0.937  -0.403  1.00  0.00    -0.154 SA
HETATM   18  C13 UNL     1      -1.769  -0.533  -1.387  1.00  0.00     0.061 C 
HETATM   19 CL1  UNL     1      -2.913  -0.229  -2.667  1.00  0.00    -0.078 Cl
HETATM   20  C14 UNL     1      -1.212  -1.757  -1.271  1.00  0.00     0.060 C 
HETATM   21  H3  UNL     1       1.756  -1.762   0.411  1.00  0.00     0.166 HD
ENDROOT
TORSDOF 0
