REMARK  5 active torsions:
REMARK  status: ('A' for Active; 'I' for Inactive)
REMARK    1  A    between atoms: N1_3  and  C3_4 
REMARK    2  A    between atoms: C9_12  and  C10_13 
REMARK    3  A    between atoms: C12_16  and  N4_17 
REMARK    4  A    between atoms: N4_17  and  S1_18 
REMARK    5  A    between atoms: S1_18  and  C13_21 
ROOT
HETATM    1  C1  UNL     1      -2.937  -4.255   0.878  1.00  0.00     0.037 C 
HETATM    2  C2  UNL     1      -2.291  -3.246   0.699  1.00  0.00    -0.000 C 
HETATM    3  N1  UNL     1      -1.570  -2.074   0.491  1.00  0.00    -0.314 N 
HETATM    4  H2  UNL     1      -1.483  -1.977  -0.528  1.00  0.00     0.176 HD
ENDROOT
BRANCH   3   5
HETATM    5  C3  UNL     1      -1.031  -1.151   1.388  1.00  0.00     0.074 A 
HETATM    6  C4  UNL     1      -1.139  -1.280   2.754  1.00  0.00     0.090 A 
HETATM    7  C5  UNL     1      -1.826  -2.392   3.365  1.00  0.00     0.103 C 
HETATM    8  C6  UNL     1      -0.617  -0.384   3.689  1.00  0.00     0.142 A 
HETATM    9  N2  UNL     1      -2.372  -3.283   3.874  1.00  0.00    -0.191 NA
HETATM   10  N3  UNL     1       0.040   0.685   3.217  1.00  0.00    -0.259 NA
HETATM   11  C7  UNL     1       0.157   0.829   1.874  1.00  0.00     0.070 A 
HETATM   12  C8  UNL     1       0.856   1.972   1.499  1.00  0.00     0.048 A 
HETATM   13  C16 UNL     1      -0.353  -0.048   0.915  1.00  0.00     0.024 A 
HETATM   14  C9  UNL     1       0.983   2.134   0.147  1.00  0.00     0.014 A 
HETATM   15  C12 UNL     1       0.508   1.314  -0.846  1.00  0.00     0.055 A 
HETATM   16  C15 UNL     1      -0.175   0.199  -0.424  1.00  0.00     0.047 A 
BRANCH  14  17
HETATM   17  C10 UNL     1       1.704   3.312  -0.288  1.00  0.00     0.037 C 
HETATM   18  C11 UNL     1       2.185   4.134   0.608  1.00  0.00     0.037 C 
HETATM   19 CL1  UNL     1       2.367   4.369  -1.483  1.00  0.00    -0.084 Cl
ENDBRANCH  14  17
BRANCH  15  20
HETATM   20  N4  UNL     1       0.728   1.628  -2.211  1.00  0.00    -0.280 N 
HETATM   21  H7  UNL     1       1.203   2.479  -2.541  1.00  0.00     0.179 HD
BRANCH  20  22
HETATM   22  S1  UNL     1       0.154   0.502  -3.378  1.00  0.00     0.252 S 
HETATM   23  O1  UNL     1      -1.338   0.381  -3.209  1.00  0.00    -0.201 OA
HETATM   24  O2  UNL     1       0.378   1.079  -4.747  1.00  0.00    -0.201 OA
BRANCH  22  25
HETATM   25  C13 UNL     1       0.917  -1.057  -3.211  1.00  0.00     0.121 C 
HETATM   26  C14 UNL     1       0.584  -2.330  -3.061  1.00  0.00     0.025 C 
ENDBRANCH  22  25
ENDBRANCH  20  22
ENDBRANCH  15  20
ENDBRANCH   3   5
TORSDOF 5
