REMARK  7 active torsions:
REMARK  status: ('A' for Active; 'I' for Inactive)
REMARK    1  A    between atoms: O1_2  and  C2_3 
REMARK    2  A    between atoms: C8_11  and  N3_12 
REMARK    3  A    between atoms: N3_12  and  C9_13 
REMARK    4  A    between atoms: C17_22  and  N4_23 
REMARK    5  A    between atoms: N4_23  and  C18_24 
REMARK    6  A    between atoms: C18_24  and  C19_25 
REMARK    7  A    between atoms: C19_25  and  C20_26 
ROOT
HETATM    1  C2  UNL     1      -2.763   1.079   0.188  1.00  0.00     0.096 A 
HETATM    2  C3  UNL     1      -2.120   2.269   0.432  1.00  0.00     0.071 A 
HETATM    3  C4  UNL     1      -0.779   2.472   0.277  1.00  0.00     0.071 A 
HETATM    4  N1  UNL     1      -0.205   3.661   0.532  1.00  0.00    -0.259 NA
HETATM    5  C5  UNL     1       1.115   3.876   0.384  1.00  0.00     0.142 A 
HETATM    6  C6  UNL     1       1.913   2.814  -0.054  1.00  0.00     0.089 A 
HETATM    7  C7  UNL     1       3.312   3.035  -0.213  1.00  0.00     0.103 C 
HETATM    8  N2  UNL     1       4.445   3.210  -0.346  1.00  0.00    -0.191 NA
HETATM    9  C8  UNL     1       1.375   1.555  -0.335  1.00  0.00     0.067 A 
HETATM   10  C15 UNL     1      -0.003   1.402  -0.159  1.00  0.00     0.023 A 
HETATM   11  C16 UNL     1      -0.598   0.175  -0.422  1.00  0.00     0.048 A 
HETATM   12  C17 UNL     1      -1.971   0.013  -0.250  1.00  0.00     0.063 A 
ENDROOT
BRANCH   9  13
HETATM   13  N3  UNL     1       2.197   0.515  -0.770  1.00  0.00    -0.354 N 
HETATM   14  H6  UNL     1       2.130   0.687  -1.787  1.00  0.00     0.166 HD
BRANCH  13  15
HETATM   15  C9  UNL     1       2.953  -0.526  -0.159  1.00  0.00     0.034 A 
HETATM   16  C10 UNL     1       3.647  -1.365  -0.983  1.00  0.00     0.029 A 
HETATM   17  C11 UNL     1       4.370  -2.364  -0.363  1.00  0.00     0.004 A 
HETATM   18  C12 UNL     1       4.394  -2.511   0.997  1.00  0.00     0.024 A 
HETATM   19  C13 UNL     1       3.674  -1.635   1.779  1.00  0.00     0.036 A 
HETATM   20 CL1  UNL     1       3.775  -1.913   3.507  1.00  0.00    -0.084 Cl
HETATM   21  C14 UNL     1       2.919  -0.599   1.223  1.00  0.00     0.053 A 
ENDBRANCH  13  15
ENDBRANCH   9  13
BRANCH  12  22
HETATM   22  N4  UNL     1      -2.535  -1.282  -0.537  1.00  0.00    -0.384 N 
HETATM   23  H12 UNL     1      -3.582  -1.372  -0.396  1.00  0.00     0.160 HD
BRANCH  22  24
HETATM   24  C18 UNL     1      -1.793  -2.450  -0.997  1.00  0.00     0.151 C 
BRANCH  24  25
HETATM   25  C19 UNL     1      -2.711  -3.599  -1.185  1.00  0.00     0.051 C 
BRANCH  25  26
HETATM   26  C20 UNL     1      -3.939  -3.612  -0.744  1.00  0.00     0.219 C 
HETATM   27  O2  UNL     1      -5.099  -3.361  -0.352  1.00  0.00    -0.284 OA
ENDBRANCH  25  26
ENDBRANCH  24  25
ENDBRANCH  22  24
ENDBRANCH  12  22
BRANCH   1  28
HETATM   28  O1  UNL     1      -4.122   0.861   0.342  1.00  0.00    -0.354 OA
HETATM   29  C1  UNL     1      -4.921   1.949   0.787  1.00  0.00     0.210 C 
ENDBRANCH   1  28
TORSDOF 7
