REMARK  6 active torsions:
REMARK  status: ('A' for Active; 'I' for Inactive)
REMARK    1  A    between atoms: C8_10  and  N3_11 
REMARK    2  A    between atoms: C12_16  and  S1_17 
REMARK    3  A    between atoms: S1_17  and  C13_18 
REMARK    4  A    between atoms: C13_18  and  S2_19 
REMARK    5  A    between atoms: S2_19  and  C14_20 
REMARK    6  A    between atoms: C15_21  and  N4_22 
ROOT
HETATM    1  C1  UNL     1      -3.592  -2.756  -0.652  1.00  0.00     0.044 C 
HETATM    2  C2  UNL     1      -3.297  -1.318  -0.422  1.00  0.00    -0.077 A 
HETATM    3  C3  UNL     1      -4.200  -0.351  -0.389  1.00  0.00     0.035 A 
HETATM    4  C4  UNL     1      -3.595   0.951  -0.143  1.00  0.00     0.065 A 
HETATM    5  N1  UNL     1      -4.014   2.220  -0.016  1.00  0.00    -0.259 NA
HETATM    6  C5  UNL     1      -3.176   3.244   0.218  1.00  0.00     0.142 A 
HETATM    7  C6  UNL     1      -1.806   2.972   0.332  1.00  0.00     0.089 A 
HETATM    8  C7  UNL     1      -0.984   4.127   0.581  1.00  0.00     0.103 C 
HETATM    9  N2  UNL     1      -0.337   5.066   0.773  1.00  0.00    -0.191 NA
HETATM   10  C8  UNL     1      -1.313   1.664   0.207  1.00  0.00     0.063 A 
HETATM   11  C16 UNL     1      -2.251   0.689  -0.031  1.00  0.00     0.003 A 
HETATM   12  C17 UNL     1      -1.923  -0.743  -0.197  1.00  0.00     0.077 A 
ENDROOT
BRANCH  10  13
HETATM   13  N3  UNL     1       0.097   1.652   0.361  1.00  0.00    -0.357 N 
HETATM   14  C9  UNL     1       0.993   1.797  -0.768  1.00  0.00     0.153 C 
HETATM   15  C10 UNL     1       2.318   1.988  -0.073  1.00  0.00     0.015 C 
HETATM   16  C11 UNL     1       2.148   1.846   1.259  1.00  0.00     0.042 C 
HETATM   17 CL1  UNL     1       3.352   1.965   2.543  1.00  0.00    -0.086 Cl
HETATM   18  C12 UNL     1       0.712   1.536   1.659  1.00  0.00     0.192 C 
BRANCH  18  19
HETATM   19  S1  UNL     1       0.748  -0.099   2.371  1.00  0.00    -0.128 SA
BRANCH  19  20
HETATM   20  C13 UNL     1       1.854  -1.261   1.571  1.00  0.00     0.154 C 
BRANCH  20  21
HETATM   21  S2  UNL     1       1.397  -1.750  -0.082  1.00  0.00    -0.130 SA
BRANCH  21  22
HETATM   22  C14 UNL     1       2.540  -2.907  -0.815  1.00  0.00     0.062 C 
HETATM   23  C15 UNL     1       3.786  -2.439  -0.736  1.00  0.00     0.087 C 
BRANCH  23  24
HETATM   24  N4  UNL     1       4.966  -3.081  -1.213  1.00  0.00    -0.407 N 
HETATM   25  H14 UNL     1       5.741  -3.468  -0.603  1.00  0.00     0.155 HD
HETATM   26  H15 UNL     1       5.587  -3.440  -1.974  1.00  0.00     0.155 HD
ENDBRANCH  23  24
ENDBRANCH  21  22
ENDBRANCH  20  21
ENDBRANCH  19  20
ENDBRANCH  18  19
ENDBRANCH  10  13
TORSDOF 6
