REMARK  8 active torsions:
REMARK  status: ('A' for Active; 'I' for Inactive)
REMARK    1  A    between atoms: C2_2  and  C3_3 
REMARK    2  A    between atoms: C4_4  and  N1_6 
REMARK    3  A    between atoms: N1_6  and  C6_7 
REMARK    4  A    between atoms: C10_13  and  O1_14 
REMARK    5  A    between atoms: C12_16  and  C13_17 
REMARK    6  A    between atoms: C13_17  and  N4_18 
REMARK    7  A    between atoms: N4_18  and  C15_20 
REMARK    8  A    between atoms: C15_20  and  C17_22 
REMARK       I    between atoms: C17_22  and  N5_24 
ROOT
HETATM    1  C6  UNL     1       3.093   0.039  -0.796  1.00  0.00     0.141 A 
HETATM    2  N2  UNL     1       4.016   0.507  -1.649  1.00  0.00    -0.224 NA
HETATM    3  C7  UNL     1       3.745   0.576  -2.986  1.00  0.00     0.236 A 
HETATM    4  N3  UNL     1       2.539   0.174  -3.482  1.00  0.00    -0.241 NA
HETATM    5  C8  UNL     1       1.604  -0.294  -2.670  1.00  0.00     0.074 A 
HETATM    6  C9  UNL     1       0.356  -0.725  -3.067  1.00  0.00     0.070 A 
HETATM    7  C10 UNL     1      -0.634  -1.219  -2.212  1.00  0.00     0.078 A 
HETATM    8  C12 UNL     1      -0.348  -1.288  -0.838  1.00  0.00     0.004 A 
HETATM    9  C20 UNL     1       0.929  -0.841  -0.477  1.00  0.00     0.029 A 
HETATM   10  C21 UNL     1       1.883  -0.361  -1.323  1.00  0.00     0.039 A 
ENDROOT
BRANCH   8  11
HETATM   11  C13 UNL     1      -1.415  -1.834  -0.023  1.00  0.00     0.314 C 
BRANCH  11  12
HETATM   12  N4  UNL     1      -2.564  -1.063   0.258  1.00  0.00     0.101 NA
HETATM   13  C14 UNL     1      -3.486  -2.002   0.963  1.00  0.00     0.311 C 
BRANCH  12  14
HETATM   14  C15 UNL     1      -2.385   0.011   1.201  1.00  0.00     0.310 C 
HETATM   15  C16 UNL     1      -1.475   1.068   0.663  1.00  0.00     0.053 C 
BRANCH  14  16
HETATM   16  C17 UNL     1      -3.700   0.695   1.487  1.00  0.00     0.252 C 
HETATM   17  O2  UNL     1      -3.417   1.587   2.360  1.00  0.00    -0.271 OA
HETATM   18  N5  UNL     1      -5.094   0.819   1.249  1.00  0.00    -0.359 N 
HETATM   19  C18 UNL     1      -5.733   1.847   2.028  1.00  0.00     0.152 C 
HETATM   20  C19 UNL     1      -6.138   0.205   0.416  1.00  0.00     0.152 C 
ENDBRANCH  14  16
ENDBRANCH  12  14
ENDBRANCH  11  12
ENDBRANCH   8  11
BRANCH   7  21
HETATM   21  O1  UNL     1      -1.865  -1.631  -2.713  1.00  0.00    -0.355 OA
HETATM   22  C11 UNL     1      -2.074  -1.530  -4.107  1.00  0.00     0.210 C 
ENDBRANCH   7  21
BRANCH   1  23
HETATM   23  N1  UNL     1       3.426  -0.012   0.584  1.00  0.00    -0.344 N 
HETATM   24  H8  UNL     1       2.884  -0.327   1.390  1.00  0.00     0.167 HD
BRANCH  23  25
HETATM   25  C4  UNL     1       4.720   0.437   0.962  1.00  0.00     0.007 C 
HETATM   26  C3  UNL     1       4.954   1.469   1.756  1.00  0.00     0.024 C 
HETATM   27  C5  UNL     1       5.902  -0.301   0.431  1.00  0.00     0.068 C 
BRANCH  26  28
HETATM   28  C2  UNL     1       6.345   1.786   2.035  1.00  0.00    -0.008 C 
HETATM   29  C1  UNL     1       6.674   2.797   2.815  1.00  0.00     0.011 C 
ENDBRANCH  26  28
ENDBRANCH  23  25
ENDBRANCH   1  23
TORSDOF 8
