REMARK  4 active torsions:
REMARK  status: ('A' for Active; 'I' for Inactive)
REMARK    1  A    between atoms: C8_10  and  N3_11 
REMARK       I    between atoms: N3_11  and  C9_12 
REMARK    2  A    between atoms: C9_12  and  C10_14 
REMARK    3  A    between atoms: C11_15  and  C12_16 
REMARK    4  A    between atoms: C12_16  and  N4_17 
ROOT
HETATM    1  C1  UNL     1      -4.750   2.723  -2.647  1.00  0.00     0.045 C 
HETATM    2  C2  UNL     1      -4.266   1.799  -1.551  1.00  0.00    -0.064 C 
HETATM    3  C3  UNL     1      -3.139   1.209  -1.029  1.00  0.00     0.097 C 
HETATM    4  N1  UNL     1      -3.095   0.284   0.156  1.00  0.00    -0.320 N 
HETATM    5  C4  UNL     1      -1.837   0.647   0.635  1.00  0.00     0.130 C 
HETATM    6  C5  UNL     1      -1.653   1.854   1.409  1.00  0.00     0.119 C 
HETATM    7  N2  UNL     1      -1.490   2.806   2.027  1.00  0.00    -0.190 NA
HETATM    8  C6  UNL     1      -0.774  -0.099   0.438  1.00  0.00     0.033 A 
HETATM    9  C7  UNL     1       0.426   0.315   0.925  1.00  0.00     0.048 A 
HETATM   10  C8  UNL     1       1.644  -0.306   0.842  1.00  0.00     0.053 A 
HETATM   11  C15 UNL     1       1.709  -1.509   0.188  1.00  0.00     0.147 A 
HETATM   12  N5  UNL     1       0.515  -1.963  -0.320  1.00  0.00    -0.258 NA
HETATM   13  C16 UNL     1      -0.643  -1.303  -0.201  1.00  0.00     0.069 A 
HETATM   14  C17 UNL     1      -1.289  -2.319  -0.829  1.00  0.00     0.034 C 
HETATM   15  C18 UNL     1      -1.278  -3.587  -1.520  1.00  0.00     0.022 C 
HETATM   16  C19 UNL     1      -2.496  -4.035  -1.911  1.00  0.00     0.116 C 
HETATM   17  N6  UNL     1      -3.469  -3.051  -1.491  1.00  0.00    -0.277 NA
HETATM   18  C20 UNL     1      -4.663  -3.553  -1.260  1.00  0.00     0.091 C 
HETATM   19  C21 UNL     1      -5.780  -2.638  -0.817  1.00  0.00     0.073 C 
HETATM   20  C22 UNL     1      -5.646  -1.429  -1.703  1.00  0.00     0.175 C 
HETATM   21  O2  UNL     1      -4.461  -0.782  -1.489  1.00  0.00    -0.366 OA
HETATM   22  C23 UNL     1      -4.437  -0.161  -0.279  1.00  0.00     0.232 C 
HETATM   23  C24 UNL     1      -5.136   1.192  -0.459  1.00  0.00     0.089 C 
ENDROOT
BRANCH  10  24
HETATM   24  N3  UNL     1       2.786   0.298   1.396  1.00  0.00    -0.322 N 
HETATM   25  C9  UNL     1       3.364   0.336   2.685  1.00  0.00     0.245 C 
HETATM   26  O1  UNL     1       2.644  -0.332   3.466  1.00  0.00    -0.268 OA
HETATM   27  H6  UNL     1       3.225   0.801   0.598  1.00  0.00     0.169 HD
BRANCH  25  28
HETATM   28  C10 UNL     1       4.579   1.016   3.071  1.00  0.00     0.072 C 
HETATM   29  C11 UNL     1       5.514   1.743   2.470  1.00  0.00     0.008 C 
BRANCH  29  30
HETATM   30  C12 UNL     1       5.906   2.288   1.146  1.00  0.00     0.299 C 
BRANCH  30  31
HETATM   31  N4  UNL     1       7.224   1.780   0.762  1.00  0.00     0.083 N 
HETATM   32  C13 UNL     1       7.128   0.331   0.515  1.00  0.00     0.309 C 
HETATM   33  C14 UNL     1       8.199   1.956   1.796  1.00  0.00     0.309 C 
ENDBRANCH  30  31
ENDBRANCH  29  30
ENDBRANCH  25  28
ENDBRANCH  10  24
TORSDOF 4
