REMARK  7 active torsions:
REMARK  status: ('A' for Active; 'I' for Inactive)
REMARK    1  A    between atoms: C2_2  and  C3_3 
REMARK    2  A    between atoms: C3_3  and  C4_4 
REMARK    3  A    between atoms: C4_4  and  N4_19 
REMARK    4  A    between atoms: C5_5  and  C6_6 
REMARK       I    between atoms: N4_19  and  C16_20 
REMARK    5  A    between atoms: C16_20  and  C17_22 
REMARK    6  A    between atoms: C18_23  and  C19_24 
REMARK    7  A    between atoms: C19_24  and  N5_25 
ROOT
HETATM    1  C6  UNL     1      -3.558   0.052  -0.487  1.00  0.00     0.085 A 
HETATM    2  C7  UNL     1      -4.092  -1.000  -1.381  1.00  0.00     0.100 A 
HETATM    3  N1  UNL     1      -4.826  -2.063  -1.276  1.00  0.00    -0.275 NA
HETATM    4  C8  UNL     1      -5.270  -2.336   0.056  1.00  0.00     0.136 A 
HETATM    5  C9  UNL     1      -4.850  -1.450   0.935  1.00  0.00     0.070 A 
HETATM    6  C10 UNL     1      -5.326  -1.770   2.281  1.00  0.00     0.099 C 
HETATM    7  N2  UNL     1      -5.703  -2.010   3.374  1.00  0.00    -0.192 NA
HETATM    8  C11 UNL     1      -4.034  -0.215   0.897  1.00  0.00     0.109 A 
HETATM    9  C12 UNL     1      -4.207   0.817   1.883  1.00  0.00     0.023 A 
HETATM   10  C13 UNL     1      -4.291   1.774   2.873  1.00  0.00     0.023 A 
HETATM   11  C14 UNL     1      -3.181   1.513   3.675  1.00  0.00     0.013 A 
HETATM   12  C15 UNL     1      -2.488   0.423   3.136  1.00  0.00     0.067 A 
HETATM   13  N3  UNL     1      -3.157   0.018   2.021  1.00  0.00    -0.240 NA
ENDROOT
BRANCH   1  14
HETATM   14  C5  UNL     1      -2.054   0.097  -0.491  1.00  0.00     0.011 C 
HETATM   15  C4  UNL     1      -1.002  -0.498  -1.014  1.00  0.00     0.012 C 
BRANCH  15  16
HETATM   16  C3  UNL     1      -0.803  -1.624  -1.956  1.00  0.00     0.083 C 
BRANCH  16  17
HETATM   17  C2  UNL     1      -0.005  -2.723  -1.315  1.00  0.00    -0.031 C 
HETATM   18  C1  UNL     1       0.482  -2.765  -0.082  1.00  0.00     0.007 C 
ENDBRANCH  16  17
ENDBRANCH  15  16
BRANCH  15  19
HETATM   19  N4  UNL     1       0.289  -0.031  -0.661  1.00  0.00    -0.327 N 
HETATM   20  C16 UNL     1       1.269   0.477  -1.549  1.00  0.00     0.245 C 
HETATM   21  O1  UNL     1       1.150   0.593  -2.794  1.00  0.00    -0.268 OA
HETATM   22  H13 UNL     1       0.437  -0.108   0.368  1.00  0.00     0.169 HD
BRANCH  20  23
HETATM   23  C17 UNL     1       2.513   0.891  -0.914  1.00  0.00     0.072 C 
HETATM   24  C18 UNL     1       3.501   1.377  -1.647  1.00  0.00     0.008 C 
BRANCH  24  25
HETATM   25  C19 UNL     1       4.860   1.887  -1.407  1.00  0.00     0.299 C 
BRANCH  25  26
HETATM   26  N5  UNL     1       5.123   1.794   0.033  1.00  0.00     0.083 N 
HETATM   27  C20 UNL     1       6.465   2.343   0.304  1.00  0.00     0.309 C 
HETATM   28  C21 UNL     1       5.187   0.361   0.310  1.00  0.00     0.309 C 
ENDBRANCH  25  26
ENDBRANCH  24  25
ENDBRANCH  20  23
ENDBRANCH  15  19
ENDBRANCH   1  14
TORSDOF 7
