REMARK  8 active torsions:
REMARK  status: ('A' for Active; 'I' for Inactive)
REMARK    1  A    between atoms: C2_2  and  O1_3 
REMARK    2  A    between atoms: O1_3  and  C3_4 
REMARK    3  A    between atoms: C9_12  and  N3_13 
REMARK    4  A    between atoms: N3_13  and  C10_14 
REMARK    5  A    between atoms: C18_22  and  N4_23 
REMARK       I    between atoms: N4_23  and  C19_24 
REMARK    6  A    between atoms: C19_24  and  C20_26 
REMARK    7  A    between atoms: C21_27  and  C22_28 
REMARK    8  A    between atoms: C22_28  and  N5_29 
ROOT
HETATM    1  C3  UNL     1      -0.364   3.520   0.054  1.00  0.00     0.097 A 
HETATM    2  C4  UNL     1       0.923   3.908   0.258  1.00  0.00     0.071 A 
HETATM    3  C5  UNL     1       1.949   2.988   0.239  1.00  0.00     0.071 A 
HETATM    4  N1  UNL     1       3.215   3.448   0.449  1.00  0.00    -0.259 NA
HETATM    5  C6  UNL     1       4.233   2.570   0.434  1.00  0.00     0.142 A 
HETATM    6  C7  UNL     1       3.972   1.223   0.205  1.00  0.00     0.089 A 
HETATM    7  C8  UNL     1       5.114   0.359   0.208  1.00  0.00     0.103 C 
HETATM    8  N2  UNL     1       6.046  -0.325   0.219  1.00  0.00    -0.191 NA
HETATM    9  C9  UNL     1       2.688   0.778  -0.005  1.00  0.00     0.067 A 
HETATM   10  C16 UNL     1       1.643   1.663   0.009  1.00  0.00     0.023 A 
HETATM   11  C17 UNL     1       0.325   1.322  -0.191  1.00  0.00     0.048 A 
HETATM   12  C18 UNL     1      -0.722   2.211  -0.180  1.00  0.00     0.069 A 
ENDROOT
BRANCH   9  13
HETATM   13  N3  UNL     1       2.449  -0.596  -0.246  1.00  0.00    -0.354 N 
HETATM   14  H8  UNL     1       1.548  -1.085  -0.400  1.00  0.00     0.166 HD
BRANCH  13  15
HETATM   15  C10 UNL     1       3.317  -1.714  -0.350  1.00  0.00     0.029 A 
HETATM   16  C11 UNL     1       3.886  -2.083  -1.513  1.00  0.00     0.007 A 
HETATM   17  C12 UNL     1       4.771  -3.299  -1.389  1.00  0.00     0.063 A 
HETATM   18  C13 UNL     1       4.607  -3.572   0.083  1.00  0.00    -0.078 A 
HETATM   19  C14 UNL     1       5.273  -4.696   0.800  1.00  0.00     0.044 C 
HETATM   20  C15 UNL     1       3.801  -2.690   0.649  1.00  0.00     0.032 A 
ENDBRANCH  13  15
ENDBRANCH   9  13
BRANCH  12  21
HETATM   21  N4  UNL     1      -2.086   1.915  -0.367  1.00  0.00    -0.321 N 
HETATM   22  C19 UNL     1      -2.717   0.671  -0.532  1.00  0.00     0.245 C 
HETATM   23  O2  UNL     1      -2.028  -0.376  -0.516  1.00  0.00    -0.268 OA
HETATM   24  H17 UNL     1      -2.781   2.696  -0.397  1.00  0.00     0.169 HD
BRANCH  22  25
HETATM   25  C20 UNL     1      -4.145   0.485  -0.728  1.00  0.00     0.072 C 
HETATM   26  C21 UNL     1      -4.738  -0.679  -0.872  1.00  0.00     0.008 C 
BRANCH  26  27
HETATM   27  C22 UNL     1      -4.448  -2.127  -0.916  1.00  0.00     0.299 C 
BRANCH  27  28
HETATM   28  N5  UNL     1      -5.140  -2.874   0.122  1.00  0.00     0.083 N 
HETATM   29  C23 UNL     1      -6.572  -2.894  -0.097  1.00  0.00     0.309 C 
HETATM   30  C24 UNL     1      -4.594  -4.225   0.079  1.00  0.00     0.309 C 
ENDBRANCH  27  28
ENDBRANCH  26  27
ENDBRANCH  22  25
ENDBRANCH  12  21
BRANCH   1  31
HETATM   31  O1  UNL     1      -1.334   4.493   0.086  1.00  0.00    -0.349 OA
BRANCH  31  32
HETATM   32  C2  UNL     1      -1.171   5.854   0.307  1.00  0.00     0.171 C 
HETATM   33  C1  UNL     1      -0.563   6.216   1.635  1.00  0.00     0.034 C 
ENDBRANCH  31  32
ENDBRANCH   1  31
TORSDOF 8
