REMARK  0 active torsions:
REMARK  status: ('A' for Active; 'I' for Inactive)
ROOT
HETATM    1  C1  UNL     1       3.310   1.171   1.543  1.00  0.00     0.016 C 
HETATM    2  C2  UNL     1       2.902   1.844   0.444  1.00  0.00    -0.008 C 
HETATM    3  C3  UNL     1       2.081   1.420  -0.746  1.00  0.00     0.095 C 
HETATM    4  C4  UNL     1       3.003   0.683  -1.696  1.00  0.00     0.170 C 
HETATM    5  N1  UNL     1       3.043  -0.751  -1.306  1.00  0.00    -0.274 NA
HETATM    6  C5  UNL     1       2.440  -1.381  -0.309  1.00  0.00     0.120 C 
HETATM    7  C6  UNL     1       1.168  -2.139  -0.581  1.00  0.00     0.085 C 
HETATM    8  C7  UNL     1       0.261  -1.975   0.628  1.00  0.00     0.048 C 
HETATM    9  C8  UNL     1      -1.054  -2.627   0.400  1.00  0.00    -0.029 A 
HETATM   10  C9  UNL     1      -1.549  -3.829   0.839  1.00  0.00     0.124 A 
HETATM   11  N2  UNL     1      -2.752  -4.259   0.527  1.00  0.00    -0.273 NA
HETATM   12  C10 UNL     1      -3.627  -3.611  -0.232  1.00  0.00     0.117 A 
HETATM   13  C11 UNL     1      -3.217  -2.369  -0.733  1.00  0.00     0.032 A 
HETATM   14  C12 UNL     1      -1.934  -1.924  -0.392  1.00  0.00    -0.010 A 
HETATM   15  C13 UNL     1      -1.651  -0.622  -0.967  1.00  0.00     0.129 C 
HETATM   16  N3  UNL     1      -1.420   0.536  -1.376  1.00  0.00    -0.259 NA
HETATM   17  C14 UNL     1      -1.403   1.749  -0.688  1.00  0.00     0.073 A 
HETATM   18  C15 UNL     1      -2.564   1.935   0.030  1.00  0.00     0.033 A 
HETATM   19  C16 UNL     1      -2.838   3.055   0.810  1.00  0.00     0.002 A 
HETATM   20  C17 UNL     1      -1.899   4.061   0.887  1.00  0.00     0.002 A 
HETATM   21  C18 UNL     1      -0.739   3.869   0.167  1.00  0.00     0.021 A 
HETATM   22  C19 UNL     1      -0.473   2.760  -0.604  1.00  0.00     0.030 A 
HETATM   23  S1  UNL     1       1.123   2.727  -1.454  1.00  0.00    -0.117 SA
HETATM   24  N4  UNL     1       2.989  -1.324   1.025  1.00  0.00    -0.246 NA
HETATM   25  C20 UNL     1       3.214  -0.290   1.824  1.00  0.00     0.118 C 
ENDROOT
TORSDOF 0
