REMARK  3 active torsions:
REMARK  status: ('A' for Active; 'I' for Inactive)
REMARK    1  A    between atoms: N1_3  and  C2_4 
REMARK    2  A    between atoms: C5_8  and  C6_9 
REMARK    3  A    between atoms: C6_9  and  C8_12 
ROOT
HETATM    1  B1  UNL     1       5.906  -1.521   3.769  1.00  0.00     0.222 B 
HETATM    2  C1  UNL     1       5.308   0.140   2.430  1.00  0.00    -0.141 C 
HETATM    3  N1  UNL     1       4.975   1.136   1.636  1.00  0.00    -0.171 N 
HETATM    4  H1  UNL     1       4.841   1.949   1.137  1.00  0.00     0.192 HD
ENDROOT
BRANCH   3   5
HETATM    5  C2  UNL     1       3.968   0.420   0.880  1.00  0.00     0.732 A 
HETATM    6  N2  UNL     1       4.282  -0.250  -0.261  1.00  0.00    -0.074 NA
HETATM    7  C3  UNL     1       3.328  -0.920  -0.967  1.00  0.00     0.138 A 
HETATM    8  C4  UNL     1       2.075  -0.863  -0.452  1.00  0.00     0.049 A 
HETATM    9  C5  UNL     1       1.672  -0.207   0.697  1.00  0.00     0.079 A 
HETATM   10  N5  UNL     1       2.700   0.428   1.326  1.00  0.00    -0.065 NA
BRANCH   9  11
HETATM   11  C6  UNL     1       0.332  -0.139   1.248  1.00  0.00     0.203 C 
HETATM   12  C7  UNL     1      -0.202  -1.480   1.483  1.00  0.00     0.077 C 
HETATM   13  N3  UNL     1      -0.627  -2.539   1.660  1.00  0.00    -0.196 NA
BRANCH  11  14
HETATM   14  C8  UNL     1      -0.595   0.684   0.361  1.00  0.00     0.083 C 
HETATM   15  N4  UNL     1      -1.331   1.786   0.364  1.00  0.00    -0.280 NA
HETATM   16  C9  UNL     1      -2.400   1.654  -0.629  1.00  0.00     0.121 C 
HETATM   17  C10 UNL     1      -3.562   0.879  -0.353  1.00  0.00     0.055 C 
HETATM   18  C14 UNL     1      -1.647   1.497  -1.957  1.00  0.00     0.101 C 
HETATM   19  C11 UNL     1      -3.990  -0.360  -1.076  1.00  0.00    -0.024 C 
HETATM   20  C12 UNL     1      -3.450  -1.555  -1.473  1.00  0.00     0.002 C 
HETATM   21  C13 UNL     1      -1.935  -1.459  -1.285  1.00  0.00     0.040 C 
HETATM   22  S1  UNL     1      -0.869  -0.105  -1.311  1.00  0.00    -0.145 SA
ENDBRANCH  11  14
ENDBRANCH   9  11
ENDBRANCH   3   5
TORSDOF 3
