REMARK  6 active torsions:
REMARK  status: ('A' for Active; 'I' for Inactive)
REMARK    1  A    between atoms: C2_3  and  C3_4 
REMARK    2  A    between atoms: C2_3  and  C14_19 
REMARK    3  A    between atoms: C6_8  and  N3_9 
REMARK    4  A    between atoms: N3_9  and  C7_10 
REMARK    5  A    between atoms: C7_10  and  C8_11 
REMARK    6  A    between atoms: C8_11  and  C9_12 
ROOT
HETATM    1  N1  UNL     1       2.061  -2.694  -2.921  1.00  0.00    -0.196 NA
HETATM    2  C1  UNL     1       2.073  -2.536  -1.764  1.00  0.00     0.077 C 
HETATM    3  C2  UNL     1       2.093  -2.327  -0.321  1.00  0.00     0.204 C 
ENDROOT
BRANCH   3   4
HETATM    4  C3  UNL     1       0.810  -1.715   0.180  1.00  0.00     0.079 A 
HETATM    5  C4  UNL     1       0.696  -1.720   1.574  1.00  0.00     0.049 A 
HETATM    6  C5  UNL     1      -0.468  -1.165   2.056  1.00  0.00     0.138 A 
HETATM    7  N2  UNL     1      -1.390  -0.673   1.245  1.00  0.00    -0.075 NA
HETATM    8  C6  UNL     1      -1.283  -0.667  -0.086  1.00  0.00     0.722 A 
HETATM    9  N5  UNL     1      -0.154  -1.203  -0.605  1.00  0.00    -0.066 NA
BRANCH   8  10
HETATM   10  N3  UNL     1      -2.086  -0.206  -1.177  1.00  0.00    -0.222 N 
HETATM   11  H4  UNL     1      -1.809   0.666  -1.639  1.00  0.00     0.177 HD
BRANCH  10  12
HETATM   12  C7  UNL     1      -3.218  -1.036  -1.505  1.00  0.00     0.142 C 
BRANCH  12  13
HETATM   13  C8  UNL     1      -4.281  -1.009  -0.403  1.00  0.00     0.060 C 
BRANCH  13  14
HETATM   14  C9  UNL     1      -4.800   0.365  -0.217  1.00  0.00    -0.039 A 
HETATM   15  C10 UNL     1      -4.350   1.352   0.625  1.00  0.00     0.010 A 
HETATM   16  C11 UNL     1      -4.897   2.607   0.726  1.00  0.00     0.020 A 
HETATM   17  C12 UNL     1      -5.976   2.891  -0.077  1.00  0.00     0.116 A 
HETATM   18  N4  UNL     1      -6.445   1.956  -0.911  1.00  0.00    -0.273 NA
HETATM   19  C13 UNL     1      -5.904   0.719  -1.009  1.00  0.00     0.123 A 
ENDBRANCH  13  14
ENDBRANCH  12  13
ENDBRANCH  10  12
ENDBRANCH   8  10
ENDBRANCH   3   4
BRANCH   3  20
HETATM   20  C14 UNL     1       3.240  -1.364  -0.083  1.00  0.00     0.100 A 
HETATM   21  N6  UNL     1       3.638  -0.317  -0.823  1.00  0.00    -0.243 NA
HETATM   22  C15 UNL     1       4.694   0.323  -0.332  1.00  0.00     0.074 A 
HETATM   23  C16 UNL     1       5.204   1.433  -1.015  1.00  0.00     0.033 A 
HETATM   24  C20 UNL     1       5.413  -0.012   0.887  1.00  0.00     0.035 A 
HETATM   25  C17 UNL     1       6.301   2.097  -0.506  1.00  0.00     0.002 A 
HETATM   26  C18 UNL     1       6.955   1.754   0.647  1.00  0.00     0.002 A 
HETATM   27  C19 UNL     1       6.453   0.663   1.318  1.00  0.00     0.021 A 
HETATM   28  S1  UNL     1       4.388  -1.464   1.363  1.00  0.00    -0.071 SA
ENDBRANCH   3  20
TORSDOF 6
