REMARK  6 active torsions:
REMARK  status: ('A' for Active; 'I' for Inactive)
REMARK    1  A    between atoms: C2_3  and  C3_4 
REMARK    2  A    between atoms: C2_3  and  C9_12 
REMARK    3  A    between atoms: C12_16  and  N4_17 
REMARK    4  A    between atoms: N4_17  and  C13_18 
REMARK    5  A    between atoms: C13_18  and  C14_19 
REMARK    6  A    between atoms: C14_19  and  C15_20 
ROOT
HETATM    1  N1  UNL     1      -3.762   1.982   3.428  1.00  0.00    -0.196 NA
HETATM    2  C1  UNL     1      -3.348   1.288   2.580  1.00  0.00     0.077 C 
HETATM    3  C2  UNL     1      -2.856   0.422   1.555  1.00  0.00     0.203 C 
ENDROOT
BRANCH   3   4
HETATM    4  C3  UNL     1      -3.923   0.342   0.449  1.00  0.00     0.089 C 
HETATM    5  N2  UNL     1      -4.379   0.587  -0.824  1.00  0.00    -0.248 NA
HETATM    6  C4  UNL     1      -5.182  -0.652  -1.150  1.00  0.00     0.056 C 
HETATM    7  C5  UNL     1      -5.627  -1.863  -1.555  1.00  0.00     0.002 C 
HETATM    8  C8  UNL     1      -6.392  -0.035  -0.527  1.00  0.00     0.134 C 
HETATM    9  C6  UNL     1      -6.049  -2.759  -0.613  1.00  0.00     0.021 C 
HETATM   10  C7  UNL     1      -5.488  -2.378   0.775  1.00  0.00     0.042 C 
HETATM   11  S1  UNL     1      -5.445  -0.656   1.007  1.00  0.00    -0.141 SA
ENDBRANCH   3   4
BRANCH   3  12
HETATM   12  C9  UNL     1      -1.601   0.877   0.883  1.00  0.00     0.079 A 
HETATM   13  C10 UNL     1      -1.375   2.215   0.695  1.00  0.00     0.049 A 
HETATM   14  C11 UNL     1      -0.213   2.511   0.005  1.00  0.00     0.138 A 
HETATM   15  N3  UNL     1       0.670   1.612  -0.471  1.00  0.00    -0.075 NA
HETATM   16  C12 UNL     1       0.381   0.298  -0.247  1.00  0.00     0.722 A 
HETATM   17  N6  UNL     1      -0.727  -0.064   0.416  1.00  0.00    -0.066 NA
BRANCH  16  18
HETATM   18  N4  UNL     1       1.354  -0.565  -0.817  1.00  0.00    -0.222 N 
HETATM   19  H8  UNL     1       0.876  -1.029  -1.647  1.00  0.00     0.177 HD
BRANCH  18  20
HETATM   20  C13 UNL     1       2.745  -0.876  -0.476  1.00  0.00     0.142 C 
BRANCH  20  21
HETATM   21  C14 UNL     1       3.569   0.412  -0.552  1.00  0.00     0.060 C 
BRANCH  21  22
HETATM   22  C15 UNL     1       4.981   0.170  -0.239  1.00  0.00    -0.039 A 
HETATM   23  C16 UNL     1       5.610   0.181   0.975  1.00  0.00     0.010 A 
HETATM   24  C17 UNL     1       6.961  -0.069   1.043  1.00  0.00     0.020 A 
HETATM   25  C18 UNL     1       7.707  -0.335  -0.090  1.00  0.00     0.116 A 
HETATM   26  N5  UNL     1       7.067  -0.343  -1.291  1.00  0.00    -0.273 NA
HETATM   27  C19 UNL     1       5.749  -0.099  -1.372  1.00  0.00     0.123 A 
ENDBRANCH  21  22
ENDBRANCH  20  21
ENDBRANCH  18  20
ENDBRANCH  16  18
ENDBRANCH   3  12
TORSDOF 6
