REMARK  7 active torsions:
REMARK  status: ('A' for Active; 'I' for Inactive)
REMARK    1  A    between atoms: B1_1  and  C1_2 
REMARK    2  A    between atoms: C6_8  and  N1_9 
REMARK    3  A    between atoms: N1_9  and  C7_10 
REMARK    4  A    between atoms: C12_18  and  C13_19 
REMARK    5  A    between atoms: C13_19  and  N4_20 
REMARK    6  A    between atoms: N4_20  and  C15_22 
REMARK    7  A    between atoms: C15_22  and  C17_24 
REMARK       I    between atoms: C17_24  and  N5_26 
ROOT
HETATM    1  C7  UNL     1       3.132   0.358   1.023  1.00  0.00     0.142 A 
HETATM    2  N2  UNL     1       4.119   0.803   1.820  1.00  0.00    -0.224 NA
HETATM    3  C8  UNL     1       3.910   0.916   3.166  1.00  0.00     0.236 A 
HETATM    4  N3  UNL     1       2.696   0.569   3.659  1.00  0.00    -0.241 NA
HETATM    5  C9  UNL     1       1.718   0.128   2.863  1.00  0.00     0.075 A 
HETATM    6  C10 UNL     1       0.489  -0.221   3.382  1.00  0.00     0.075 A 
HETATM    7  C11 UNL     1      -0.529  -0.682   2.550  1.00  0.00     0.126 A 
HETATM    8  F1  UNL     1      -1.717  -1.004   3.161  1.00  0.00    -0.205 F 
HETATM    9  C12 UNL     1      -0.345  -0.806   1.177  1.00  0.00     0.010 A 
HETATM   10  C20 UNL     1       0.884  -0.456   0.669  1.00  0.00     0.029 A 
HETATM   11  C21 UNL     1       1.884  -0.005   1.479  1.00  0.00     0.039 A 
ENDROOT
BRANCH   1  12
HETATM   12  N1  UNL     1       3.428   0.269  -0.358  1.00  0.00    -0.341 N 
HETATM   13  H6  UNL     1       2.857  -0.033  -1.173  1.00  0.00     0.167 HD
BRANCH  12  14
HETATM   14  C6  UNL     1       4.667   0.600  -0.962  1.00  0.00     0.029 A 
HETATM   15  C1  UNL     1       5.807  -0.080  -0.580  1.00  0.00    -0.061 A 
HETATM   16  C2  UNL     1       7.067   0.187  -1.130  1.00  0.00     0.030 A 
HETATM   17 CL1  UNL     1       8.510  -0.675  -0.643  1.00  0.00    -0.085 Cl
HETATM   18  C3  UNL     1       7.161   1.184  -2.105  1.00  0.00     0.023 A 
HETATM   19  C4  UNL     1       6.043   1.877  -2.506  1.00  0.00     0.004 A 
HETATM   20  C5  UNL     1       4.826   1.575  -1.932  1.00  0.00     0.029 A 
BRANCH  15  21
HETATM   21  B1  UNL     1       5.814  -1.206   0.495  1.00  0.00     0.179 B 
HETATM   22  H1  UNL     1       5.899  -2.323   0.112  1.00  0.00    -0.026 HD
HETATM   23  H2  UNL     1       6.265  -0.975   1.569  1.00  0.00    -0.026 HD
ENDBRANCH  15  21
ENDBRANCH  12  14
ENDBRANCH   1  12
BRANCH   9  24
HETATM   24  C13 UNL     1      -1.473  -1.306   0.363  1.00  0.00     0.314 C 
BRANCH  24  25
HETATM   25  N4  UNL     1      -2.457  -0.266   0.196  1.00  0.00     0.101 N 
HETATM   26  C14 UNL     1      -1.957   0.900  -0.470  1.00  0.00     0.311 C 
BRANCH  25  27
HETATM   27  C15 UNL     1      -3.666  -0.781  -0.420  1.00  0.00     0.310 C 
HETATM   28  C16 UNL     1      -4.281  -1.883   0.431  1.00  0.00     0.053 C 
BRANCH  27  29
HETATM   29  C17 UNL     1      -4.693   0.285  -0.549  1.00  0.00     0.252 C 
HETATM   30  O1  UNL     1      -4.661   1.515  -0.203  1.00  0.00    -0.271 OA
HETATM   31  N5  UNL     1      -5.991   0.188  -1.102  1.00  0.00    -0.359 N 
HETATM   32  C18 UNL     1      -6.636   1.501  -1.007  1.00  0.00     0.152 C 
HETATM   33  C19 UNL     1      -6.725  -0.915  -1.702  1.00  0.00     0.152 C 
ENDBRANCH  27  29
ENDBRANCH  25  27
ENDBRANCH  24  25
ENDBRANCH   9  24
TORSDOF 7
