REMARK  7 active torsions:
REMARK  status: ('A' for Active; 'I' for Inactive)
REMARK    1  A    between atoms: C2_3  and  C3_4 
REMARK    2  A    between atoms: C2_3  and  C10_13 
REMARK    3  A    between atoms: N2_5  and  C4_6 
REMARK    4  A    between atoms: C5_7  and  C6_8 
REMARK    5  A    between atoms: C7_9  and  C8_10 
REMARK    6  A    between atoms: C8_10  and  S1_11 
REMARK    7  A    between atoms: C13_17  and  N4_18 
ROOT
HETATM    1  C1  UNL     1       0.246  -2.661   2.130  1.00  0.00     0.178 C 
HETATM    2  N1  UNL     1       0.273  -1.389   1.481  1.00  0.00    -0.291 NA
HETATM    3  C2  UNL     1      -0.638  -0.759   0.903  1.00  0.00     0.097 C 
ENDROOT
BRANCH   3   4
HETATM    4  C3  UNL     1       0.118   0.416   0.506  1.00  0.00     0.149 C 
HETATM    5  N2  UNL     1       1.322   0.808   0.641  1.00  0.00    -0.271 NA
BRANCH   5   6
HETATM    6  C4  UNL     1       2.326   0.068   1.309  1.00  0.00     0.116 C 
HETATM    7  C5  UNL     1       3.570   0.479   0.999  1.00  0.00     0.019 C 
BRANCH   7   8
HETATM    8  C6  UNL     1       4.864  -0.005   1.457  1.00  0.00    -0.002 C 
HETATM    9  C7  UNL     1       6.086   0.348   1.196  1.00  0.00    -0.017 C 
BRANCH   9  10
HETATM   10  C8  UNL     1       6.547   1.418   0.297  1.00  0.00     0.100 C 
BRANCH  10  11
HETATM   11  S1  UNL     1       7.590   0.793  -1.034  1.00  0.00    -0.170 SA
HETATM   12  C9  UNL     1       6.708  -0.271  -2.186  1.00  0.00     0.090 C 
ENDBRANCH  10  11
ENDBRANCH   9  10
ENDBRANCH   7   8
ENDBRANCH   5   6
ENDBRANCH   3   4
BRANCH   3  13
HETATM   13  C10 UNL     1      -2.032  -0.874   0.567  1.00  0.00     0.107 A 
HETATM   14  C11 UNL     1      -2.736  -2.000   0.927  1.00  0.00     0.054 A 
HETATM   15  C12 UNL     1      -4.071  -2.069   0.589  1.00  0.00     0.139 A 
HETATM   16  N3  UNL     1      -4.618  -1.053  -0.065  1.00  0.00    -0.075 NA
HETATM   17  C13 UNL     1      -3.950   0.064  -0.431  1.00  0.00     0.729 A 
HETATM   18  N5  UNL     1      -2.638   0.121  -0.093  1.00  0.00    -0.060 NA
BRANCH  17  19
HETATM   19  N4  UNL     1      -4.527   1.165  -1.133  1.00  0.00    -0.180 N 
HETATM   20  C14 UNL     1      -4.094   2.462  -1.616  1.00  0.00     0.176 A 
HETATM   21  C15 UNL     1      -5.507   2.509  -2.073  1.00  0.00     0.019 A 
HETATM   22  C16 UNL     1      -5.857   1.318  -1.616  1.00  0.00     0.023 A 
HETATM   23  C17 UNL     1      -7.117   0.536  -1.634  1.00  0.00     0.068 C 
ENDBRANCH  17  19
ENDBRANCH   3  13
TORSDOF 7
