REMARK  6 active torsions:
REMARK  status: ('A' for Active; 'I' for Inactive)
REMARK    1  A    between atoms: C2_2  and  N1_3 
REMARK    2  A    between atoms: N1_3  and  C3_4 
REMARK    3  A    between atoms: N1_3  and  C5_6 
REMARK    4  A    between atoms: C5_6  and  C6_7 
REMARK    5  A    between atoms: C7_8  and  C8_9 
REMARK       I    between atoms: C8_9  and  N2_11 
REMARK    6  A    between atoms: N2_11  and  C9_12 
ROOT
HETATM    1  C8  UNL     1       0.925   0.268  -1.167  1.00  0.00     0.297 C 
HETATM    2  O1  UNL     1       1.186   0.670  -2.338  1.00  0.00    -0.258 OA
HETATM    3  N2  UNL     1       1.861  -0.495  -0.410  1.00  0.00    -0.336 N 
HETATM    4  H13 UNL     1       1.645  -0.826   0.553  1.00  0.00     0.164 HD
ENDROOT
BRANCH   3   5
HETATM    5  C9  UNL     1       3.123  -0.783  -1.053  1.00  0.00     0.170 A 
HETATM    6  P1  UNL     1       3.290  -2.611  -1.280  1.00  0.00     0.026 P 
HETATM    7  N3  UNL     1       4.839  -3.116  -0.566  1.00  0.00    -0.272 NA
HETATM    8  H15 UNL     1       2.157  -3.268  -0.706  1.00  0.00     0.084 HD
HETATM    9  C10 UNL     1       5.628  -2.281  -0.004  1.00  0.00     0.147 A 
HETATM   10  C11 UNL     1       5.434  -0.858   0.154  1.00  0.00     0.085 A 
HETATM   11  N4  UNL     1       6.375  -0.134   0.784  1.00  0.00    -0.240 NA
HETATM   12  C14 UNL     1       4.295  -0.288  -0.337  1.00  0.00     0.018 A 
HETATM   13  C12 UNL     1       6.253   1.202   0.973  1.00  0.00     0.233 A 
HETATM   14  N5  UNL     1       5.147   1.858   0.516  1.00  0.00    -0.253 NA
HETATM   15  C13 UNL     1       4.222   1.084  -0.116  1.00  0.00     0.130 A 
ENDBRANCH   3   5
BRANCH   1  16
HETATM   16  C7  UNL     1      -0.371   0.623  -0.638  1.00  0.00    -0.004 C 
HETATM   17  C6  UNL     1      -1.446   0.918  -0.181  1.00  0.00    -0.077 C 
BRANCH  17  18
HETATM   18  C5  UNL     1      -2.758   1.276   0.350  1.00  0.00     0.212 C 
BRANCH  18  19
HETATM   19  N1  UNL     1      -3.771   0.642  -0.401  1.00  0.00    -0.403 N 
BRANCH  19  20
HETATM   20  C2  UNL     1      -5.114   0.908  -0.021  1.00  0.00     0.113 C 
HETATM   21  C1  UNL     1      -5.260   2.337   0.461  1.00  0.00     0.026 C 
ENDBRANCH  19  20
BRANCH  19  22
HETATM   22  C3  UNL     1      -3.501  -0.665  -0.881  1.00  0.00     0.113 C 
HETATM   23  C4  UNL     1      -3.644  -1.673   0.262  1.00  0.00     0.026 C 
ENDBRANCH  19  22
ENDBRANCH  18  19
ENDBRANCH  17  18
ENDBRANCH   1  16
TORSDOF 6
