REMARK  6 active torsions:
REMARK  status: ('A' for Active; 'I' for Inactive)
REMARK    1  A    between atoms: C2_2  and  N1_3 
REMARK    2  A    between atoms: N1_3  and  C3_4 
REMARK    3  A    between atoms: N1_3  and  C5_6 
REMARK    4  A    between atoms: C5_6  and  C6_7 
REMARK    5  A    between atoms: C7_8  and  C8_9 
REMARK       I    between atoms: C8_9  and  N2_11 
REMARK    6  A    between atoms: N2_11  and  C9_12 
ROOT
HETATM    1  C8  UNL     1       1.080  -0.100  -0.095  1.00  0.00     0.302 C 
HETATM    2  O1  UNL     1       1.566  -0.106   1.051  1.00  0.00    -0.258 OA
HETATM    3  N2  UNL     1       2.004   0.109  -1.079  1.00  0.00    -0.299 N 
HETATM    4  H13 UNL     1       1.710   0.134  -2.072  1.00  0.00     0.171 HD
ENDROOT
BRANCH   3   5
HETATM    5  C9  UNL     1       3.360   0.323  -1.319  1.00  0.00     0.155 C 
HETATM    6  C10 UNL     1       3.885   0.298  -0.106  1.00  0.00     0.087 C 
HETATM    7  C11 UNL     1       4.900   1.498   0.060  1.00  0.00     0.124 C 
HETATM    8  N4  UNL     1       4.061  -0.430   1.150  1.00  0.00    -0.242 NA
HETATM    9  C12 UNL     1       5.865   0.468  -0.603  1.00  0.00     0.059 C 
HETATM   10  N3  UNL     1       6.488  -0.088   0.432  1.00  0.00    -0.245 NA
HETATM   11  C14 UNL     1       5.552   0.448  -2.066  1.00  0.00     0.146 C 
HETATM   12  C13 UNL     1       5.423  -0.607   1.439  1.00  0.00     0.233 C 
HETATM   13  N5  UNL     1       4.256   0.419  -2.467  1.00  0.00    -0.239 NA
ENDBRANCH   3   5
BRANCH   1  14
HETATM   14  C7  UNL     1      -0.291  -0.284  -0.464  1.00  0.00    -0.004 C 
HETATM   15  C6  UNL     1      -1.441  -0.454  -0.789  1.00  0.00    -0.077 C 
BRANCH  15  16
HETATM   16  C5  UNL     1      -2.836  -0.685  -1.194  1.00  0.00     0.212 C 
BRANCH  16  17
HETATM   17  N1  UNL     1      -3.698  -0.204  -0.201  1.00  0.00    -0.403 N 
BRANCH  17  18
HETATM   18  C2  UNL     1      -3.659  -0.894   1.007  1.00  0.00     0.113 C 
HETATM   19  C1  UNL     1      -3.412  -2.376   0.783  1.00  0.00     0.026 C 
ENDBRANCH  17  18
BRANCH  17  20
HETATM   20  C3  UNL     1      -3.903   1.189  -0.220  1.00  0.00     0.113 C 
HETATM   21  C4  UNL     1      -5.315   1.528   0.219  1.00  0.00     0.026 C 
ENDBRANCH  17  20
ENDBRANCH  16  17
ENDBRANCH  15  16
ENDBRANCH   1  14
TORSDOF 6
