REMARK  10 active torsions:
REMARK  status: ('A' for Active; 'I' for Inactive)
REMARK    1  A    between atoms: C2_2  and  N1_3 
REMARK    2  A    between atoms: N1_3  and  C4_5 
REMARK    3  A    between atoms: C4_5  and  C5_6 
REMARK    4  A    between atoms: C5_6  and  C6_7 
REMARK    5  A    between atoms: C6_7  and  N2_8 
REMARK    6  A    between atoms: C6_7  and  N3_15 
REMARK    7  A    between atoms: N2_8  and  C7_9 
REMARK    8  A    between atoms: C7_9  and  C8_10 
REMARK    9  A    between atoms: C9_11  and  C10_13 
REMARK   10  A    between atoms: N3_15  and  C11_16 
ROOT
HETATM    1  C6  UNL     1      -0.257   0.328  -0.521  1.00  0.00     0.322 C 
ENDROOT
BRANCH   1   2
HETATM    2  C5  UNL     1      -0.760  -0.342   0.713  1.00  0.00     0.087 C 
BRANCH   2   3
HETATM    3  C4  UNL     1      -2.246  -0.431   0.801  1.00  0.00     0.275 C 
BRANCH   3   4
HETATM    4  N1  UNL     1      -2.893  -1.147  -0.250  1.00  0.00     0.084 N 
HETATM    5  C3  UNL     1      -2.362  -2.492  -0.344  1.00  0.00     0.309 C 
BRANCH   4   6
HETATM    6  C2  UNL     1      -4.306  -1.121   0.010  1.00  0.00     0.267 C 
HETATM    7  C1  UNL     1      -5.149  -1.616  -1.116  1.00  0.00     0.037 C 
ENDBRANCH   4   6
ENDBRANCH   3   4
ENDBRANCH   2   3
ENDBRANCH   1   2
BRANCH   1   8
HETATM    8  N2  UNL     1      -0.686   1.681  -0.710  1.00  0.00     0.109 N 
HETATM    9  H14 UNL     1      -1.745   1.651  -0.763  1.00  0.00     0.318 HD
BRANCH   8  10
HETATM   10  C7  UNL     1      -0.331   2.584   0.336  1.00  0.00     0.301 C 
BRANCH  10  11
HETATM   11  C8  UNL     1      -0.791   3.981   0.062  1.00  0.00     0.025 C 
HETATM   12  C9  UNL     1       0.119   4.930  -0.013  1.00  0.00     0.038 C 
HETATM   13 CL1  UNL     1       1.827   4.600   0.198  1.00  0.00    -0.087 Cl
BRANCH  12  14
HETATM   14  C10 UNL     1      -0.077   6.377  -0.275  1.00  0.00     0.273 C 
HETATM   15  F1  UNL     1       0.601   6.777  -1.427  1.00  0.00    -0.250 F 
ENDBRANCH  12  14
ENDBRANCH  10  11
ENDBRANCH   8  10
ENDBRANCH   1   8
BRANCH   1  16
HETATM   16  N3  UNL     1       1.199   0.351  -0.461  1.00  0.00    -0.345 N 
HETATM   17  H20 UNL     1       1.782   1.216  -0.462  1.00  0.00     0.163 HD
BRANCH  16  18
HETATM   18  C11 UNL     1       2.236  -0.617  -0.391  1.00  0.00     0.125 A 
HETATM   19  C12 UNL     1       2.814  -1.174   0.732  1.00  0.00     0.065 A 
HETATM   20  C13 UNL     1       3.809  -2.100   0.534  1.00  0.00     0.015 A 
HETATM   21  C14 UNL     1       4.385  -2.654   1.666  1.00  0.00     0.132 A 
HETATM   22  C16 UNL     1       4.236  -2.480  -0.724  1.00  0.00     0.087 A 
HETATM   23  N4  UNL     1       5.369  -3.568   1.565  1.00  0.00    -0.253 NA
HETATM   24  C15 UNL     1       5.763  -3.917   0.309  1.00  0.00     0.233 A 
HETATM   25  N5  UNL     1       5.223  -3.398  -0.819  1.00  0.00    -0.240 NA
HETATM   26  C17 UNL     1       3.640  -1.907  -1.815  1.00  0.00     0.151 A 
HETATM   27  N6  UNL     1       2.673  -1.007  -1.605  1.00  0.00    -0.241 NA
ENDBRANCH  16  18
ENDBRANCH   1  16
TORSDOF 10
