REMARK  7 active torsions:
REMARK  status: ('A' for Active; 'I' for Inactive)
REMARK    1  A    between atoms: C2_2  and  C3_3 
REMARK    2  A    between atoms: C3_3  and  C4_4 
REMARK    3  A    between atoms: N1_6  and  C6_7 
REMARK    4  A    between atoms: C6_7  and  C7_8 
REMARK    5  A    between atoms: C7_8  and  C8_9 
REMARK       I    between atoms: C8_9  and  N2_11 
REMARK    6  A    between atoms: N2_11  and  C9_12 
REMARK    7  A    between atoms: C12_15  and  N3_16 
ROOT
HETATM    1  C9  UNL     1      -1.175  -0.131   2.093  1.00  0.00     0.130 A 
HETATM    2  C10 UNL     1      -2.313  -0.095   1.318  1.00  0.00     0.068 A 
HETATM    3  C11 UNL     1      -3.479   0.391   1.871  1.00  0.00     0.044 A 
HETATM    4  C12 UNL     1      -4.590   0.411   1.067  1.00  0.00     0.140 A 
HETATM    5  N4  UNL     1      -5.731   0.886   1.609  1.00  0.00    -0.224 NA
HETATM    6  C18 UNL     1      -5.755   1.322   2.901  1.00  0.00     0.236 A 
HETATM    7  N5  UNL     1      -4.654   1.297   3.683  1.00  0.00    -0.240 NA
HETATM    8  C19 UNL     1      -3.497   0.834   3.190  1.00  0.00     0.089 A 
HETATM    9  C20 UNL     1      -2.335   0.786   3.950  1.00  0.00     0.151 A 
HETATM   10  N6  UNL     1      -1.193   0.303   3.384  1.00  0.00    -0.241 NA
ENDROOT
BRANCH   1  11
HETATM   11  N2  UNL     1       0.126  -0.586   1.737  1.00  0.00    -0.312 N 
HETATM   12  C8  UNL     1       1.135   0.245   1.177  1.00  0.00     0.224 C 
HETATM   13  O1  UNL     1       0.784   1.455   1.012  1.00  0.00    -0.273 OA
HETATM   14  H15 UNL     1       0.114  -1.601   1.985  1.00  0.00     0.170 HD
BRANCH  12  15
HETATM   15  C7  UNL     1       2.378  -0.526   0.917  1.00  0.00     0.125 C 
BRANCH  15  16
HETATM   16  C6  UNL     1       3.462   0.349   0.319  1.00  0.00     0.158 C 
BRANCH  16  17
HETATM   17  N1  UNL     1       4.591  -0.508   0.121  1.00  0.00    -0.298 NA
HETATM   18  C3  UNL     1       5.678  -0.094  -0.411  1.00  0.00     0.006 C 
BRANCH  18  19
HETATM   19  C2  UNL     1       5.740   1.328  -0.827  1.00  0.00     0.050 C 
HETATM   20  C1  UNL     1       5.947   1.420  -2.315  1.00  0.00     0.011 C 
ENDBRANCH  18  19
BRANCH  18  21
HETATM   21  C4  UNL     1       6.718  -1.126  -0.529  1.00  0.00     0.050 C 
HETATM   22  C5  UNL     1       7.137  -1.451  -1.944  1.00  0.00     0.011 C 
ENDBRANCH  18  21
ENDBRANCH  16  17
ENDBRANCH  15  16
ENDBRANCH  12  15
ENDBRANCH   1  11
BRANCH   4  23
HETATM   23  N3  UNL     1      -4.549  -0.050  -0.288  1.00  0.00    -0.360 N 
HETATM   24  C13 UNL     1      -4.220  -1.348  -0.881  1.00  0.00     0.154 C 
HETATM   25  C14 UNL     1      -5.465  -1.845  -1.528  1.00  0.00     0.032 C 
HETATM   26  C15 UNL     1      -6.366  -0.946  -1.966  1.00  0.00     0.111 C 
HETATM   27  F1  UNL     1      -7.516  -1.398  -2.564  1.00  0.00    -0.209 F 
HETATM   28  C16 UNL     1      -6.266   0.556  -1.878  1.00  0.00     0.162 C 
HETATM   29 CL1  UNL     1      -6.483   1.179  -3.530  1.00  0.00    -0.116 Cl
HETATM   30  C17 UNL     1      -4.901   0.948  -1.309  1.00  0.00     0.152 C 
ENDBRANCH   4  23
TORSDOF 7
