REMARK  6 active torsions:
REMARK  status: ('A' for Active; 'I' for Inactive)
REMARK       I    between atoms: N1_2  and  C2_3 
REMARK    1  A    between atoms: C2_3  and  C3_5 
REMARK    2  A    between atoms: C3_5  and  N2_7 
REMARK    3  A    between atoms: N2_7  and  C6_9 
REMARK    4  A    between atoms: C10_13  and  N3_14 
REMARK    5  A    between atoms: N3_14  and  C11_15 
REMARK    6  A    between atoms: C19_27  and  O2_28 
ROOT
HETATM    1  C6  UNL     1       0.787   0.153  -0.130  1.00  0.00     0.021 A 
HETATM    2  C7  UNL     1      -0.430  -0.284   0.242  1.00  0.00    -0.023 A 
HETATM    3  C8  UNL     1      -0.723  -1.716   0.437  1.00  0.00     0.051 C 
HETATM    4  C9  UNL     1      -1.363   0.816   0.421  1.00  0.00     0.047 A 
HETATM    5  C10 UNL     1      -2.580   0.450   0.787  1.00  0.00     0.142 A 
HETATM    6  N4  UNL     1      -3.582   1.470   0.994  1.00  0.00    -0.225 NA
HETATM    7  C17 UNL     1      -3.308   2.717   0.828  1.00  0.00     0.210 A 
HETATM    8  N5  UNL     1      -2.034   3.213   0.435  1.00  0.00    -0.348 N 
HETATM    9  C18 UNL     1      -1.035   2.222   0.227  1.00  0.00     0.077 A 
HETATM   10  C19 UNL     1       0.171   2.553  -0.135  1.00  0.00     0.079 A 
HETATM   11  C21 UNL     1       1.249   1.541  -0.363  1.00  0.00     0.124 A 
HETATM   12  H20 UNL     1      -1.808   4.222   0.299  1.00  0.00     0.167 HD
ENDROOT
BRANCH   5  13
HETATM   13  N3  UNL     1      -3.117  -0.845   1.031  1.00  0.00    -0.338 N 
HETATM   14  H15 UNL     1      -2.948  -1.614   1.717  1.00  0.00     0.167 HD
BRANCH  13  15
HETATM   15  C11 UNL     1      -4.182  -1.211   0.119  1.00  0.00     0.074 A 
HETATM   16  C12 UNL     1      -4.578  -0.388  -0.914  1.00  0.00     0.033 A 
HETATM   17  C13 UNL     1      -5.585  -0.674  -1.812  1.00  0.00     0.004 A 
HETATM   18  C14 UNL     1      -6.249  -1.875  -1.667  1.00  0.00     0.027 A 
HETATM   19  C15 UNL     1      -5.918  -2.740  -0.675  1.00  0.00     0.074 A 
HETATM   20 CL1  UNL     1      -6.742  -4.269  -0.467  1.00  0.00    -0.081 Cl
HETATM   21  C16 UNL     1      -4.905  -2.399   0.190  1.00  0.00     0.164 A 
HETATM   22  F1  UNL     1      -4.578  -3.263   1.177  1.00  0.00    -0.202 F 
ENDBRANCH  13  15
ENDBRANCH   5  13
BRANCH   1  23
HETATM   23  N2  UNL     1       1.925  -0.667  -0.380  1.00  0.00    -0.374 N 
HETATM   24  C5  UNL     1       1.949  -1.414  -1.647  1.00  0.00     0.150 C 
BRANCH  23  25
HETATM   25  C3  UNL     1       3.102  -0.881   0.456  1.00  0.00     0.171 C 
HETATM   26  C4  UNL     1       3.309  -2.322   0.817  1.00  0.00     0.042 C 
BRANCH  25  27
HETATM   27  C2  UNL     1       4.346  -0.455  -0.275  1.00  0.00     0.239 C 
HETATM   28  N1  UNL     1       5.566  -0.612   0.426  1.00  0.00    -0.364 N 
HETATM   29  C1  UNL     1       6.830  -0.242  -0.161  1.00  0.00     0.149 C 
HETATM   30  H4  UNL     1       5.668  -1.000   1.408  1.00  0.00     0.161 HD
HETATM   31  O1  UNL     1       4.574   0.030  -1.411  1.00  0.00    -0.271 OA
ENDBRANCH  25  27
ENDBRANCH  23  25
ENDBRANCH   1  23
BRANCH  10  32
HETATM   32  O2  UNL     1       0.556   3.853  -0.337  1.00  0.00    -0.358 OA
HETATM   33  C20 UNL     1       0.996   4.761   0.633  1.00  0.00     0.209 C 
ENDBRANCH  10  32
TORSDOF 6
