REMARK  9 active torsions:
REMARK  status: ('A' for Active; 'I' for Inactive)
REMARK    1  A    between atoms: B1_1  and  C1_2 
REMARK    2  A    between atoms: C1_2  and  N1_3 
REMARK    3  A    between atoms: N1_3  and  C2_4 
REMARK    4  A    between atoms: N1_3  and  C4_6 
REMARK    5  A    between atoms: C4_6  and  C5_7 
REMARK    6  A    between atoms: C6_8  and  C7_9 
REMARK       I    between atoms: C7_9  and  N2_11 
REMARK    7  A    between atoms: N2_11  and  C8_12 
REMARK    8  A    between atoms: C11_15  and  N3_16 
REMARK    9  A    between atoms: N3_16  and  C12_17 
ROOT
HETATM    1  C8  UNL     1       0.527   0.620   0.687  1.00  0.00     0.130 C 
HETATM    2  C9  UNL     1       1.325  -0.145   1.501  1.00  0.00     0.054 C 
HETATM    3  C10 UNL     1       2.626   0.003   1.927  1.00  0.00     0.054 C 
HETATM    4  C11 UNL     1       3.719   0.474   1.234  1.00  0.00     0.129 C 
HETATM    5  N4  UNL     1       4.135   1.691   0.861  1.00  0.00    -0.225 NA
HETATM    6  C18 UNL     1       4.184   2.126  -0.404  1.00  0.00     0.234 C 
HETATM    7  N5  UNL     1       3.867   1.924  -1.704  1.00  0.00    -0.253 NA
HETATM    8  C19 UNL     1       2.765   1.161  -1.887  1.00  0.00     0.137 C 
HETATM    9  C20 UNL     1       1.651   1.538  -1.148  1.00  0.00     0.138 C 
HETATM   10  N6  UNL     1       0.582   1.489  -0.333  1.00  0.00    -0.242 NA
ENDROOT
BRANCH   1  11
HETATM   11  N2  UNL     1      -0.892   0.554   0.909  1.00  0.00    -0.301 N 
HETATM   12  C7  UNL     1      -1.364  -0.533   0.093  1.00  0.00     0.302 C 
HETATM   13  O1  UNL     1      -0.631  -1.251  -0.651  1.00  0.00    -0.258 OA
HETATM   14  H12 UNL     1      -1.639   1.034   1.457  1.00  0.00     0.171 HD
BRANCH  12  15
HETATM   15  C6  UNL     1      -2.776  -0.901   0.063  1.00  0.00    -0.004 C 
HETATM   16  C5  UNL     1      -3.935  -1.224   0.038  1.00  0.00    -0.077 C 
BRANCH  16  17
HETATM   17  C4  UNL     1      -5.346  -1.627   0.032  1.00  0.00     0.211 C 
BRANCH  17  18
HETATM   18  N1  UNL     1      -6.157  -0.473   0.070  1.00  0.00    -0.412 N 
BRANCH  18  19
HETATM   19  C1  UNL     1      -6.189   0.380  -1.049  1.00  0.00     0.053 C 
BRANCH  19  20
HETATM   20  B1  UNL     1      -7.492   0.078  -1.921  1.00  0.00     0.157 B 
HETATM   21  H1  UNL     1      -8.526  -0.205  -1.451  1.00  0.00    -0.030 HD
HETATM   22  H2  UNL     1      -7.476   0.202  -3.101  1.00  0.00    -0.030 HD
ENDBRANCH  19  20
ENDBRANCH  18  19
BRANCH  18  23
HETATM   23  C2  UNL     1      -7.216  -0.424   1.002  1.00  0.00     0.112 C 
HETATM   24  C3  UNL     1      -7.276   0.870   1.785  1.00  0.00     0.026 C 
ENDBRANCH  18  23
ENDBRANCH  17  18
ENDBRANCH  16  17
ENDBRANCH  12  15
ENDBRANCH   1  11
BRANCH   4  25
HETATM   25  N3  UNL     1       4.569  -0.604   0.820  1.00  0.00    -0.341 N 
HETATM   26  H15 UNL     1       4.391  -1.648   0.938  1.00  0.00     0.167 HD
BRANCH  25  27
HETATM   27  C12 UNL     1       5.847  -0.477   0.163  1.00  0.00     0.035 A 
HETATM   28  C13 UNL     1       6.643   0.612   0.521  1.00  0.00     0.032 A 
HETATM   29  C14 UNL     1       7.875   0.834  -0.066  1.00  0.00     0.046 A 
HETATM   30  C15 UNL     1       8.315  -0.055  -1.030  1.00  0.00     0.138 A 
HETATM   31  F1  UNL     1       9.529   0.119  -1.645  1.00  0.00    -0.204 F 
HETATM   32  C16 UNL     1       7.548  -1.133  -1.398  1.00  0.00     0.074 A 
HETATM   33 CL1  UNL     1       7.999  -2.307  -2.593  1.00  0.00    -0.081 Cl
HETATM   34  C17 UNL     1       6.323  -1.328  -0.795  1.00  0.00     0.056 A 
ENDBRANCH  25  27
ENDBRANCH   4  25
TORSDOF 9
