REMARK  4 active torsions:
REMARK  status: ('A' for Active; 'I' for Inactive)
REMARK    1  A    between atoms: C3_3  and  N1_4 
REMARK    2  A    between atoms: N1_4  and  O1_5 
REMARK    3  A    between atoms: N1_4  and  C4_6 
REMARK    4  A    between atoms: C9_13  and  N4_14 
ROOT
HETATM    1  C1  UNL     1       5.448   2.131   1.177  1.00  0.00     0.113 C 
HETATM    2  C2  UNL     1       4.456   1.102   0.789  1.00  0.00    -0.086 C 
HETATM    3  C3  UNL     1       3.671   0.272   0.495  1.00  0.00     0.040 C 
ENDROOT
BRANCH   3   4
HETATM    4  N1  UNL     1       2.760  -0.725   0.156  1.00  0.00    -0.181 N 
BRANCH   4   5
HETATM    5  O1  UNL     1       2.848  -1.955   0.690  1.00  0.00    -0.275 OA
HETATM    6  H4  UNL     1       2.805  -1.865   1.664  1.00  0.00     0.246 HD
ENDBRANCH   4   5
BRANCH   4   7
HETATM    7  C4  UNL     1       1.649  -0.784  -0.709  1.00  0.00     0.073 A 
HETATM    8  C5  UNL     1       2.013  -1.229  -1.981  1.00  0.00     0.035 A 
HETATM    9  C6  UNL     1       1.066  -1.389  -2.989  1.00  0.00     0.035 A 
HETATM   10  C7  UNL     1      -0.256  -1.113  -2.762  1.00  0.00     0.072 A 
HETATM   11  N2  UNL     1      -1.272  -1.235  -3.662  1.00  0.00    -0.241 NA
HETATM   12  C15 UNL     1      -0.639  -0.674  -1.516  1.00  0.00     0.041 A 
HETATM   13  C8  UNL     1      -2.525  -0.938  -3.305  1.00  0.00     0.236 A 
HETATM   14  N3  UNL     1      -2.872  -0.507  -2.069  1.00  0.00    -0.223 NA
HETATM   15  C9  UNL     1      -1.913  -0.358  -1.112  1.00  0.00     0.147 A 
HETATM   16  C16 UNL     1       0.293  -0.501  -0.478  1.00  0.00     0.050 A 
BRANCH  15  17
HETATM   17  N4  UNL     1      -2.338   0.097   0.160  1.00  0.00    -0.316 N 
HETATM   18  C10 UNL     1      -2.212   1.420   0.652  1.00  0.00     0.094 A 
HETATM   19  C11 UNL     1      -2.692   1.645   1.873  1.00  0.00    -0.004 A 
HETATM   20  C12 UNL     1      -3.345   0.677   2.782  1.00  0.00     0.076 A 
HETATM   21  C13 UNL     1      -3.409  -0.660   2.133  1.00  0.00     0.008 A 
HETATM   22 BR1  UNL     1      -4.262  -1.975   3.258  1.00  0.00    -0.054 Br
HETATM   23  C14 UNL     1      -2.953  -0.957   0.928  1.00  0.00     0.113 A 
ENDBRANCH  15  17
ENDBRANCH   4   7
ENDBRANCH   3   4
TORSDOF 4
