REMARK  7 active torsions:
REMARK  status: ('A' for Active; 'I' for Inactive)
REMARK    1  A    between atoms: C2_2  and  C3_3 
REMARK    2  A    between atoms: C3_3  and  C4_4 
REMARK    3  A    between atoms: C3_3  and  N4_18 
REMARK    4  A    between atoms: C4_4  and  C5_5 
REMARK    5  A    between atoms: C8_9  and  N1_10 
REMARK    6  A    between atoms: N1_10  and  C9_11 
REMARK       I    between atoms: N4_18  and  C14_19 
REMARK    7  A    between atoms: C14_19  and  C15_21 
ROOT
HETATM    1  C15 UNL     1       6.150  -0.247   0.117  1.00  0.00    -0.006 C 
HETATM    2  C16 UNL     1       7.209  -0.773  -0.121  1.00  0.00    -0.101 C 
HETATM    3  C17 UNL     1       8.493  -1.405  -0.430  1.00  0.00     0.112 C 
ENDROOT
BRANCH   1   4
HETATM    4  C14 UNL     1       4.861   0.363   0.408  1.00  0.00     0.301 C 
HETATM    5  N4  UNL     1       3.736  -0.091  -0.299  1.00  0.00    -0.313 N 
HETATM    6  H14 UNL     1       3.863  -0.860  -1.017  1.00  0.00     0.170 HD
HETATM    7  O1  UNL     1       4.770   1.275   1.273  1.00  0.00    -0.258 OA
BRANCH   5   8
HETATM    8  C3  UNL     1       2.459   0.419  -0.104  1.00  0.00     0.055 C 
BRANCH   8   9
HETATM    9  C2  UNL     1       2.375   1.377   0.808  1.00  0.00    -0.130 C 
HETATM   10  C1  UNL     1       2.306   2.510   1.468  1.00  0.00     0.098 C 
ENDBRANCH   8   9
BRANCH   8  11
HETATM   11  C4  UNL     1       1.226   0.040  -0.766  1.00  0.00     0.078 C 
BRANCH  11  12
HETATM   12  C5  UNL     1      -0.009   0.762  -0.314  1.00  0.00     0.040 A 
HETATM   13  C6  UNL     1      -0.260   0.536   1.133  1.00  0.00     0.003 A 
HETATM   14  C7  UNL     1      -1.449  -0.077   1.263  1.00  0.00     0.034 A 
HETATM   15 BR1  UNL     1      -2.523  -0.722   2.726  1.00  0.00    -0.049 Br
HETATM   16  C8  UNL     1      -2.027  -0.281  -0.067  1.00  0.00     0.047 A 
HETATM   17  C13 UNL     1      -1.207   0.197  -0.975  1.00  0.00     0.013 A 
BRANCH  16  18
HETATM   18  N1  UNL     1      -3.223  -0.855  -0.573  1.00  0.00    -0.344 N 
HETATM   19  H7  UNL     1      -3.213  -1.617  -1.315  1.00  0.00     0.167 HD
BRANCH  18  20
HETATM   20  C9  UNL     1      -4.473  -0.395  -0.072  1.00  0.00     0.107 A 
HETATM   21  N2  UNL     1      -4.535   0.710   0.591  1.00  0.00    -0.229 NA
HETATM   22  C10 UNL     1      -5.758   1.204   1.108  1.00  0.00     0.228 A 
HETATM   23  N3  UNL     1      -6.788   0.510   0.888  1.00  0.00    -0.282 NA
HETATM   24  C11 UNL     1      -6.935  -0.718   0.192  1.00  0.00     0.157 A 
HETATM   25  C12 UNL     1      -5.656  -1.233  -0.350  1.00  0.00     0.100 A 
ENDBRANCH  18  20
ENDBRANCH  16  18
ENDBRANCH  11  12
ENDBRANCH   8  11
ENDBRANCH   5   8
ENDBRANCH   1   4
TORSDOF 7
