REMARK  4 active torsions:
REMARK  status: ('A' for Active; 'I' for Inactive)
REMARK    1  A    between atoms: C3_3  and  S1_4 
REMARK    2  A    between atoms: S1_4  and  C4_5 
REMARK    3  A    between atoms: C4_5  and  C5_7 
REMARK    4  A    between atoms: C10_14  and  N3_15 
ROOT
HETATM    1  C1  UNL     1       5.013   1.799  -2.839  1.00  0.00     0.113 C 
HETATM    2  C2  UNL     1       4.154   0.801  -2.177  1.00  0.00    -0.099 C 
HETATM    3  C3  UNL     1       3.452  -0.035  -1.647  1.00  0.00    -0.026 C 
ENDROOT
BRANCH   3   4
HETATM    4  S1  UNL     1       2.444  -1.270  -0.894  1.00  0.00     0.005 SA
BRANCH   4   5
HETATM    5  C4  UNL     1       1.127  -0.428  -0.027  1.00  0.00     0.235 C 
HETATM    6  O1  UNL     1       1.036   0.825  -0.024  1.00  0.00    -0.279 OA
BRANCH   5   7
HETATM    7  C5  UNL     1       0.202  -1.333   0.654  1.00  0.00     0.068 C 
HETATM    8  C6  UNL     1       0.411  -2.638   0.576  1.00  0.00     0.021 C 
HETATM    9  C7  UNL     1      -0.240  -3.839   1.083  1.00  0.00     0.020 C 
HETATM   10  C8  UNL     1      -1.021  -4.046   2.150  1.00  0.00     0.118 C 
HETATM   11  N1  UNL     1      -1.509  -3.182   3.183  1.00  0.00    -0.254 NA
HETATM   12  C9  UNL     1      -1.745  -1.903   3.304  1.00  0.00     0.234 C 
HETATM   13  N2  UNL     1      -1.589  -0.822   2.373  1.00  0.00    -0.223 NA
HETATM   14  C10 UNL     1      -0.842  -0.565   1.329  1.00  0.00     0.150 C 
BRANCH  14  15
HETATM   15  N3  UNL     1      -1.139   0.713   0.778  1.00  0.00    -0.309 N 
HETATM   16  C11 UNL     1      -0.947   1.920   1.524  1.00  0.00     0.095 A 
HETATM   17  C12 UNL     1      -1.219   3.104   1.039  1.00  0.00    -0.004 A 
HETATM   18  C13 UNL     1      -1.752   3.261  -0.339  1.00  0.00     0.077 A 
HETATM   19  C14 UNL     1      -1.920   1.962  -1.040  1.00  0.00     0.015 A 
HETATM   20 BR1  UNL     1      -2.608   2.198  -2.811  1.00  0.00    -0.053 Br
HETATM   21  C15 UNL     1      -1.653   0.754  -0.571  1.00  0.00     0.027 A 
HETATM   22  C16 UNL     1      -1.878  -0.457  -1.403  1.00  0.00     0.070 C 
ENDBRANCH  14  15
ENDBRANCH   5   7
ENDBRANCH   4   5
ENDBRANCH   3   4
TORSDOF 4
