REMARK  3 active torsions:
REMARK  status: ('A' for Active; 'I' for Inactive)
REMARK    1  A    between atoms: C3_3  and  N1_4 
REMARK       I    between atoms: N1_4  and  C4_5 
REMARK    2  A    between atoms: C4_5  and  C5_7 
REMARK    3  A    between atoms: N4_17  and  C13_18 
ROOT
HETATM    1  C5  UNL     1       3.878   0.983   1.421  1.00  0.00    -0.006 C 
HETATM    2  C6  UNL     1       5.060   1.212   1.550  1.00  0.00    -0.101 C 
HETATM    3  C7  UNL     1       6.489   1.493   1.690  1.00  0.00     0.112 C 
ENDROOT
BRANCH   1   4
HETATM    4  C4  UNL     1       2.468   0.685   1.260  1.00  0.00     0.300 C 
HETATM    5  N1  UNL     1       2.164  -0.371   0.349  1.00  0.00    -0.318 N 
HETATM    6  H5  UNL     1       2.919  -0.905  -0.176  1.00  0.00     0.169 HD
HETATM    7  O1  UNL     1       1.573   1.318   1.881  1.00  0.00    -0.258 OA
BRANCH   5   8
HETATM    8  C3  UNL     1       0.871  -0.856   0.014  1.00  0.00     0.032 C 
HETATM    9  C2  UNL     1      -0.161  -0.006  -0.627  1.00  0.00     0.131 C 
HETATM   10  C1  UNL     1      -0.276  -0.463  -2.076  1.00  0.00     0.039 C 
HETATM   11  N4  UNL     1      -1.425   0.066   0.013  1.00  0.00    -0.354 N 
HETATM   12  C12 UNL     1      -2.497  -0.786   0.482  1.00  0.00     0.207 C 
HETATM   13  N3  UNL     1      -2.442  -1.429  -0.620  1.00  0.00    -0.238 NA
HETATM   14  C11 UNL     1      -3.295  -2.523  -0.889  1.00  0.00     0.227 C 
HETATM   15  N2  UNL     1      -2.752  -3.697  -0.621  1.00  0.00    -0.282 NA
HETATM   16  C10 UNL     1      -1.386  -3.635  -0.101  1.00  0.00     0.098 C 
HETATM   17  C9  UNL     1      -0.101  -3.442   0.351  1.00  0.00     0.100 C 
HETATM   18  C8  UNL     1       0.663  -2.156   0.294  1.00  0.00     0.008 C 
BRANCH  11  19
HETATM   19  C13 UNL     1      -1.978   1.339   0.362  1.00  0.00     0.133 A 
HETATM   20  C14 UNL     1      -1.100   2.483  -0.055  1.00  0.00     0.004 A 
HETATM   21  C15 UNL     1      -1.768   3.297  -0.869  1.00  0.00     0.017 A 
HETATM   22  C16 UNL     1      -3.118   2.774  -1.058  1.00  0.00     0.009 A 
HETATM   23 BR1  UNL     1      -4.649   3.327  -2.041  1.00  0.00    -0.051 Br
HETATM   24  C17 UNL     1      -3.229   1.655  -0.350  1.00  0.00     0.021 A 
ENDBRANCH  11  19
ENDBRANCH   5   8
ENDBRANCH   1   4
TORSDOF 3
