REMARK  4 active torsions:
REMARK  status: ('A' for Active; 'I' for Inactive)
REMARK    1  A    between atoms: C2_2  and  C3_3 
REMARK    2  A    between atoms: C3_3  and  C4_4 
REMARK       I    between atoms: C4_4  and  N1_6 
REMARK    3  A    between atoms: N1_6  and  C5_7 
REMARK    4  A    between atoms: N4_16  and  C12_17 
ROOT
HETATM    1  C5  UNL     1       1.414  -0.225  -0.210  1.00  0.00     0.132 C 
HETATM    2  C6  UNL     1       0.634  -0.880   0.905  1.00  0.00     0.001 C 
HETATM    3  C7  UNL     1      -0.707  -0.936   0.763  1.00  0.00     0.005 C 
HETATM    4  C8  UNL     1      -1.154  -0.305  -0.534  1.00  0.00     0.182 A 
HETATM    5  C9  UNL     1      -0.347  -0.982  -1.580  1.00  0.00     0.062 A 
HETATM    6  C10 UNL     1       0.969  -0.961  -1.447  1.00  0.00     0.032 C 
HETATM    7  N2  UNL     1      -0.924  -1.646  -2.700  1.00  0.00    -0.245 NA
HETATM    8  C11 UNL     1      -2.225  -1.702  -2.853  1.00  0.00     0.223 A 
HETATM    9  N3  UNL     1      -3.050  -1.085  -1.874  1.00  0.00    -0.291 N 
HETATM   10  N4  UNL     1      -2.570  -0.413  -0.748  1.00  0.00    -0.277 N 
HETATM   11  H13 UNL     1      -4.065  -1.184  -2.083  1.00  0.00     0.188 HD
ENDROOT
BRANCH   1  12
HETATM   12  N1  UNL     1       2.815  -0.489  -0.075  1.00  0.00    -0.350 N 
HETATM   13  C4  UNL     1       3.813   0.530   0.044  1.00  0.00     0.221 C 
HETATM   14  O1  UNL     1       3.285   1.666   0.011  1.00  0.00    -0.273 OA
HETATM   15  H6  UNL     1       3.002  -1.536  -0.075  1.00  0.00     0.163 HD
BRANCH  13  16
HETATM   16  C3  UNL     1       5.183  -0.041   0.170  1.00  0.00     0.129 C 
BRANCH  16  17
HETATM   17  C2  UNL     1       6.216   1.026   0.292  1.00  0.00    -0.028 C 
HETATM   18  C1  UNL     1       7.137   1.373   1.209  1.00  0.00     0.007 C 
ENDBRANCH  16  17
ENDBRANCH  13  16
ENDBRANCH   1  12
BRANCH  10  19
HETATM   19  C12 UNL     1      -3.451   0.172   0.202  1.00  0.00     0.053 A 
HETATM   20  C13 UNL     1      -3.006   0.900   1.289  1.00  0.00     0.031 A 
HETATM   21  C14 UNL     1      -3.821   1.482   2.234  1.00  0.00     0.004 A 
HETATM   22  C15 UNL     1      -5.178   1.345   2.115  1.00  0.00     0.019 A 
HETATM   23  C16 UNL     1      -5.676   0.638   1.066  1.00  0.00     0.013 A 
HETATM   24 BR1  UNL     1      -7.569   0.450   0.904  1.00  0.00    -0.051 Br
HETATM   25  C17 UNL     1      -4.824   0.071   0.140  1.00  0.00     0.050 A 
ENDBRANCH  10  19
TORSDOF 4
