REMARK  5 active torsions:
REMARK  status: ('A' for Active; 'I' for Inactive)
REMARK    1  A    between atoms: O1_2  and  C2_3 
REMARK    2  A    between atoms: C6_9  and  C7_10 
REMARK    3  A    between atoms: C7_10  and  N3_11 
REMARK    4  A    between atoms: N3_11  and  C8_12 
REMARK    5  A    between atoms: C19_26  and  C20_27 
REMARK       I    between atoms: C20_27  and  N5_29 
ROOT
HETATM    1  C2  UNL     1      -1.593   3.200  -0.837  1.00  0.00     0.077 C 
HETATM    2  C3  UNL     1      -0.350   3.678  -1.142  1.00  0.00     0.056 C 
HETATM    3  C4  UNL     1       0.749   3.298  -0.407  1.00  0.00     0.120 C 
HETATM    4  N1  UNL     1       1.232   3.828   0.730  1.00  0.00    -0.254 NA
HETATM    5  C5  UNL     1       1.278   3.125   1.890  1.00  0.00     0.232 C 
HETATM    6  N2  UNL     1       0.859   2.026   2.599  1.00  0.00    -0.244 NA
HETATM    7  C6  UNL     1       0.915   0.821   1.931  1.00  0.00     0.059 C 
HETATM    8  C14 UNL     1      -0.181   0.864   1.161  1.00  0.00    -0.029 C 
HETATM    9  C15 UNL     1      -1.048   1.873   0.796  1.00  0.00     0.021 C 
HETATM   10  C16 UNL     1      -1.766   1.914  -0.418  1.00  0.00    -0.007 C 
HETATM   11  C17 UNL     1      -2.475   0.668  -0.913  1.00  0.00     0.159 C 
HETATM   12  N4  UNL     1      -2.743  -0.139   0.220  1.00  0.00    -0.400 N 
HETATM   13  C18 UNL     1      -4.032  -0.730   0.125  1.00  0.00     0.144 C 
HETATM   14  C19 UNL     1      -1.776  -0.993   0.745  1.00  0.00     0.176 C 
HETATM   15  C23 UNL     1      -0.333  -0.542   0.712  1.00  0.00     0.075 C 
ENDROOT
BRANCH   7  16
HETATM   16  C7  UNL     1       2.060   0.002   2.245  1.00  0.00     0.179 C 
BRANCH  16  17
HETATM   17  N3  UNL     1       3.188   0.062   1.357  1.00  0.00    -0.382 N 
HETATM   18  H9  UNL     1       3.929   0.684   1.821  1.00  0.00     0.160 HD
BRANCH  17  19
HETATM   19  C8  UNL     1       3.770  -0.326   0.123  1.00  0.00     0.069 A 
HETATM   20  C9  UNL     1       2.994  -1.184  -0.629  1.00  0.00     0.032 A 
HETATM   21  C10 UNL     1       3.392  -1.700  -1.847  1.00  0.00     0.004 A 
HETATM   22  C11 UNL     1       4.631  -1.331  -2.322  1.00  0.00     0.027 A 
HETATM   23  C12 UNL     1       5.411  -0.478  -1.579  1.00  0.00     0.074 A 
HETATM   24 CL1  UNL     1       7.008   0.082  -2.048  1.00  0.00    -0.081 Cl
HETATM   25  C13 UNL     1       5.028   0.041  -0.372  1.00  0.00     0.164 A 
HETATM   26  F1  UNL     1       5.756   0.889   0.407  1.00  0.00    -0.202 F 
ENDBRANCH  17  19
ENDBRANCH  16  17
ENDBRANCH   7  16
BRANCH  14  27
HETATM   27  C20 UNL     1      -1.801  -2.357   0.109  1.00  0.00     0.242 C 
HETATM   28  O2  UNL     1      -2.691  -2.504  -0.781  1.00  0.00    -0.271 OA
HETATM   29  N5  UNL     1      -1.141  -3.604   0.162  1.00  0.00    -0.359 N 
HETATM   30  C21 UNL     1      -1.798  -4.427  -0.819  1.00  0.00     0.152 C 
HETATM   31  C22 UNL     1      -0.026  -4.088   0.979  1.00  0.00     0.152 C 
ENDBRANCH  14  27
BRANCH   1  32
HETATM   32  O1  UNL     1      -2.954   3.226  -0.673  1.00  0.00    -0.355 OA
HETATM   33  C1  UNL     1      -3.671   4.397  -0.945  1.00  0.00     0.210 C 
ENDBRANCH   1  32
TORSDOF 5
