REMARK  8 active torsions:
REMARK  status: ('A' for Active; 'I' for Inactive)
REMARK    1  A    between atoms: C2_2  and  C3_3 
REMARK    2  A    between atoms: C3_3  and  C4_4 
REMARK    3  A    between atoms: C4_4  and  C5_5 
REMARK    4  A    between atoms: C5_5  and  C6_6 
REMARK    5  A    between atoms: C6_6  and  N1_7 
REMARK    6  A    between atoms: N1_7  and  C7_8 
REMARK    7  A    between atoms: C12_15  and  N4_16 
REMARK       I    between atoms: N4_16  and  C13_17 
REMARK    8  A    between atoms: C13_17  and  C14_19 
ROOT
HETATM    1  C14 UNL     1      -4.493   2.020   0.620  1.00  0.00    -0.006 C 
HETATM    2  C15 UNL     1      -5.382   2.811   0.815  1.00  0.00    -0.101 C 
HETATM    3  C16 UNL     1      -6.458   3.779   1.048  1.00  0.00     0.112 C 
ENDROOT
BRANCH   1   4
HETATM    4  C13 UNL     1      -3.453   1.062   0.388  1.00  0.00     0.300 C 
HETATM    5  N4  UNL     1      -3.652  -0.257  -0.069  1.00  0.00    -0.316 N 
HETATM    6  H12 UNL     1      -4.670  -0.436  -0.215  1.00  0.00     0.170 HD
HETATM    7  O1  UNL     1      -2.286   1.464   0.621  1.00  0.00    -0.258 OA
BRANCH   5   8
HETATM    8  C12 UNL     1      -2.693  -1.267  -0.325  1.00  0.00     0.036 A 
HETATM    9  C11 UNL     1      -3.177  -2.478  -0.770  1.00  0.00     0.032 A 
HETATM   10  C10 UNL     1      -2.339  -3.533  -1.052  1.00  0.00     0.035 A 
HETATM   11  C9  UNL     1      -0.974  -3.428  -0.902  1.00  0.00     0.072 A 
HETATM   12  N3  UNL     1      -0.199  -4.489  -1.190  1.00  0.00    -0.241 NA
HETATM   13  C18 UNL     1      -0.471  -2.225  -0.458  1.00  0.00     0.041 A 
HETATM   14  C8  UNL     1       1.134  -4.309  -1.018  1.00  0.00     0.235 A 
HETATM   15  N2  UNL     1       1.622  -3.150  -0.590  1.00  0.00    -0.224 NA
HETATM   16  C7  UNL     1       0.886  -2.089  -0.298  1.00  0.00     0.137 A 
HETATM   17  C17 UNL     1      -1.338  -1.191  -0.186  1.00  0.00     0.047 A 
BRANCH  16  18
HETATM   18  N1  UNL     1       1.503  -0.891   0.154  1.00  0.00    -0.371 N 
HETATM   19  H8  UNL     1       1.041   0.004   0.413  1.00  0.00     0.161 HD
BRANCH  18  20
HETATM   20  C6  UNL     1       2.927  -0.844   0.289  1.00  0.00     0.148 C 
BRANCH  20  21
HETATM   21  C5  UNL     1       3.457   0.450   0.766  1.00  0.00    -0.007 C 
BRANCH  21  22
HETATM   22  C4  UNL     1       4.309   1.274   0.165  1.00  0.00     0.005 C 
BRANCH  22  23
HETATM   23  C3  UNL     1       4.738   2.501   0.748  1.00  0.00     0.050 C 
BRANCH  23  24
HETATM   24  C2  UNL     1       5.866   3.053   0.382  1.00  0.00    -0.155 C 
HETATM   25  C1  UNL     1       7.026   3.416  -0.142  1.00  0.00     0.096 C 
ENDBRANCH  23  24
ENDBRANCH  22  23
ENDBRANCH  21  22
ENDBRANCH  20  21
ENDBRANCH  18  20
ENDBRANCH  16  18
ENDBRANCH   5   8
ENDBRANCH   1   4
TORSDOF 8
