REMARK  5 active torsions:
REMARK  status: ('A' for Active; 'I' for Inactive)
REMARK    1  A    between atoms: C3_3  and  C4_4 
REMARK       I    between atoms: C4_4  and  N1_6 
REMARK    2  A    between atoms: N1_6  and  C5_7 
REMARK    3  A    between atoms: C10_14  and  C11_15 
REMARK    4  A    between atoms: C11_15  and  C12_16 
REMARK    5  A    between atoms: C13_17  and  S1_19 
ROOT
HETATM    1  C1  UNL     1       6.695  -2.913   0.683  1.00  0.00     0.112 C 
HETATM    2  C2  UNL     1       5.571  -2.007   0.441  1.00  0.00    -0.101 C 
HETATM    3  C3  UNL     1       4.645  -1.260   0.220  1.00  0.00    -0.006 C 
ENDROOT
BRANCH   3   4
HETATM    4  C4  UNL     1       3.552  -0.354  -0.042  1.00  0.00     0.300 C 
HETATM    5  O1  UNL     1       3.445   0.128  -1.196  1.00  0.00    -0.258 OA
HETATM    6  N1  UNL     1       2.594   0.009   0.963  1.00  0.00    -0.316 N 
HETATM    7  H4  UNL     1       2.776  -0.453   1.893  1.00  0.00     0.170 HD
BRANCH   6   8
HETATM    8  C5  UNL     1       1.641   0.908   0.427  1.00  0.00     0.036 A 
HETATM    9  C6  UNL     1       1.991   2.240   0.549  1.00  0.00     0.032 A 
HETATM   10  C7  UNL     1       1.140   3.215   0.061  1.00  0.00     0.035 A 
HETATM   11  C8  UNL     1      -0.040   2.824  -0.537  1.00  0.00     0.070 A 
HETATM   12  N2  UNL     1      -0.883   3.757  -1.022  1.00  0.00    -0.241 NA
HETATM   13  C15 UNL     1      -0.337   1.481  -0.631  1.00  0.00     0.020 A 
HETATM   14  C9  UNL     1      -2.056   3.401  -1.620  1.00  0.00     0.234 A 
HETATM   15  N3  UNL     1      -2.345   2.105  -1.711  1.00  0.00    -0.245 NA
HETATM   16  C10 UNL     1      -1.523   1.132  -1.236  1.00  0.00     0.052 A 
HETATM   17  C16 UNL     1       0.474   0.471  -0.162  1.00  0.00     0.045 A 
BRANCH  16  18
HETATM   18  C11 UNL     1      -2.006  -0.260  -1.418  1.00  0.00     0.089 C 
BRANCH  18  19
HETATM   19  C12 UNL     1      -2.539  -0.777  -0.136  1.00  0.00     0.005 C 
HETATM   20  C13 UNL     1      -3.815  -1.133  -0.119  1.00  0.00     0.043 C 
HETATM   21 BR1  UNL     1      -4.904  -0.984  -1.676  1.00  0.00    -0.044 Br
BRANCH  20  22
HETATM   22  S1  UNL     1      -4.622  -1.774   1.348  1.00  0.00    -0.127 SA
HETATM   23  C14 UNL     1      -6.361  -2.136   1.031  1.00  0.00     0.096 C 
ENDBRANCH  20  22
ENDBRANCH  18  19
ENDBRANCH  16  18
ENDBRANCH   6   8
ENDBRANCH   3   4
TORSDOF 5
