REMARK  8 active torsions:
REMARK  status: ('A' for Active; 'I' for Inactive)
REMARK    1  A    between atoms: C1_2  and  C2_3 
REMARK       I    between atoms: C1_2  and  N2_11 
REMARK    2  A    between atoms: C3_4  and  C4_5 
REMARK    3  A    between atoms: C4_5  and  N1_6 
REMARK    4  A    between atoms: N1_6  and  C5_8 
REMARK    5  A    between atoms: C5_8  and  C6_9 
REMARK    6  A    between atoms: C6_9  and  O2_10 
REMARK    7  A    between atoms: C9_14  and  N3_15 
REMARK    8  A    between atoms: N3_15  and  C10_16 
ROOT
HETATM    1  O1  UNL     1      -0.493   0.942   1.945  1.00  0.00    -0.258 OA
HETATM    2  C1  UNL     1      -0.890   0.288   0.950  1.00  0.00     0.302 C 
HETATM    3  N2  UNL     1      -0.042  -0.565   0.149  1.00  0.00    -0.313 N 
HETATM    4  C7  UNL     1       1.329  -0.683   0.479  1.00  0.00     0.113 A 
HETATM    5  C8  UNL     1       1.995  -1.503  -0.317  1.00  0.00     0.054 A 
HETATM    6  C9  UNL     1       3.327  -1.639  -0.020  1.00  0.00     0.143 A 
HETATM    7  N4  UNL     1       4.113  -2.449  -0.763  1.00  0.00    -0.223 NA
HETATM    8  C16 UNL     1       3.644  -3.145  -1.803  1.00  0.00     0.236 A 
HETATM    9  N5  UNL     1       2.327  -3.024  -2.113  1.00  0.00    -0.241 NA
HETATM   10  C17 UNL     1       1.529  -2.223  -1.386  1.00  0.00     0.071 A 
HETATM   11  C18 UNL     1       0.257  -2.099  -1.682  1.00  0.00     0.026 A 
HETATM   12  C19 UNL     1      -0.695  -1.256  -0.960  1.00  0.00     0.162 A 
ENDROOT
BRANCH   2  13
HETATM   13  C2  UNL     1      -2.303   0.428   0.618  1.00  0.00    -0.004 C 
HETATM   14  C3  UNL     1      -3.469   0.537   0.323  1.00  0.00    -0.081 C 
BRANCH  14  15
HETATM   15  C4  UNL     1      -4.903   0.657  -0.057  1.00  0.00     0.202 C 
BRANCH  15  16
HETATM   16  N1  UNL     1      -5.482   1.601   0.833  1.00  0.00    -0.215 NA
HETATM   17 CL1  UNL     1      -5.232   1.197   2.505  1.00  0.00    -0.021 Cl
BRANCH  16  18
HETATM   18  C5  UNL     1      -6.835   1.894   0.533  1.00  0.00     0.135 C 
BRANCH  18  19
HETATM   19  C6  UNL     1      -7.839   0.821   0.746  1.00  0.00     0.179 C 
BRANCH  19  20
HETATM   20  O2  UNL     1      -7.666  -0.333   0.034  1.00  0.00    -0.400 OA
HETATM   21  H7  UNL     1      -8.491  -0.720  -0.299  1.00  0.00     0.209 HD
ENDBRANCH  19  20
ENDBRANCH  18  19
ENDBRANCH  16  18
ENDBRANCH  15  16
ENDBRANCH  14  15
ENDBRANCH   2  13
BRANCH   6  22
HETATM   22  N3  UNL     1       4.109  -1.041   0.991  1.00  0.00    -0.340 N 
HETATM   23  H9  UNL     1       4.006  -1.559   1.867  1.00  0.00     0.167 HD
BRANCH  22  24
HETATM   24  C10 UNL     1       4.942   0.116   0.882  1.00  0.00     0.033 A 
HETATM   25  C11 UNL     1       4.989   0.898  -0.243  1.00  0.00     0.032 A 
HETATM   26  C12 UNL     1       5.859   1.975  -0.216  1.00  0.00     0.044 A 
HETATM   27  C13 UNL     1       6.664   2.297   0.855  1.00  0.00     0.116 A 
HETATM   28  F1  UNL     1       7.513   3.349   0.879  1.00  0.00    -0.206 F 
HETATM   29  C14 UNL     1       6.602   1.491   1.986  1.00  0.00     0.044 A 
HETATM   30  C15 UNL     1       5.738   0.419   1.966  1.00  0.00     0.032 A 
ENDBRANCH  22  24
ENDBRANCH   6  22
TORSDOF 8
