REMARK  7 active torsions:
REMARK  status: ('A' for Active; 'I' for Inactive)
REMARK    1  A    between atoms: N1_1  and  C1_2 
REMARK    2  A    between atoms: C1_2  and  C2_3 
REMARK    3  A    between atoms: C1_2  and  C9_12 
REMARK    4  A    between atoms: C3_4  and  C4_5 
REMARK    5  A    between atoms: C4_5  and  N2_6 
REMARK    6  A    between atoms: C14_19  and  N5_20 
REMARK    7  A    between atoms: N5_20  and  C15_21 
ROOT
HETATM    1  C9  UNL     1       0.043   1.391  -1.010  1.00  0.00    -0.013 A 
HETATM    2  C10 UNL     1      -0.323   2.534  -0.308  1.00  0.00     0.012 A 
HETATM    3  C11 UNL     1       0.559   3.072   0.602  1.00  0.00     0.033 A 
HETATM    4  C12 UNL     1       1.776   2.475   0.801  1.00  0.00     0.072 A 
HETATM    5  N3  UNL     1       2.612   3.050   1.722  1.00  0.00    -0.241 NA
HETATM    6  C13 UNL     1       3.822   2.492   1.956  1.00  0.00     0.236 A 
HETATM    7  N4  UNL     1       4.192   1.396   1.294  1.00  0.00    -0.224 NA
HETATM    8  C14 UNL     1       3.447   0.764   0.375  1.00  0.00     0.142 A 
HETATM    9  C21 UNL     1       2.217   1.329   0.137  1.00  0.00     0.039 A 
HETATM   10  C22 UNL     1       1.284   0.854  -0.752  1.00  0.00     0.028 A 
ENDROOT
BRANCH   1  11
HETATM   11  C1  UNL     1      -0.903   0.811  -1.978  1.00  0.00     0.329 C 
BRANCH  11  12
HETATM   12  N1  UNL     1      -1.563   1.830  -2.805  1.00  0.00     0.098 N 
HETATM   13  H1  UNL     1      -0.820   2.561  -2.937  1.00  0.00     0.314 HD
HETATM   14  H2  UNL     1      -2.405   2.200  -2.328  1.00  0.00     0.314 HD
ENDBRANCH  11  12
BRANCH  11  15
HETATM   15  C2  UNL     1      -1.925   0.009  -1.310  1.00  0.00    -0.064 C 
HETATM   16  C3  UNL     1      -2.781  -0.666  -0.772  1.00  0.00    -0.074 C 
BRANCH  16  17
HETATM   17  C4  UNL     1      -3.822  -1.479  -0.148  1.00  0.00     0.366 C 
BRANCH  17  18
HETATM   18  N2  UNL     1      -4.310  -0.804   1.004  1.00  0.00     0.103 N 
HETATM   19  C5  UNL     1      -5.378  -1.623   1.562  1.00  0.00     0.299 C 
HETATM   20  C6  UNL     1      -6.654  -1.435   0.759  1.00  0.00     0.198 C 
HETATM   21  O1  UNL     1      -6.993  -0.098   0.735  1.00  0.00    -0.388 OA
HETATM   22  C7  UNL     1      -6.052   0.723   0.157  1.00  0.00     0.198 C 
HETATM   23  C8  UNL     1      -4.709   0.550   0.831  1.00  0.00     0.299 C 
ENDBRANCH  17  18
ENDBRANCH  16  17
ENDBRANCH  11  15
ENDBRANCH   1  11
BRANCH   8  24
HETATM   24  N5  UNL     1       3.817  -0.398  -0.335  1.00  0.00    -0.340 N 
HETATM   25  H17 UNL     1       3.213  -0.803  -1.075  1.00  0.00     0.167 HD
BRANCH  24  26
HETATM   26  C15 UNL     1       4.997  -1.168  -0.186  1.00  0.00     0.035 A 
HETATM   27  C16 UNL     1       5.838  -1.001   0.880  1.00  0.00     0.032 A 
HETATM   28  C17 UNL     1       7.016  -1.718   1.085  1.00  0.00     0.046 A 
HETATM   29  C18 UNL     1       7.380  -2.671   0.156  1.00  0.00     0.138 A 
HETATM   30  F1  UNL     1       8.513  -3.403   0.292  1.00  0.00    -0.204 F 
HETATM   31  C19 UNL     1       6.551  -2.861  -0.929  1.00  0.00     0.074 A 
HETATM   32 CL1  UNL     1       6.977  -4.067  -2.137  1.00  0.00    -0.081 Cl
HETATM   33  C20 UNL     1       5.396  -2.130  -1.092  1.00  0.00     0.056 A 
ENDBRANCH  24  26
ENDBRANCH   8  24
TORSDOF 7
