REMARK  10 active torsions:
REMARK  status: ('A' for Active; 'I' for Inactive)
REMARK    1  A    between atoms: C2_2  and  N1_3 
REMARK    2  A    between atoms: N1_3  and  C3_4 
REMARK    3  A    between atoms: N1_3  and  C5_6 
REMARK    4  A    between atoms: C5_6  and  C6_7 
REMARK    5  A    between atoms: C6_7  and  C7_8 
REMARK    6  A    between atoms: C9_10  and  O1_11 
REMARK    7  A    between atoms: C11_13  and  C12_14 
REMARK    8  A    between atoms: C16_20  and  N4_21 
REMARK    9  A    between atoms: N4_21  and  C17_22 
REMARK   10  A    between atoms: C21_27  and  P1_28 
ROOT
HETATM    1  C12 UNL     1       0.453   0.661  -0.852  1.00  0.00     0.027 C 
HETATM    2  C13 UNL     1       1.536   1.320  -0.514  1.00  0.00     0.009 A 
HETATM    3  C14 UNL     1       1.746   2.773  -0.743  1.00  0.00     0.192 A 
HETATM    4  N2  UNL     1       3.018   3.168  -0.223  1.00  0.00    -0.278 NA
HETATM    5  C15 UNL     1       3.906   2.489   0.353  1.00  0.00     0.229 A 
HETATM    6  N3  UNL     1       3.683   1.110   0.554  1.00  0.00    -0.224 NA
HETATM    7  C16 UNL     1       2.589   0.560   0.157  1.00  0.00     0.137 A 
ENDROOT
BRANCH   1   8
HETATM    8  C11 UNL     1      -0.766   1.088  -1.488  1.00  0.00     0.004 A 
HETATM    9  C7  UNL     1      -2.036   0.531  -1.935  1.00  0.00    -0.041 A 
HETATM   10  C8  UNL     1      -2.433   1.704  -2.361  1.00  0.00     0.045 A 
HETATM   11  C9  UNL     1      -1.169   2.270  -1.918  1.00  0.00     0.079 A 
BRANCH   9  12
HETATM   12  C6  UNL     1      -2.645  -0.844  -1.915  1.00  0.00     0.070 C 
BRANCH  12  13
HETATM   13  C5  UNL     1      -2.776  -1.345  -0.515  1.00  0.00     0.277 C 
BRANCH  13  14
HETATM   14  N1  UNL     1      -3.612  -0.466   0.260  1.00  0.00     0.088 N 
BRANCH  14  15
HETATM   15  C2  UNL     1      -5.001  -0.459  -0.138  1.00  0.00     0.268 C 
HETATM   16  C1  UNL     1      -5.718   0.750   0.382  1.00  0.00     0.037 C 
ENDBRANCH  14  15
BRANCH  14  17
HETATM   17  C3  UNL     1      -3.460  -0.662   1.686  1.00  0.00     0.268 C 
HETATM   18  C4  UNL     1      -2.028  -0.676   2.096  1.00  0.00     0.037 C 
ENDBRANCH  14  17
ENDBRANCH  13  14
ENDBRANCH  12  13
ENDBRANCH   9  12
BRANCH  11  19
HETATM   19  O1  UNL     1      -0.884   3.611  -2.074  1.00  0.00    -0.355 OA
HETATM   20  C10 UNL     1      -1.742   4.680  -1.804  1.00  0.00     0.210 C 
ENDBRANCH  11  19
ENDBRANCH   1   8
BRANCH   7  21
HETATM   21  N4  UNL     1       2.537  -0.828   0.461  1.00  0.00    -0.340 N 
HETATM   22  H23 UNL     1       1.587  -1.254   0.561  1.00  0.00     0.167 HD
BRANCH  21  23
HETATM   23  C17 UNL     1       3.620  -1.728   0.658  1.00  0.00     0.034 A 
HETATM   24  C18 UNL     1       4.024  -1.788   1.996  1.00  0.00     0.032 A 
HETATM   25  C19 UNL     1       5.078  -2.620   2.389  1.00  0.00     0.045 A 
HETATM   26  C20 UNL     1       5.659  -3.346   1.389  1.00  0.00     0.127 A 
HETATM   27  F1  UNL     1       6.692  -4.163   1.763  1.00  0.00    -0.205 F 
HETATM   28  C21 UNL     1       5.300  -3.324   0.055  1.00  0.00     0.004 A 
HETATM   29  C22 UNL     1       4.266  -2.496  -0.276  1.00  0.00     0.044 A 
BRANCH  28  30
HETATM   30  P1  UNL     1       6.144  -4.337  -1.214  1.00  0.00    -0.103 P 
HETATM   31  H26 UNL     1       7.385  -3.694  -1.639  1.00  0.00     0.059 HD
HETATM   32  H27 UNL     1       5.280  -4.371  -2.380  1.00  0.00     0.059 HD
ENDBRANCH  28  30
ENDBRANCH  21  23
ENDBRANCH   7  21
TORSDOF 10
