REMARK  7 active torsions:
REMARK  status: ('A' for Active; 'I' for Inactive)
REMARK    1  A    between atoms: C2_2  and  N1_3 
REMARK    2  A    between atoms: N1_3  and  C3_4 
REMARK    3  A    between atoms: N1_3  and  C5_6 
REMARK    4  A    between atoms: C5_6  and  C6_7 
REMARK    5  A    between atoms: C7_8  and  S1_9 
REMARK    6  A    between atoms: S1_9  and  C8_10 
REMARK    7  A    between atoms: C13_17  and  N4_18 
ROOT
HETATM    1  C8  UNL     1       0.497   0.057  -0.259  1.00  0.00     0.014 A 
HETATM    2  C9  UNL     1      -0.066   1.159   0.357  1.00  0.00     0.022 A 
HETATM    3  C10 UNL     1       0.683   2.139   0.979  1.00  0.00     0.034 A 
HETATM    4  C11 UNL     1       2.076   2.041   1.003  1.00  0.00     0.072 A 
HETATM    5  N2  UNL     1       2.900   2.939   1.571  1.00  0.00    -0.241 NA
HETATM    6  C12 UNL     1       4.242   2.737   1.523  1.00  0.00     0.236 A 
HETATM    7  N3  UNL     1       4.774   1.641   0.909  1.00  0.00    -0.223 NA
HETATM    8  C13 UNL     1       3.968   0.706   0.320  1.00  0.00     0.143 A 
HETATM    9  C19 UNL     1       2.618   0.935   0.383  1.00  0.00     0.040 A 
HETATM   10  C20 UNL     1       1.857  -0.033  -0.232  1.00  0.00     0.037 A 
ENDROOT
BRANCH   1  11
HETATM   11  S1  UNL     1      -0.494  -1.188  -1.053  1.00  0.00    -0.039 SA
BRANCH  11  12
HETATM   12  C7  UNL     1      -2.216  -0.826  -0.945  1.00  0.00    -0.027 C 
HETATM   13  C6  UNL     1      -3.398  -0.584  -0.892  1.00  0.00    -0.064 C 
BRANCH  13  14
HETATM   14  C5  UNL     1      -4.846  -0.311  -0.838  1.00  0.00     0.366 C 
BRANCH  14  15
HETATM   15  N1  UNL     1      -5.312  -0.084   0.504  1.00  0.00     0.098 N 
BRANCH  15  16
HETATM   16  C2  UNL     1      -5.253  -1.266   1.316  1.00  0.00     0.269 C 
HETATM   17  C1  UNL     1      -5.983  -2.387   0.595  1.00  0.00     0.037 C 
ENDBRANCH  15  16
BRANCH  15  18
HETATM   18  C3  UNL     1      -4.624   0.988   1.171  1.00  0.00     0.269 C 
HETATM   19  C4  UNL     1      -4.642   2.275   0.381  1.00  0.00     0.037 C 
ENDBRANCH  15  18
ENDBRANCH  14  15
ENDBRANCH  13  14
ENDBRANCH  11  12
ENDBRANCH   1  11
BRANCH   8  20
HETATM   20  N4  UNL     1       4.720  -0.343  -0.219  1.00  0.00    -0.336 N 
HETATM   21  C14 UNL     1       5.417   0.156  -1.383  1.00  0.00     0.120 A 
HETATM   22  C15 UNL     1       6.226  -0.581  -2.165  1.00  0.00     0.087 A 
HETATM   23 CL1  UNL     1       7.101  -0.048  -3.587  1.00  0.00    -0.080 Cl
HETATM   24  C16 UNL     1       6.437  -1.986  -1.834  1.00  0.00     0.137 A 
HETATM   25  F1  UNL     1       7.218  -2.867  -2.516  1.00  0.00    -0.205 F 
HETATM   26  C17 UNL     1       5.805  -2.435  -0.772  1.00  0.00     0.037 A 
HETATM   27  C18 UNL     1       4.894  -1.729   0.164  1.00  0.00     0.160 A 
ENDBRANCH   8  20
TORSDOF 7
