REMARK  8 active torsions:
REMARK  status: ('A' for Active; 'I' for Inactive)
REMARK    1  A    between atoms: C2_2  and  N1_3 
REMARK    2  A    between atoms: N1_3  and  C3_4 
REMARK    3  A    between atoms: N1_3  and  C5_6 
REMARK    4  A    between atoms: C5_6  and  C6_7 
REMARK    5  A    between atoms: C7_8  and  C8_9 
REMARK       I    between atoms: C8_9  and  N2_11 
REMARK    6  A    between atoms: N2_11  and  C9_12 
REMARK    7  A    between atoms: C14_19  and  N5_20 
REMARK    8  A    between atoms: N5_20  and  C15_21 
ROOT
HETATM    1  C9  UNL     1      -1.619  -1.728   0.113  1.00  0.00     0.036 A 
HETATM    2  C10 UNL     1      -1.930  -2.871   0.855  1.00  0.00     0.032 A 
HETATM    3  C11 UNL     1      -3.243  -3.338   0.963  1.00  0.00     0.035 A 
HETATM    4  C12 UNL     1      -4.249  -2.650   0.319  1.00  0.00     0.072 A 
HETATM    5  N3  UNL     1      -5.559  -2.988   0.334  1.00  0.00    -0.241 NA
HETATM    6  C13 UNL     1      -6.497  -2.289  -0.308  1.00  0.00     0.236 A 
HETATM    7  N4  UNL     1      -6.147  -1.189  -1.012  1.00  0.00    -0.224 NA
HETATM    8  C14 UNL     1      -4.862  -0.794  -1.071  1.00  0.00     0.141 A 
HETATM    9  C20 UNL     1      -3.907  -1.528  -0.404  1.00  0.00     0.041 A 
HETATM   10  C21 UNL     1      -2.627  -1.041  -0.530  1.00  0.00     0.047 A 
ENDROOT
BRANCH   1  11
HETATM   11  N2  UNL     1      -0.206  -1.484   0.183  1.00  0.00    -0.316 N 
HETATM   12  C8  UNL     1       0.645  -0.693   1.009  1.00  0.00     0.301 C 
HETATM   13  O1  UNL     1       0.317   0.043   1.951  1.00  0.00    -0.258 OA
HETATM   14  H13 UNL     1       0.140  -2.079  -0.598  1.00  0.00     0.170 HD
BRANCH  12  15
HETATM   15  C7  UNL     1       2.056  -0.799   0.665  1.00  0.00    -0.004 C 
HETATM   16  C6  UNL     1       3.238  -0.908   0.383  1.00  0.00    -0.077 C 
BRANCH  16  17
HETATM   17  C5  UNL     1       4.652  -1.059   0.059  1.00  0.00     0.212 C 
BRANCH  17  18
HETATM   18  N1  UNL     1       5.273   0.209   0.058  1.00  0.00    -0.403 N 
BRANCH  18  19
HETATM   19  C2  UNL     1       5.418   0.893   1.287  1.00  0.00     0.113 C 
HETATM   20  C1  UNL     1       6.424   0.315   2.232  1.00  0.00     0.026 C 
ENDBRANCH  18  19
BRANCH  18  21
HETATM   21  C3  UNL     1       6.431   0.294  -0.807  1.00  0.00     0.113 C 
HETATM   22  C4  UNL     1       6.622   1.687  -1.309  1.00  0.00     0.026 C 
ENDBRANCH  18  21
ENDBRANCH  17  18
ENDBRANCH  16  17
ENDBRANCH  12  15
ENDBRANCH   1  11
BRANCH   8  23
HETATM   23  N5  UNL     1      -4.611   0.404  -1.837  1.00  0.00    -0.342 N 
HETATM   24  H17 UNL     1      -4.299   0.652  -2.812  1.00  0.00     0.167 HD
BRANCH  23  25
HETATM   25  C15 UNL     1      -4.875   1.543  -0.988  1.00  0.00     0.036 A 
HETATM   26  C16 UNL     1      -5.929   1.716  -0.181  1.00  0.00     0.068 A 
HETATM   27  C17 UNL     1      -5.940   2.966   0.567  1.00  0.00     0.116 A 
HETATM   28  F1  UNL     1      -6.926   3.307   1.428  1.00  0.00    -0.206 F 
HETATM   29  C18 UNL     1      -4.823   3.551   0.166  1.00  0.00     0.041 A 
HETATM   30  C19 UNL     1      -4.064   2.753  -0.815  1.00  0.00     0.158 A 
HETATM   31 CL1  UNL     1      -3.996   3.725  -2.319  1.00  0.00    -0.114 Cl
ENDBRANCH  23  25
ENDBRANCH   8  23
TORSDOF 8
