REMARK  8 active torsions:
REMARK  status: ('A' for Active; 'I' for Inactive)
REMARK    1  A    between atoms: O1_2  and  C2_3 
REMARK    2  A    between atoms: C2_3  and  C15_21 
REMARK    3  A    between atoms: C3_4  and  C4_5 
REMARK    4  A    between atoms: C6_9  and  N3_10 
REMARK    5  A    between atoms: N3_10  and  C7_11 
REMARK    6  A    between atoms: C15_21  and  C16_22 
REMARK    7  A    between atoms: C16_22  and  N4_23 
REMARK    8  A    between atoms: C19_26  and  C20_27 
REMARK       I    between atoms: C20_27  and  N5_28 
ROOT
HETATM    1  C4  UNL     1       0.803  -0.527  -0.782  1.00  0.00     0.070 A 
HETATM    2  N1  UNL     1       0.854  -0.226  -2.075  1.00  0.00    -0.241 NA
HETATM    3  C5  UNL     1       1.997  -0.017  -2.742  1.00  0.00     0.235 A 
HETATM    4  N2  UNL     1       3.180  -0.105  -2.124  1.00  0.00    -0.224 NA
HETATM    5  C6  UNL     1       3.247  -0.404  -0.819  1.00  0.00     0.137 A 
HETATM    6  C13 UNL     1       2.046  -0.620  -0.127  1.00  0.00     0.013 A 
HETATM    7  C14 UNL     1       2.197  -0.931   1.323  1.00  0.00     0.055 C 
ENDROOT
BRANCH   1   8
HETATM    8  C3  UNL     1      -0.329  -0.720   0.059  1.00  0.00     0.064 C 
HETATM    9  C2  UNL     1      -0.797  -1.629   0.888  1.00  0.00     0.049 C 
BRANCH   9  10
HETATM   10  O1  UNL     1      -0.090  -2.836   1.123  1.00  0.00    -0.360 OA
HETATM   11  C1  UNL     1      -0.483  -4.033   0.473  1.00  0.00     0.209 C 
ENDBRANCH   9  10
BRANCH   9  12
HETATM   12  C15 UNL     1      -2.050  -1.523   1.659  1.00  0.00     0.095 C 
BRANCH  12  13
HETATM   13  C16 UNL     1      -2.816  -0.260   1.488  1.00  0.00     0.279 C 
BRANCH  13  14
HETATM   14  N4  UNL     1      -3.304  -0.011   0.159  1.00  0.00     0.089 N 
HETATM   15  C17 UNL     1      -4.342  -0.901  -0.243  1.00  0.00     0.273 C 
HETATM   16  C18 UNL     1      -5.573  -0.032  -0.545  1.00  0.00     0.046 C 
HETATM   17  C19 UNL     1      -4.878   1.274  -0.957  1.00  0.00     0.107 C 
HETATM   18  C21 UNL     1      -3.825   1.325   0.129  1.00  0.00     0.286 C 
BRANCH  17  19
HETATM   19  C20 UNL     1      -5.824   2.414  -0.893  1.00  0.00     0.221 C 
HETATM   20  N5  UNL     1      -6.484   2.966   0.222  1.00  0.00    -0.370 N 
HETATM   21  H22 UNL     1      -7.531   3.026   0.231  1.00  0.00     0.159 HD
HETATM   22  H23 UNL     1      -6.542   3.407   1.166  1.00  0.00     0.159 HD
HETATM   23  O2  UNL     1      -6.105   3.005  -1.966  1.00  0.00    -0.273 OA
ENDBRANCH  17  19
ENDBRANCH  13  14
ENDBRANCH  12  13
ENDBRANCH   9  12
ENDBRANCH   1   8
BRANCH   5  24
HETATM   24  N3  UNL     1       4.462  -0.482  -0.075  1.00  0.00    -0.338 N 
HETATM   25  H6  UNL     1       4.537  -1.359   0.477  1.00  0.00     0.167 HD
BRANCH  24  26
HETATM   26  C7  UNL     1       5.495   0.488  -0.049  1.00  0.00     0.074 A 
HETATM   27  C8  UNL     1       5.429   1.647  -0.787  1.00  0.00     0.033 A 
HETATM   28  C9  UNL     1       6.473   2.560  -0.697  1.00  0.00     0.004 A 
HETATM   29  C10 UNL     1       7.579   2.345   0.111  1.00  0.00     0.027 A 
HETATM   30  C11 UNL     1       7.639   1.177   0.849  1.00  0.00     0.074 A 
HETATM   31 CL1  UNL     1       8.998   0.821   1.899  1.00  0.00    -0.081 Cl
HETATM   32  C12 UNL     1       6.589   0.285   0.741  1.00  0.00     0.164 A 
HETATM   33  F1  UNL     1       6.681  -0.852   1.490  1.00  0.00    -0.202 F 
ENDBRANCH  24  26
ENDBRANCH   5  24
TORSDOF 8
