REMARK  5 active torsions:
REMARK  status: ('A' for Active; 'I' for Inactive)
REMARK    1  A    between atoms: C2_2  and  C3_3 
REMARK    2  A    between atoms: C3_3  and  N1_4 
REMARK    3  A    between atoms: C14_18  and  N4_19 
REMARK    4  A    between atoms: N4_19  and  C15_20 
REMARK    5  A    between atoms: C16_21  and  C17_23 
ROOT
HETATM    1  N1  UNL     1      -3.268   0.023  -1.531  1.00  0.00    -0.341 N 
HETATM    2  C4  UNL     1      -2.866  -0.006  -0.322  1.00  0.00     0.018 C 
HETATM    3  C5  UNL     1      -2.512  -0.037   0.703  1.00  0.00     0.017 C 
HETATM    4  C6  UNL     1      -2.030  -0.065   2.022  1.00  0.00     0.299 C 
HETATM    5  O1  UNL     1      -2.196  -0.076   3.209  1.00  0.00    -0.258 OA
HETATM    6  N2  UNL     1      -0.865  -0.077   1.426  1.00  0.00    -0.336 N 
HETATM    7  C7  UNL     1       0.533  -0.170   1.671  1.00  0.00     0.061 A 
HETATM    8  C8  UNL     1       0.670  -1.616   1.648  1.00  0.00     0.004 C 
HETATM    9  C9  UNL     1       0.174  -2.094   0.252  1.00  0.00     0.025 C 
HETATM   10  C10 UNL     1       0.032  -1.360  -0.914  1.00  0.00     0.035 C 
HETATM   11  C11 UNL     1      -1.009  -1.092  -2.023  1.00  0.00     0.080 C 
HETATM   12  C12 UNL     1      -1.852   0.087  -1.917  1.00  0.00     0.138 C 
HETATM   13  N3  UNL     1       1.254  -0.689  -1.299  1.00  0.00    -0.267 NA
HETATM   14  C13 UNL     1       2.168  -0.034  -0.644  1.00  0.00     0.115 C 
HETATM   15  C14 UNL     1       2.685   0.412   0.643  1.00  0.00     0.124 C 
HETATM   16  C18 UNL     1       1.936   0.401   1.885  1.00  0.00     0.064 C 
HETATM   17  H8  UNL     1       0.047  -0.052   1.088  1.00  0.00     0.197 HD
ENDROOT
BRANCH  15  18
HETATM   18  N4  UNL     1       3.971  -0.145   0.910  1.00  0.00    -0.388 N 
HETATM   19  H17 UNL     1       4.247  -1.072   1.439  1.00  0.00     0.159 HD
BRANCH  18  20
HETATM   20  C15 UNL     1       5.058   0.587   0.322  1.00  0.00     0.104 C 
HETATM   21  C16 UNL     1       5.971   0.373  -0.607  1.00  0.00     0.036 C 
HETATM   22 CL1  UNL     1       6.305  -1.008  -1.629  1.00  0.00    -0.087 Cl
BRANCH  21  23
HETATM   23  C17 UNL     1       6.884   1.456  -1.001  1.00  0.00     0.137 C 
HETATM   24 BR1  UNL     1       6.428   3.079  -0.060  1.00  0.00    -0.091 Br
ENDBRANCH  21  23
ENDBRANCH  18  20
ENDBRANCH  15  18
BRANCH   1  25
HETATM   25  C3  UNL     1      -4.641  -0.042  -1.174  1.00  0.00     0.132 C 
BRANCH  25  26
HETATM   26  C2  UNL     1      -5.090   0.661   0.065  1.00  0.00     0.016 C 
HETATM   27  C1  UNL     1      -6.557   0.299   0.392  1.00  0.00     0.006 C 
ENDBRANCH  25  26
ENDBRANCH   1  25
TORSDOF 5
