REMARK  2 active torsions:
REMARK  status: ('A' for Active; 'I' for Inactive)
REMARK    1  A    between atoms: C2_2  and  N1_3 
REMARK    2  A    between atoms: C7_10  and  N3_11 
ROOT
HETATM    1  N1  UNL     1      -4.529   0.821   1.025  1.00  0.00    -0.400 N 
HETATM    2  C3  UNL     1      -3.667   1.515   1.990  1.00  0.00     0.212 C 
HETATM    3  C4  UNL     1      -2.357   1.559   1.509  1.00  0.00    -0.077 C 
HETATM    4  C5  UNL     1      -1.313   1.591   1.105  1.00  0.00    -0.004 C 
HETATM    5  C6  UNL     1      -0.035   1.618   0.586  1.00  0.00     0.298 C 
HETATM    6  O1  UNL     1       0.824   2.408   0.211  1.00  0.00    -0.258 OA
HETATM    7  N2  UNL     1       0.850   0.568   0.268  1.00  0.00    -0.325 N 
HETATM    8  C7  UNL     1       1.892  -0.320  -0.153  1.00  0.00     0.224 C 
HETATM    9  C15 UNL     1       1.390  -1.434  -1.005  1.00  0.00     0.043 C 
HETATM   10  C16 UNL     1       0.315  -2.022  -1.512  1.00  0.00     0.057 A 
HETATM   11 CL1  UNL     1       0.049  -3.402  -2.542  1.00  0.00    -0.131 Cl
HETATM   12  C17 UNL     1      -1.123  -2.023  -1.677  1.00  0.00     0.225 A 
HETATM   13  F1  UNL     1      -1.222  -0.846  -1.057  1.00  0.00    -0.215 F 
HETATM   14  C18 UNL     1      -2.463  -2.096  -1.877  1.00  0.00     0.038 C 
HETATM   15  C19 UNL     1      -3.670  -1.374  -1.557  1.00  0.00    -0.002 C 
HETATM   16  C20 UNL     1      -4.393  -0.434  -1.052  1.00  0.00    -0.008 C 
HETATM   17  C21 UNL     1      -4.082   0.778  -0.274  1.00  0.00     0.145 C 
HETATM   18  H8  UNL     1       0.356  -0.198   0.768  1.00  0.00     0.165 HD
ENDROOT
BRANCH   8  19
HETATM   19  N3  UNL     1       2.677  -0.874   0.925  1.00  0.00    -0.317 N 
HETATM   20  C8  UNL     1       3.266   0.113   1.765  1.00  0.00     0.180 C 
HETATM   21  C9  UNL     1       4.390   0.731   0.973  1.00  0.00    -0.010 A 
HETATM   22  C10 UNL     1       4.765   1.982   0.889  1.00  0.00     0.144 A 
HETATM   23  C13 UNL     1       5.128  -0.271   0.210  1.00  0.00    -0.035 A 
HETATM   24  O2  UNL     1       5.833   2.303   0.092  1.00  0.00    -0.359 OA
HETATM   25  C11 UNL     1       6.614   1.434  -0.675  1.00  0.00     0.202 A 
HETATM   26  C12 UNL     1       6.161   0.034  -0.560  1.00  0.00     0.008 A 
HETATM   27  C14 UNL     1       4.777  -1.704   0.227  1.00  0.00     0.149 C 
HETATM   28  N4  UNL     1       3.410  -1.964   0.614  1.00  0.00    -0.236 NA
HETATM   29  H18 UNL     1       3.329  -2.717   1.331  1.00  0.00     0.146 HD
ENDBRANCH   8  19
BRANCH   1  30
HETATM   30  C2  UNL     1      -5.852   0.928   1.406  1.00  0.00     0.113 C 
HETATM   31  C1  UNL     1      -6.919   0.323   0.535  1.00  0.00     0.026 C 
ENDBRANCH   1  30
TORSDOF 2
