REMARK  9 active torsions:
REMARK  status: ('A' for Active; 'I' for Inactive)
REMARK    1  A    between atoms: C2_2  and  C3_3 
REMARK    2  A    between atoms: C2_2  and  N2_13 
REMARK    3  A    between atoms: C4_4  and  C5_5 
REMARK    4  A    between atoms: C5_5  and  C6_6 
REMARK    5  A    between atoms: N2_13  and  C11_14 
REMARK    6  A    between atoms: C11_14  and  N3_15 
REMARK    7  A    between atoms: N3_15  and  C12_16 
REMARK    8  A    between atoms: C19_25  and  N4_27 
REMARK    9  A    between atoms: C20_26  and  N4_27 
ROOT
HETATM    1  C11 UNL     1      -2.150  -0.682  -0.037  1.00  0.00     0.296 A 
HETATM    2  C18 UNL     1      -2.243  -1.205   0.764  1.00  0.00     0.277 A 
HETATM    3  C19 UNL     1      -2.316  -1.584   1.317  1.00  0.00     0.277 A 
HETATM    4  C20 UNL     1      -2.423  -2.109   2.051  1.00  0.00     0.290 A 
HETATM    5  N4  UNL     1      -2.933  -2.461   0.426  1.00  0.00     0.027 N 
ENDROOT
BRANCH   1   6
HETATM    6  N2  UNL     1      -1.448  -1.512  -1.246  1.00  0.00    -0.334 N 
HETATM    7  H13 UNL     1      -1.801  -1.747  -2.180  1.00  0.00     0.164 HD
BRANCH   6   8
HETATM    8  C2  UNL     1      -0.177  -1.862  -0.715  1.00  0.00     0.076 C 
HETATM    9  C1  UNL     1       0.101  -3.152  -0.611  1.00  0.00     0.053 C 
BRANCH   8  10
HETATM   10  C3  UNL     1       0.811  -0.914  -0.289  1.00  0.00    -0.050 C 
HETATM   11  C4  UNL     1       1.634  -0.117   0.077  1.00  0.00    -0.097 C 
BRANCH  11  12
HETATM   12  C5  UNL     1       2.630   0.861   0.522  1.00  0.00     0.138 C 
BRANCH  12  13
HETATM   13  C6  UNL     1       3.572   1.219  -0.633  1.00  0.00     0.300 C 
HETATM   14  N1  UNL     1       4.558   2.185  -0.199  1.00  0.00     0.096 N 
HETATM   15  C7  UNL     1       5.637   1.599   0.541  1.00  0.00     0.271 C 
HETATM   16  H6  UNL     1       4.108   2.969   0.322  1.00  0.00     0.316 HD
HETATM   17  C8  UNL     1       6.455   0.733  -0.392  1.00  0.00     0.037 C 
HETATM   18  C9  UNL     1       5.618  -0.464  -0.752  1.00  0.00     0.082 C 
HETATM   19  C10 UNL     1       4.263   0.008  -1.109  1.00  0.00     0.160 C 
HETATM   20  O1  UNL     1       3.618  -0.664  -1.888  1.00  0.00    -0.296 OA
ENDBRANCH  12  13
ENDBRANCH  11  12
ENDBRANCH   8  10
ENDBRANCH   6   8
ENDBRANCH   1   6
BRANCH   1  21
HETATM   21  N3  UNL     1      -3.512  -0.464  -0.882  1.00  0.00    -0.341 N 
HETATM   22  H14 UNL     1      -3.733  -0.860  -1.845  1.00  0.00     0.164 HD
BRANCH  21  23
HETATM   23  C12 UNL     1      -4.538   0.331  -0.312  1.00  0.00     0.033 A 
HETATM   24  C13 UNL     1      -5.791   0.454  -0.879  1.00  0.00     0.032 A 
HETATM   25  C14 UNL     1      -6.752   1.247  -0.292  1.00  0.00     0.046 A 
HETATM   26  C15 UNL     1      -6.542   1.958   0.871  1.00  0.00     0.138 A 
HETATM   27  F1  UNL     1      -7.547   2.707   1.368  1.00  0.00    -0.204 F 
HETATM   28  C16 UNL     1      -5.297   1.855   1.463  1.00  0.00     0.074 A 
HETATM   29 CL1  UNL     1      -5.023   2.742   2.922  1.00  0.00    -0.081 Cl
HETATM   30  C17 UNL     1      -4.348   1.056   0.859  1.00  0.00     0.056 A 
ENDBRANCH  21  23
ENDBRANCH   1  21
TORSDOF 9
