REMARK  7 active torsions:
REMARK  status: ('A' for Active; 'I' for Inactive)
REMARK    1  A    between atoms: N1_1  and  C1_2 
REMARK    2  A    between atoms: C4_5  and  N2_6 
REMARK    3  A    between atoms: N2_6  and  C5_7 
REMARK    4  A    between atoms: C8_10  and  N3_11 
REMARK       I    between atoms: N3_11  and  C9_12 
REMARK    5  A    between atoms: C9_12  and  C10_14 
REMARK    6  A    between atoms: C11_15  and  C12_16 
REMARK    7  A    between atoms: C12_16  and  N4_17 
ROOT
HETATM    1  C5  UNL     1      -3.658  -1.134  -0.929  1.00  0.00     0.021 C 
HETATM    2  C6  UNL     1      -2.476  -1.066  -0.244  1.00  0.00    -0.026 C 
HETATM    3  C7  UNL     1      -1.072  -0.577  -0.036  1.00  0.00     0.060 C 
HETATM    4  C8  UNL     1      -0.403  -1.802   0.168  1.00  0.00     0.131 C 
HETATM    5  N5  UNL     1      -1.091  -3.148  -0.102  1.00  0.00    -0.239 NA
HETATM    6  C17 UNL     1      -2.355  -2.957  -0.544  1.00  0.00     0.024 C 
HETATM    7  C18 UNL     1      -2.806  -2.219   0.745  1.00  0.00     0.095 C 
HETATM    8  C19 UNL     1      -3.809  -2.704  -0.984  1.00  0.00     0.112 C 
ENDROOT
BRANCH   4   9
HETATM    9  N3  UNL     1       0.915  -1.375   0.595  1.00  0.00    -0.301 N 
HETATM   10  C9  UNL     1       1.918  -1.803  -0.285  1.00  0.00     0.302 C 
HETATM   11  O1  UNL     1       1.615  -2.488  -1.321  1.00  0.00    -0.258 OA
HETATM   12  H7  UNL     1       1.053  -0.825   1.462  1.00  0.00     0.171 HD
BRANCH  10  13
HETATM   13  C10 UNL     1       3.290  -1.470  -0.020  1.00  0.00    -0.004 C 
HETATM   14  C11 UNL     1       4.444  -1.194   0.224  1.00  0.00    -0.066 C 
BRANCH  14  15
HETATM   15  C12 UNL     1       5.848  -0.869   0.543  1.00  0.00     0.366 C 
BRANCH  15  16
HETATM   16  N4  UNL     1       6.056   0.567   0.478  1.00  0.00     0.103 N 
HETATM   17  C13 UNL     1       5.951   1.054  -0.862  1.00  0.00     0.299 C 
HETATM   18  C14 UNL     1       7.154   1.882  -1.242  1.00  0.00     0.198 C 
HETATM   19  O2  UNL     1       8.338   1.245  -0.960  1.00  0.00    -0.388 OA
HETATM   20  C15 UNL     1       8.476   0.855   0.358  1.00  0.00     0.198 C 
HETATM   21  C16 UNL     1       7.235   0.978   1.185  1.00  0.00     0.299 C 
ENDBRANCH  15  16
ENDBRANCH  14  15
ENDBRANCH  10  13
ENDBRANCH   4   9
BRANCH   1  22
HETATM   22  N2  UNL     1      -4.082   0.230  -1.250  1.00  0.00    -0.359 N 
HETATM   23  H5  UNL     1      -3.460   0.760  -1.898  1.00  0.00     0.166 HD
BRANCH  22  24
HETATM   24  C4  UNL     1      -5.278   0.844  -0.745  1.00  0.00     0.034 A 
HETATM   25  C3  UNL     1      -5.651   2.105  -1.082  1.00  0.00     0.032 A 
HETATM   26  C2  UNL     1      -6.813   2.635  -0.560  1.00  0.00     0.033 A 
HETATM   27  C1  UNL     1      -7.546   1.836   0.294  1.00  0.00     0.047 A 
HETATM   28  C21 UNL     1      -7.163   0.567   0.628  1.00  0.00     0.062 A 
HETATM   29  C20 UNL     1      -6.011   0.034   0.115  1.00  0.00     0.055 A 
HETATM   30 CL1  UNL     1      -8.173  -0.367   1.729  1.00  0.00    -0.082 Cl
BRANCH  27  31
HETATM   31  N1  UNL     1      -8.739   2.369   0.836  1.00  0.00    -0.398 N 
HETATM   32  H1  UNL     1      -9.530   2.571   0.158  1.00  0.00     0.156 HD
HETATM   33  H2  UNL     1      -9.211   2.680   1.723  1.00  0.00     0.156 HD
ENDBRANCH  27  31
ENDBRANCH  22  24
ENDBRANCH   1  22
TORSDOF 7
