REMARK  6 active torsions:
REMARK  status: ('A' for Active; 'I' for Inactive)
REMARK    1  A    between atoms: C2_2  and  C3_3 
REMARK    2  A    between atoms: C2_2  and  N2_11 
REMARK    3  A    between atoms: C4_4  and  C5_5 
REMARK    4  A    between atoms: C5_5  and  C6_6 
REMARK    5  A    between atoms: C6_6  and  N1_7 
REMARK    6  A    between atoms: C16_21  and  C17_22 
ROOT
HETATM    1  N2  UNL     1       0.174  -1.363   0.671  1.00  0.00    -0.265 N 
HETATM    2  C9  UNL     1       1.342  -2.097   0.996  1.00  0.00     0.120 C 
HETATM    3  C10 UNL     1       2.362  -2.496   0.272  1.00  0.00    -0.018 C 
HETATM    4  C11 UNL     1       3.392  -3.252   1.085  1.00  0.00     0.055 C 
HETATM    5  C12 UNL     1       4.567  -2.226   1.223  1.00  0.00     0.076 C 
HETATM    6  C13 UNL     1       4.937  -2.035  -0.235  1.00  0.00     0.097 C 
HETATM    7  N3  UNL     1       4.208  -2.511  -1.176  1.00  0.00    -0.275 NA
HETATM    8  C14 UNL     1       2.773  -2.336  -1.178  1.00  0.00     0.236 C 
HETATM    9  N4  UNL     1       2.536  -0.867  -1.380  1.00  0.00    -0.363 N 
HETATM   10  C15 UNL     1       2.856   0.152  -0.373  1.00  0.00     0.043 C 
HETATM   11  C16 UNL     1       3.061   1.350  -0.794  1.00  0.00     0.029 C 
HETATM   12  C19 UNL     1       2.938  -0.199   1.095  1.00  0.00     0.028 C 
HETATM   13  C20 UNL     1       3.985  -0.883   1.632  1.00  0.00     0.035 C 
HETATM   14 CL1  UNL     1       4.827  -0.192   2.980  1.00  0.00    -0.087 Cl
HETATM   15  C21 UNL     1       1.644   0.429   1.336  1.00  0.00     0.154 C 
HETATM   16  N5  UNL     1       0.489  -0.089   1.147  1.00  0.00    -0.183 NA
HETATM   17  H19 UNL     1       2.142  -0.354  -2.189  1.00  0.00     0.162 HD
ENDROOT
BRANCH   1  18
HETATM   18  C2  UNL     1      -1.088  -1.642   0.039  1.00  0.00     0.184 C 
HETATM   19  C1  UNL     1      -0.889  -2.144  -1.393  1.00  0.00     0.048 C 
BRANCH  18  20
HETATM   20  C3  UNL     1      -1.874  -0.432   0.016  1.00  0.00    -0.079 C 
HETATM   21  C4  UNL     1      -2.537   0.560  -0.016  1.00  0.00    -0.103 C 
BRANCH  21  22
HETATM   22  C5  UNL     1      -3.369   1.783  -0.079  1.00  0.00     0.111 C 
BRANCH  22  23
HETATM   23  C6  UNL     1      -4.792   1.411  -0.515  1.00  0.00     0.133 C 
BRANCH  23  24
HETATM   24  N1  UNL     1      -5.655   2.553  -0.596  1.00  0.00    -0.194 NA
HETATM   25  C7  UNL     1      -6.978   2.132  -1.011  1.00  0.00     0.149 C 
HETATM   26  C8  UNL     1      -7.503   2.774   0.231  1.00  0.00     0.210 C 
HETATM   27  O1  UNL     1      -6.177   2.885   0.605  1.00  0.00    -0.302 OA
ENDBRANCH  23  24
ENDBRANCH  22  23
ENDBRANCH  21  22
ENDBRANCH  18  20
ENDBRANCH   1  18
BRANCH  11  28
HETATM   28  C17 UNL     1       3.361   2.239   0.278  1.00  0.00     0.078 C 
HETATM   29  C18 UNL     1       3.588   3.505  -0.076  1.00  0.00     0.383 C 
HETATM   30  F1  UNL     1       3.442   3.494  -1.416  1.00  0.00    -0.458 F 
ENDBRANCH  11  28
TORSDOF 6
