REMARK  8 active torsions:
REMARK  status: ('A' for Active; 'I' for Inactive)
REMARK    1  A    between atoms: O1_2  and  C2_3 
REMARK    2  A    between atoms: C2_3  and  C14_20 
REMARK    3  A    between atoms: C3_4  and  C4_5 
REMARK    4  A    between atoms: C7_10  and  N3_11 
REMARK    5  A    between atoms: N3_11  and  C8_12 
REMARK    6  A    between atoms: C14_20  and  C15_21 
REMARK    7  A    between atoms: C15_21  and  N4_22 
REMARK    8  A    between atoms: C18_25  and  C19_26 
REMARK       I    between atoms: C19_26  and  N5_27 
ROOT
HETATM    1  C4  UNL     1       0.940   0.596  -0.020  1.00  0.00     0.090 A 
HETATM    2  N1  UNL     1       0.361   1.718   0.210  1.00  0.00    -0.240 NA
HETATM    3  C5  UNL     1       1.136   2.543   1.067  1.00  0.00     0.234 A 
HETATM    4  N2  UNL     1       2.219   1.916   1.372  1.00  0.00    -0.238 NA
HETATM    5  C6  UNL     1       2.187   0.666   0.728  1.00  0.00     0.102 A 
HETATM    6  C7  UNL     1       3.104  -0.288   0.775  1.00  0.00     0.122 C 
ENDROOT
BRANCH   1   7
HETATM    7  C3  UNL     1       0.535  -0.543  -0.821  1.00  0.00     0.066 C 
HETATM    8  C2  UNL     1      -0.592  -0.649  -1.519  1.00  0.00     0.049 C 
BRANCH   8   9
HETATM    9  O1  UNL     1      -0.932  -1.785  -2.281  1.00  0.00    -0.360 OA
HETATM   10  C1  UNL     1      -0.547  -3.030  -1.767  1.00  0.00     0.209 C 
ENDBRANCH   8   9
BRANCH   8  11
HETATM   11  C14 UNL     1      -1.725   0.294  -1.696  1.00  0.00     0.095 C 
BRANCH  11  12
HETATM   12  C15 UNL     1      -3.030  -0.298  -1.223  1.00  0.00     0.279 C 
BRANCH  12  13
HETATM   13  N4  UNL     1      -3.035  -0.660   0.156  1.00  0.00     0.089 N 
HETATM   14  C16 UNL     1      -2.975   0.439   1.069  1.00  0.00     0.273 C 
HETATM   15  C17 UNL     1      -4.180   0.336   1.994  1.00  0.00     0.046 C 
HETATM   16  C18 UNL     1      -5.166  -0.366   1.077  1.00  0.00     0.107 C 
HETATM   17  C20 UNL     1      -4.261  -1.384   0.432  1.00  0.00     0.286 C 
BRANCH  16  18
HETATM   18  C19 UNL     1      -5.795   0.566   0.135  1.00  0.00     0.221 C 
HETATM   19  N5  UNL     1      -6.745   0.132  -0.813  1.00  0.00    -0.370 N 
HETATM   20  H20 UNL     1      -6.509   0.152  -1.843  1.00  0.00     0.159 HD
HETATM   21  H21 UNL     1      -7.713  -0.247  -0.885  1.00  0.00     0.159 HD
HETATM   22  O2  UNL     1      -5.415   1.768   0.251  1.00  0.00    -0.273 OA
ENDBRANCH  16  18
ENDBRANCH  12  13
ENDBRANCH  11  12
ENDBRANCH   8  11
ENDBRANCH   1   7
BRANCH   6  23
HETATM   23  N3  UNL     1       4.355  -0.335   1.466  1.00  0.00    -0.361 N 
HETATM   24  H7  UNL     1       4.579  -0.722   2.417  1.00  0.00     0.165 HD
BRANCH  23  25
HETATM   25  C8  UNL     1       5.453   0.232   0.749  1.00  0.00     0.072 A 
HETATM   26  C9  UNL     1       5.253   0.774  -0.524  1.00  0.00     0.033 A 
HETATM   27  C10 UNL     1       6.326   1.330  -1.227  1.00  0.00     0.004 A 
HETATM   28  C11 UNL     1       7.598   1.363  -0.699  1.00  0.00     0.027 A 
HETATM   29  C12 UNL     1       7.804   0.825   0.567  1.00  0.00     0.074 A 
HETATM   30 CL1  UNL     1       9.414   0.874   1.220  1.00  0.00    -0.081 Cl
HETATM   31  C13 UNL     1       6.739   0.278   1.255  1.00  0.00     0.164 A 
HETATM   32  F1  UNL     1       6.975  -0.235   2.483  1.00  0.00    -0.202 F 
ENDBRANCH  23  25
ENDBRANCH   6  23
TORSDOF 8
