REMARK  8 active torsions:
REMARK  status: ('A' for Active; 'I' for Inactive)
REMARK    1  A    between atoms: C2_2  and  C3_3 
REMARK    2  A    between atoms: C2_2  and  N2_13 
REMARK    3  A    between atoms: C4_4  and  C5_5 
REMARK    4  A    between atoms: C5_5  and  C6_6 
REMARK    5  A    between atoms: C6_6  and  N1_7 
REMARK    6  A    between atoms: N2_13  and  C11_14 
REMARK    7  A    between atoms: C14_17  and  N3_18 
REMARK    8  A    between atoms: N3_18  and  C15_19 
ROOT
HETATM    1  C11 UNL     1       1.475  -0.671  -0.278  1.00  0.00     0.125 A 
HETATM    2  C12 UNL     1       2.611  -0.022   0.204  1.00  0.00     0.068 A 
HETATM    3  C13 UNL     1       3.509  -0.910   0.746  1.00  0.00     0.044 A 
HETATM    4  C14 UNL     1       4.724  -0.437   1.265  1.00  0.00     0.142 A 
HETATM    5  N4  UNL     1       5.631  -1.247   1.785  1.00  0.00    -0.224 NA
HETATM    6  C20 UNL     1       5.424  -2.581   1.839  1.00  0.00     0.236 A 
HETATM    7  N5  UNL     1       4.275  -3.107   1.358  1.00  0.00    -0.240 NA
HETATM    8  C21 UNL     1       3.370  -2.269   0.834  1.00  0.00     0.089 A 
HETATM    9  C22 UNL     1       2.210  -2.845   0.335  1.00  0.00     0.151 A 
HETATM   10  N6  UNL     1       1.293  -1.991  -0.213  1.00  0.00    -0.241 NA
ENDROOT
BRANCH   1  11
HETATM   11  N2  UNL     1       0.434   0.041  -0.943  1.00  0.00    -0.360 N 
HETATM   12  H17 UNL     1       0.605   1.070  -1.034  1.00  0.00     0.162 HD
BRANCH  11  13
HETATM   13  C2  UNL     1      -0.809  -0.349  -1.512  1.00  0.00     0.159 C 
HETATM   14  C1  UNL     1      -1.423   0.709  -2.431  1.00  0.00     0.046 C 
BRANCH  13  15
HETATM   15  C3  UNL     1      -1.781  -0.614  -0.415  1.00  0.00    -0.082 C 
HETATM   16  C4  UNL     1      -2.578  -0.830   0.453  1.00  0.00    -0.103 C 
BRANCH  16  17
HETATM   17  C5  UNL     1      -3.520  -1.103   1.506  1.00  0.00     0.124 C 
BRANCH  17  18
HETATM   18  C6  UNL     1      -4.957  -0.850   1.278  1.00  0.00     0.284 C 
BRANCH  18  19
HETATM   19  N1  UNL     1      -5.432   0.436   0.974  1.00  0.00     0.093 N 
HETATM   20  C7  UNL     1      -6.907   0.522   1.076  1.00  0.00     0.298 C 
HETATM   21  C8  UNL     1      -7.605  -0.116  -0.066  1.00  0.00     0.198 C 
HETATM   22  O1  UNL     1      -6.707  -0.604  -1.038  1.00  0.00    -0.388 OA
HETATM   23  C9  UNL     1      -5.855   0.382  -1.463  1.00  0.00     0.198 C 
HETATM   24  C10 UNL     1      -5.063   0.979  -0.288  1.00  0.00     0.298 C 
ENDBRANCH  18  19
ENDBRANCH  17  18
ENDBRANCH  16  17
ENDBRANCH  13  15
ENDBRANCH  11  13
ENDBRANCH   1  11
BRANCH   4  25
HETATM   25  N3  UNL     1       5.067   0.942   1.255  1.00  0.00    -0.342 N 
HETATM   26  H19 UNL     1       4.683   1.677   1.899  1.00  0.00     0.167 HD
BRANCH  25  27
HETATM   27  C15 UNL     1       6.004   1.525   0.335  1.00  0.00     0.036 A 
HETATM   28  C16 UNL     1       5.851   2.610  -0.411  1.00  0.00     0.030 A 
HETATM   29  C17 UNL     1       7.070   2.829  -1.199  1.00  0.00     0.042 A 
HETATM   30  C18 UNL     1       7.948   1.858  -0.912  1.00  0.00     0.118 A 
HETATM   31  F1  UNL     1       9.197   1.577  -1.339  1.00  0.00    -0.209 F 
HETATM   32  C19 UNL     1       7.370   0.946   0.100  1.00  0.00     0.194 A 
HETATM   33 CL1  UNL     1       7.304  -0.697  -0.523  1.00  0.00    -0.111 Cl
ENDBRANCH  25  27
ENDBRANCH   4  25
TORSDOF 8
