REMARK  4 active torsions:
REMARK  status: ('A' for Active; 'I' for Inactive)
REMARK    1  A    between atoms: C1_2  and  C2_3 
REMARK    2  A    between atoms: C2_3  and  N1_4 
REMARK    3  A    between atoms: N1_4  and  C3_5 
REMARK    4  A    between atoms: C8_13  and  C9_14 
ROOT
HETATM    1  C3  UNL     1       3.369   0.431   0.900  1.00  0.00     0.723 A 
HETATM    2  N2  UNL     1       3.017  -0.672   0.249  1.00  0.00    -0.074 NA
HETATM    3  C4  UNL     1       1.727  -0.890  -0.088  1.00  0.00     0.150 A 
HETATM    4  C5  UNL     1       0.700  -0.047   0.189  1.00  0.00     0.019 A 
HETATM    5  C6  UNL     1       1.098   1.078   0.860  1.00  0.00     0.124 A 
HETATM    6  N3  UNL     1       2.393   1.333   1.217  1.00  0.00    -0.055 NA
HETATM    7  S1  UNL     1       0.023   2.370   1.368  1.00  0.00    -0.104 SA
HETATM    8  C7  UNL     1      -1.646   1.937   0.851  1.00  0.00     0.120 A 
HETATM    9  C8  UNL     1      -1.664   0.644   0.155  1.00  0.00    -0.036 A 
HETATM   10  C15 UNL     1      -0.697  -0.176  -0.119  1.00  0.00     0.024 A 
ENDROOT
BRANCH   9  11
HETATM   11  C9  UNL     1      -2.951   0.141  -0.309  1.00  0.00    -0.007 A 
HETATM   12  C10 UNL     1      -3.172  -1.095  -0.894  1.00  0.00     0.014 A 
HETATM   13  C11 UNL     1      -4.355  -1.601  -1.359  1.00  0.00     0.001 A 
HETATM   14  C12 UNL     1      -5.486  -0.834  -1.257  1.00  0.00     0.002 A 
HETATM   15  C13 UNL     1      -5.369   0.426  -0.682  1.00  0.00     0.024 A 
HETATM   16  C14 UNL     1      -4.134   0.844  -0.246  1.00  0.00     0.044 A 
HETATM   17 CL1  UNL     1      -4.234   2.452   0.417  1.00  0.00    -0.083 Cl
ENDBRANCH   9  11
BRANCH   1  18
HETATM   18  N1  UNL     1       4.733   0.635   1.242  1.00  0.00    -0.216 N 
HETATM   19  H4  UNL     1       4.968   1.511   1.752  1.00  0.00     0.178 HD
BRANCH  18  20
HETATM   20  C2  UNL     1       5.670  -0.399   0.847  1.00  0.00     0.207 C 
BRANCH  20  21
HETATM   21  C1  UNL     1       5.634  -0.538  -0.621  1.00  0.00     0.251 C 
HETATM   22  O1  UNL     1       5.066  -0.056  -1.588  1.00  0.00    -0.305 OA
ENDBRANCH  20  21
ENDBRANCH  18  20
ENDBRANCH   1  18
TORSDOF 4
