REMARK  5 active torsions:
REMARK  status: ('A' for Active; 'I' for Inactive)
REMARK    1  A    between atoms: C2_2  and  C3_3 
REMARK    2  A    between atoms: C3_3  and  C4_4 
REMARK    3  A    between atoms: C13_18  and  N4_19 
REMARK    4  A    between atoms: N4_19  and  C14_20 
REMARK    5  A    between atoms: C15_21  and  C16_22 
ROOT
HETATM    1  C4  UNL     1      -1.273  -1.583   0.619  1.00  0.00     0.166 C 
HETATM    2  N1  UNL     1      -2.113  -1.379   1.803  1.00  0.00    -0.295 NA
HETATM    3  C5  UNL     1      -3.151  -0.658   1.817  1.00  0.00     0.096 C 
HETATM    4  C6  UNL     1      -4.448   0.198   1.983  1.00  0.00     0.140 C 
HETATM    5  C7  UNL     1      -4.003   1.475   1.436  1.00  0.00    -0.091 C 
HETATM    6  C8  UNL     1      -3.645   2.435   1.020  1.00  0.00    -0.005 C 
HETATM    7  C9  UNL     1      -3.182   3.603   0.504  1.00  0.00     0.300 C 
HETATM    8  O1  UNL     1      -2.896   4.659   0.080  1.00  0.00    -0.258 OA
HETATM    9  N2  UNL     1      -1.812   2.973   0.289  1.00  0.00    -0.318 N 
HETATM   10  C10 UNL     1      -0.506   2.400   0.075  1.00  0.00     0.038 C 
HETATM   11  C11 UNL     1       0.189   1.812   1.098  1.00  0.00     0.162 C 
HETATM   12  O2  UNL     1      -0.077   0.395   1.085  1.00  0.00    -0.325 OA
HETATM   13  C12 UNL     1      -0.877  -0.281   0.090  1.00  0.00     0.389 C 
HETATM   14  N3  UNL     1      -0.303  -0.190  -1.227  1.00  0.00     0.138 N 
HETATM   15  C13 UNL     1       0.668   0.834  -1.401  1.00  0.00     0.328 C 
HETATM   16  C19 UNL     1       0.143   2.280  -1.277  1.00  0.00     0.116 C 
HETATM   17  H12 UNL     1      -1.039   3.632  -0.064  1.00  0.00     0.169 HD
HETATM   18  H15 UNL     1       0.189  -1.084  -1.407  1.00  0.00     0.322 HD
ENDROOT
BRANCH  15  19
HETATM   19  N4  UNL     1       1.468   0.693  -2.567  1.00  0.00    -0.370 N 
HETATM   20  H17 UNL     1       1.734   0.294  -3.467  1.00  0.00     0.161 HD
BRANCH  19  21
HETATM   21  C14 UNL     1       2.426   1.726  -2.204  1.00  0.00     0.085 C 
HETATM   22  C15 UNL     1       3.455   1.294  -1.468  1.00  0.00     0.019 C 
BRANCH  22  23
HETATM   23  C16 UNL     1       4.697   1.484  -0.734  1.00  0.00     0.038 C 
HETATM   24  C17 UNL     1       5.661   0.893  -0.012  1.00  0.00     0.090 C 
HETATM   25  C18 UNL     1       5.498  -0.577   0.181  1.00  0.00     0.082 C 
HETATM   26  F1  UNL     1       6.573   1.810   0.365  1.00  0.00    -0.211 F 
ENDBRANCH  22  23
ENDBRANCH  19  21
ENDBRANCH  15  19
BRANCH   1  27
HETATM   27  C3  UNL     1      -2.043  -2.465  -0.328  1.00  0.00     0.031 C 
BRANCH  27  28
HETATM   28  C2  UNL     1      -2.312  -3.766   0.403  1.00  0.00    -0.002 C 
HETATM   29  C1  UNL     1      -1.084  -4.497   0.825  1.00  0.00     0.005 C 
ENDBRANCH  27  28
ENDBRANCH   1  27
TORSDOF 5
