REMARK  1 active torsions:
REMARK  status: ('A' for Active; 'I' for Inactive)
REMARK    1  A    between atoms: C2_2  and  N1_3 
ROOT
HETATM    1  N1  UNL     1      -2.663   0.725   0.008  1.00  0.00     0.091 N 
HETATM    2  C3  UNL     1      -1.849   1.925   0.383  1.00  0.00     0.299 C 
HETATM    3  C4  UNL     1      -1.228   2.387  -0.870  1.00  0.00     0.003 C 
HETATM    4  C5  UNL     1       0.028   2.350  -1.217  1.00  0.00     0.002 C 
HETATM    5  C6  UNL     1       1.240   1.887  -0.618  1.00  0.00     0.052 C 
HETATM    6  C7  UNL     1       2.516   1.670  -0.556  1.00  0.00     0.145 A 
HETATM    7  N2  UNL     1       3.266   2.097  -1.653  1.00  0.00    -0.224 NA
HETATM    8  C8  UNL     1       4.504   1.782  -1.509  1.00  0.00     0.226 A 
HETATM    9  N3  UNL     1       4.565   1.116  -0.255  1.00  0.00    -0.290 N 
HETATM   10  N4  UNL     1       3.327   1.026   0.377  1.00  0.00    -0.269 N 
HETATM   11  C9  UNL     1       2.700   0.482   1.564  1.00  0.00     0.198 C 
HETATM   12  P1  UNL     1       1.921  -1.140   1.112  1.00  0.00    -0.036 P 
HETATM   13  N5  UNL     1       1.071  -1.073  -0.436  1.00  0.00    -0.296 NA
HETATM   14  C10 UNL     1       0.422  -2.291  -0.806  1.00  0.00     0.055 C 
HETATM   15  C11 UNL     1       1.361  -3.482  -0.891  1.00  0.00     0.026 C 
HETATM   16  C12 UNL     1      -0.823  -2.638  -0.054  1.00  0.00     0.021 C 
HETATM   17  C13 UNL     1      -1.976  -1.669  -0.281  1.00  0.00     0.032 C 
HETATM   18  C14 UNL     1      -1.571  -0.299   0.034  1.00  0.00     0.272 C 
HETATM   19  H12 UNL     1       5.425   0.701   0.215  1.00  0.00     0.188 HD
HETATM   20  H15 UNL     1       2.838  -2.249   1.153  1.00  0.00     0.075 HD
HETATM   21  H16 UNL     1       1.794  -0.885  -1.175  1.00  0.00     0.127 HD
ENDROOT
BRANCH   1  22
HETATM   22  C2  UNL     1      -3.535   0.406   1.155  1.00  0.00     0.268 C 
HETATM   23  C1  UNL     1      -4.581   1.465   1.358  1.00  0.00     0.037 C 
ENDBRANCH   1  22
TORSDOF 1
