REMARK  0 active torsions:
REMARK  status: ('A' for Active; 'I' for Inactive)
ROOT
HETATM    1  O1  UNL     1       2.034  -1.932   2.841  1.00  0.00     0.000 OA
HETATM    2  C1  UNL     1       2.915  -2.325   3.687  1.00  0.00     0.288 A 
HETATM    3  C2  UNL     1       3.428  -1.425   2.743  1.00  0.00     0.045 A 
HETATM    4  C3  UNL     1       3.827  -0.687   1.958  1.00  0.00    -0.143 C 
HETATM    5  C4  UNL     1       4.295   0.227   0.976  1.00  0.00     0.115 C 
HETATM    6  C5  UNL     1       2.942   0.881   0.447  1.00  0.00     0.284 C 
HETATM    7  N1  UNL     1       1.975  -0.237   0.252  1.00  0.00     0.099 N 
HETATM    8  C6  UNL     1       2.371  -0.880  -0.998  1.00  0.00     0.299 C 
HETATM    9  C7  UNL     1       2.239   0.102  -2.150  1.00  0.00     0.198 C 
HETATM   10  O2  UNL     1       1.305   1.103  -1.812  1.00  0.00    -0.387 OA
HETATM   11  C8  UNL     1       0.197   0.524  -1.208  1.00  0.00     0.205 C 
HETATM   12  C9  UNL     1       0.621   0.158   0.233  1.00  0.00     0.265 C 
HETATM   13  C10 UNL     1      -0.418  -0.650   0.886  1.00  0.00     0.063 C 
HETATM   14  C11 UNL     1      -0.164  -0.848   2.334  1.00  0.00     0.052 C 
HETATM   15  C12 UNL     1       0.394  -2.077   2.379  1.00  0.00     0.259 C 
HETATM   16  N2  UNL     1       0.041  -2.792   1.178  1.00  0.00    -0.225 NA
HETATM   17  C13 UNL     1      -0.676  -2.018   0.447  1.00  0.00     0.069 C 
HETATM   18  C14 UNL     1      -1.456  -2.732  -0.515  1.00  0.00     0.141 C 
HETATM   19  N3  UNL     1      -2.196  -2.739  -1.522  1.00  0.00    -0.268 NA
HETATM   20  C15 UNL     1      -2.641  -1.648  -2.280  1.00  0.00     0.436 C 
HETATM   21  N4  UNL     1      -3.722  -0.994  -2.493  1.00  0.00    -0.413 NA
HETATM   22  C16 UNL     1      -3.793   0.141  -3.398  1.00  0.00     0.193 C 
HETATM   23  S1  UNL     1      -3.324   1.582  -2.456  1.00  0.00    -0.071 SA
HETATM   24  C17 UNL     1      -2.953   2.785  -1.674  1.00  0.00    -0.085 C 
HETATM   25  C18 UNL     1      -2.608   3.899  -0.922  1.00  0.00     0.195 A 
HETATM   26  C19 UNL     1      -2.138   3.338   0.130  1.00  0.00     0.065 A 
HETATM   27 CL1  UNL     1      -2.052   5.104   0.301  1.00  0.00    -0.159 Cl
HETATM   28  C20 UNL     1      -1.606   2.776   1.326  1.00  0.00     0.131 C 
HETATM   29  F1  UNL     1      -1.138   3.493   2.402  1.00  0.00    -0.205 F 
HETATM   30  C21 UNL     1      -1.511   1.440   1.512  1.00  0.00     0.018 C 
HETATM   31  C22 UNL     1      -1.769   0.128   0.893  1.00  0.00     0.053 C 
HETATM   32  N5  UNL     1       1.400  -2.579   3.419  1.00  0.00     0.158 N 
HETATM   33  H21 UNL     1       0.775  -3.244   4.021  1.00  0.00     0.327 HD
ENDROOT
TORSDOF 0
