REMARK  2 active torsions:
REMARK  status: ('A' for Active; 'I' for Inactive)
REMARK    1  A    between atoms: O1_2  and  C2_3 
REMARK    2  A    between atoms: C12_16  and  C13_17 
REMARK       I    between atoms: C13_17  and  N4_18 
ROOT
HETATM    1  C2  UNL     1      -1.514   1.692   1.504  1.00  0.00     0.058 A 
HETATM    2  C3  UNL     1      -2.763   1.399   1.822  1.00  0.00     0.065 A 
HETATM    3  C4  UNL     1      -3.200   0.331   0.935  1.00  0.00     0.071 A 
HETATM    4  N1  UNL     1      -4.408  -0.222   0.957  1.00  0.00    -0.241 NA
HETATM    5  C5  UNL     1      -4.682  -1.208   0.080  1.00  0.00     0.235 A 
HETATM    6  N2  UNL     1      -3.693  -1.564  -0.764  1.00  0.00    -0.224 NA
HETATM    7  C6  UNL     1      -2.473  -1.022  -0.802  1.00  0.00     0.135 A 
HETATM    8  C7  UNL     1      -2.178  -0.022   0.076  1.00  0.00     0.028 A 
HETATM    9  C8  UNL     1      -1.046   0.849   0.373  1.00  0.00     0.099 A 
HETATM   10  C9  UNL     1       0.202   0.073   0.651  1.00  0.00     0.139 C 
HETATM   11  N3  UNL     1       1.172   0.194  -0.446  1.00  0.00    -0.382 N 
HETATM   12  C10 UNL     1       1.382   1.529  -1.038  1.00  0.00     0.124 C 
HETATM   13  C11 UNL     1       2.720   1.366  -1.702  1.00  0.00     0.039 C 
HETATM   14  C12 UNL     1       3.197   0.081  -1.013  1.00  0.00     0.123 C 
HETATM   15  C14 UNL     1       2.002  -0.797  -1.118  1.00  0.00     0.020 C 
HETATM   16  C15 UNL     1       1.940  -2.007  -1.658  1.00  0.00     0.025 C 
HETATM   17  C16 UNL     1       1.088  -3.144  -1.956  1.00  0.00     0.001 C 
HETATM   18  C17 UNL     1      -0.164  -3.574  -1.802  1.00  0.00     0.014 C 
HETATM   19  C18 UNL     1      -1.228  -2.825  -1.132  1.00  0.00     0.204 C 
HETATM   20 CL1  UNL     1      -2.730  -3.812  -1.097  1.00  0.00    -0.098 Cl
HETATM   21  N5  UNL     1      -1.510  -1.552  -1.753  1.00  0.00    -0.353 N 
HETATM   22  H20 UNL     1      -1.583  -0.702  -2.335  1.00  0.00     0.163 HD
ENDROOT
BRANCH  14  23
HETATM   23  C13 UNL     1       3.589   0.433   0.352  1.00  0.00     0.205 C 
HETATM   24  N4  UNL     1       3.383   0.920   1.661  1.00  0.00    -0.272 NA
HETATM   25  H14 UNL     1       3.007   0.336   2.469  1.00  0.00     0.127 HD
HETATM   26  H15 UNL     1       3.006   0.303   2.437  1.00  0.00     0.127 HD
HETATM   27  O2  UNL     1       4.817   0.219   0.654  1.00  0.00    -0.279 OA
ENDBRANCH  14  23
BRANCH   1  28
HETATM   28  O1  UNL     1      -0.604   2.603   2.001  1.00  0.00    -0.359 OA
HETATM   29  C1  UNL     1      -0.948   3.585   2.950  1.00  0.00     0.209 C 
ENDBRANCH   1  28
TORSDOF 2
