REMARK  6 active torsions:
REMARK  status: ('A' for Active; 'I' for Inactive)
REMARK    1  A    between atoms: C1_2  and  C2_3 
REMARK    2  A    between atoms: C3_4  and  C4_5 
REMARK    3  A    between atoms: C4_5  and  N1_6 
REMARK    4  A    between atoms: N1_6  and  C5_7 
REMARK    5  A    between atoms: C10_14  and  N4_15 
REMARK    6  A    between atoms: N4_15  and  C11_16 
ROOT
HETATM    1  C5  UNL     1       2.167  -0.009   0.870  1.00  0.00     0.029 A 
HETATM    2  C6  UNL     1       2.845  -1.168   0.493  1.00  0.00     0.031 A 
HETATM    3  C7  UNL     1       2.134  -2.173  -0.126  1.00  0.00     0.035 A 
HETATM    4  C8  UNL     1       0.790  -2.032  -0.365  1.00  0.00     0.072 A 
HETATM    5  N2  UNL     1       0.182  -3.074  -0.977  1.00  0.00    -0.241 NA
HETATM    6  C9  UNL     1      -1.132  -2.962  -1.220  1.00  0.00     0.236 A 
HETATM    7  N3  UNL     1      -1.811  -1.866  -0.873  1.00  0.00    -0.224 NA
HETATM    8  C10 UNL     1      -1.282  -0.803  -0.270  1.00  0.00     0.142 A 
HETATM    9  C17 UNL     1       0.063  -0.902  -0.013  1.00  0.00     0.041 A 
HETATM   10  C18 UNL     1       0.820   0.052   0.594  1.00  0.00     0.046 A 
ENDROOT
BRANCH   8  11
HETATM   11  N4  UNL     1      -1.975   0.369   0.107  1.00  0.00    -0.340 N 
HETATM   12  H8  UNL     1      -1.512   1.184   0.552  1.00  0.00     0.167 HD
BRANCH  11  13
HETATM   13  C11 UNL     1      -3.357   0.632  -0.043  1.00  0.00     0.035 A 
HETATM   14  C12 UNL     1      -4.277  -0.341  -0.354  1.00  0.00     0.032 A 
HETATM   15  C13 UNL     1      -5.627  -0.131  -0.522  1.00  0.00     0.046 A 
HETATM   16  C14 UNL     1      -6.135   1.142  -0.376  1.00  0.00     0.138 A 
HETATM   17  F1  UNL     1      -7.438   1.483  -0.515  1.00  0.00    -0.204 F 
HETATM   18  C15 UNL     1      -5.265   2.163  -0.065  1.00  0.00     0.074 A 
HETATM   19 CL1  UNL     1      -5.833   3.800   0.135  1.00  0.00    -0.081 Cl
HETATM   20  C16 UNL     1      -3.932   1.877   0.087  1.00  0.00     0.056 A 
ENDBRANCH  11  13
ENDBRANCH   8  11
BRANCH   1  21
HETATM   21  N1  UNL     1       2.858   1.037   1.503  1.00  0.00    -0.379 N 
HETATM   22  H4  UNL     1       2.335   1.900   1.788  1.00  0.00     0.160 HD
BRANCH  21  23
HETATM   23  C4  UNL     1       4.274   0.963   1.777  1.00  0.00     0.214 C 
BRANCH  23  24
HETATM   24  C3  UNL     1       5.051   0.840   0.524  1.00  0.00    -0.079 C 
HETATM   25  C2  UNL     1       5.676   0.757  -0.502  1.00  0.00    -0.036 C 
BRANCH  25  26
HETATM   26  C1  UNL     1       6.445   0.669  -1.724  1.00  0.00     0.323 C 
HETATM   27  O1  UNL     1       6.130   1.488  -2.651  1.00  0.00    -0.293 OA
ENDBRANCH  25  26
ENDBRANCH  23  24
ENDBRANCH  21  23
ENDBRANCH   1  21
TORSDOF 6
