REMARK  1 active torsions:
REMARK  status: ('A' for Active; 'I' for Inactive)
REMARK       I    between atoms: C3_3  and  N1_5 
REMARK    1  A    between atoms: N1_5  and  C4_6 
ROOT
HETATM    1  C1  UNL     1       5.851   3.078   1.181  1.00  0.00     0.022 C 
HETATM    2  C2  UNL     1       5.115   2.203   0.834  1.00  0.00    -0.016 C 
HETATM    3  C3  UNL     1       4.238   1.169   0.419  1.00  0.00     0.301 C 
HETATM    4  O1  UNL     1       4.791   0.149  -0.021  1.00  0.00    -0.258 OA
HETATM    5  N1  UNL     1       2.838   1.202   0.464  1.00  0.00    -0.300 N 
HETATM    6  H2  UNL     1       2.597   2.159   0.871  1.00  0.00     0.171 HD
ENDROOT
BRANCH   5   7
HETATM    7  C4  UNL     1       1.635   0.594   0.236  1.00  0.00     0.132 C 
HETATM    8  C5  UNL     1       1.301  -0.611  -0.260  1.00  0.00    -0.037 C 
HETATM    9  C6  UNL     1       2.426  -1.473  -0.650  1.00  0.00     0.047 C 
HETATM   10  C7  UNL     1       0.034  -1.283  -0.475  1.00  0.00     0.013 C 
HETATM   11  C8  UNL     1      -0.191  -2.494  -0.989  1.00  0.00     0.054 C 
HETATM   12  C9  UNL     1      -1.565  -2.981  -1.116  1.00  0.00    -0.004 C 
HETATM   13  C10 UNL     1      -2.938  -2.993  -1.035  1.00  0.00     0.081 C 
HETATM   14  N2  UNL     1      -3.672  -1.894  -0.502  1.00  0.00    -0.381 N 
HETATM   15  C11 UNL     1      -4.005  -0.486  -0.459  1.00  0.00     0.271 C 
HETATM   16  H10 UNL     1      -4.222  -2.455   0.227  1.00  0.00     0.160 HD
HETATM   17  N3  UNL     1      -2.953   0.377  -0.030  1.00  0.00    -0.264 NA
HETATM   18  C12 UNL     1      -3.270   1.560   0.447  1.00  0.00     0.228 C 
HETATM   19  N4  UNL     1      -1.890   1.581   0.544  1.00  0.00    -0.253 NA
HETATM   20  C13 UNL     1      -1.205   2.502   1.089  1.00  0.00     0.137 C 
HETATM   21  C14 UNL     1       0.277   2.308   1.078  1.00  0.00     0.138 C 
HETATM   22  N5  UNL     1       0.398   1.194   0.483  1.00  0.00    -0.242 NA
ENDBRANCH   5   7
TORSDOF 1
