REMARK  9 active torsions:
REMARK  status: ('A' for Active; 'I' for Inactive)
REMARK    1  A    between atoms: C2_2  and  N1_3 
REMARK    2  A    between atoms: N1_3  and  C3_4 
REMARK    3  A    between atoms: N1_3  and  C5_6 
REMARK    4  A    between atoms: C5_6  and  C6_7 
REMARK    5  A    between atoms: C6_7  and  C7_8 
REMARK    6  A    between atoms: C8_9  and  C9_10 
REMARK       I    between atoms: C9_10  and  N2_12 
REMARK    7  A    between atoms: N2_12  and  C10_13 
REMARK    8  A    between atoms: C15_20  and  N5_21 
REMARK    9  A    between atoms: N5_21  and  C16_22 
ROOT
HETATM    1  C10 UNL     1       1.710   1.860   0.376  1.00  0.00     0.036 A 
HETATM    2  C11 UNL     1       1.628   3.192   0.723  1.00  0.00     0.032 A 
HETATM    3  C12 UNL     1       2.689   3.737   1.402  1.00  0.00     0.035 A 
HETATM    4  C13 UNL     1       3.771   2.902   1.692  1.00  0.00     0.072 A 
HETATM    5  N3  UNL     1       4.764   3.525   2.373  1.00  0.00    -0.241 NA
HETATM    6  C14 UNL     1       5.857   2.819   2.716  1.00  0.00     0.236 A 
HETATM    7  N4  UNL     1       5.976   1.499   2.391  1.00  0.00    -0.224 NA
HETATM    8  C15 UNL     1       5.000   0.883   1.721  1.00  0.00     0.142 A 
HETATM    9  C22 UNL     1       3.864   1.569   1.349  1.00  0.00     0.041 A 
HETATM   10  C23 UNL     1       2.784   1.048   0.667  1.00  0.00     0.047 A 
ENDROOT
BRANCH   1  11
HETATM   11  N2  UNL     1       0.580   1.285  -0.333  1.00  0.00    -0.316 N 
HETATM   12  C9  UNL     1      -0.239   0.863   0.743  1.00  0.00     0.300 C 
HETATM   13  O1  UNL     1       0.196   1.088   1.925  1.00  0.00    -0.258 OA
HETATM   14  H15 UNL     1       0.153   1.065  -1.261  1.00  0.00     0.170 HD
BRANCH  12  15
HETATM   15  C8  UNL     1      -1.524   0.200   0.689  1.00  0.00    -0.005 C 
HETATM   16  C7  UNL     1      -2.577  -0.365   0.653  1.00  0.00    -0.095 C 
BRANCH  16  17
HETATM   17  C6  UNL     1      -3.882  -1.086   0.628  1.00  0.00     0.114 C 
BRANCH  17  18
HETATM   18  C5  UNL     1      -4.884  -0.213  -0.026  1.00  0.00     0.129 C 
BRANCH  18  19
HETATM   19  N1  UNL     1      -6.157  -0.825  -0.089  1.00  0.00    -0.412 N 
BRANCH  19  20
HETATM   20  C2  UNL     1      -7.209  -0.065  -0.628  1.00  0.00     0.112 C 
HETATM   21  C1  UNL     1      -7.815  -0.488  -1.917  1.00  0.00     0.026 C 
ENDBRANCH  19  20
BRANCH  19  22
HETATM   22  C3  UNL     1      -6.372  -2.110   0.397  1.00  0.00     0.112 C 
HETATM   23  C4  UNL     1      -6.684  -3.216  -0.568  1.00  0.00     0.026 C 
ENDBRANCH  19  22
ENDBRANCH  18  19
ENDBRANCH  17  18
ENDBRANCH  16  17
ENDBRANCH  12  15
ENDBRANCH   1  11
BRANCH   8  24
HETATM   24  N5  UNL     1       5.038  -0.490   1.340  1.00  0.00    -0.340 N 
HETATM   25  H19 UNL     1       4.578  -1.322   1.767  1.00  0.00     0.167 HD
BRANCH  24  26
HETATM   26  C16 UNL     1       5.835  -0.753   0.183  1.00  0.00     0.035 A 
HETATM   27  C17 UNL     1       5.899  -2.010  -0.430  1.00  0.00     0.032 A 
HETATM   28  C18 UNL     1       6.689  -2.241  -1.534  1.00  0.00     0.046 A 
HETATM   29  C19 UNL     1       7.455  -1.225  -2.080  1.00  0.00     0.138 A 
HETATM   30  F1  UNL     1       8.256  -1.393  -3.170  1.00  0.00    -0.204 F 
HETATM   31  C20 UNL     1       7.445   0.040  -1.533  1.00  0.00     0.074 A 
HETATM   32 CL1  UNL     1       8.380   1.391  -2.148  1.00  0.00    -0.081 Cl
HETATM   33  C21 UNL     1       6.635   0.203  -0.433  1.00  0.00     0.056 A 
ENDBRANCH  24  26
ENDBRANCH   8  24
TORSDOF 9
