REMARK  2 active torsions:
REMARK  status: ('A' for Active; 'I' for Inactive)
REMARK    1  A    between atoms: C2_2  and  C3_3 
REMARK    2  A    between atoms: N2_20  and  C17_21 
ROOT
HETATM    1  C3  UNL     1      -4.454   0.145  -0.532  1.00  0.00     0.130 C 
HETATM    2  C4  UNL     1      -3.945  -0.146   0.846  1.00  0.00     0.045 C 
HETATM    3  C5  UNL     1      -3.102  -0.544   1.844  1.00  0.00     0.127 C 
HETATM    4  F1  UNL     1      -2.657  -0.799   3.090  1.00  0.00    -0.205 F 
HETATM    5  C6  UNL     1      -2.061  -0.914   0.922  1.00  0.00     0.031 A 
HETATM    6  C7  UNL     1      -1.663  -1.680  -0.116  1.00  0.00     0.049 A 
HETATM    7  C8  UNL     1      -0.629  -1.843  -0.961  1.00  0.00     0.065 A 
HETATM    8  C9  UNL     1       0.472  -1.031  -0.857  1.00  0.00    -0.026 A 
HETATM    9  C10 UNL     1      -0.142  -0.431   0.161  1.00  0.00     0.040 A 
HETATM   10  C11 UNL     1      -1.068  -0.062   1.152  1.00  0.00     0.049 A 
HETATM   11  N1  UNL     1      -0.466   0.942   1.923  1.00  0.00    -0.315 N 
HETATM   12  C12 UNL     1       0.157   1.979   2.719  1.00  0.00     0.301 C 
HETATM   13  O1  UNL     1      -0.582   2.300   3.562  1.00  0.00    -0.258 OA
HETATM   14  C13 UNL     1       1.404   2.173   2.146  1.00  0.00    -0.005 C 
HETATM   15  C14 UNL     1       2.429   2.312   1.666  1.00  0.00    -0.095 C 
HETATM   16  C15 UNL     1       3.678   2.470   1.057  1.00  0.00     0.114 C 
HETATM   17  C16 UNL     1       3.874   1.617  -0.189  1.00  0.00     0.129 C 
HETATM   18  N2  UNL     1       3.840   0.225  -0.078  1.00  0.00    -0.412 N 
HETATM   19  C19 UNL     1       2.651  -0.500  -0.046  1.00  0.00     0.121 C 
HETATM   20  C20 UNL     1       1.814  -0.594  -1.301  1.00  0.00     0.060 C 
HETATM   21  N3  UNL     1      -0.385  -2.686  -2.080  1.00  0.00    -0.242 NA
HETATM   22  C21 UNL     1      -1.450  -2.721  -2.889  1.00  0.00     0.234 C 
HETATM   23  N4  UNL     1      -2.334  -1.873  -2.209  1.00  0.00    -0.237 NA
HETATM   24  C22 UNL     1      -3.617  -1.815  -2.302  1.00  0.00     0.204 C 
HETATM   25  N5  UNL     1      -4.368  -0.870  -1.508  1.00  0.00    -0.373 N 
HETATM   26  H8  UNL     1      -1.384   0.899   2.421  1.00  0.00     0.170 HD
HETATM   27  H24 UNL     1      -5.358  -1.061  -1.861  1.00  0.00     0.161 HD
ENDROOT
BRANCH   1  28
HETATM   28  C2  UNL     1      -5.811   0.732  -0.322  1.00  0.00    -0.008 C 
HETATM   29  C1  UNL     1      -5.985   1.670   0.579  1.00  0.00     0.009 C 
ENDBRANCH   1  28
BRANCH  18  30
HETATM   30  C17 UNL     1       4.954  -0.365   0.621  1.00  0.00     0.112 C 
HETATM   31  C18 UNL     1       6.168  -0.140  -0.295  1.00  0.00     0.026 C 
ENDBRANCH  18  30
TORSDOF 2
