REMARK  7 active torsions:
REMARK  status: ('A' for Active; 'I' for Inactive)
REMARK    1  A    between atoms: C2_2  and  N1_3 
REMARK    2  A    between atoms: N1_3  and  C4_5 
REMARK    3  A    between atoms: C4_5  and  C5_6 
REMARK    4  A    between atoms: C5_6  and  C6_7 
REMARK    5  A    between atoms: C7_8  and  C8_9 
REMARK       I    between atoms: C8_9  and  N2_11 
REMARK    6  A    between atoms: N2_11  and  C9_12 
REMARK    7  A    between atoms: C15_18  and  N3_19 
ROOT
HETATM    1  C9  UNL     1      -1.196  -1.855  -0.616  1.00  0.00     0.036 A 
HETATM    2  C10 UNL     1      -1.227  -3.025  -1.346  1.00  0.00     0.032 A 
HETATM    3  C11 UNL     1      -2.395  -3.368  -2.001  1.00  0.00     0.033 A 
HETATM    4  C12 UNL     1      -3.480  -2.523  -1.897  1.00  0.00     0.053 A 
HETATM    5  C13 UNL     1      -3.495  -1.346  -1.180  1.00  0.00     0.040 A 
HETATM    6  C14 UNL     1      -2.310  -1.045  -0.544  1.00  0.00     0.047 A 
HETATM    7  C15 UNL     1      -4.636  -0.458  -1.070  1.00  0.00     0.152 A 
HETATM    8  N4  UNL     1      -5.799  -0.606  -1.605  1.00  0.00    -0.176 NA
HETATM    9  S1  UNL     1      -6.146  -2.037  -2.615  1.00  0.00     0.093 SA
HETATM   10  N5  UNL     1      -4.629  -2.968  -2.607  1.00  0.00    -0.310 N 
HETATM   11  H21 UNL     1      -4.798  -3.806  -3.183  1.00  0.00     0.176 HD
ENDROOT
BRANCH   1  12
HETATM   12  N2  UNL     1      -0.010  -1.452   0.083  1.00  0.00    -0.316 N 
HETATM   13  C8  UNL     1       0.475  -1.693   1.393  1.00  0.00     0.300 C 
HETATM   14  O1  UNL     1      -0.036  -2.356   2.327  1.00  0.00    -0.258 OA
HETATM   15  H13 UNL     1       0.539  -0.871  -0.588  1.00  0.00     0.170 HD
BRANCH  13  16
HETATM   16  C7  UNL     1       1.755  -1.090   1.722  1.00  0.00    -0.005 C 
HETATM   17  C6  UNL     1       2.819  -0.577   2.014  1.00  0.00    -0.095 C 
BRANCH  17  18
HETATM   18  C5  UNL     1       4.101   0.044   2.385  1.00  0.00     0.114 C 
BRANCH  18  19
HETATM   19  C4  UNL     1       4.348   1.208   1.453  1.00  0.00     0.128 C 
BRANCH  19  20
HETATM   20  N1  UNL     1       4.404   0.786   0.096  1.00  0.00    -0.416 N 
HETATM   21  C3  UNL     1       4.094   1.781  -0.881  1.00  0.00     0.143 C 
BRANCH  20  22
HETATM   22  C2  UNL     1       5.531  -0.021  -0.267  1.00  0.00     0.112 C 
HETATM   23  C1  UNL     1       6.835   0.702  -0.272  1.00  0.00     0.026 C 
ENDBRANCH  20  22
ENDBRANCH  19  20
ENDBRANCH  18  19
ENDBRANCH  17  18
ENDBRANCH  13  16
ENDBRANCH   1  12
BRANCH   7  24
HETATM   24  N3  UNL     1      -4.450   0.712  -0.280  1.00  0.00    -0.335 N 
HETATM   25  C16 UNL     1      -3.801   1.909  -0.724  1.00  0.00     0.120 A 
HETATM   26  C17 UNL     1      -3.696   2.864   0.180  1.00  0.00     0.087 A 
HETATM   27 CL1  UNL     1      -2.913   4.318  -0.341  1.00  0.00    -0.080 Cl
HETATM   28  C18 UNL     1      -4.235   2.673   1.525  1.00  0.00     0.137 A 
HETATM   29  F1  UNL     1      -4.101   3.670   2.406  1.00  0.00    -0.205 F 
HETATM   30  C19 UNL     1      -4.841   1.589   1.931  1.00  0.00     0.037 A 
HETATM   31  C20 UNL     1      -5.034   0.427   1.015  1.00  0.00     0.160 A 
ENDBRANCH   7  24
TORSDOF 7
