REMARK  3 active torsions:
REMARK  status: ('A' for Active; 'I' for Inactive)
REMARK       I    between atoms: C3_3  and  N1_5 
REMARK    1  A    between atoms: N1_5  and  C4_6 
REMARK    2  A    between atoms: C7_9  and  N2_10 
REMARK    3  A    between atoms: N2_10  and  C8_11 
ROOT
HETATM    1  C1  UNL     1       5.755  -2.161  -3.368  1.00  0.00     0.022 C 
HETATM    2  C2  UNL     1       4.904  -2.203  -2.538  1.00  0.00    -0.016 C 
HETATM    3  C3  UNL     1       3.890  -2.227  -1.544  1.00  0.00     0.301 C 
HETATM    4  O1  UNL     1       3.847  -2.544  -0.338  1.00  0.00    -0.258 OA
HETATM    5  N1  UNL     1       2.544  -1.808  -1.872  1.00  0.00    -0.301 N 
HETATM    6  H2  UNL     1       2.276  -1.476  -2.833  1.00  0.00     0.171 HD
ENDROOT
BRANCH   5   7
HETATM    7  C4  UNL     1       1.686  -1.914  -0.746  1.00  0.00     0.131 A 
HETATM    8  C5  UNL     1       1.117  -0.809  -0.242  1.00  0.00     0.065 A 
HETATM    9  C6  UNL     1       0.220  -0.711   0.890  1.00  0.00     0.014 A 
HETATM   10  C7  UNL     1      -0.269   0.417   1.325  1.00  0.00     0.102 C 
HETATM   11  C14 UNL     1      -0.121  -1.966   1.583  1.00  0.00     0.098 A 
HETATM   12  N3  UNL     1      -0.912  -1.918   2.580  1.00  0.00    -0.172 NA
HETATM   13  C16 UNL     1       0.530  -3.112   0.985  1.00  0.00     0.152 A 
HETATM   14  C15 UNL     1      -1.318  -3.005   3.319  1.00  0.00     0.206 C 
HETATM   15  N4  UNL     1      -1.663  -3.903   3.924  1.00  0.00    -0.170 NA
HETATM   16  N5  UNL     1       1.313  -3.073  -0.026  1.00  0.00    -0.241 NA
BRANCH  10  17
HETATM   17  N2  UNL     1      -0.406   1.814   1.264  1.00  0.00    -0.365 N 
HETATM   18  H5  UNL     1       0.232   2.507   1.720  1.00  0.00     0.165 HD
BRANCH  17  19
HETATM   19  C8  UNL     1      -1.466   2.461   0.539  1.00  0.00     0.033 A 
HETATM   20  C9  UNL     1      -1.293   3.186  -0.605  1.00  0.00     0.029 A 
HETATM   21  C10 UNL     1      -2.390   3.745  -1.222  1.00  0.00     0.004 A 
HETATM   22  C11 UNL     1      -3.624   3.518  -0.608  1.00  0.00     0.019 A 
HETATM   23  C12 UNL     1      -3.809   2.788   0.549  1.00  0.00     0.013 A 
HETATM   24 BR1  UNL     1      -5.544   2.521   1.320  1.00  0.00    -0.051 Br
HETATM   25  C13 UNL     1      -2.704   2.242   1.143  1.00  0.00     0.048 A 
ENDBRANCH  17  19
ENDBRANCH  10  17
ENDBRANCH   5   7
TORSDOF 3
