REMARK  3 active torsions:
REMARK  status: ('A' for Active; 'I' for Inactive)
REMARK       I    between atoms: C3_3  and  N1_5 
REMARK    1  A    between atoms: C7_9  and  N2_10 
REMARK    2  A    between atoms: N2_10  and  N3_11 
REMARK    3  A    between atoms: N3_11  and  C8_12 
ROOT
HETATM    1  C1  UNL     1       5.417  -0.320  -3.799  1.00  0.00     0.023 C 
HETATM    2  C2  UNL     1       5.586  -0.177  -2.604  1.00  0.00    -0.014 C 
HETATM    3  C3  UNL     1       5.802   0.016  -1.177  1.00  0.00     0.322 C 
HETATM    4  O1  UNL     1       6.963   0.048  -0.718  1.00  0.00    -0.256 OA
HETATM    5  N1  UNL     1       4.676   0.163  -0.342  1.00  0.00    -0.201 N 
HETATM    6  C4  UNL     1       3.384   0.149  -0.691  1.00  0.00     0.136 A 
HETATM    7  C5  UNL     1       2.250   0.278   0.027  1.00  0.00     0.016 A 
HETATM    8  C6  UNL     1       0.897   0.283  -0.225  1.00  0.00     0.067 A 
HETATM    9  C7  UNL     1       0.291   0.466   1.010  1.00  0.00     0.143 A 
HETATM   10  N4  UNL     1       1.207   0.573   1.987  1.00  0.00    -0.228 NA
HETATM   11  C14 UNL     1       2.441   0.471   1.486  1.00  0.00     0.090 A 
HETATM   12  C15 UNL     1       3.775   0.479   1.805  1.00  0.00     0.171 A 
HETATM   13  N5  UNL     1       4.821   0.339   0.985  1.00  0.00    -0.175 NA
ENDROOT
BRANCH   9  14
HETATM   14  N2  UNL     1      -1.129   0.525   1.132  1.00  0.00    -0.284 N 
HETATM   15  H4  UNL     1      -1.665   1.306   1.541  1.00  0.00     0.188 HD
BRANCH  14  16
HETATM   16  N3  UNL     1      -1.887  -0.558   0.685  1.00  0.00    -0.299 N 
HETATM   17  H5  UNL     1      -1.510  -1.514   0.469  1.00  0.00     0.187 HD
BRANCH  16  18
HETATM   18  C8  UNL     1      -3.287  -0.523   0.448  1.00  0.00     0.049 A 
HETATM   19  C9  UNL     1      -4.065  -0.341   1.591  1.00  0.00     0.031 A 
HETATM   20  C10 UNL     1      -5.457  -0.294   1.549  1.00  0.00     0.004 A 
HETATM   21  C11 UNL     1      -6.073  -0.432   0.323  1.00  0.00     0.019 A 
HETATM   22  C12 UNL     1      -5.332  -0.614  -0.825  1.00  0.00     0.013 A 
HETATM   23 BR1  UNL     1      -6.025  -0.828  -2.585  1.00  0.00    -0.051 Br
HETATM   24  C13 UNL     1      -3.961  -0.657  -0.756  1.00  0.00     0.050 A 
ENDBRANCH  16  18
ENDBRANCH  14  16
ENDBRANCH   9  14
TORSDOF 3
