REMARK  3 active torsions:
REMARK  status: ('A' for Active; 'I' for Inactive)
REMARK       I    between atoms: C3_3  and  N1_5 
REMARK    1  A    between atoms: N1_5  and  C4_6 
REMARK    2  A    between atoms: C8_12  and  N4_13 
REMARK    3  A    between atoms: N4_13  and  C9_14 
ROOT
HETATM    1  C1  UNL     1       3.186   4.568   0.897  1.00  0.00     0.022 C 
HETATM    2  C2  UNL     1       3.130   3.388   0.579  1.00  0.00    -0.016 C 
HETATM    3  C3  UNL     1       3.087   1.985   0.189  1.00  0.00     0.301 C 
HETATM    4  O1  UNL     1       4.066   1.472  -0.431  1.00  0.00    -0.258 OA
HETATM    5  N1  UNL     1       1.940   1.250   0.526  1.00  0.00    -0.300 N 
HETATM    6  H2  UNL     1       1.202   1.735   1.037  1.00  0.00     0.171 HD
ENDROOT
BRANCH   5   7
HETATM    7  C4  UNL     1       2.091  -0.072   0.068  1.00  0.00     0.137 C 
HETATM    8  C5  UNL     1       1.010  -0.738   0.391  1.00  0.00     0.015 C 
HETATM    9  C6  UNL     1       0.603  -1.739  -0.735  1.00  0.00     0.104 C 
HETATM   10  C8  UNL     1       0.088  -1.036   1.497  1.00  0.00     0.234 C 
HETATM   11  C7  UNL     1       1.758  -2.615  -0.163  1.00  0.00     0.076 C 
HETATM   12  N2  UNL     1       1.080  -3.412   0.661  1.00  0.00    -0.180 NA
HETATM   13  C15 UNL     1       3.043  -2.102  -0.660  1.00  0.00     0.148 C 
HETATM   14  N3  UNL     1       0.399  -2.570   1.722  1.00  0.00    -0.286 N 
HETATM   15  H5  UNL     1       0.161  -3.060   2.594  1.00  0.00     0.185 HD
HETATM   16  N5  UNL     1       3.179  -0.788  -0.500  1.00  0.00    -0.241 NA
BRANCH  10  17
HETATM   17  N4  UNL     1      -1.256  -1.101   1.004  1.00  0.00    -0.364 N 
HETATM   18  H7  UNL     1      -1.788  -1.987   1.240  1.00  0.00     0.162 HD
BRANCH  17  19
HETATM   19  C9  UNL     1      -2.208  -0.336   0.263  1.00  0.00     0.031 A 
HETATM   20  C10 UNL     1      -3.515  -0.649  -0.078  1.00  0.00     0.029 A 
HETATM   21  C11 UNL     1      -4.271   0.225  -0.807  1.00  0.00     0.004 A 
HETATM   22  C12 UNL     1      -3.820   1.437  -1.247  1.00  0.00     0.019 A 
HETATM   23  C13 UNL     1      -2.525   1.785  -0.928  1.00  0.00     0.013 A 
HETATM   24 BR1  UNL     1      -1.916   3.475  -1.548  1.00  0.00    -0.051 Br
HETATM   25  C14 UNL     1      -1.780   0.892  -0.194  1.00  0.00     0.048 A 
ENDBRANCH  17  19
ENDBRANCH  10  17
ENDBRANCH   5   7
TORSDOF 3
