REMARK  4 active torsions:
REMARK  status: ('A' for Active; 'I' for Inactive)
REMARK    1  A    between atoms: C3_3  and  N1_4 
REMARK    2  A    between atoms: C3_3  and  C4_5 
REMARK    3  A    between atoms: C7_8  and  N2_9 
REMARK    4  A    between atoms: N2_9  and  C8_10 
ROOT
HETATM    1  C1  UNL     1      -4.131   2.930  -0.384  1.00  0.00     0.014 C 
HETATM    2  C2  UNL     1      -4.101   1.737  -0.432  1.00  0.00    -0.076 C 
HETATM    3  C3  UNL     1      -4.050   0.299  -0.509  1.00  0.00     0.344 C 
ENDROOT
BRANCH   3   4
HETATM    4  N1  UNL     1      -4.727  -0.188  -1.694  1.00  0.00     0.100 N 
HETATM    5  H3  UNL     1      -5.324  -1.001  -1.499  1.00  0.00     0.315 HD
HETATM    6  H4  UNL     1      -5.120   0.539  -2.297  1.00  0.00     0.315 HD
ENDBRANCH   3   4
BRANCH   3   7
HETATM    7  C4  UNL     1      -2.600  -0.095  -0.610  1.00  0.00     0.051 C 
HETATM    8  C5  UNL     1      -1.551   0.759  -0.517  1.00  0.00     0.011 C 
HETATM    9  C6  UNL     1      -0.093   1.126  -0.511  1.00  0.00     0.169 C 
HETATM   10  C7  UNL     1       0.910   0.194  -0.697  1.00  0.00     0.111 C 
HETATM   11  N3  UNL     1       1.101  -1.245  -0.964  1.00  0.00    -0.256 NA
HETATM   12  C14 UNL     1       0.235  -2.028  -0.319  1.00  0.00     0.230 C 
HETATM   13  N4  UNL     1      -0.441  -3.225   0.132  1.00  0.00    -0.239 NA
HETATM   14  C15 UNL     1      -1.309  -3.635  -0.752  1.00  0.00     0.103 C 
HETATM   15  C16 UNL     1      -1.883  -2.660  -1.448  1.00  0.00     0.122 C 
HETATM   16  N5  UNL     1      -2.330  -1.496  -0.790  1.00  0.00    -0.365 N 
HETATM   17  H14 UNL     1      -2.727  -1.772   0.165  1.00  0.00     0.165 HD
BRANCH  10  18
HETATM   18  N2  UNL     1       2.136   0.884  -0.627  1.00  0.00    -0.366 N 
HETATM   19  H7  UNL     1       2.326   1.600  -1.391  1.00  0.00     0.162 HD
BRANCH  18  20
HETATM   20  C8  UNL     1       3.176   0.749   0.349  1.00  0.00     0.030 A 
HETATM   21  C9  UNL     1       4.349   1.489   0.316  1.00  0.00     0.029 A 
HETATM   22  C10 UNL     1       5.280   1.273   1.311  1.00  0.00     0.004 A 
HETATM   23  C11 UNL     1       5.121   0.365   2.343  1.00  0.00     0.019 A 
HETATM   24  C12 UNL     1       3.945  -0.356   2.351  1.00  0.00     0.013 A 
HETATM   25 BR1  UNL     1       3.741  -1.603   3.779  1.00  0.00    -0.051 Br
HETATM   26  C13 UNL     1       2.989  -0.163   1.365  1.00  0.00     0.048 A 
ENDBRANCH  18  20
ENDBRANCH  10  18
ENDBRANCH   3   7
TORSDOF 4
