REMARK  2 active torsions:
REMARK  status: ('A' for Active; 'I' for Inactive)
REMARK    1  A    between atoms: C5_8  and  N3_9 
REMARK    2  A    between atoms: N3_9  and  C6_10 
ROOT
HETATM    1  O1  UNL     1      -1.722   2.688  -0.896  1.00  0.00    -0.271 OA
HETATM    2  C1  UNL     1      -1.841   1.425  -1.138  1.00  0.00     0.249 C 
HETATM    3  N1  UNL     1      -1.368   0.139  -1.497  1.00  0.00    -0.211 NA
HETATM    4  C2  UNL     1      -0.397  -0.117  -2.255  1.00  0.00     0.103 C 
HETATM    5  C3  UNL     1       0.411   0.894  -2.379  1.00  0.00     0.041 C 
HETATM    6  C4  UNL     1       0.565   1.494  -1.245  1.00  0.00     0.102 C 
HETATM    7  N2  UNL     1       0.693   0.677  -0.286  1.00  0.00    -0.228 NA
HETATM    8  C5  UNL     1       1.053  -0.677  -0.369  1.00  0.00     0.128 C 
HETATM    9  C12 UNL     1       0.524  -1.815   0.126  1.00  0.00     0.050 C 
HETATM   10  C13 UNL     1      -0.659  -2.013   0.950  1.00  0.00     0.002 C 
HETATM   11  C14 UNL     1      -1.589  -1.239   1.490  1.00  0.00     0.003 C 
HETATM   12  C15 UNL     1      -2.137   0.090   1.707  1.00  0.00     0.300 C 
HETATM   13  N4  UNL     1      -3.489   0.294   1.209  1.00  0.00     0.092 N 
HETATM   14  C16 UNL     1      -3.842  -0.654   0.200  1.00  0.00     0.273 C 
HETATM   15  C17 UNL     1      -3.882   0.059  -1.105  1.00  0.00     0.046 C 
HETATM   16  C18 UNL     1      -3.301   1.425  -0.860  1.00  0.00     0.110 C 
HETATM   17  C19 UNL     1      -3.598   1.617   0.608  1.00  0.00     0.286 C 
ENDROOT
BRANCH   8  18
HETATM   18  N3  UNL     1       2.223  -0.696  -1.143  1.00  0.00    -0.338 N 
HETATM   19  H1  UNL     1       2.368  -0.921  -2.174  1.00  0.00     0.167 HD
BRANCH  18  20
HETATM   20  C6  UNL     1       3.437  -0.370  -0.484  1.00  0.00     0.074 A 
HETATM   21  C7  UNL     1       4.694  -0.332  -1.098  1.00  0.00     0.033 A 
HETATM   22  C8  UNL     1       5.866  -0.022  -0.474  1.00  0.00     0.004 A 
HETATM   23  C9  UNL     1       5.841   0.284   0.868  1.00  0.00     0.027 A 
HETATM   24  C10 UNL     1       4.652   0.273   1.555  1.00  0.00     0.074 A 
HETATM   25 CL1  UNL     1       4.637   0.664   3.259  1.00  0.00    -0.081 Cl
HETATM   26  C11 UNL     1       3.507  -0.050   0.859  1.00  0.00     0.164 A 
HETATM   27  F1  UNL     1       2.370  -0.041   1.608  1.00  0.00    -0.202 F 
ENDBRANCH  18  20
ENDBRANCH   8  18
TORSDOF 2
