REMARK  1 active torsions:
REMARK  status: ('A' for Active; 'I' for Inactive)
REMARK    1  A    between atoms: O1_1  and  C1_2 
ROOT
HETATM    1  C1  UNL     1       2.434   2.525  -0.098  1.00  0.00     0.133 C 
HETATM    2  C2  UNL     1       1.337   3.217   0.309  1.00  0.00     0.187 C 
HETATM    3  C3  UNL     1      -0.058   2.919   0.087  1.00  0.00     0.034 C 
HETATM    4  C4  UNL     1      -0.990   2.154  -0.441  1.00  0.00     0.126 C 
HETATM    5  N1  UNL     1       0.074   1.324  -1.010  1.00  0.00    -0.225 NA
HETATM    6  C5  UNL     1      -0.029   0.336  -1.899  1.00  0.00     0.236 C 
HETATM    7  N2  UNL     1      -0.837  -0.861  -1.618  1.00  0.00    -0.240 NA
HETATM    8  C6  UNL     1      -1.395  -1.165  -0.428  1.00  0.00     0.089 C 
HETATM    9  C7  UNL     1      -0.251  -2.026  -0.213  1.00  0.00     0.143 C 
HETATM   10  N3  UNL     1       0.942  -1.604   0.150  1.00  0.00    -0.299 NA
HETATM   11  C8  UNL     1       2.021  -2.535   0.335  1.00  0.00     0.148 C 
HETATM   12  C9  UNL     1       3.149  -2.158  -0.586  1.00  0.00     0.027 C 
HETATM   13  C10 UNL     1       3.926  -0.953  -0.292  1.00  0.00     0.048 C 
HETATM   14  C11 UNL     1       3.312   0.341  -0.171  1.00  0.00     0.086 C 
HETATM   15  N4  UNL     1       3.418   1.575  -0.668  1.00  0.00    -0.273 NA
HETATM   16  C12 UNL     1      -2.654  -0.585   0.041  1.00  0.00     0.046 A 
HETATM   17  C13 UNL     1      -3.010   0.789   0.004  1.00  0.00     0.048 A 
HETATM   18  C14 UNL     1      -4.246   1.058   0.525  1.00  0.00     0.033 A 
HETATM   19  C15 UNL     1      -5.073   0.115   1.037  1.00  0.00     0.046 A 
HETATM   20  C16 UNL     1      -4.711  -1.209   1.063  1.00  0.00     0.139 A 
HETATM   21  F1  UNL     1      -5.523  -2.146   1.566  1.00  0.00    -0.204 F 
HETATM   22  C17 UNL     1      -3.479  -1.549   0.554  1.00  0.00     0.087 A 
HETATM   23 CL1  UNL     1      -2.896  -3.188   0.526  1.00  0.00    -0.080 Cl
HETATM   24  N5  UNL     1      -2.399   2.037  -0.461  1.00  0.00    -0.340 N 
HETATM   25  H15 UNL     1      -3.083   2.746  -0.775  1.00  0.00     0.167 HD
ENDROOT
BRANCH   1  26
HETATM   26  O1  UNL     1       3.594   3.200   0.350  1.00  0.00    -0.374 OA
HETATM   27  H1  UNL     1       3.692   3.235   1.357  1.00  0.00     0.212 HD
ENDBRANCH   1  26
TORSDOF 1
