REMARK  7 active torsions:
REMARK  status: ('A' for Active; 'I' for Inactive)
REMARK    1  A    between atoms: N1_1  and  C1_2 
REMARK    2  A    between atoms: C2_3  and  C3_5 
REMARK    3  A    between atoms: C4_6  and  C5_7 
REMARK    4  A    between atoms: C5_7  and  C6_8 
REMARK    5  A    between atoms: C6_8  and  N2_9 
REMARK    6  A    between atoms: N2_9  and  C7_10 
REMARK    7  A    between atoms: C7_10  and  S1_11 
ROOT
HETATM    1  N2  UNL     1      -0.033   1.321  -1.986  1.00  0.00    -0.360 N 
HETATM    2  H8  UNL     1      -0.087   1.886  -2.863  1.00  0.00     0.166 HD
ENDROOT
BRANCH   1   3
HETATM    3  C6  UNL     1       0.987   0.397  -1.639  1.00  0.00     0.089 C 
BRANCH   3   4
HETATM    4  C5  UNL     1       1.800   0.343  -0.600  1.00  0.00     0.017 C 
BRANCH   4   5
HETATM    5  C4  UNL     1       2.818  -0.672  -0.356  1.00  0.00     0.003 C 
HETATM    6  C3  UNL     1       3.546  -0.575   0.736  1.00  0.00     0.025 C 
BRANCH   6   7
HETATM    7  C2  UNL     1       4.527  -1.639   0.877  1.00  0.00     0.044 C 
HETATM    8  C1  UNL     1       5.267  -1.563   1.962  1.00  0.00     0.078 C 
HETATM    9 CL1  UNL     1       4.768  -2.958  -0.240  1.00  0.00    -0.083 Cl
BRANCH   8  10
HETATM   10  N1  UNL     1       6.259  -1.931   2.904  1.00  0.00    -0.311 NA
HETATM   11  H1  UNL     1       7.217  -2.237   2.639  1.00  0.00     0.123 HD
HETATM   12  H2  UNL     1       7.240  -2.245   2.652  1.00  0.00     0.123 HD
ENDBRANCH   8  10
ENDBRANCH   6   7
ENDBRANCH   4   5
ENDBRANCH   3   4
ENDBRANCH   1   3
BRANCH   1  13
HETATM   13  C7  UNL     1      -1.063   1.524  -1.120  1.00  0.00     0.077 C 
HETATM   14  C8  UNL     1      -2.171   1.514  -0.449  1.00  0.00     0.029 C 
HETATM   15  C9  UNL     1      -3.111   1.992   0.678  1.00  0.00     0.214 C 
HETATM   16  C13 UNL     1      -3.018   0.447  -1.084  1.00  0.00     0.082 C 
HETATM   17  O1  UNL     1      -3.709   0.755   1.130  1.00  0.00    -0.359 OA
HETATM   18  C10 UNL     1      -4.722   0.386   0.244  1.00  0.00     0.264 C 
HETATM   19  C11 UNL     1      -4.769  -1.048  -0.206  1.00  0.00     0.204 C 
HETATM   20  N4  UNL     1      -4.272   1.023  -1.075  1.00  0.00    -0.254 NA
HETATM   21  N3  UNL     1      -4.037  -1.159  -1.550  1.00  0.00    -0.295 NA
HETATM   22  C12 UNL     1      -2.700  -0.984  -1.401  1.00  0.00     0.142 C 
BRANCH  13  23
HETATM   23  S1  UNL     1      -0.278   2.826  -0.116  1.00  0.00    -0.125 SA
HETATM   24  H9  UNL     1      -0.759   4.050  -0.625  1.00  0.00     0.108 HD
ENDBRANCH  13  23
ENDBRANCH   1  13
TORSDOF 7
