REMARK  7 active torsions:
REMARK  status: ('A' for Active; 'I' for Inactive)
REMARK    1  A    between atoms: C2_2  and  C3_3 
REMARK    2  A    between atoms: C3_3  and  C4_4 
REMARK    3  A    between atoms: C5_5  and  C6_6 
REMARK    4  A    between atoms: C6_6  and  N1_7 
REMARK    5  A    between atoms: N1_7  and  C7_8 
REMARK    6  A    between atoms: C10_11  and  N2_12 
REMARK    7  A    between atoms: N2_12  and  C11_13 
ROOT
HETATM    1  C7  UNL     1       0.652   2.270   0.264  1.00  0.00     0.124 A 
HETATM    2  C8  UNL     1      -0.526   1.577   0.092  1.00  0.00     0.068 A 
HETATM    3  C9  UNL     1      -1.794   2.116   0.102  1.00  0.00     0.044 A 
HETATM    4  C10 UNL     1      -2.950   1.390  -0.075  1.00  0.00     0.142 A 
HETATM    5  N3  UNL     1      -4.063   2.115  -0.030  1.00  0.00    -0.224 NA
HETATM    6  C17 UNL     1      -4.113   3.436   0.166  1.00  0.00     0.236 A 
HETATM    7  N4  UNL     1      -2.964   4.142   0.340  1.00  0.00    -0.240 NA
HETATM    8  C18 UNL     1      -1.782   3.474   0.308  1.00  0.00     0.089 A 
HETATM    9  C19 UNL     1      -0.658   4.232   0.486  1.00  0.00     0.151 A 
HETATM   10  N5  UNL     1       0.538   3.617   0.461  1.00  0.00    -0.241 NA
ENDROOT
BRANCH   4  11
HETATM   11  N2  UNL     1      -2.868  -0.007  -0.272  1.00  0.00    -0.340 N 
HETATM   12  H12 UNL     1      -1.977  -0.517  -0.261  1.00  0.00     0.167 HD
BRANCH  11  13
HETATM   13  C11 UNL     1      -3.937  -0.905  -0.506  1.00  0.00     0.035 A 
HETATM   14  C12 UNL     1      -5.217  -0.495  -0.770  1.00  0.00     0.032 A 
HETATM   15  C13 UNL     1      -6.284  -1.338  -0.994  1.00  0.00     0.046 A 
HETATM   16  C14 UNL     1      -6.099  -2.702  -0.961  1.00  0.00     0.138 A 
HETATM   17  F1  UNL     1      -7.080  -3.588  -1.167  1.00  0.00    -0.204 F 
HETATM   18  C15 UNL     1      -4.834  -3.167  -0.701  1.00  0.00     0.074 A 
HETATM   19 CL1  UNL     1      -4.542  -4.875  -0.646  1.00  0.00    -0.081 Cl
HETATM   20  C16 UNL     1      -3.816  -2.277  -0.487  1.00  0.00     0.056 A 
ENDBRANCH  11  13
ENDBRANCH   4  11
BRANCH   1  21
HETATM   21  N1  UNL     1       1.923   1.632   0.239  1.00  0.00    -0.364 N 
HETATM   22  H10 UNL     1       2.767   2.232   0.378  1.00  0.00     0.162 HD
BRANCH  21  23
HETATM   23  C6  UNL     1       1.964   0.213   0.027  1.00  0.00     0.215 C 
BRANCH  23  24
HETATM   24  C5  UNL     1       3.397  -0.168   0.052  1.00  0.00    -0.087 C 
HETATM   25  C4  UNL     1       4.575  -0.462   0.067  1.00  0.00    -0.105 C 
BRANCH  25  26
HETATM   26  C3  UNL     1       5.990  -0.834   0.076  1.00  0.00     0.093 C 
BRANCH  26  27
HETATM   27  C2  UNL     1       6.254  -1.978   1.032  1.00  0.00     0.007 C 
HETATM   28  C1  UNL     1       7.691  -2.403   1.082  1.00  0.00     0.006 C 
ENDBRANCH  26  27
ENDBRANCH  25  26
ENDBRANCH  23  24
ENDBRANCH  21  23
ENDBRANCH   1  21
TORSDOF 7
