REMARK  7 active torsions:
REMARK  status: ('A' for Active; 'I' for Inactive)
REMARK    1  A    between atoms: C2_2  and  C3_3 
REMARK    2  A    between atoms: C3_3  and  C4_4 
REMARK    3  A    between atoms: C5_5  and  C6_6 
REMARK    4  A    between atoms: C6_6  and  N1_8 
REMARK    5  A    between atoms: N1_8  and  C8_9 
REMARK    6  A    between atoms: C9_10  and  N2_11 
REMARK    7  A    between atoms: N2_11  and  C10_12 
ROOT
HETATM    1  C8  UNL     1      -1.173  -1.274  -0.523  1.00  0.00     0.136 C 
HETATM    2  C9  UNL     1      -2.193  -0.427  -0.295  1.00  0.00     0.172 C 
HETATM    3  N3  UNL     1      -3.481   0.008   0.046  1.00  0.00    -0.221 NA
HETATM    4  C16 UNL     1      -4.578  -0.632   0.037  1.00  0.00     0.237 C 
HETATM    5  N4  UNL     1      -4.713  -2.022  -0.348  1.00  0.00    -0.230 NA
HETATM    6  C17 UNL     1      -4.486  -2.940   0.570  1.00  0.00     0.252 C 
HETATM    7  O1  UNL     1      -4.768  -3.946  -0.410  1.00  0.00    -0.343 OA
HETATM    8  C18 UNL     1      -3.504  -4.369  -1.011  1.00  0.00     0.206 C 
HETATM    9  C19 UNL     1      -2.577  -3.173  -0.955  1.00  0.00     0.327 C 
HETATM   10  N5  UNL     1      -2.056  -2.321  -0.179  1.00  0.00    -0.390 NA
ENDROOT
BRANCH   2  11
HETATM   11  N2  UNL     1      -1.813   0.947  -0.518  1.00  0.00    -0.338 N 
HETATM   12  H13 UNL     1      -1.680   1.047  -1.567  1.00  0.00     0.167 HD
BRANCH  11  13
HETATM   13  C10 UNL     1      -1.610   2.071   0.349  1.00  0.00     0.035 A 
HETATM   14  C11 UNL     1      -1.806   1.888   1.705  1.00  0.00     0.032 A 
HETATM   15  C12 UNL     1      -1.592   3.016   2.464  1.00  0.00     0.046 A 
HETATM   16  C13 UNL     1      -1.217   4.232   1.961  1.00  0.00     0.138 A 
HETATM   17  F1  UNL     1      -1.003   5.351   2.681  1.00  0.00    -0.204 F 
HETATM   18  C14 UNL     1      -1.049   4.308   0.604  1.00  0.00     0.074 A 
HETATM   19 CL1  UNL     1      -0.569   5.837  -0.137  1.00  0.00    -0.081 Cl
HETATM   20  C15 UNL     1      -1.239   3.238  -0.235  1.00  0.00     0.056 A 
ENDBRANCH  11  13
ENDBRANCH   2  11
BRANCH   1  21
HETATM   21  N1  UNL     1       0.082  -0.809  -0.928  1.00  0.00    -0.359 N 
HETATM   22  H12 UNL     1       0.138   0.148  -1.316  1.00  0.00     0.162 HD
BRANCH  21  23
HETATM   23  C6  UNL     1       1.197  -1.681  -0.782  1.00  0.00     0.159 C 
HETATM   24  C7  UNL     1       1.305  -2.201   0.629  1.00  0.00     0.046 C 
BRANCH  23  25
HETATM   25  C5  UNL     1       2.394  -0.888  -1.151  1.00  0.00    -0.082 C 
HETATM   26  C4  UNL     1       3.363  -0.229  -1.439  1.00  0.00    -0.104 C 
BRANCH  26  27
HETATM   27  C3  UNL     1       4.545   0.590  -1.770  1.00  0.00     0.093 C 
BRANCH  27  28
HETATM   28  C2  UNL     1       5.310   0.937  -0.488  1.00  0.00     0.007 C 
HETATM   29  C1  UNL     1       6.522   1.769  -0.738  1.00  0.00     0.006 C 
ENDBRANCH  27  28
ENDBRANCH  26  27
ENDBRANCH  23  25
ENDBRANCH  21  23
ENDBRANCH   1  21
TORSDOF 7
