REMARK  8 active torsions:
REMARK  status: ('A' for Active; 'I' for Inactive)
REMARK    1  A    between atoms: C2_2  and  C3_3 
REMARK    2  A    between atoms: C3_3  and  C4_4 
REMARK    3  A    between atoms: C5_5  and  C6_6 
REMARK       I    between atoms: C6_6  and  N1_8 
REMARK    4  A    between atoms: N1_8  and  C7_9 
REMARK    5  A    between atoms: C9_11  and  S1_12 
REMARK    6  A    between atoms: S1_12  and  C10_13 
REMARK    7  A    between atoms: C10_13  and  C11_14 
REMARK    8  A    between atoms: C12_15  and  C13_17 
ROOT
HETATM    1  C7  UNL     1       0.184  -1.901  -0.321  1.00  0.00     0.234 C 
HETATM    2  C8  UNL     1      -1.109  -1.154  -0.195  1.00  0.00     0.060 C 
HETATM    3  C9  UNL     1      -2.416  -1.402  -0.162  1.00  0.00     0.095 C 
HETATM    4  N2  UNL     1      -2.565  -2.801  -0.297  1.00  0.00    -0.235 NA
HETATM    5  C14 UNL     1      -2.505  -3.671   0.654  1.00  0.00     0.234 C 
HETATM    6  N3  UNL     1      -2.580  -5.068   1.009  1.00  0.00    -0.240 NA
HETATM    7  C15 UNL     1      -1.513  -5.622   1.418  1.00  0.00     0.088 C 
HETATM    8  C16 UNL     1      -0.404  -5.485   0.704  1.00  0.00     0.053 C 
HETATM    9  C17 UNL     1      -0.267  -4.185   0.067  1.00  0.00     0.115 C 
HETATM   10  N4  UNL     1       0.167  -3.057   0.574  1.00  0.00    -0.272 NA
ENDROOT
BRANCH   1  11
HETATM   11  N1  UNL     1       1.285  -1.013  -0.012  1.00  0.00    -0.324 N 
HETATM   12  C6  UNL     1       2.275  -0.835  -1.013  1.00  0.00     0.298 C 
HETATM   13  O1  UNL     1       2.219  -1.422  -2.144  1.00  0.00    -0.258 OA
HETATM   14  H8  UNL     1       1.393  -0.502   0.891  1.00  0.00     0.165 HD
BRANCH  12  15
HETATM   15  C5  UNL     1       3.428   0.027  -0.827  1.00  0.00    -0.006 C 
HETATM   16  C4  UNL     1       4.398   0.731  -0.684  1.00  0.00    -0.096 C 
BRANCH  16  17
HETATM   17  C3  UNL     1       5.585   1.570  -0.513  1.00  0.00     0.094 C 
BRANCH  17  18
HETATM   18  C2  UNL     1       5.539   2.126   0.892  1.00  0.00     0.007 C 
HETATM   19  C1  UNL     1       6.793   2.994   1.029  1.00  0.00     0.006 C 
ENDBRANCH  17  18
ENDBRANCH  16  17
ENDBRANCH  12  15
ENDBRANCH   1  11
BRANCH   3  20
HETATM   20  S1  UNL     1      -3.860  -0.401  -0.005  1.00  0.00    -0.107 SA
BRANCH  20  21
HETATM   21  C10 UNL     1      -3.491   1.362   0.160  1.00  0.00     0.111 C 
BRANCH  21  22
HETATM   22  C11 UNL     1      -4.740   2.160   0.289  1.00  0.00     0.022 C 
HETATM   23  C12 UNL     1      -5.166   3.119  -0.506  1.00  0.00     0.104 C 
HETATM   24  F1  UNL     1      -4.426   3.465  -1.584  1.00  0.00    -0.210 F 
BRANCH  23  25
HETATM   25  C13 UNL     1      -6.458   3.751  -0.135  1.00  0.00     0.184 C 
HETATM   26 CL1  UNL     1      -7.067   2.982   1.343  1.00  0.00    -0.123 Cl
ENDBRANCH  23  25
ENDBRANCH  21  22
ENDBRANCH  20  21
ENDBRANCH   3  20
TORSDOF 8
