REMARK  8 active torsions:
REMARK  status: ('A' for Active; 'I' for Inactive)
REMARK    1  A    between atoms: B1_1  and  C1_2 
REMARK    2  A    between atoms: C3_4  and  N1_5 
REMARK    3  A    between atoms: N1_5  and  C4_6 
REMARK    4  A    between atoms: C9_13  and  O1_14 
REMARK    5  A    between atoms: O1_14  and  C10_15 
REMARK    6  A    between atoms: C10_15  and  C11_16 
REMARK    7  A    between atoms: C11_16  and  C12_17 
REMARK    8  A    between atoms: C12_17  and  N4_18 
ROOT
HETATM    1  C4  UNL     1       3.173  -0.916  -0.631  1.00  0.00     0.141 A 
HETATM    2  N2  UNL     1       3.979  -1.718  -1.320  1.00  0.00    -0.224 NA
HETATM    3  C5  UNL     1       3.677  -2.891  -1.861  1.00  0.00     0.235 A 
HETATM    4  N3  UNL     1       2.424  -3.345  -1.712  1.00  0.00    -0.243 NA
HETATM    5  C6  UNL     1       1.537  -2.622  -1.041  1.00  0.00     0.079 A 
HETATM    6  C7  UNL     1       1.896  -1.408  -0.497  1.00  0.00     0.042 A 
HETATM    7  C8  UNL     1       0.814  -0.736   0.208  1.00  0.00     0.081 A 
HETATM    8  C9  UNL     1      -0.411  -1.209   0.338  1.00  0.00     0.181 A 
HETATM    9  O3  UNL     1      -0.722  -2.424  -0.223  1.00  0.00    -0.319 OA
HETATM   10  C17 UNL     1       0.181  -3.214  -0.937  1.00  0.00     0.179 A 
HETATM   11  C18 UNL     1       0.347  -4.584  -0.306  1.00  0.00     0.047 C 
ENDROOT
BRANCH   1  12
HETATM   12  N1  UNL     1       3.486   0.326  -0.058  1.00  0.00    -0.340 N 
HETATM   13  H4  UNL     1       2.791   0.868   0.468  1.00  0.00     0.167 HD
BRANCH  12  14
HETATM   14  C3  UNL     1       4.713   1.033  -0.078  1.00  0.00     0.033 A 
HETATM   15  C2  UNL     1       4.952   2.240   0.581  1.00  0.00     0.026 A 
HETATM   16  C1  UNL     1       6.151   2.901   0.538  1.00  0.00    -0.069 A 
HETATM   17  C21 UNL     1       7.211   2.401  -0.172  1.00  0.00     0.111 A 
HETATM   18  C20 UNL     1       7.019   1.212  -0.838  1.00  0.00     0.044 A 
HETATM   19  F1  UNL     1       8.358   3.108  -0.167  1.00  0.00    -0.207 F 
HETATM   20  C19 UNL     1       5.802   0.571  -0.776  1.00  0.00     0.032 A 
BRANCH  16  21
HETATM   21  B1  UNL     1       6.270   4.239   1.323  1.00  0.00     0.178 B 
HETATM   22  H1  UNL     1       5.332   4.947   1.356  1.00  0.00    -0.026 HD
HETATM   23  H2  UNL     1       7.024   4.280   2.230  1.00  0.00    -0.026 HD
ENDBRANCH  16  21
ENDBRANCH  12  14
ENDBRANCH   1  12
BRANCH   8  24
HETATM   24  O1  UNL     1      -1.417  -0.552   1.011  1.00  0.00    -0.331 OA
BRANCH  24  25
HETATM   25  C10 UNL     1      -1.713   0.824   0.762  1.00  0.00     0.179 C 
BRANCH  25  26
HETATM   26  C11 UNL     1      -2.882   1.218   1.657  1.00  0.00     0.046 C 
BRANCH  26  27
HETATM   27  C12 UNL     1      -4.068   0.358   1.328  1.00  0.00     0.119 C 
BRANCH  27  28
HETATM   28  N4  UNL     1      -4.533   0.448  -0.004  1.00  0.00    -0.408 N 
HETATM   29  C13 UNL     1      -5.129   1.652  -0.438  1.00  0.00     0.143 C 
HETATM   30  C14 UNL     1      -6.625   1.706  -0.299  1.00  0.00     0.187 C 
HETATM   31  O2  UNL     1      -7.245   0.499  -0.547  1.00  0.00    -0.388 OA
HETATM   32  C15 UNL     1      -6.673  -0.565   0.109  1.00  0.00     0.187 C 
HETATM   33  C16 UNL     1      -5.254  -0.699  -0.461  1.00  0.00     0.143 C 
ENDBRANCH  27  28
ENDBRANCH  26  27
ENDBRANCH  25  26
ENDBRANCH  24  25
ENDBRANCH   8  24
TORSDOF 8
