REMARK  6 active torsions:
REMARK  status: ('A' for Active; 'I' for Inactive)
REMARK    1  A    between atoms: O1_2  and  C2_3 
REMARK    2  A    between atoms: C6_8  and  C7_9 
REMARK    3  A    between atoms: C13_17  and  C14_18 
REMARK    4  A    between atoms: C14_18  and  N2_19 
REMARK    5  A    between atoms: C17_22  and  C18_23 
REMARK       I    between atoms: C18_23  and  N3_24 
REMARK    6  A    between atoms: C19_26  and  N4_27 
ROOT
HETATM    1  C2  UNL     1       0.856  -2.615   0.040  1.00  0.00     0.077 A 
HETATM    2  C3  UNL     1       1.963  -3.061  -0.518  1.00  0.00     0.052 A 
HETATM    3  C4  UNL     1       2.645  -1.893  -1.045  1.00  0.00     0.007 A 
HETATM    4  C5  UNL     1       3.659  -1.341  -1.678  1.00  0.00     0.092 C 
HETATM    5  N1  UNL     1       3.395  -0.201  -2.210  1.00  0.00    -0.272 NA
HETATM    6  C6  UNL     1       2.493   0.412  -1.255  1.00  0.00     0.176 C 
HETATM    7  C12 UNL     1       1.770  -0.779  -0.701  1.00  0.00    -0.006 A 
HETATM    8  C13 UNL     1       0.651  -1.187  -0.029  1.00  0.00     0.002 A 
ENDROOT
BRANCH   8   9
HETATM    9  C14 UNL     1      -0.328  -0.185   0.420  1.00  0.00     0.161 C 
BRANCH   9  10
HETATM   10  N2  UNL     1      -1.619  -0.226  -0.088  1.00  0.00    -0.380 N 
HETATM   11  C15 UNL     1      -2.529  -1.205   0.273  1.00  0.00     0.120 C 
HETATM   12  C16 UNL     1      -3.398  -0.485   1.320  1.00  0.00     0.037 C 
HETATM   13  C17 UNL     1      -3.337   0.957   0.940  1.00  0.00     0.131 C 
HETATM   14  C19 UNL     1      -2.246   1.061  -0.104  1.00  0.00     0.328 C 
BRANCH  13  15
HETATM   15  C18 UNL     1      -4.623   1.296   0.280  1.00  0.00     0.223 C 
HETATM   16  N3  UNL     1      -4.677   2.664  -0.108  1.00  0.00    -0.370 N 
HETATM   17  H17 UNL     1      -5.115   3.481   0.370  1.00  0.00     0.159 HD
HETATM   18  H18 UNL     1      -4.585   3.603  -0.600  1.00  0.00     0.159 HD
HETATM   19  O3  UNL     1      -5.711   0.833  -0.080  1.00  0.00    -0.273 OA
ENDBRANCH  13  15
BRANCH  14  20
HETATM   20  N4  UNL     1      -2.814   1.230  -1.439  1.00  0.00     0.102 N 
HETATM   21  H20 UNL     1      -2.202   0.738  -2.121  1.00  0.00     0.315 HD
HETATM   22  H21 UNL     1      -2.816   2.263  -1.602  1.00  0.00     0.315 HD
ENDBRANCH  14  20
ENDBRANCH   9  10
ENDBRANCH   8   9
BRANCH   1  23
HETATM   23  O1  UNL     1      -0.001  -3.512   0.631  1.00  0.00    -0.355 OA
HETATM   24  C1  UNL     1      -0.707  -4.509  -0.080  1.00  0.00     0.210 C 
ENDBRANCH   1  23
BRANCH   6  25
HETATM   25  C7  UNL     1       3.329   1.124  -0.283  1.00  0.00    -0.005 A 
HETATM   26  C8  UNL     1       3.485   0.819   0.977  1.00  0.00     0.042 A 
HETATM   27 CL1  UNL     1       2.805  -0.468   1.925  1.00  0.00    -0.084 Cl
HETATM   28  C9  UNL     1       4.351   1.692   1.733  1.00  0.00     0.048 A 
HETATM   29  C10 UNL     1       4.905   2.706   1.114  1.00  0.00     0.136 A 
HETATM   30  O2  UNL     1       4.734   3.020  -0.210  1.00  0.00    -0.359 OA
HETATM   31  C11 UNL     1       3.944   2.233  -1.049  1.00  0.00     0.213 A 
ENDBRANCH   6  25
TORSDOF 6
