REMARK  4 active torsions:
REMARK  status: ('A' for Active; 'I' for Inactive)
REMARK    1  A    between atoms: C2_2  and  C3_3 
REMARK    2  A    between atoms: C3_3  and  C4_4 
REMARK    3  A    between atoms: C5_5  and  C6_6 
REMARK       I    between atoms: C6_6  and  N1_8 
REMARK    4  A    between atoms: N1_8  and  C7_9 
ROOT
HETATM    1  C7  UNL     1      -0.359  -0.314  -0.141  1.00  0.00     0.235 C 
HETATM    2  C8  UNL     1      -1.045  -1.578   0.189  1.00  0.00     0.071 C 
HETATM    3  C9  UNL     1      -2.072  -1.574   1.074  1.00  0.00     0.129 C 
HETATM    4  N2  UNL     1      -2.412  -3.034   1.032  1.00  0.00    -0.225 NA
HETATM    5  C10 UNL     1      -3.141  -3.337  -0.144  1.00  0.00     0.236 C 
HETATM    6  N3  UNL     1      -3.323  -2.517  -1.386  1.00  0.00    -0.240 NA
HETATM    7  C11 UNL     1      -2.970  -1.212  -1.442  1.00  0.00     0.087 C 
HETATM    8  C12 UNL     1      -1.931  -0.261  -1.987  1.00  0.00     0.145 C 
HETATM    9  N4  UNL     1      -0.822   0.132  -1.454  1.00  0.00    -0.270 NA
HETATM   10  C13 UNL     1      -3.737  -0.098  -0.765  1.00  0.00     0.024 A 
HETATM   11  C14 UNL     1      -4.642   0.569  -1.484  1.00  0.00     0.060 A 
HETATM   12  C15 UNL     1      -5.335   1.571  -0.850  1.00  0.00     0.139 A 
HETATM   13  F1  UNL     1      -6.236   2.185  -1.688  1.00  0.00    -0.204 F 
HETATM   14  C16 UNL     1      -5.106   1.877   0.476  1.00  0.00     0.074 A 
HETATM   15 CL1  UNL     1      -6.047   3.162   1.155  1.00  0.00    -0.081 Cl
HETATM   16  C17 UNL     1      -4.161   1.163   1.183  1.00  0.00     0.057 A 
HETATM   17  C18 UNL     1      -3.448   0.166   0.614  1.00  0.00     0.048 A 
HETATM   18  N5  UNL     1      -2.541  -0.358   1.651  1.00  0.00    -0.340 N 
HETATM   19  H15 UNL     1      -2.446   0.194   2.473  1.00  0.00     0.167 HD
ENDROOT
BRANCH   1  20
HETATM   20  N1  UNL     1       1.049  -0.515  -0.219  1.00  0.00    -0.324 N 
HETATM   21  C6  UNL     1       1.890   0.265   0.645  1.00  0.00     0.298 C 
HETATM   22  O1  UNL     1       1.427   1.108   1.457  1.00  0.00    -0.258 OA
HETATM   23  H8  UNL     1       1.433  -1.213  -0.891  1.00  0.00     0.165 HD
BRANCH  21  24
HETATM   24  C5  UNL     1       3.305   0.081   0.586  1.00  0.00    -0.006 C 
HETATM   25  C4  UNL     1       4.488  -0.079   0.525  1.00  0.00    -0.096 C 
BRANCH  25  26
HETATM   26  C3  UNL     1       5.931  -0.297   0.439  1.00  0.00     0.094 C 
BRANCH  26  27
HETATM   27  C2  UNL     1       6.675   0.976   0.027  1.00  0.00     0.007 C 
HETATM   28  C1  UNL     1       6.215   1.462  -1.316  1.00  0.00     0.006 C 
ENDBRANCH  26  27
ENDBRANCH  25  26
ENDBRANCH  21  24
ENDBRANCH   1  20
TORSDOF 4
