REMARK  5 active torsions:
REMARK  status: ('A' for Active; 'I' for Inactive)
REMARK    1  A    between atoms: C2_2  and  C3_3 
REMARK    2  A    between atoms: C7_9  and  C8_10 
REMARK    3  A    between atoms: C7_9  and  N3_12 
REMARK    4  A    between atoms: C8_10  and  O1_11 
REMARK    5  A    between atoms: N3_12  and  C9_13 
ROOT
HETATM    1  C3  UNL     1      -3.653   1.068  -0.210  1.00  0.00    -0.056 C 
HETATM    2  C4  UNL     1      -2.696   1.860  -0.647  1.00  0.00     0.024 C 
HETATM    3  C5  UNL     1      -1.353   2.445  -0.526  1.00  0.00     0.118 C 
HETATM    4  N1  UNL     1      -0.508   2.230   0.373  1.00  0.00    -0.255 NA
HETATM    5  C6  UNL     1       0.787   2.739   0.563  1.00  0.00     0.229 C 
HETATM    6  N2  UNL     1       1.665   1.845   0.696  1.00  0.00    -0.246 NA
HETATM    7  C7  UNL     1       1.561   0.428   0.688  1.00  0.00     0.176 C 
HETATM    8  C15 UNL     1       1.091  -0.180  -0.589  1.00  0.00     0.205 C 
HETATM    9  C16 UNL     1      -0.282  -0.712  -0.635  1.00  0.00     0.311 C 
HETATM   10  N4  UNL     1      -0.176  -2.122  -0.682  1.00  0.00     0.114 N 
HETATM   11  C17 UNL     1      -0.871  -2.866   0.305  1.00  0.00     0.277 C 
HETATM   12  C18 UNL     1      -2.060  -2.151   0.870  1.00  0.00     0.056 C 
HETATM   13  C19 UNL     1      -3.146  -1.825  -0.104  1.00  0.00     0.169 C 
HETATM   14  O2  UNL     1      -4.157  -1.153   0.523  1.00  0.00    -0.387 OA
HETATM   15  C20 UNL     1      -3.890   0.108   0.938  1.00  0.00     0.202 C 
HETATM   16  C21 UNL     1       1.218  -2.401  -0.783  1.00  0.00     0.441 C 
HETATM   17  O3  UNL     1       1.893  -1.232  -0.992  1.00  0.00    -0.351 OA
ENDROOT
BRANCH   7  18
HETATM   18  C8  UNL     1       0.703   0.026   1.897  1.00  0.00     0.222 C 
BRANCH  18  19
HETATM   19  O1  UNL     1       1.399   0.503   3.022  1.00  0.00    -0.396 OA
HETATM   20  H11 UNL     1       1.198   1.471   3.066  1.00  0.00     0.209 HD
ENDBRANCH  18  19
ENDBRANCH   7  18
BRANCH   7  21
HETATM   21  N3  UNL     1       2.857  -0.209   0.988  1.00  0.00    -0.358 N 
HETATM   22  H12 UNL     1       2.968  -0.924   1.771  1.00  0.00     0.162 HD
BRANCH  21  23
HETATM   23  C9  UNL     1       4.052   0.054   0.288  1.00  0.00     0.031 A 
HETATM   24  C10 UNL     1       4.189   0.953  -0.746  1.00  0.00     0.032 A 
HETATM   25  C11 UNL     1       5.344   1.216  -1.447  1.00  0.00     0.046 A 
HETATM   26  C12 UNL     1       6.481   0.540  -1.113  1.00  0.00     0.138 A 
HETATM   27  F1  UNL     1       7.640   0.766  -1.775  1.00  0.00    -0.204 F 
HETATM   28  C13 UNL     1       6.417  -0.377  -0.087  1.00  0.00     0.074 A 
HETATM   29 CL1  UNL     1       7.842  -1.275   0.387  1.00  0.00    -0.081 Cl
HETATM   30  C14 UNL     1       5.232  -0.598   0.579  1.00  0.00     0.056 A 
ENDBRANCH  21  23
ENDBRANCH   7  21
BRANCH   1  31
HETATM   31  C2  UNL     1      -4.966   0.931  -0.935  1.00  0.00     0.032 C 
HETATM   32  C1  UNL     1      -5.033   1.802  -2.180  1.00  0.00     0.010 C 
ENDBRANCH   1  31
TORSDOF 5
