REMARK  9 active torsions:
REMARK  status: ('A' for Active; 'I' for Inactive)
REMARK    1  A    between atoms: C5_8  and  O2_9 
REMARK    2  A    between atoms: O2_9  and  C6_10 
REMARK    3  A    between atoms: C6_10  and  C7_11 
REMARK    4  A    between atoms: C7_11  and  C8_12 
REMARK    5  A    between atoms: C8_12  and  N3_13 
REMARK    6  A    between atoms: N3_13  and  C9_14 
REMARK    7  A    between atoms: C9_14  and  C10_15 
REMARK    8  A    between atoms: C14_20  and  N4_21 
REMARK    9  A    between atoms: N4_21  and  C15_22 
ROOT
HETATM    1  C1  UNL     1      -4.294  -2.677   0.354  1.00  0.00     0.071 C 
HETATM    2  C2  UNL     1      -2.809  -2.649   0.160  1.00  0.00     0.043 C 
HETATM    3  N1  UNL     1      -2.449  -3.765  -0.195  1.00  0.00    -0.244 NA
HETATM    4  C3  UNL     1      -1.525  -4.664  -0.568  1.00  0.00     0.262 C 
HETATM    5  N2  UNL     1      -0.298  -4.907  -1.026  1.00  0.00    -0.127 NA
HETATM    6  O1  UNL     1       0.542  -3.778  -1.287  1.00  0.00    -0.249 OA
HETATM    7  C4  UNL     1       0.321  -2.789  -0.460  1.00  0.00     0.268 C 
HETATM    8  C5  UNL     1       0.288  -1.457  -0.010  1.00  0.00     0.073 C 
HETATM    9  C12 UNL     1      -0.854  -0.796   0.394  1.00  0.00     0.049 C 
HETATM   10  C13 UNL     1      -2.206  -1.356   0.433  1.00  0.00     0.006 C 
HETATM   11  C14 UNL     1      -3.016  -0.386   0.872  1.00  0.00     0.101 C 
ENDROOT
BRANCH  11  12
HETATM   12  N4  UNL     1      -2.780   0.949   1.226  1.00  0.00    -0.365 N 
HETATM   13  H19 UNL     1      -2.085   1.339   1.896  1.00  0.00     0.165 HD
BRANCH  12  14
HETATM   14  C15 UNL     1      -3.397   2.144   0.792  1.00  0.00     0.033 A 
HETATM   15  C16 UNL     1      -4.514   2.416   1.588  1.00  0.00     0.032 A 
HETATM   16  C17 UNL     1      -5.297   3.552   1.357  1.00  0.00     0.046 A 
HETATM   17  C18 UNL     1      -4.969   4.416   0.333  1.00  0.00     0.138 A 
HETATM   18  F1  UNL     1      -5.713   5.528   0.088  1.00  0.00    -0.204 F 
HETATM   19  C19 UNL     1      -3.872   4.131  -0.432  1.00  0.00     0.074 A 
HETATM   20 CL1  UNL     1      -3.386   5.173  -1.745  1.00  0.00    -0.081 Cl
HETATM   21  C20 UNL     1      -3.094   3.020  -0.217  1.00  0.00     0.056 A 
ENDBRANCH  12  14
ENDBRANCH  11  12
BRANCH   8  22
HETATM   22  O2  UNL     1       1.525  -0.857  -0.009  1.00  0.00    -0.353 OA
BRANCH  22  23
HETATM   23  C6  UNL     1       2.595  -1.539   0.601  1.00  0.00     0.177 C 
BRANCH  23  24
HETATM   24  C7  UNL     1       3.871  -0.717   0.578  1.00  0.00     0.056 C 
BRANCH  24  25
HETATM   25  C8  UNL     1       4.281  -0.402  -0.842  1.00  0.00     0.272 C 
BRANCH  25  26
HETATM   26  N3  UNL     1       5.483   0.375  -0.866  1.00  0.00     0.089 N 
HETATM   27  H13 UNL     1       6.216  -0.115  -0.325  1.00  0.00     0.316 HD
BRANCH  26  28
HETATM   28  C9  UNL     1       5.307   1.700  -0.362  1.00  0.00     0.336 C 
BRANCH  28  29
HETATM   29  C10 UNL     1       6.614   2.428  -0.451  1.00  0.00     0.102 A 
HETATM   30  C11 UNL     1       7.603   3.075   0.188  1.00  0.00     0.176 A 
HETATM   31  O3  UNL     1       7.665   2.924  -1.184  1.00  0.00    -0.321 OA
ENDBRANCH  28  29
ENDBRANCH  26  28
ENDBRANCH  25  26
ENDBRANCH  24  25
ENDBRANCH  23  24
ENDBRANCH  22  23
ENDBRANCH   8  22
TORSDOF 9
