REMARK  7 active torsions:
REMARK  status: ('A' for Active; 'I' for Inactive)
REMARK    1  A    between atoms: C4_7  and  O2_8 
REMARK    2  A    between atoms: O2_8  and  P1_9 
REMARK    3  A    between atoms: P1_9  and  C5_10 
REMARK    4  A    between atoms: C5_10  and  C6_11 
REMARK    5  A    between atoms: C6_11  and  N3_12 
REMARK    6  A    between atoms: C13_20  and  N4_21 
REMARK    7  A    between atoms: N4_21  and  C14_22 
ROOT
HETATM    1  C1  UNL     1      -4.026  -1.687  -1.320  1.00  0.00     0.071 C 
HETATM    2  C2  UNL     1      -2.573  -1.559  -1.028  1.00  0.00     0.043 C 
HETATM    3  N1  UNL     1      -1.843  -2.593  -1.374  1.00  0.00    -0.244 NA
HETATM    4  C3  UNL     1      -0.478  -2.942  -1.309  1.00  0.00     0.263 C 
HETATM    5  N2  UNL     1       0.516  -2.566  -0.554  1.00  0.00    -0.119 NA
HETATM    6  O1  UNL     1       0.593  -1.654   0.496  1.00  0.00    -0.187 OA
HETATM    7  C4  UNL     1       0.124  -0.341   0.691  1.00  0.00     0.213 C 
HETATM    8  C11 UNL     1      -1.033   0.174   0.307  1.00  0.00     0.081 C 
HETATM    9  C12 UNL     1      -2.223  -0.290  -0.402  1.00  0.00     0.008 C 
HETATM   10  C13 UNL     1      -3.142   0.622  -0.485  1.00  0.00     0.102 C 
ENDROOT
BRANCH   7  11
HETATM   11  O2  UNL     1       0.892   0.610   1.355  1.00  0.00    -0.304 OA
BRANCH  11  12
HETATM   12  P1  UNL     1       1.882   1.729   0.434  1.00  0.00     0.024 P 
HETATM   13  H5  UNL     1       1.493   1.795  -0.966  1.00  0.00     0.088 HD
BRANCH  12  14
HETATM   14  C5  UNL     1       3.698   1.264   0.589  1.00  0.00     0.091 C 
BRANCH  14  15
HETATM   15  C6  UNL     1       3.881   0.066  -0.278  1.00  0.00     0.279 C 
BRANCH  15  16
HETATM   16  N3  UNL     1       5.192  -0.485  -0.328  1.00  0.00     0.092 N 
HETATM   17  C7  UNL     1       5.545  -1.065   0.934  1.00  0.00     0.298 C 
HETATM   18  C8  UNL     1       6.620  -0.247   1.577  1.00  0.00     0.198 C 
HETATM   19  O3  UNL     1       7.743  -0.345   0.764  1.00  0.00    -0.388 OA
HETATM   20  C9  UNL     1       7.568   0.129  -0.510  1.00  0.00     0.198 C 
HETATM   21  C10 UNL     1       6.140   0.411  -0.896  1.00  0.00     0.298 C 
ENDBRANCH  15  16
ENDBRANCH  14  15
ENDBRANCH  12  14
ENDBRANCH  11  12
ENDBRANCH   7  11
BRANCH  10  22
HETATM   22  N4  UNL     1      -4.403   1.011  -0.916  1.00  0.00    -0.365 N 
HETATM   23  H20 UNL     1      -4.517   1.344  -1.922  1.00  0.00     0.165 HD
BRANCH  22  24
HETATM   24  C14 UNL     1      -5.569   0.996  -0.098  1.00  0.00     0.033 A 
HETATM   25  C15 UNL     1      -5.509   0.582   1.216  1.00  0.00     0.032 A 
HETATM   26  C16 UNL     1      -6.660   0.572   1.997  1.00  0.00     0.046 A 
HETATM   27  C17 UNL     1      -7.884   0.980   1.461  1.00  0.00     0.138 A 
HETATM   28  F1  UNL     1      -9.051   0.996   2.167  1.00  0.00    -0.204 F 
HETATM   29  C18 UNL     1      -7.969   1.399   0.146  1.00  0.00     0.074 A 
HETATM   30 CL1  UNL     1      -9.453   1.929  -0.622  1.00  0.00    -0.081 Cl
HETATM   31  C19 UNL     1      -6.798   1.389  -0.584  1.00  0.00     0.056 A 
ENDBRANCH  22  24
ENDBRANCH  10  22
TORSDOF 7
