REMARK  10 active torsions:
REMARK  status: ('A' for Active; 'I' for Inactive)
REMARK    1  A    between atoms: C2_2  and  C3_3 
REMARK    2  A    between atoms: C5_7  and  N3_8 
REMARK    3  A    between atoms: N3_8  and  C6_9 
REMARK    4  A    between atoms: C12_16  and  C13_17 
REMARK    5  A    between atoms: C13_17  and  C14_18 
REMARK    6  A    between atoms: C14_18  and  N4_19 
REMARK       I    between atoms: N4_19  and  C15_20 
REMARK    7  A    between atoms: C15_20  and  C16_22 
REMARK    8  A    between atoms: C17_23  and  C18_24 
REMARK    9  A    between atoms: C18_24  and  N5_25 
REMARK   10  A    between atoms: N5_25  and  C19_27 
ROOT
HETATM    1  C3  UNL     1      -3.045   1.569  -2.345  1.00  0.00     0.082 A 
HETATM    2  N1  UNL     1      -4.300   2.047  -2.140  1.00  0.00    -0.240 NA
HETATM    3  C4  UNL     1      -4.884   1.780  -0.959  1.00  0.00     0.236 A 
HETATM    4  N2  UNL     1      -4.181   1.067  -0.084  1.00  0.00    -0.224 NA
HETATM    5  C5  UNL     1      -2.953   0.596  -0.275  1.00  0.00     0.141 A 
HETATM    6  C12 UNL     1      -2.303   0.832  -1.453  1.00  0.00     0.037 A 
ENDROOT
BRANCH   6   7
HETATM    7  C13 UNL     1      -1.079   0.414  -1.670  1.00  0.00     0.010 C 
BRANCH   7   8
HETATM    8  C14 UNL     1      -0.131   0.547  -2.797  1.00  0.00     0.151 C 
BRANCH   8   9
HETATM    9  N4  UNL     1       1.260   0.349  -2.385  1.00  0.00    -0.347 N 
HETATM   10  C15 UNL     1       1.718  -0.876  -1.794  1.00  0.00     0.296 C 
HETATM   11  O1  UNL     1       0.920  -1.850  -1.602  1.00  0.00    -0.258 OA
HETATM   12  H12 UNL     1       2.042   1.064  -2.478  1.00  0.00     0.163 HD
BRANCH  10  13
HETATM   13  C16 UNL     1       3.082  -1.076  -1.389  1.00  0.00    -0.004 C 
HETATM   14  C17 UNL     1       4.225  -1.224  -1.056  1.00  0.00    -0.080 C 
BRANCH  14  15
HETATM   15  C18 UNL     1       5.621  -1.387  -0.651  1.00  0.00     0.220 C 
BRANCH  15  16
HETATM   16  N5  UNL     1       6.159  -0.104  -0.241  1.00  0.00    -0.144 NA
HETATM   17  F1  UNL     1       5.996   0.850  -1.187  1.00  0.00    -0.133 F 
BRANCH  16  18
HETATM   18  C19 UNL     1       5.560   0.384   0.991  1.00  0.00     0.122 C 
HETATM   19  C20 UNL     1       5.981  -0.495   2.144  1.00  0.00     0.023 C 
ENDBRANCH  16  18
ENDBRANCH  15  16
ENDBRANCH  14  15
ENDBRANCH  10  13
ENDBRANCH   8   9
ENDBRANCH   7   8
ENDBRANCH   6   7
BRANCH   1  20
HETATM   20  C2  UNL     1      -2.535   1.853  -3.550  1.00  0.00    -0.004 C 
HETATM   21  C1  UNL     1      -2.361   1.618  -4.861  1.00  0.00     0.026 C 
ENDBRANCH   1  20
BRANCH   5  22
HETATM   22  N3  UNL     1      -2.390  -0.141   0.791  1.00  0.00    -0.340 N 
HETATM   23  H4  UNL     1      -1.427  -0.522   0.722  1.00  0.00     0.167 HD
BRANCH  22  24
HETATM   24  C6  UNL     1      -2.950  -0.483   2.038  1.00  0.00     0.035 A 
HETATM   25  C7  UNL     1      -2.189  -0.987   3.103  1.00  0.00     0.029 A 
HETATM   26  C8  UNL     1      -2.688  -1.338   4.328  1.00  0.00     0.004 A 
HETATM   27  C9  UNL     1      -4.033  -1.195   4.560  1.00  0.00     0.024 A 
HETATM   28  C10 UNL     1      -4.864  -0.708   3.576  1.00  0.00     0.036 A 
HETATM   29 CL1  UNL     1      -6.568  -0.547   3.932  1.00  0.00    -0.084 Cl
HETATM   30  C11 UNL     1      -4.278  -0.381   2.378  1.00  0.00     0.053 A 
ENDBRANCH  22  24
ENDBRANCH   5  22
TORSDOF 10
