REMARK  6 active torsions:
REMARK  status: ('A' for Active; 'I' for Inactive)
REMARK    1  A    between atoms: P1_2  and  C2_3 
REMARK    2  A    between atoms: C6_9  and  N3_10 
REMARK    3  A    between atoms: N3_10  and  C7_11 
REMARK    4  A    between atoms: C15_21  and  C16_22 
REMARK    5  A    between atoms: C16_22  and  N4_23 
REMARK    6  A    between atoms: C19_26  and  C20_27 
REMARK       I    between atoms: C20_27  and  N5_28 
ROOT
HETATM    1  C2  UNL     1      -0.757   2.320   0.125  1.00  0.00    -0.024 A 
HETATM    2  C3  UNL     1       0.298   3.173   0.358  1.00  0.00     0.045 A 
HETATM    3  C4  UNL     1       1.578   2.676   0.265  1.00  0.00     0.073 A 
HETATM    4  N1  UNL     1       2.621   3.505   0.488  1.00  0.00    -0.241 NA
HETATM    5  C5  UNL     1       3.884   3.104   0.414  1.00  0.00     0.236 A 
HETATM    6  N2  UNL     1       4.094   1.837   0.107  1.00  0.00    -0.224 NA
HETATM    7  C6  UNL     1       3.156   0.919  -0.136  1.00  0.00     0.142 A 
HETATM    8  C13 UNL     1       1.856   1.363  -0.052  1.00  0.00     0.039 A 
HETATM    9  C14 UNL     1       0.735   0.593  -0.265  1.00  0.00     0.027 A 
HETATM   10  C15 UNL     1      -0.609   0.983  -0.198  1.00  0.00    -0.018 A 
ENDROOT
BRANCH  10  11
HETATM   11  C16 UNL     1      -1.633  -0.037  -0.406  1.00  0.00     0.311 C 
BRANCH  11  12
HETATM   12  N4  UNL     1      -2.115  -0.763   0.687  1.00  0.00     0.093 NA
HETATM   13  C17 UNL     1      -2.715  -0.144   1.793  1.00  0.00     0.273 C 
HETATM   14  C18 UNL     1      -4.202  -0.036   1.506  1.00  0.00     0.046 C 
HETATM   15  C19 UNL     1      -4.460  -0.995   0.370  1.00  0.00     0.107 C 
HETATM   16  C21 UNL     1      -3.145  -1.713   0.222  1.00  0.00     0.286 C 
BRANCH  15  17
HETATM   17  C20 UNL     1      -5.546  -1.960   0.674  1.00  0.00     0.221 C 
HETATM   18  N5  UNL     1      -5.522  -2.875   1.751  1.00  0.00    -0.370 N 
HETATM   19  H19 UNL     1      -4.795  -3.616   1.906  1.00  0.00     0.159 HD
HETATM   20  H20 UNL     1      -6.192  -2.982   2.559  1.00  0.00     0.159 HD
HETATM   21  O1  UNL     1      -6.653  -2.206   0.131  1.00  0.00    -0.273 OA
ENDBRANCH  15  17
ENDBRANCH  11  12
ENDBRANCH  10  11
BRANCH   1  22
HETATM   22  P1  UNL     1      -2.410   3.049   0.172  1.00  0.00    -0.098 P 
HETATM   23  C1  UNL     1      -3.422   2.758  -1.325  1.00  0.00     0.046 C 
HETATM   24  H4  UNL     1      -3.103   2.909   1.415  1.00  0.00     0.062 HD
ENDBRANCH   1  22
BRANCH   7  25
HETATM   25  N3  UNL     1       3.400  -0.431  -0.465  1.00  0.00    -0.338 N 
HETATM   26  H7  UNL     1       2.628  -1.098  -0.618  1.00  0.00     0.167 HD
BRANCH  25  27
HETATM   27  C7  UNL     1       4.647  -1.083  -0.635  1.00  0.00     0.074 A 
HETATM   28  C8  UNL     1       5.864  -0.453  -0.500  1.00  0.00     0.033 A 
HETATM   29  C9  UNL     1       7.092  -1.064  -0.660  1.00  0.00     0.004 A 
HETATM   30  C10 UNL     1       7.139  -2.397  -0.976  1.00  0.00     0.027 A 
HETATM   31  C11 UNL     1       5.956  -3.080  -1.124  1.00  0.00     0.074 A 
HETATM   32 CL1  UNL     1       5.976  -4.781  -1.527  1.00  0.00    -0.081 Cl
HETATM   33  C12 UNL     1       4.783  -2.416  -0.952  1.00  0.00     0.164 A 
HETATM   34  F1  UNL     1       3.644  -3.156  -1.114  1.00  0.00    -0.202 F 
ENDBRANCH  25  27
ENDBRANCH   7  25
TORSDOF 6
