REMARK  1 active torsions:
REMARK  status: ('A' for Active; 'I' for Inactive)
REMARK    1  A    between atoms: C1_2  and  N1_3 
ROOT
HETATM    1  N1  UNL     1      -1.112   2.534   0.144  1.00  0.00    -0.220 N 
HETATM    2  C2  UNL     1      -0.012   1.595   0.014  1.00  0.00     0.122 C 
HETATM    3  C3  UNL     1       0.892   1.161   0.869  1.00  0.00     0.036 C 
HETATM    4  C4  UNL     1       2.040   0.302   1.078  1.00  0.00     0.029 A 
HETATM    5  C5  UNL     1       2.855   0.580   2.128  1.00  0.00     0.133 A 
HETATM    6  N2  UNL     1       3.924  -0.199   2.345  1.00  0.00    -0.253 NA
HETATM    7  C6  UNL     1       4.118  -1.216   1.498  1.00  0.00     0.234 A 
HETATM    8  N3  UNL     1       3.298  -1.502   0.436  1.00  0.00    -0.224 NA
HETATM    9  C7  UNL     1       2.215  -0.729   0.197  1.00  0.00     0.136 A 
HETATM   10  N4  UNL     1       1.559  -1.232  -0.936  1.00  0.00    -0.371 N 
HETATM   11  C8  UNL     1       0.502  -2.161  -1.283  1.00  0.00     0.148 C 
HETATM   12  C9  UNL     1      -0.836  -1.772  -0.810  1.00  0.00    -0.010 C 
HETATM   13  C10 UNL     1      -2.003  -1.796  -0.181  1.00  0.00    -0.016 C 
HETATM   14  C11 UNL     1      -3.259  -0.973  -0.007  1.00  0.00     0.065 A 
HETATM   15  C12 UNL     1      -4.256  -0.895  -1.023  1.00  0.00    -0.004 A 
HETATM   16  C13 UNL     1      -3.294   0.046  -1.024  1.00  0.00    -0.030 A 
HETATM   17  C14 UNL     1      -2.402   1.186  -1.283  1.00  0.00     0.147 C 
HETATM   18  N5  UNL     1      -1.974   1.521  -0.128  1.00  0.00    -0.178 NA
HETATM   19  H6  UNL     1       2.046  -0.723  -1.733  1.00  0.00     0.161 HD
ENDROOT
BRANCH   1  20
HETATM   20  C1  UNL     1      -0.181   3.528   0.415  1.00  0.00     0.377 C 
HETATM   21  O1  UNL     1      -1.298   4.124   0.487  1.00  0.00    -0.281 OA
ENDBRANCH   1  20
TORSDOF 1
