REMARK  4 active torsions:
REMARK  status: ('A' for Active; 'I' for Inactive)
REMARK    1  A    between atoms: C4_6  and  N3_7 
REMARK    2  A    between atoms: C10_15  and  C11_16 
REMARK    3  A    between atoms: C12_17  and  C13_18 
REMARK    4  A    between atoms: N4_20  and  C15_21 
ROOT
HETATM    1  C13 UNL     1      -1.625  -0.964  -0.440  1.00  0.00     0.099 C 
HETATM    2  C14 UNL     1      -1.890   0.188   0.247  1.00  0.00     0.125 C 
HETATM    3  N4  UNL     1      -3.031   1.031   0.684  1.00  0.00    -0.377 N 
HETATM    4  C17 UNL     1      -4.620   0.701   0.628  1.00  0.00     0.216 C 
HETATM    5  C18 UNL     1      -4.391  -0.470  -0.030  1.00  0.00    -0.085 C 
HETATM    6  C19 UNL     1      -4.210  -1.281  -0.488  1.00  0.00    -0.077 C 
HETATM    7  C20 UNL     1      -3.921  -2.440  -1.145  1.00  0.00     0.196 C 
HETATM    8  C21 UNL     1      -4.250  -2.574  -2.573  1.00  0.00     0.429 C 
HETATM    9  O1  UNL     1      -4.590  -2.700  -3.729  1.00  0.00    -0.427 OA
HETATM   10  N5  UNL     1      -2.321  -2.062  -1.161  1.00  0.00    -0.364 N 
HETATM   11  H19 UNL     1      -1.615  -2.532  -1.680  1.00  0.00     0.161 HD
ENDROOT
BRANCH   1  12
HETATM   12  C12 UNL     1      -0.199  -1.184  -0.475  1.00  0.00    -0.046 C 
HETATM   13  C11 UNL     1       0.982  -1.388  -0.500  1.00  0.00    -0.081 C 
BRANCH  13  14
HETATM   14  C10 UNL     1       2.442  -1.663  -0.531  1.00  0.00     0.186 A 
HETATM   15  C2  UNL     1       2.679  -3.107  -0.176  1.00  0.00     0.049 A 
HETATM   16  C1  UNL     1       2.216  -4.002  -1.063  1.00  0.00     0.042 C 
HETATM   17  N1  UNL     1       3.330  -3.631   0.977  1.00  0.00    -0.246 NA
HETATM   18  C3  UNL     1       3.780  -2.723   1.809  1.00  0.00     0.235 A 
HETATM   19  N2  UNL     1       3.653  -1.318   1.623  1.00  0.00    -0.226 NA
HETATM   20  C4  UNL     1       3.052  -0.866   0.563  1.00  0.00     0.133 A 
BRANCH  20  21
HETATM   21  N3  UNL     1       3.069   0.561   0.630  1.00  0.00    -0.318 N 
HETATM   22  C5  UNL     1       2.229   1.494   1.293  1.00  0.00     0.097 A 
HETATM   23  C6  UNL     1       2.476   2.765   1.188  1.00  0.00     0.033 A 
HETATM   24  C7  UNL     1       3.575   3.393   0.427  1.00  0.00     0.240 A 
HETATM   25  F1  UNL     1       3.082   4.291  -0.508  1.00  0.00    -0.239 F 
HETATM   26  C8  UNL     1       4.404   2.358  -0.235  1.00  0.00     0.065 A 
HETATM   27 CL1  UNL     1       5.702   3.096  -1.134  1.00  0.00    -0.084 Cl
HETATM   28  C9  UNL     1       4.169   1.039  -0.141  1.00  0.00     0.120 A 
ENDBRANCH  20  21
ENDBRANCH  13  14
ENDBRANCH   1  12
BRANCH   3  29
HETATM   29  C15 UNL     1      -2.609   2.250   1.205  1.00  0.00     0.119 C 
HETATM   30  C16 UNL     1      -2.998   3.422   0.323  1.00  0.00     0.026 C 
ENDBRANCH   3  29
TORSDOF 4
