REMARK  8 active torsions:
REMARK  status: ('A' for Active; 'I' for Inactive)
REMARK    1  A    between atoms: C2_2  and  C3_3 
REMARK    2  A    between atoms: C3_3  and  C4_4 
REMARK    3  A    between atoms: C4_4  and  N1_6 
REMARK    4  A    between atoms: C4_4  and  C6_7 
REMARK    5  A    between atoms: C6_7  and  C7_8 
REMARK    6  A    between atoms: C8_9  and  C9_10 
REMARK       I    between atoms: C9_10  and  N2_12 
REMARK    7  A    between atoms: C14_19  and  N5_20 
REMARK    8  A    between atoms: N5_20  and  C15_21 
ROOT
HETATM    1  C9  UNL     1      -0.227   0.622   0.336  1.00  0.00     0.322 C 
HETATM    2  O1  UNL     1       0.210   0.828   1.475  1.00  0.00    -0.256 OA
HETATM    3  N2  UNL     1       0.699   0.353  -0.737  1.00  0.00    -0.201 N 
HETATM    4  C10 UNL     1       2.106   0.324  -0.500  1.00  0.00     0.136 A 
HETATM    5  C11 UNL     1       2.989   0.078  -1.471  1.00  0.00     0.034 A 
HETATM    6  C12 UNL     1       2.425  -0.161  -2.810  1.00  0.00     0.088 A 
HETATM    7  N3  UNL     1       3.336  -0.393  -3.707  1.00  0.00    -0.240 NA
HETATM    8  C13 UNL     1       4.714  -0.383  -3.279  1.00  0.00     0.230 A 
HETATM    9  N4  UNL     1       5.249  -0.179  -2.129  1.00  0.00    -0.252 NA
HETATM   10  C14 UNL     1       4.386   0.095  -1.010  1.00  0.00     0.245 A 
HETATM   11  C21 UNL     1       1.009  -0.131  -3.048  1.00  0.00     0.171 A 
HETATM   12  N6  UNL     1       0.244   0.115  -2.038  1.00  0.00    -0.175 NA
ENDROOT
BRANCH   1  13
HETATM   13  C8  UNL     1      -1.630   0.636   0.024  1.00  0.00    -0.003 C 
HETATM   14  C7  UNL     1      -2.810   0.638  -0.258  1.00  0.00    -0.094 C 
BRANCH  14  15
HETATM   15  C6  UNL     1      -4.248   0.640  -0.627  1.00  0.00     0.135 C 
BRANCH  15  16
HETATM   16  C4  UNL     1      -4.956   0.050   0.551  1.00  0.00     0.161 C 
HETATM   17  C5  UNL     1      -4.642   0.716   1.846  1.00  0.00     0.049 C 
BRANCH  16  18
HETATM   18  C3  UNL     1      -6.438   0.020   0.242  1.00  0.00     0.041 C 
BRANCH  18  19
HETATM   19  C2  UNL     1      -7.049   1.403   0.150  1.00  0.00    -0.002 C 
HETATM   20  C1  UNL     1      -8.539   1.225  -0.164  1.00  0.00     0.005 C 
ENDBRANCH  18  19
ENDBRANCH  16  18
BRANCH  16  21
HETATM   21  N1  UNL     1      -4.551  -1.363   0.613  1.00  0.00     0.088 N 
HETATM   22  H11 UNL     1      -4.762  -1.730  -0.355  1.00  0.00     0.313 HD
HETATM   23  H12 UNL     1      -5.254  -1.817   1.264  1.00  0.00     0.313 HD
ENDBRANCH  16  21
ENDBRANCH  15  16
ENDBRANCH  14  15
ENDBRANCH   1  13
BRANCH  10  24
HETATM   24  N5  UNL     1       4.651  -0.754   0.125  1.00  0.00    -0.363 N 
HETATM   25  H18 UNL     1       3.852  -1.277   0.492  1.00  0.00     0.162 HD
BRANCH  24  26
HETATM   26  C15 UNL     1       5.936  -0.904   0.752  1.00  0.00     0.031 A 
HETATM   27  C16 UNL     1       6.132  -1.725   1.829  1.00  0.00     0.032 A 
HETATM   28  C17 UNL     1       7.399  -1.825   2.389  1.00  0.00     0.046 A 
HETATM   29  C18 UNL     1       8.479  -1.123   1.899  1.00  0.00     0.138 A 
HETATM   30  F1  UNL     1       9.723  -1.228   2.457  1.00  0.00    -0.204 F 
HETATM   31  C19 UNL     1       8.302  -0.291   0.815  1.00  0.00     0.074 A 
HETATM   32 CL1  UNL     1       9.658   0.610   0.176  1.00  0.00    -0.081 Cl
HETATM   33  C20 UNL     1       7.025  -0.204   0.268  1.00  0.00     0.056 A 
ENDBRANCH  24  26
ENDBRANCH  10  24
TORSDOF 8
