REMARK  8 active torsions:
REMARK  status: ('A' for Active; 'I' for Inactive)
REMARK    1  A    between atoms: C2_2  and  C3_3 
REMARK    2  A    between atoms: C2_2  and  N2_10 
REMARK    3  A    between atoms: C3_3  and  C4_4 
REMARK    4  A    between atoms: C4_4  and  N1_5 
REMARK    5  A    between atoms: N1_5  and  C6_7 
REMARK    6  A    between atoms: N2_10  and  C9_11 
REMARK    7  A    between atoms: C16_20  and  N5_21 
REMARK    8  A    between atoms: N5_21  and  C17_22 
ROOT
HETATM    1  C9  UNL     1      -0.211  -1.929  -0.109  1.00  0.00     0.264 C 
HETATM    2  C10 UNL     1      -0.463  -3.406   0.286  1.00  0.00     0.080 C 
HETATM    3  C11 UNL     1       1.002  -1.593   0.701  1.00  0.00     0.039 C 
HETATM    4  C12 UNL     1       2.175  -1.059   0.432  1.00  0.00     0.018 C 
HETATM    5  C13 UNL     1       2.708  -0.590  -0.829  1.00  0.00     0.040 A 
HETATM    6  C14 UNL     1       2.111  -0.832  -2.044  1.00  0.00     0.089 A 
HETATM    7  N3  UNL     1       2.688  -0.399  -3.188  1.00  0.00    -0.240 NA
HETATM    8  C15 UNL     1       3.861   0.272  -3.033  1.00  0.00     0.236 A 
HETATM    9  N4  UNL     1       4.418   0.494  -1.835  1.00  0.00    -0.224 NA
HETATM   10  C16 UNL     1       3.891   0.088  -0.682  1.00  0.00     0.142 A 
HETATM   11  C23 UNL     1       0.845  -1.519  -2.355  1.00  0.00     0.146 C 
HETATM   12  N6  UNL     1      -0.046  -1.933  -1.506  1.00  0.00    -0.254 NA
ENDROOT
BRANCH   1  13
HETATM   13  N2  UNL     1      -1.353  -1.229   0.424  1.00  0.00     0.122 N 
HETATM   14  H19 UNL     1      -2.227  -1.669  -0.002  1.00  0.00     0.320 HD
BRANCH  13  15
HETATM   15  C2  UNL     1      -1.448   0.170   0.015  1.00  0.00     0.222 C 
HETATM   16  C1  UNL     1      -1.865   0.303  -1.398  1.00  0.00     0.043 C 
BRANCH  15  17
HETATM   17  C3  UNL     1      -2.274   0.856   1.052  1.00  0.00     0.065 C 
BRANCH  17  18
HETATM   18  C4  UNL     1      -3.682   0.448   1.192  1.00  0.00     0.274 C 
BRANCH  18  19
HETATM   19  N1  UNL     1      -4.592   0.652   0.126  1.00  0.00     0.088 N 
HETATM   20  C5  UNL     1      -4.985   1.990  -0.131  1.00  0.00     0.310 C 
BRANCH  19  21
HETATM   21  C6  UNL     1      -5.626  -0.335   0.175  1.00  0.00     0.214 C 
HETATM   22  C7  UNL     1      -6.385  -0.306   1.503  1.00  0.00     0.042 C 
HETATM   23  C8  UNL     1      -6.539  -0.389  -1.000  1.00  0.00     0.042 C 
ENDBRANCH  19  21
ENDBRANCH  18  19
ENDBRANCH  17  18
ENDBRANCH  15  17
ENDBRANCH  13  15
ENDBRANCH   1  13
BRANCH  10  24
HETATM   24  N5  UNL     1       4.475   0.374   0.572  1.00  0.00    -0.340 N 
HETATM   25  H26 UNL     1       4.082   0.214   1.517  1.00  0.00     0.167 HD
BRANCH  24  26
HETATM   26  C17 UNL     1       5.745   0.975   0.805  1.00  0.00     0.035 A 
HETATM   27  C18 UNL     1       6.162   1.566   1.968  1.00  0.00     0.032 A 
HETATM   28  C19 UNL     1       7.399   2.129   2.168  1.00  0.00     0.046 A 
HETATM   29  C20 UNL     1       8.315   2.116   1.144  1.00  0.00     0.138 A 
HETATM   30  F1  UNL     1       9.516   2.683   1.393  1.00  0.00    -0.204 F 
HETATM   31  C21 UNL     1       7.932   1.525  -0.055  1.00  0.00     0.074 A 
HETATM   32 CL1  UNL     1       9.205   1.577  -1.277  1.00  0.00    -0.081 Cl
HETATM   33  C22 UNL     1       6.679   0.974  -0.207  1.00  0.00     0.056 A 
ENDBRANCH  24  26
ENDBRANCH  10  24
TORSDOF 8
