REMARK  2 active torsions:
REMARK  status: ('A' for Active; 'I' for Inactive)
REMARK    1  A    between atoms: C3_3  and  C4_4 
REMARK       I    between atoms: C4_4  and  N1_6 
REMARK    2  A    between atoms: N1_6  and  C5_7 
ROOT
HETATM    1  C1  UNL     1       5.205  -2.794   0.760  1.00  0.00     0.112 C 
HETATM    2  C2  UNL     1       4.182  -1.843   0.257  1.00  0.00    -0.101 C 
HETATM    3  C3  UNL     1       3.330  -1.077  -0.144  1.00  0.00    -0.006 C 
ENDROOT
BRANCH   3   4
HETATM    4  C4  UNL     1       2.324  -0.196  -0.631  1.00  0.00     0.301 C 
HETATM    5  O1  UNL     1       2.201   0.161  -1.841  1.00  0.00    -0.258 OA
HETATM    6  N1  UNL     1       1.327   0.395   0.179  1.00  0.00    -0.307 N 
HETATM    7  H4  UNL     1       1.537   0.092   1.194  1.00  0.00     0.170 HD
BRANCH   6   8
HETATM    8  C5  UNL     1       0.224   1.154   0.593  1.00  0.00     0.076 C 
HETATM    9  C6  UNL     1      -0.896   0.655   1.070  1.00  0.00     0.062 C 
HETATM   10  C7  UNL     1      -0.808  -0.841   1.075  1.00  0.00     0.233 C 
HETATM   11  N2  UNL     1      -0.818  -1.201  -0.347  1.00  0.00    -0.255 NA
HETATM   12  N5  UNL     1      -1.915  -1.405   1.800  1.00  0.00    -0.373 N 
HETATM   13  C8  UNL     1      -0.942  -0.300  -1.241  1.00  0.00     0.208 C 
HETATM   14  N3  UNL     1      -1.096   1.033  -1.652  1.00  0.00    -0.317 N 
HETATM   15  C9  UNL     1      -0.303   2.127  -2.129  1.00  0.00     0.155 C 
HETATM   16  C11 UNL     1      -2.537   1.152  -1.516  1.00  0.00     0.191 C 
HETATM   17  C10 UNL     1       0.608   2.679  -1.120  1.00  0.00     0.253 C 
HETATM   18  N4  UNL     1       0.945   2.354   0.128  1.00  0.00    -0.289 NA
HETATM   19  F1  UNL     1      -2.911   1.962  -2.558  1.00  0.00    -0.186 F 
HETATM   20  C12 UNL     1      -3.504   0.701  -0.707  1.00  0.00     0.063 C 
HETATM   21  C13 UNL     1      -3.860  -0.117   0.470  1.00  0.00     0.021 C 
HETATM   22  C14 UNL     1      -2.906  -0.722   1.087  1.00  0.00     0.085 C 
HETATM   23  H14 UNL     1      -1.710  -2.078   2.557  1.00  0.00     0.161 HD
ENDBRANCH   6   8
ENDBRANCH   3   4
TORSDOF 2
