REMARK  4 active torsions:
REMARK  status: ('A' for Active; 'I' for Inactive)
REMARK    1  A    between atoms: C1_2  and  N1_3 
REMARK    2  A    between atoms: N1_3  and  C2_4 
REMARK    3  A    between atoms: C5_7  and  N2_8 
REMARK    4  A    between atoms: N2_8  and  C6_9 
ROOT
HETATM    1  C2  UNL     1      -3.190   0.981   0.173  1.00  0.00     0.130 A 
HETATM    2  C3  UNL     1      -1.835   0.691   0.099  1.00  0.00     0.068 A 
HETATM    3  C4  UNL     1      -1.284  -0.558   0.020  1.00  0.00     0.044 A 
HETATM    4  C5  UNL     1       0.050  -0.816  -0.052  1.00  0.00     0.142 A 
HETATM    5  N3  UNL     1       0.351  -2.116  -0.121  1.00  0.00    -0.224 NA
HETATM    6  C12 UNL     1      -0.534  -3.108  -0.123  1.00  0.00     0.236 A 
HETATM    7  N4  UNL     1      -1.849  -2.846  -0.052  1.00  0.00    -0.240 NA
HETATM    8  C13 UNL     1      -2.221  -1.566   0.020  1.00  0.00     0.089 A 
HETATM    9  C14 UNL     1      -3.577  -1.327   0.092  1.00  0.00     0.151 A 
HETATM   10  N5  UNL     1      -4.057  -0.051   0.169  1.00  0.00    -0.241 NA
ENDROOT
BRANCH   4  11
HETATM   11  N2  UNL     1       0.969   0.239  -0.052  1.00  0.00    -0.340 N 
HETATM   12  H4  UNL     1       0.666   1.214  -0.009  1.00  0.00     0.167 HD
BRANCH  11  13
HETATM   13  C6  UNL     1       2.388   0.212  -0.105  1.00  0.00     0.035 A 
HETATM   14  C7  UNL     1       3.214   1.326  -0.150  1.00  0.00     0.032 A 
HETATM   15  C8  UNL     1       4.579   1.268  -0.198  1.00  0.00     0.046 A 
HETATM   16  C9  UNL     1       5.231   0.057  -0.204  1.00  0.00     0.138 A 
HETATM   17  F1  UNL     1       6.576   0.100  -0.253  1.00  0.00    -0.204 F 
HETATM   18  C10 UNL     1       4.443  -1.091  -0.159  1.00  0.00     0.074 A 
HETATM   19 CL1  UNL     1       5.327  -2.591  -0.168  1.00  0.00    -0.081 Cl
HETATM   20  C11 UNL     1       3.070  -0.974  -0.112  1.00  0.00     0.056 A 
ENDBRANCH  11  13
ENDBRANCH   4  11
BRANCH   1  21
HETATM   21  N1  UNL     1      -3.677   2.315   0.253  1.00  0.00    -0.319 N 
HETATM   22  H2  UNL     1      -2.990   3.108   0.256  1.00  0.00     0.169 HD
BRANCH  21  23
HETATM   23  C1  UNL     1      -5.074   2.564   0.328  1.00  0.00     0.354 C 
HETATM   24  O1  UNL     1      -5.866   1.565   0.321  1.00  0.00    -0.283 OA
ENDBRANCH  21  23
ENDBRANCH   1  21
TORSDOF 4
