REMARK  5 active torsions:
REMARK  status: ('A' for Active; 'I' for Inactive)
REMARK    1  A    between atoms: C3_3  and  S1_4 
REMARK    2  A    between atoms: S1_4  and  C4_5 
REMARK    3  A    between atoms: C7_9  and  C8_10 
REMARK    4  A    between atoms: C11_15  and  N4_16 
REMARK    5  A    between atoms: N4_16  and  C12_17 
ROOT
HETATM    1  C1  UNL     1       7.573   2.331   0.700  1.00  0.00     0.113 C 
HETATM    2  C2  UNL     1       6.159   2.025   0.475  1.00  0.00    -0.099 C 
HETATM    3  C3  UNL     1       4.988   1.781   0.292  1.00  0.00    -0.033 C 
ENDROOT
BRANCH   3   4
HETATM    4  S1  UNL     1       3.270   1.400   0.020  1.00  0.00    -0.062 SA
BRANCH   4   5
HETATM    5  C4  UNL     1       3.180  -0.232  -0.718  1.00  0.00     0.152 A 
HETATM    6  C5  UNL     1       3.650  -1.252   0.258  1.00  0.00     0.112 A 
HETATM    7  N1  UNL     1       2.553  -1.890   0.497  1.00  0.00    -0.266 NA
HETATM    8  C6  UNL     1       1.918  -0.998  -0.416  1.00  0.00     0.054 A 
HETATM    9  C7  UNL     1       0.644  -0.901  -0.836  1.00  0.00     0.045 C 
BRANCH   9  10
HETATM   10  C8  UNL     1      -0.416  -1.790  -0.377  1.00  0.00     0.029 A 
HETATM   11  C9  UNL     1      -0.025  -3.097  -0.195  1.00  0.00     0.133 A 
HETATM   12  N2  UNL     1      -0.939  -3.987   0.229  1.00  0.00    -0.253 NA
HETATM   13  C10 UNL     1      -2.203  -3.596   0.465  1.00  0.00     0.234 A 
HETATM   14  N3  UNL     1      -2.559  -2.319   0.280  1.00  0.00    -0.224 NA
HETATM   15  C11 UNL     1      -1.715  -1.368  -0.139  1.00  0.00     0.141 A 
BRANCH  15  16
HETATM   16  N4  UNL     1      -2.040  -0.005  -0.347  1.00  0.00    -0.340 N 
HETATM   17  H9  UNL     1      -1.270   0.627  -0.668  1.00  0.00     0.167 HD
BRANCH  16  18
HETATM   18  C12 UNL     1      -3.281   0.646  -0.181  1.00  0.00     0.035 A 
HETATM   19  C13 UNL     1      -3.434   2.010  -0.411  1.00  0.00     0.032 A 
HETATM   20  C14 UNL     1      -4.623   2.668  -0.260  1.00  0.00     0.046 A 
HETATM   21  C15 UNL     1      -5.750   2.001   0.134  1.00  0.00     0.138 A 
HETATM   22  F1  UNL     1      -6.907   2.684   0.273  1.00  0.00    -0.204 F 
HETATM   23  C16 UNL     1      -5.667   0.654   0.377  1.00  0.00     0.074 A 
HETATM   24 CL1  UNL     1      -7.110  -0.199   0.881  1.00  0.00    -0.081 Cl
HETATM   25  C17 UNL     1      -4.452   0.035   0.212  1.00  0.00     0.056 A 
ENDBRANCH  16  18
ENDBRANCH  15  16
ENDBRANCH   9  10
ENDBRANCH   4   5
ENDBRANCH   3   4
TORSDOF 5
