REMARK  7 active torsions:
REMARK  status: ('A' for Active; 'I' for Inactive)
REMARK    1  A    between atoms: C2_2  and  C3_3 
REMARK    2  A    between atoms: C3_3  and  C4_4 
REMARK    3  A    between atoms: C3_3  and  C21_28 
REMARK    4  A    between atoms: C5_5  and  C6_6 
REMARK       I    between atoms: C6_6  and  N1_8 
REMARK    5  A    between atoms: N1_8  and  C7_9 
REMARK    6  A    between atoms: C10_12  and  N2_13 
REMARK    7  A    between atoms: N2_13  and  C11_14 
ROOT
HETATM    1  C7  UNL     1       0.043   1.612  -1.244  1.00  0.00     0.036 A 
HETATM    2  C8  UNL     1       1.247   1.037  -0.907  1.00  0.00     0.047 A 
HETATM    3  C9  UNL     1       2.443   1.716  -0.836  1.00  0.00     0.041 A 
HETATM    4  C10 UNL     1       3.641   1.127  -0.497  1.00  0.00     0.142 A 
HETATM    5  N3  UNL     1       4.664   1.979  -0.492  1.00  0.00    -0.224 NA
HETATM    6  C17 UNL     1       4.603   3.278  -0.776  1.00  0.00     0.236 A 
HETATM    7  N4  UNL     1       3.425   3.837  -1.106  1.00  0.00    -0.241 NA
HETATM    8  C18 UNL     1       2.334   3.054  -1.137  1.00  0.00     0.072 A 
HETATM    9  C19 UNL     1       1.157   3.678  -1.479  1.00  0.00     0.035 A 
HETATM   10  C20 UNL     1      -0.013   2.953  -1.536  1.00  0.00     0.032 A 
ENDROOT
BRANCH   1  11
HETATM   11  N1  UNL     1      -1.196   0.920  -1.319  1.00  0.00    -0.316 N 
HETATM   12  C6  UNL     1      -1.908   0.921  -0.078  1.00  0.00     0.301 C 
HETATM   13  O1  UNL     1      -1.319   1.534   0.871  1.00  0.00    -0.258 OA
HETATM   14  H7  UNL     1      -1.647   0.428  -2.117  1.00  0.00     0.170 HD
BRANCH  12  15
HETATM   15  C5  UNL     1      -3.175   0.298   0.114  1.00  0.00    -0.005 C 
HETATM   16  C4  UNL     1      -4.256  -0.211   0.278  1.00  0.00    -0.092 C 
BRANCH  16  17
HETATM   17  C3  UNL     1      -5.570  -0.815   0.494  1.00  0.00     0.065 C 
BRANCH  17  18
HETATM   18  C2  UNL     1      -5.905  -1.683  -0.678  1.00  0.00     0.012 C 
HETATM   19  C1  UNL     1      -5.919  -0.802  -1.909  1.00  0.00     0.006 C 
ENDBRANCH  17  18
BRANCH  17  20
HETATM   20  C21 UNL     1      -5.596  -1.546   1.821  1.00  0.00     0.012 C 
HETATM   21  C22 UNL     1      -5.244  -0.591   2.960  1.00  0.00     0.006 C 
ENDBRANCH  17  20
ENDBRANCH  16  17
ENDBRANCH  12  15
ENDBRANCH   1  11
BRANCH   4  22
HETATM   22  N2  UNL     1       3.694  -0.239  -0.206  1.00  0.00    -0.340 N 
HETATM   23  H9  UNL     1       2.858  -0.834  -0.255  1.00  0.00     0.167 HD
BRANCH  22  24
HETATM   24  C11 UNL     1       4.816  -1.012   0.181  1.00  0.00     0.035 A 
HETATM   25  C12 UNL     1       6.045  -0.455   0.427  1.00  0.00     0.032 A 
HETATM   26  C13 UNL     1       7.162  -1.180   0.802  1.00  0.00     0.046 A 
HETATM   27  C14 UNL     1       7.080  -2.547   0.950  1.00  0.00     0.138 A 
HETATM   28  F1  UNL     1       8.118  -3.319   1.311  1.00  0.00    -0.204 F 
HETATM   29  C15 UNL     1       5.867  -3.148   0.714  1.00  0.00     0.074 A 
HETATM   30 CL1  UNL     1       5.705  -4.874   0.886  1.00  0.00    -0.081 Cl
HETATM   31  C16 UNL     1       4.801  -2.380   0.347  1.00  0.00     0.056 A 
ENDBRANCH  22  24
ENDBRANCH   4  22
TORSDOF 7
