REMARK  7 active torsions:
REMARK  status: ('A' for Active; 'I' for Inactive)
REMARK    1  A    between atoms: C4_4  and  C5_5 
REMARK    2  A    between atoms: C5_5  and  N1_6 
REMARK       I    between atoms: N1_6  and  C6_7 
REMARK    3  A    between atoms: C6_7  and  C7_9 
REMARK    4  A    between atoms: C8_10  and  C9_11 
REMARK    5  A    between atoms: C9_11  and  N2_12 
REMARK    6  A    between atoms: N2_12  and  C10_13 
REMARK    7  A    between atoms: C12_15  and  N3_16 
ROOT
HETATM    1  C1  UNL     1      -2.926   4.526   1.997  1.00  0.00     0.045 C 
HETATM    2  C2  UNL     1      -3.219   3.388   1.387  1.00  0.00     0.049 C 
HETATM    3  C3  UNL     1      -2.547   2.198   1.899  1.00  0.00     0.043 C 
HETATM    4  C4  UNL     1      -2.431   0.984   1.381  1.00  0.00     0.008 C 
HETATM    5  C12 UNL     1      -2.989   0.553   0.103  1.00  0.00     0.143 C 
HETATM    6  N4  UNL     1      -3.795   1.197  -0.676  1.00  0.00    -0.223 NA
HETATM    7  C18 UNL     1      -4.396   2.485  -0.579  1.00  0.00     0.235 C 
HETATM    8  N5  UNL     1      -4.143   3.411   0.305  1.00  0.00    -0.243 NA
ENDROOT
BRANCH   4   9
HETATM    9  C5  UNL     1      -1.705  -0.093   2.060  1.00  0.00     0.166 C 
BRANCH   9  10
HETATM   10  N1  UNL     1      -0.590  -0.617   1.307  1.00  0.00    -0.346 N 
HETATM   11  C6  UNL     1       0.379   0.367   1.021  1.00  0.00     0.296 C 
HETATM   12  O1  UNL     1       0.220   1.572   1.418  1.00  0.00    -0.258 OA
HETATM   13  H6  UNL     1      -0.388  -1.583   0.947  1.00  0.00     0.163 HD
BRANCH  11  14
HETATM   14  C7  UNL     1       1.583   0.103   0.284  1.00  0.00    -0.004 C 
HETATM   15  C8  UNL     1       2.604  -0.112  -0.322  1.00  0.00    -0.066 C 
BRANCH  15  16
HETATM   16  C9  UNL     1       3.833  -0.350  -1.046  1.00  0.00     0.363 C 
BRANCH  16  17
HETATM   17  N2  UNL     1       4.785  -1.167  -0.319  1.00  0.00     0.093 N 
HETATM   18  H9  UNL     1       5.111  -0.742   0.571  1.00  0.00     0.316 HD
BRANCH  17  19
HETATM   19  C10 UNL     1       5.947  -1.297  -1.191  1.00  0.00     0.266 C 
HETATM   20  C11 UNL     1       6.648   0.055  -1.332  1.00  0.00     0.037 C 
ENDBRANCH  17  19
ENDBRANCH  16  17
ENDBRANCH  15  16
ENDBRANCH  11  14
ENDBRANCH   9  10
ENDBRANCH   4   9
BRANCH   5  21
HETATM   21  N3  UNL     1      -2.690  -0.711  -0.471  1.00  0.00    -0.316 N 
HETATM   22  C13 UNL     1      -1.823  -0.582  -1.611  1.00  0.00     0.094 A 
HETATM   23  C14 UNL     1      -1.469  -1.706  -2.243  1.00  0.00    -0.004 A 
HETATM   24  C15 UNL     1      -1.869  -3.094  -1.902  1.00  0.00     0.081 A 
HETATM   25  C16 UNL     1      -2.754  -3.055  -0.713  1.00  0.00     0.031 A 
HETATM   26 CL1  UNL     1      -3.310  -4.630  -0.192  1.00  0.00    -0.087 Cl
HETATM   27  C17 UNL     1      -3.133  -1.976  -0.056  1.00  0.00     0.117 A 
ENDBRANCH   5  21
TORSDOF 7
