REMARK  9 active torsions:
REMARK  status: ('A' for Active; 'I' for Inactive)
REMARK    1  A    between atoms: C3_4  and  C4_5 
REMARK    2  A    between atoms: C4_5  and  N1_6 
REMARK    3  A    between atoms: C7_9  and  C8_10 
REMARK    4  A    between atoms: N2_11  and  C9_12 
REMARK    5  A    between atoms: N3_14  and  C11_15 
REMARK    6  A    between atoms: C11_15  and  O1_17 
REMARK    7  A    between atoms: O1_17  and  C13_18 
REMARK    8  A    between atoms: C13_18  and  C14_19 
REMARK    9  A    between atoms: C14_19  and  N4_20 
ROOT
HETATM    1  C9  UNL     1       0.062  -1.193   0.297  1.00  0.00     0.146 A 
HETATM    2  C10 UNL     1      -0.328  -0.137   1.141  1.00  0.00     0.146 A 
HETATM    3  N3  UNL     1      -1.111  -1.344   0.987  1.00  0.00    -0.310 N 
ENDROOT
BRANCH   1   4
HETATM    4  N2  UNL     1       1.227  -1.027  -0.380  1.00  0.00    -0.245 NA
HETATM    5  C8  UNL     1       2.168  -1.745  -0.676  1.00  0.00     0.106 C 
BRANCH   5   6
HETATM    6  C7  UNL     1       2.927  -0.690  -1.402  1.00  0.00     0.092 A 
HETATM    7  C6  UNL     1       3.602   0.241  -0.505  1.00  0.00     0.007 A 
HETATM    8  C5  UNL     1       4.880   0.564  -0.451  1.00  0.00     0.109 A 
HETATM    9  N1  UNL     1       5.742  -0.067  -1.387  1.00  0.00    -0.278 N 
HETATM   10  N5  UNL     1       5.221  -1.000  -2.327  1.00  0.00    -0.188 NA
HETATM   11  C19 UNL     1       3.957  -1.281  -2.333  1.00  0.00     0.125 A 
BRANCH   9  12
HETATM   12  C4  UNL     1       7.170   0.151  -1.457  1.00  0.00     0.180 C 
BRANCH  12  13
HETATM   13  C3  UNL     1       7.872  -0.441  -0.285  1.00  0.00     0.032 C 
HETATM   14  C2  UNL     1       8.607   0.149   0.643  1.00  0.00     0.088 C 
HETATM   15  C1  UNL     1       8.815   1.615   0.590  1.00  0.00     0.082 C 
HETATM   16  F1  UNL     1       9.119  -0.667   1.595  1.00  0.00    -0.212 F 
ENDBRANCH  12  13
ENDBRANCH   9  12
ENDBRANCH   5   6
ENDBRANCH   1   4
BRANCH   3  17
HETATM   17  C11 UNL     1      -2.417  -1.981   1.451  1.00  0.00     0.225 C 
HETATM   18  C12 UNL     1      -2.366  -3.349   0.795  1.00  0.00     0.063 C 
BRANCH  17  19
HETATM   19  O1  UNL     1      -3.356  -1.196   1.181  1.00  0.00    -0.365 OA
BRANCH  19  20
HETATM   20  C13 UNL     1      -4.298  -0.383   1.060  1.00  0.00     0.189 C 
BRANCH  20  21
HETATM   21  C14 UNL     1      -4.800  -0.324  -0.384  1.00  0.00     0.143 C 
BRANCH  21  22
HETATM   22  N4  UNL     1      -5.800   0.682  -0.614  1.00  0.00    -0.406 N 
HETATM   23  C15 UNL     1      -5.236   2.009  -0.580  1.00  0.00     0.143 C 
HETATM   24  C16 UNL     1      -5.943   3.046   0.200  1.00  0.00     0.187 C 
HETATM   25  O2  UNL     1      -7.330   2.901   0.121  1.00  0.00    -0.388 OA
HETATM   26  C17 UNL     1      -7.605   1.697   0.749  1.00  0.00     0.187 C 
HETATM   27  C18 UNL     1      -7.051   0.498   0.010  1.00  0.00     0.143 C 
ENDBRANCH  21  22
ENDBRANCH  20  21
ENDBRANCH  19  20
ENDBRANCH  17  19
ENDBRANCH   3  17
TORSDOF 9
