REMARK  6 active torsions:
REMARK  status: ('A' for Active; 'I' for Inactive)
REMARK    1  A    between atoms: C6_8  and  N3_9 
REMARK    2  A    between atoms: N3_9  and  C7_10 
REMARK    3  A    between atoms: C15_20  and  C16_21 
REMARK    4  A    between atoms: C16_21  and  N4_22 
REMARK    5  A    between atoms: C19_25  and  C20_26 
REMARK    6  A    between atoms: C20_26  and  C21_27 
ROOT
HETATM    1  C1  UNL     1      -2.113  -3.769  -0.217  1.00  0.00     0.049 C 
HETATM    2  C2  UNL     1      -0.818  -3.040  -0.208  1.00  0.00    -0.052 A 
HETATM    3  C3  UNL     1       0.333  -3.639  -0.670  1.00  0.00     0.040 A 
HETATM    4  C4  UNL     1       1.520  -2.947  -0.653  1.00  0.00     0.072 A 
HETATM    5  N1  UNL     1       2.585  -3.611  -1.122  1.00  0.00    -0.241 NA
HETATM    6  C5  UNL     1       3.778  -2.992  -1.133  1.00  0.00     0.236 A 
HETATM    7  N2  UNL     1       3.863  -1.741  -0.678  1.00  0.00    -0.224 NA
HETATM    8  C6  UNL     1       2.870  -0.999  -0.194  1.00  0.00     0.142 A 
HETATM    9  C13 UNL     1       1.662  -1.655  -0.194  1.00  0.00     0.039 A 
HETATM   10  C14 UNL     1       0.482  -1.106   0.256  1.00  0.00     0.027 A 
HETATM   11  C15 UNL     1      -0.745  -1.736   0.270  1.00  0.00    -0.023 A 
ENDROOT
BRANCH   8  12
HETATM   12  N3  UNL     1       2.944   0.321   0.289  1.00  0.00    -0.338 N 
HETATM   13  H6  UNL     1       2.122   0.808   0.644  1.00  0.00     0.167 HD
BRANCH  12  14
HETATM   14  C7  UNL     1       4.086   1.151   0.365  1.00  0.00     0.074 A 
HETATM   15  C8  UNL     1       5.322   0.746  -0.046  1.00  0.00     0.033 A 
HETATM   16  C9  UNL     1       6.454   1.530   0.014  1.00  0.00     0.004 A 
HETATM   17  C10 UNL     1       6.394   2.815   0.512  1.00  0.00     0.027 A 
HETATM   18  C11 UNL     1       5.160   3.259   0.937  1.00  0.00     0.074 A 
HETATM   19 CL1  UNL     1       5.000   4.878   1.581  1.00  0.00    -0.081 Cl
HETATM   20  C12 UNL     1       4.080   2.436   0.851  1.00  0.00     0.164 A 
HETATM   21  F1  UNL     1       2.880   2.946   1.294  1.00  0.00    -0.202 F 
ENDBRANCH  12  14
ENDBRANCH   8  12
BRANCH  11  22
HETATM   22  C16 UNL     1      -1.993  -1.143   0.752  1.00  0.00     0.311 C 
BRANCH  22  23
HETATM   23  N4  UNL     1      -2.913  -0.730  -0.271  1.00  0.00     0.093 N 
HETATM   24  C17 UNL     1      -2.281   0.254  -1.102  1.00  0.00     0.273 C 
HETATM   25  C18 UNL     1      -2.880   1.606  -0.690  1.00  0.00     0.037 C 
HETATM   26  C19 UNL     1      -4.313   1.172  -0.441  1.00  0.00     0.022 C 
HETATM   27  C22 UNL     1      -4.045  -0.106   0.362  1.00  0.00     0.277 C 
BRANCH  26  28
HETATM   28  C20 UNL     1      -5.061   2.150   0.418  1.00  0.00     0.075 C 
BRANCH  28  29
HETATM   29  C21 UNL     1      -5.065   3.450  -0.282  1.00  0.00     0.231 C 
HETATM   30  O1  UNL     1      -4.624   3.888  -1.343  1.00  0.00    -0.307 OA
ENDBRANCH  28  29
ENDBRANCH  26  28
ENDBRANCH  22  23
ENDBRANCH  11  22
TORSDOF 6
