REMARK  3 active torsions:
REMARK  status: ('A' for Active; 'I' for Inactive)
REMARK    1  A    between atoms: C3_3  and  C4_4 
REMARK    2  A    between atoms: C10_15  and  N5_16 
REMARK    3  A    between atoms: N5_16  and  C11_17 
ROOT
HETATM    1  C1  UNL     1      -0.855   3.097  -2.649  1.00  0.00     0.112 C 
HETATM    2  C2  UNL     1      -0.990   1.963  -1.720  1.00  0.00    -0.105 C 
HETATM    3  C3  UNL     1      -1.095   1.010  -0.962  1.00  0.00    -0.065 C 
ENDROOT
BRANCH   3   4
HETATM    4  C4  UNL     1      -1.239  -0.075  -0.093  1.00  0.00     0.049 C 
HETATM    5  C5  UNL     1      -1.839   0.300   1.065  1.00  0.00     0.114 C 
HETATM    6  N1  UNL     1      -2.241  -0.363   2.293  1.00  0.00    -0.316 N 
HETATM    7  C6  UNL     1      -2.758  -1.692   2.412  1.00  0.00     0.345 C 
HETATM    8  H5  UNL     1      -2.136   0.208   3.144  1.00  0.00     0.170 HD
HETATM    9  O1  UNL     1      -3.129  -1.931   3.588  1.00  0.00    -0.245 OA
HETATM   10  N2  UNL     1      -2.973  -2.835   1.554  1.00  0.00    -0.204 NA
HETATM   11  C7  UNL     1      -2.383  -3.236   0.456  1.00  0.00     0.154 C 
HETATM   12  C8  UNL     1      -1.265  -2.673  -0.335  1.00  0.00     0.091 A 
HETATM   13  N3  UNL     1      -0.611  -3.709  -0.930  1.00  0.00    -0.240 NA
HETATM   14  C17 UNL     1      -0.779  -1.380  -0.535  1.00  0.00     0.060 A 
HETATM   15  C9  UNL     1       0.476  -3.339  -1.670  1.00  0.00     0.236 A 
HETATM   16  N4  UNL     1       0.937  -2.093  -1.854  1.00  0.00    -0.223 NA
HETATM   17  C10 UNL     1       0.297  -1.026  -1.265  1.00  0.00     0.143 A 
BRANCH  17  18
HETATM   18  N5  UNL     1       0.962   0.130  -1.518  1.00  0.00    -0.340 N 
HETATM   19  H8  UNL     1       1.107   0.675  -2.416  1.00  0.00     0.167 HD
BRANCH  18  20
HETATM   20  C11 UNL     1       1.655   0.646  -0.320  1.00  0.00     0.035 A 
HETATM   21  C12 UNL     1       2.235   1.921  -0.390  1.00  0.00     0.032 A 
HETATM   22  C13 UNL     1       2.899   2.462   0.698  1.00  0.00     0.046 A 
HETATM   23  C14 UNL     1       2.971   1.702   1.860  1.00  0.00     0.138 A 
HETATM   24  F1  UNL     1       3.617   2.242   2.902  1.00  0.00    -0.204 F 
HETATM   25  C15 UNL     1       2.418   0.461   1.957  1.00  0.00     0.074 A 
HETATM   26 CL1  UNL     1       2.514  -0.482   3.409  1.00  0.00    -0.081 Cl
HETATM   27  C16 UNL     1       1.769  -0.031   0.846  1.00  0.00     0.056 A 
ENDBRANCH  18  20
ENDBRANCH  17  18
ENDBRANCH   3   4
TORSDOF 3
