REMARK  4 active torsions:
REMARK  status: ('A' for Active; 'I' for Inactive)
REMARK    1  A    between atoms: C2_2  and  C3_3 
REMARK    2  A    between atoms: C2_2  and  N2_12 
REMARK    3  A    between atoms: C4_4  and  C5_5 
REMARK    4  A    between atoms: N2_12  and  C9_13 
ROOT
HETATM    1  C9  UNL     1      -1.075   0.554   0.822  1.00  0.00     0.241 C 
HETATM    2  N3  UNL     1      -1.499   1.363   1.959  1.00  0.00    -0.273 NA
HETATM    3  C10 UNL     1      -2.413   2.294   1.739  1.00  0.00     0.116 C 
HETATM    4  C11 UNL     1      -3.364   3.088   0.933  1.00  0.00     0.345 C 
HETATM    5  N4  UNL     1      -3.442   2.782  -0.309  1.00  0.00    -0.399 NA
HETATM    6  C12 UNL     1      -4.247   3.355  -1.294  1.00  0.00     0.188 C 
HETATM    7  N5  UNL     1      -4.956   2.272  -1.529  1.00  0.00    -0.267 NA
HETATM    8  C13 UNL     1      -4.699   1.056  -0.801  1.00  0.00     0.272 C 
HETATM    9  N6  UNL     1      -3.519   0.336  -1.251  1.00  0.00    -0.371 N 
HETATM   10  C14 UNL     1      -3.102  -0.675  -0.302  1.00  0.00     0.041 A 
HETATM   11  C15 UNL     1      -3.815  -1.845  -0.283  1.00  0.00     0.053 A 
HETATM   12  C16 UNL     1      -3.594  -2.922   0.561  1.00  0.00     0.036 A 
HETATM   13 CL1  UNL     1      -4.636  -4.314   0.403  1.00  0.00    -0.084 Cl
HETATM   14  C17 UNL     1      -2.562  -2.764   1.440  1.00  0.00     0.024 A 
HETATM   15  C18 UNL     1      -1.819  -1.590   1.445  1.00  0.00     0.015 A 
HETATM   16  C19 UNL     1      -2.046  -0.525   0.601  1.00  0.00     0.012 A 
HETATM   17  H16 UNL     1      -2.728   0.028  -1.826  1.00  0.00     0.161 HD
ENDROOT
BRANCH   1  18
HETATM   18  N2  UNL     1       0.290   0.118   0.929  1.00  0.00    -0.357 N 
HETATM   19  H9  UNL     1       0.948   0.307   1.719  1.00  0.00     0.162 HD
BRANCH  18  20
HETATM   20  C2  UNL     1       0.797  -0.649  -0.144  1.00  0.00     0.075 C 
HETATM   21  C1  UNL     1      -0.032  -1.469  -0.811  1.00  0.00     0.053 C 
BRANCH  20  22
HETATM   22  C3  UNL     1       2.158  -0.628  -0.602  1.00  0.00    -0.047 C 
HETATM   23  C4  UNL     1       3.298  -0.590  -0.991  1.00  0.00    -0.064 C 
BRANCH  23  24
HETATM   24  C5  UNL     1       4.679  -0.545  -1.476  1.00  0.00     0.258 C 
HETATM   25  N1  UNL     1       5.504  -1.242  -0.561  1.00  0.00    -0.398 N 
HETATM   26  C6  UNL     1       6.579  -0.575   0.033  1.00  0.00     0.142 C 
HETATM   27  H4  UNL     1       5.029  -1.982  -0.028  1.00  0.00     0.155 HD
HETATM   28  C7  UNL     1       6.548   0.904   0.066  1.00  0.00     0.198 C 
HETATM   29  O1  UNL     1       6.149   1.491  -1.165  1.00  0.00    -0.318 OA
HETATM   30  C8  UNL     1       5.052   0.840  -1.748  1.00  0.00     0.293 C 
HETATM   31  O2  UNL     1       4.241   1.360  -2.582  1.00  0.00    -0.262 OA
ENDBRANCH  23  24
ENDBRANCH  20  22
ENDBRANCH  18  20
ENDBRANCH   1  18
TORSDOF 4
