REMARK  6 active torsions:
REMARK  status: ('A' for Active; 'I' for Inactive)
REMARK    1  A    between atoms: C2_2  and  C3_4 
REMARK    2  A    between atoms: C7_11  and  N3_12 
REMARK    3  A    between atoms: N3_12  and  C8_13 
REMARK    4  A    between atoms: C8_13  and  C9_14 
REMARK    5  A    between atoms: C10_15  and  C11_16 
REMARK    6  A    between atoms: C11_16  and  N4_17 
ROOT
HETATM    1  C3  UNL     1       7.009  -0.092   1.414  1.00  0.00     0.182 C 
HETATM    2  F1  UNL     1       7.086  -0.322   2.770  1.00  0.00    -0.200 F 
HETATM    3  C4  UNL     1       5.731  -0.143   1.175  1.00  0.00     0.169 A 
HETATM    4  N1  UNL     1       4.576  -0.364   1.947  1.00  0.00    -0.226 NA
HETATM    5  C5  UNL     1       3.413  -0.363   1.429  1.00  0.00     0.088 A 
HETATM    6  C6  UNL     1       2.419  -0.597   2.360  1.00  0.00     0.151 A 
HETATM    7  N2  UNL     1       1.123  -0.631   2.014  1.00  0.00    -0.241 NA
HETATM    8  C7  UNL     1       0.727  -0.443   0.754  1.00  0.00     0.124 A 
HETATM    9  C16 UNL     1       1.708  -0.205  -0.215  1.00  0.00     0.065 A 
HETATM   10  C17 UNL     1       3.060  -0.164   0.117  1.00  0.00     0.013 A 
HETATM   11  C18 UNL     1       4.064   0.052  -0.695  1.00  0.00     0.103 A 
HETATM   12  N5  UNL     1       5.424   0.074  -0.217  1.00  0.00    -0.347 N 
HETATM   13  H17 UNL     1       6.052   0.262  -1.027  1.00  0.00     0.167 HD
ENDROOT
BRANCH   8  14
HETATM   14  N3  UNL     1      -0.522  -0.396   0.057  1.00  0.00    -0.364 N 
HETATM   15  H4  UNL     1      -0.952  -1.333  -0.128  1.00  0.00     0.162 HD
BRANCH  14  16
HETATM   16  C8  UNL     1      -0.950   0.967  -0.256  1.00  0.00     0.215 C 
BRANCH  16  17
HETATM   17  C9  UNL     1      -2.204   0.904  -1.017  1.00  0.00    -0.085 C 
HETATM   18  C10 UNL     1      -3.240   0.868  -1.635  1.00  0.00    -0.085 C 
BRANCH  18  19
HETATM   19  C11 UNL     1      -4.506   0.802  -2.408  1.00  0.00     0.220 C 
BRANCH  19  20
HETATM   20  N4  UNL     1      -5.577   0.305  -1.531  1.00  0.00    -0.338 N 
HETATM   21  C12 UNL     1      -5.960  -1.097  -1.341  1.00  0.00     0.153 C 
HETATM   22  C13 UNL     1      -6.786  -1.248  -0.090  1.00  0.00     0.188 C 
HETATM   23  O1  UNL     1      -6.391  -0.381   0.919  1.00  0.00    -0.380 OA
HETATM   24  C14 UNL     1      -6.623   0.949   0.666  1.00  0.00     0.270 C 
HETATM   25  C15 UNL     1      -6.326   1.277  -0.779  1.00  0.00     0.244 C 
HETATM   26  O2  UNL     1      -6.697   2.348  -1.358  1.00  0.00    -0.271 OA
ENDBRANCH  19  20
ENDBRANCH  18  19
ENDBRANCH  16  17
ENDBRANCH  14  16
ENDBRANCH   8  14
BRANCH   1  27
HETATM   27  C2  UNL     1       8.230   0.127   0.677  1.00  0.00     0.067 C 
HETATM   28  C1  UNL     1       9.357   0.077   1.436  1.00  0.00     0.040 C 
HETATM   29 CL1  UNL     1       8.502   0.460  -1.029  1.00  0.00    -0.082 Cl
ENDBRANCH   1  27
TORSDOF 6
