REMARK  5 active torsions:
REMARK  status: ('A' for Active; 'I' for Inactive)
REMARK    1  A    between atoms: C2_2  and  C3_3 
REMARK    2  A    between atoms: C4_4  and  C5_5 
REMARK    3  A    between atoms: C5_5  and  C6_6 
REMARK    4  A    between atoms: C9_9  and  N1_10 
REMARK    5  A    between atoms: N1_10  and  C10_11 
ROOT
HETATM    1  C6  UNL     1       2.380  -1.204   0.112  1.00  0.00     0.046 A 
HETATM    2  C7  UNL     1       1.052  -0.946   0.385  1.00  0.00     0.046 A 
HETATM    3  C8  UNL     1      -0.009  -1.791   0.105  1.00  0.00     0.042 A 
HETATM    4  C9  UNL     1      -1.323  -1.504   0.390  1.00  0.00     0.142 A 
HETATM    5  N2  UNL     1      -2.228  -2.429   0.055  1.00  0.00    -0.224 NA
HETATM    6  C16 UNL     1      -1.833  -3.562  -0.527  1.00  0.00     0.236 A 
HETATM    7  N3  UNL     1      -0.537  -3.871  -0.820  1.00  0.00    -0.240 NA
HETATM    8  C17 UNL     1       0.389  -2.954  -0.491  1.00  0.00     0.089 A 
HETATM    9  C18 UNL     1       1.692  -3.276  -0.791  1.00  0.00     0.149 A 
HETATM   10  N4  UNL     1       2.669  -2.399  -0.487  1.00  0.00    -0.262 NA
ENDROOT
BRANCH   4  11
HETATM   11  N1  UNL     1      -1.648  -0.288   0.995  1.00  0.00    -0.340 N 
HETATM   12  H9  UNL     1      -0.923   0.421   1.223  1.00  0.00     0.167 HD
BRANCH  11  13
HETATM   13  C10 UNL     1      -2.911   0.213   1.400  1.00  0.00     0.035 A 
HETATM   14  C11 UNL     1      -4.049  -0.559   1.374  1.00  0.00     0.032 A 
HETATM   15  C12 UNL     1      -5.301  -0.108   1.752  1.00  0.00     0.046 A 
HETATM   16  C13 UNL     1      -5.466   1.176   2.184  1.00  0.00     0.138 A 
HETATM   17  F1  UNL     1      -6.653   1.700   2.572  1.00  0.00    -0.204 F 
HETATM   18  C14 UNL     1      -4.366   1.982   2.227  1.00  0.00     0.074 A 
HETATM   19 CL1  UNL     1      -4.513   3.633   2.771  1.00  0.00    -0.081 Cl
HETATM   20  C15 UNL     1      -3.154   1.485   1.843  1.00  0.00     0.056 A 
ENDBRANCH  11  13
ENDBRANCH   4  11
BRANCH   1  21
HETATM   21  C5  UNL     1       3.461  -0.246   0.444  1.00  0.00     0.153 C 
BRANCH  21  22
HETATM   22  C4  UNL     1       3.631   0.636  -0.712  1.00  0.00    -0.101 C 
HETATM   23  C3  UNL     1       3.755   1.372  -1.658  1.00  0.00    -0.107 C 
BRANCH  23  24
HETATM   24  C2  UNL     1       3.881   2.285  -2.823  1.00  0.00     0.089 C 
HETATM   25  C1  UNL     1       4.743   3.489  -2.491  1.00  0.00     0.018 C 
ENDBRANCH  23  24
ENDBRANCH  21  22
ENDBRANCH   1  21
TORSDOF 5
