REMARK  1 active torsions:
REMARK  status: ('A' for Active; 'I' for Inactive)
REMARK    1  A    between atoms: C3_3  and  N1_4 
ROOT
HETATM    1  C1  UNL     1       5.141   0.492   0.930  1.00  0.00     0.014 C 
HETATM    2  C2  UNL     1       4.325   0.966   0.148  1.00  0.00    -0.096 C 
HETATM    3  C3  UNL     1       3.322   1.533  -0.780  1.00  0.00     0.243 C 
ENDROOT
BRANCH   3   4
HETATM    4  N1  UNL     1       2.031   1.325  -0.219  1.00  0.00    -0.270 N 
HETATM    5  C4  UNL     1       1.581  -0.019  -0.151  1.00  0.00     0.114 C 
HETATM    6  C5  UNL     1       0.782  -0.926  -0.609  1.00  0.00     0.035 C 
HETATM    7  C6  UNL     1      -0.047  -2.036  -1.017  1.00  0.00     0.028 A 
HETATM    8  C7  UNL     1       0.553  -2.790  -1.990  1.00  0.00     0.133 A 
HETATM    9  C9  UNL     1      -1.272  -2.252  -0.443  1.00  0.00     0.136 A 
HETATM   10  N2  UNL     1      -0.094  -3.896  -2.484  1.00  0.00    -0.253 NA
HETATM   11  C8  UNL     1      -1.296  -4.097  -1.911  1.00  0.00     0.234 A 
HETATM   12  N3  UNL     1      -1.866  -3.337  -0.952  1.00  0.00    -0.224 NA
HETATM   13  N4  UNL     1      -2.097  -1.642   0.531  1.00  0.00    -0.371 N 
HETATM   14  C10 UNL     1      -2.292  -0.315   0.056  1.00  0.00     0.150 C 
HETATM   15  H8  UNL     1      -2.429  -2.154   1.376  1.00  0.00     0.161 HD
HETATM   16  C11 UNL     1      -3.210   0.536   0.875  1.00  0.00     0.015 C 
HETATM   17  C12 UNL     1      -3.028   1.707   1.539  1.00  0.00     0.052 C 
HETATM   18 CL1  UNL     1      -4.665   1.970   2.213  1.00  0.00    -0.086 Cl
HETATM   19  C13 UNL     1      -1.595   2.036   1.298  1.00  0.00     0.176 A 
HETATM   20  F1  UNL     1      -2.278   2.919   2.042  1.00  0.00    -0.373 F 
HETATM   21  C14 UNL     1      -0.790   3.052   1.666  1.00  0.00     0.217 A 
HETATM   22  C15 UNL     1       0.501   2.674   1.049  1.00  0.00     0.149 C 
HETATM   23  N5  UNL     1       0.854   1.691   0.355  1.00  0.00    -0.186 NA
ENDBRANCH   3   4
TORSDOF 1
