REMARK  5 active torsions:
REMARK  status: ('A' for Active; 'I' for Inactive)
REMARK    1  A    between atoms: C3_3  and  C4_4 
REMARK    2  A    between atoms: N1_6  and  S1_7 
REMARK    3  A    between atoms: C7_10  and  C16_24 
REMARK    4  A    between atoms: C9_14  and  N4_15 
REMARK    5  A    between atoms: N4_15  and  C10_16 
ROOT
HETATM    1  C1  UNL     1       7.111   1.362  -0.534  1.00  0.00     0.112 C 
HETATM    2  C2  UNL     1       5.982   0.788   0.135  1.00  0.00    -0.107 C 
HETATM    3  C3  UNL     1       5.074   0.346   0.657  1.00  0.00    -0.050 C 
ENDROOT
BRANCH   3   4
HETATM    4  C4  UNL     1       3.894  -0.256   1.328  1.00  0.00     0.227 A 
HETATM    5  O1  UNL     1       3.098  -0.211   0.228  1.00  0.00    -0.198 OA
HETATM    6  N1  UNL     1       3.380  -0.839   2.691  1.00  0.00    -0.230 NA
HETATM    7  H4  UNL     1       4.211  -0.496   2.526  1.00  0.00     0.211 HD
BRANCH   6   8
HETATM    8  S1  UNL     1       1.080  -1.277   1.264  1.00  0.00    -0.136 SA
HETATM    9  C5  UNL     1       0.222  -1.437   0.703  1.00  0.00     0.135 A 
HETATM   10  C6  UNL     1      -0.819  -1.648   0.000  1.00  0.00     0.039 A 
HETATM   11  C7  UNL     1      -0.109  -2.849  -0.048  1.00  0.00     0.145 A 
HETATM   12  N5  UNL     1       1.156  -1.263   1.313  1.00  0.00    -0.227 NA
HETATM   13  C9  UNL     1      -1.430  -0.545   0.069  1.00  0.00     0.137 A 
HETATM   14  N3  UNL     1      -2.372  -1.146  -0.761  1.00  0.00    -0.224 NA
HETATM   15  C8  UNL     1      -2.176  -2.444  -1.167  1.00  0.00     0.230 A 
HETATM   16  N2  UNL     1      -1.165  -3.320  -0.894  1.00  0.00    -0.261 NA
HETATM   17  C16 UNL     1       1.236  -3.228   0.585  1.00  0.00     0.169 A 
HETATM   18  H5  UNL     1       2.184  -1.079   2.022  1.00  0.00     0.106 HD
BRANCH  13  19
HETATM   19  N4  UNL     1      -1.423   0.719   0.475  1.00  0.00    -0.341 N 
HETATM   20  H7  UNL     1      -1.250   1.646   0.822  1.00  0.00     0.167 HD
BRANCH  19  21
HETATM   21  C10 UNL     1      -2.740   1.308   0.250  1.00  0.00     0.035 A 
HETATM   22  C11 UNL     1      -3.819   0.499   0.682  1.00  0.00     0.032 A 
HETATM   23  C12 UNL     1      -5.172   0.826   0.570  1.00  0.00     0.046 A 
HETATM   24  C13 UNL     1      -5.463   2.051  -0.012  1.00  0.00     0.138 A 
HETATM   25  F1  UNL     1      -6.732   2.498  -0.177  1.00  0.00    -0.204 F 
HETATM   26  C14 UNL     1      -4.509   2.913  -0.465  1.00  0.00     0.074 A 
HETATM   27 CL1  UNL     1      -4.693   4.462  -1.208  1.00  0.00    -0.081 Cl
HETATM   28  C15 UNL     1      -3.216   2.504  -0.314  1.00  0.00     0.056 A 
ENDBRANCH  19  21
ENDBRANCH  13  19
ENDBRANCH   6   8
ENDBRANCH   3   4
TORSDOF 5
