REMARK  6 active torsions:
REMARK  status: ('A' for Active; 'I' for Inactive)
REMARK    1  A    between atoms: C2_2  and  N1_3 
REMARK    2  A    between atoms: N1_3  and  O1_4 
REMARK    3  A    between atoms: N1_3  and  C3_5 
REMARK    4  A    between atoms: C3_5  and  C4_6 
REMARK    5  A    between atoms: C5_7  and  C6_8 
REMARK       I    between atoms: C6_8  and  N2_10 
REMARK    6  A    between atoms: C12_17  and  N4_18 
ROOT
HETATM    1  C6  UNL     1       1.779  -0.466  -0.065  1.00  0.00     0.323 C 
HETATM    2  O2  UNL     1       1.727  -1.132  -1.125  1.00  0.00    -0.256 OA
HETATM    3  N2  UNL     1       0.784   0.184   0.710  1.00  0.00    -0.188 N 
HETATM    4  N3  UNL     1       1.027   0.874   1.827  1.00  0.00    -0.174 NA
HETATM    5  C7  UNL     1      -0.116   1.354   2.323  1.00  0.00     0.173 A 
HETATM    6  C8  UNL     1      -1.100   0.930   1.459  1.00  0.00     0.099 A 
HETATM    7  C9  UNL     1      -0.533   0.196   0.447  1.00  0.00     0.092 A 
HETATM    8  C10 UNL     1      -1.154  -0.382  -0.568  1.00  0.00     0.036 A 
HETATM    9  C11 UNL     1      -2.561  -0.440  -0.955  1.00  0.00     0.029 A 
HETATM   10  C12 UNL     1      -3.472   0.172  -0.208  1.00  0.00     0.031 A 
HETATM   11  C18 UNL     1      -3.567   0.986   1.017  1.00  0.00     0.206 A 
HETATM   12  N5  UNL     1      -2.325   1.229   1.658  1.00  0.00    -0.280 NA
ENDROOT
BRANCH   1  13
HETATM   13  C5  UNL     1       3.159  -0.391   0.401  1.00  0.00    -0.002 C 
HETATM   14  C4  UNL     1       4.314  -0.333   0.812  1.00  0.00    -0.080 C 
BRANCH  14  15
HETATM   15  C3  UNL     1       5.680  -0.269   1.325  1.00  0.00     0.214 C 
BRANCH  15  16
HETATM   16  N1  UNL     1       6.412   0.785   0.677  1.00  0.00    -0.189 NA
BRANCH  16  17
HETATM   17  C2  UNL     1       6.682   0.551  -0.713  1.00  0.00     0.117 C 
HETATM   18  C1  UNL     1       7.659  -0.591  -0.816  1.00  0.00     0.023 C 
ENDBRANCH  16  17
BRANCH  16  19
HETATM   19  O1  UNL     1       7.563   0.981   1.376  1.00  0.00    -0.312 OA
HETATM   20  H6  UNL     1       7.325   1.239   2.312  1.00  0.00     0.237 HD
ENDBRANCH  16  19
ENDBRANCH  15  16
ENDBRANCH  14  15
ENDBRANCH   1  13
BRANCH  10  21
HETATM   21  N4  UNL     1      -4.816   0.068  -0.650  1.00  0.00    -0.353 N 
HETATM   22  C13 UNL     1      -5.289  -1.284  -0.637  1.00  0.00     0.118 A 
HETATM   23  C14 UNL     1      -6.499  -1.618  -0.992  1.00  0.00     0.087 A 
HETATM   24 CL1  UNL     1      -7.112  -3.258  -0.988  1.00  0.00    -0.080 Cl
HETATM   25  C15 UNL     1      -7.480  -0.608  -1.443  1.00  0.00     0.137 A 
HETATM   26  F1  UNL     1      -8.755  -0.843  -1.831  1.00  0.00    -0.205 F 
HETATM   27  C16 UNL     1      -7.016   0.644  -1.451  1.00  0.00     0.037 A 
HETATM   28  C17 UNL     1      -5.674   1.158  -1.078  1.00  0.00     0.158 A 
ENDBRANCH  10  21
TORSDOF 6
