REMARK  3 active torsions:
REMARK  status: ('A' for Active; 'I' for Inactive)
REMARK    1  A    between atoms: N1_1  and  C1_2 
REMARK    2  A    between atoms: C11_14  and  N3_15 
REMARK    3  A    between atoms: N3_15  and  C12_16 
ROOT
HETATM    1  C1  UNL     1      -0.380   0.289   0.634  1.00  0.00     0.277 C 
HETATM    2  C2  UNL     1      -1.022   1.333  -0.179  1.00  0.00     0.208 C 
HETATM    3  O1  UNL     1      -1.391   2.515   0.516  1.00  0.00    -0.387 OA
HETATM    4  C3  UNL     1      -2.457   3.168  -0.146  1.00  0.00     0.197 C 
HETATM    5  C4  UNL     1      -3.749   2.355   0.105  1.00  0.00     0.295 C 
HETATM    6  N2  UNL     1      -3.694   1.016  -0.346  1.00  0.00     0.085 N 
HETATM    7  C5  UNL     1      -4.668   0.091   0.258  1.00  0.00     0.270 C 
HETATM    8  C6  UNL     1      -4.141  -1.361  -0.127  1.00  0.00     0.036 C 
HETATM    9  C7  UNL     1      -2.679  -1.055   0.122  1.00  0.00     0.061 C 
HETATM   10  C8  UNL     1      -1.588  -1.956   0.011  1.00  0.00     0.043 C 
HETATM   11  C9  UNL     1      -0.514  -1.127   0.286  1.00  0.00     0.012 C 
HETATM   12  C10 UNL     1       0.713  -1.885  -0.040  1.00  0.00     0.012 A 
HETATM   13  C11 UNL     1       1.871  -1.540  -0.637  1.00  0.00     0.135 A 
HETATM   14  N4  UNL     1       2.734  -2.690  -0.767  1.00  0.00    -0.246 NA
HETATM   15  C18 UNL     1       2.126  -3.726  -0.249  1.00  0.00     0.107 A 
HETATM   16  C19 UNL     1       0.840  -3.314   0.264  1.00  0.00     0.104 A 
HETATM   17  C20 UNL     1      -0.371  -4.035  -0.068  1.00  0.00     0.105 C 
HETATM   18  N5  UNL     1      -1.460  -3.351  -0.161  1.00  0.00    -0.268 NA
HETATM   19  H10 UNL     1      -3.854   0.982  -1.411  1.00  0.00     0.315 HD
ENDROOT
BRANCH  13  20
HETATM   20  N3  UNL     1       2.176  -0.217  -1.124  1.00  0.00    -0.341 N 
HETATM   21  H17 UNL     1       1.495   0.331  -1.688  1.00  0.00     0.167 HD
BRANCH  20  22
HETATM   22  C12 UNL     1       3.448   0.377  -0.841  1.00  0.00     0.035 A 
HETATM   23  C13 UNL     1       4.433  -0.239  -0.102  1.00  0.00     0.032 A 
HETATM   24  C14 UNL     1       5.653   0.281   0.197  1.00  0.00     0.046 A 
HETATM   25  C15 UNL     1       5.934   1.560  -0.291  1.00  0.00     0.138 A 
HETATM   26  F1  UNL     1       7.144   2.109  -0.009  1.00  0.00    -0.204 F 
HETATM   27  C16 UNL     1       4.980   2.218  -1.037  1.00  0.00     0.074 A 
HETATM   28 CL1  UNL     1       5.361   3.825  -1.636  1.00  0.00    -0.081 Cl
HETATM   29  C17 UNL     1       3.758   1.635  -1.307  1.00  0.00     0.056 A 
ENDBRANCH  20  22
ENDBRANCH  13  20
BRANCH   1  30
HETATM   30  N1  UNL     1       0.909   0.667   1.157  1.00  0.00     0.089 NA
HETATM   31  H1  UNL     1       1.069   0.455   2.159  1.00  0.00     0.313 HD
HETATM   32  H2  UNL     1       1.088   1.664   0.982  1.00  0.00     0.313 HD
ENDBRANCH   1  30
TORSDOF 3
