REMARK  4 active torsions:
REMARK  status: ('A' for Active; 'I' for Inactive)
REMARK    1  A    between atoms: C1_2  and  C2_3 
REMARK       I    between atoms: C1_2  and  N2_10 
REMARK    2  A    between atoms: C2_3  and  C3_4 
REMARK    3  A    between atoms: N2_10  and  C7_11 
REMARK    4  A    between atoms: C10_14  and  N3_15 
ROOT
HETATM    1  C7  UNL     1      -0.276   1.405  -0.753  1.00  0.00     0.130 A 
HETATM    2  C8  UNL     1      -1.483   0.874  -0.358  1.00  0.00     0.066 A 
HETATM    3  C9  UNL     1      -2.623   1.174  -1.040  1.00  0.00     0.025 A 
HETATM    4  C10 UNL     1      -3.752   0.583  -0.538  1.00  0.00     0.140 A 
HETATM    5  N4  UNL     1      -4.932   0.843  -1.167  1.00  0.00    -0.242 NA
HETATM    6  C16 UNL     1      -4.973   1.665  -2.256  1.00  0.00     0.120 A 
HETATM    7  C17 UNL     1      -3.848   2.263  -2.769  1.00  0.00     0.033 A 
HETATM    8  C18 UNL     1      -2.670   2.000  -2.138  1.00  0.00    -0.003 A 
HETATM    9  C19 UNL     1      -1.435   2.519  -2.510  1.00  0.00     0.131 A 
HETATM   10  N5  UNL     1      -0.290   2.229  -1.841  1.00  0.00    -0.242 NA
ENDROOT
BRANCH   1  11
HETATM   11  N2  UNL     1       0.929   1.106  -0.056  1.00  0.00    -0.312 N 
HETATM   12  C1  UNL     1       1.780   0.010  -0.373  1.00  0.00     0.225 C 
HETATM   13  O1  UNL     1       1.435  -0.732  -1.329  1.00  0.00    -0.273 OA
HETATM   14  H11 UNL     1       0.960   1.863   0.661  1.00  0.00     0.170 HD
BRANCH  12  15
HETATM   15  C2  UNL     1       2.955  -0.034   0.533  1.00  0.00     0.141 C 
BRANCH  15  16
HETATM   16  C3  UNL     1       3.865  -1.211   0.189  1.00  0.00     0.252 C 
HETATM   17  C4  UNL     1       5.016  -1.122   1.199  1.00  0.00     0.203 C 
HETATM   18  O2  UNL     1       5.763   0.010   0.823  1.00  0.00    -0.387 OA
HETATM   19  C5  UNL     1       6.635  -0.381  -0.213  1.00  0.00     0.197 C 
HETATM   20  C6  UNL     1       5.879  -1.327  -1.121  1.00  0.00     0.296 C 
HETATM   21  N1  UNL     1       4.446  -1.005  -1.121  1.00  0.00     0.092 N 
HETATM   22  H10 UNL     1       4.430   0.032  -1.342  1.00  0.00     0.316 HD
ENDBRANCH  15  16
ENDBRANCH  12  15
ENDBRANCH   1  11
BRANCH   4  23
HETATM   23  N3  UNL     1      -3.928  -0.311   0.550  1.00  0.00    -0.336 N 
HETATM   24  C11 UNL     1      -4.650   0.389   1.586  1.00  0.00     0.120 A 
HETATM   25  C12 UNL     1      -4.989  -0.110   2.784  1.00  0.00     0.087 A 
HETATM   26 CL1  UNL     1      -5.854   0.691   4.062  1.00  0.00    -0.080 Cl
HETATM   27  C13 UNL     1      -4.606  -1.505   3.089  1.00  0.00     0.137 A 
HETATM   28  F1  UNL     1      -4.852  -2.187   4.233  1.00  0.00    -0.205 F 
HETATM   29  C14 UNL     1      -3.955  -2.117   2.114  1.00  0.00     0.037 A 
HETATM   30  C15 UNL     1      -3.531  -1.674   0.762  1.00  0.00     0.160 A 
ENDBRANCH   4  23
TORSDOF 4
