REMARK  8 active torsions:
REMARK  status: ('A' for Active; 'I' for Inactive)
REMARK    1  A    between atoms: C3_3  and  C4_4 
REMARK    2  A    between atoms: C4_4  and  B1_6 
REMARK    3  A    between atoms: B1_6  and  N1_7 
REMARK    4  A    between atoms: N1_7  and  C5_8 
REMARK    5  A    between atoms: C8_11  and  C9_12 
REMARK    6  A    between atoms: C9_12  and  N2_13 
REMARK    7  A    between atoms: C9_12  and  C10_14 
REMARK    8  A    between atoms: C10_14  and  C11_15 
ROOT
HETATM    1  C1  UNL     1       8.200   1.495   0.522  1.00  0.00     0.112 C 
HETATM    2  C2  UNL     1       6.853   1.003   0.147  1.00  0.00    -0.104 C 
HETATM    3  C3  UNL     1       5.741   0.600  -0.178  1.00  0.00    -0.041 C 
ENDROOT
BRANCH   3   4
HETATM    4  C4  UNL     1       4.459   0.120  -0.574  1.00  0.00     0.174 C 
HETATM    5  O1  UNL     1       4.363  -0.416  -1.726  1.00  0.00    -0.296 OA
BRANCH   4   6
HETATM    6  B1  UNL     1       3.197   0.386   0.688  1.00  0.00     0.410 B 
BRANCH   6   7
HETATM    7  N1  UNL     1       1.683   0.168   1.561  1.00  0.00    -0.335 NA
BRANCH   7   8
HETATM    8  C5  UNL     1       0.745  -0.807   1.100  1.00  0.00     0.129 A 
HETATM    9  C6  UNL     1      -0.546  -0.427   0.766  1.00  0.00     0.066 A 
HETATM   10  C7  UNL     1      -1.517  -1.292   0.313  1.00  0.00     0.025 A 
HETATM   11  C8  UNL     1      -2.760  -0.827   0.008  1.00  0.00     0.081 A 
HETATM   12  C13 UNL     1      -1.113  -2.627   0.207  1.00  0.00     0.088 A 
HETATM   13  N3  UNL     1      -3.638  -1.768  -0.428  1.00  0.00    -0.243 NA
HETATM   14  C12 UNL     1      -3.272  -3.060  -0.539  1.00  0.00     0.234 A 
HETATM   15  N4  UNL     1      -2.033  -3.521  -0.235  1.00  0.00    -0.240 NA
HETATM   16  C14 UNL     1       0.167  -3.025   0.534  1.00  0.00     0.151 A 
HETATM   17  N5  UNL     1       1.066  -2.108   0.973  1.00  0.00    -0.241 NA
BRANCH  11  18
HETATM   18  C9  UNL     1      -3.163   0.578   0.128  1.00  0.00     0.272 C 
BRANCH  18  19
HETATM   19  N2  UNL     1      -4.615   0.566   0.353  1.00  0.00     0.088 N 
HETATM   20  H6  UNL     1      -5.034   0.378  -0.602  1.00  0.00     0.313 HD
HETATM   21  H7  UNL     1      -4.876  -0.284   0.915  1.00  0.00     0.313 HD
ENDBRANCH  18  19
BRANCH  18  22
HETATM   22  C10 UNL     1      -2.926   1.391  -1.124  1.00  0.00     0.073 C 
BRANCH  22  23
HETATM   23  C11 UNL     1      -3.407   2.804  -0.790  1.00  0.00     0.224 C 
HETATM   24  F1  UNL     1      -3.240   3.654  -1.868  1.00  0.00    -0.255 F 
ENDBRANCH  22  23
ENDBRANCH  18  22
ENDBRANCH  11  18
ENDBRANCH   7   8
ENDBRANCH   6   7
ENDBRANCH   4   6
ENDBRANCH   3   4
TORSDOF 8
