REMARK  4 active torsions:
REMARK  status: ('A' for Active; 'I' for Inactive)
REMARK    1  A    between atoms: C6_8  and  N3_9 
REMARK    2  A    between atoms: N3_9  and  C7_10 
REMARK    3  A    between atoms: N4_21  and  C16_22 
REMARK    4  A    between atoms: C18_24  and  C19_25 
ROOT
HETATM    1  C1  UNL     1       3.801  -2.456   0.988  1.00  0.00     0.068 C 
HETATM    2  C2  UNL     1       2.521  -1.741   0.704  1.00  0.00     0.010 C 
HETATM    3  C3  UNL     1       1.533  -2.505   0.249  1.00  0.00     0.057 C 
HETATM    4  C4  UNL     1       0.194  -1.988  -0.089  1.00  0.00     0.074 A 
HETATM    5  N1  UNL     1      -0.430  -2.859  -0.892  1.00  0.00    -0.241 NA
HETATM    6  C5  UNL     1      -1.684  -2.600  -1.352  1.00  0.00     0.236 A 
HETATM    7  N2  UNL     1      -2.239  -1.456  -0.963  1.00  0.00    -0.224 NA
HETATM    8  C6  UNL     1      -1.728  -0.517  -0.176  1.00  0.00     0.142 A 
HETATM    9  C13 UNL     1      -0.465  -0.818   0.265  1.00  0.00     0.040 A 
HETATM   10  C14 UNL     1       0.136   0.159   1.165  1.00  0.00     0.035 C 
HETATM   11  C15 UNL     1       1.428   0.365   1.474  1.00  0.00     0.092 C 
HETATM   12  N4  UNL     1       2.597  -0.347   0.987  1.00  0.00    -0.355 N 
ENDROOT
BRANCH   8  13
HETATM   13  N3  UNL     1      -2.361   0.683   0.208  1.00  0.00    -0.338 N 
HETATM   14  H6  UNL     1      -1.903   1.484   0.672  1.00  0.00     0.167 HD
BRANCH  13  15
HETATM   15  C7  UNL     1      -3.720   1.015  -0.002  1.00  0.00     0.074 A 
HETATM   16  C8  UNL     1      -4.626   0.179  -0.611  1.00  0.00     0.033 A 
HETATM   17  C9  UNL     1      -5.949   0.463  -0.835  1.00  0.00     0.004 A 
HETATM   18  C10 UNL     1      -6.459   1.677  -0.434  1.00  0.00     0.027 A 
HETATM   19  C11 UNL     1      -5.608   2.564   0.183  1.00  0.00     0.074 A 
HETATM   20 CL1  UNL     1      -6.221   4.104   0.703  1.00  0.00    -0.081 Cl
HETATM   21  C12 UNL     1      -4.306   2.207   0.369  1.00  0.00     0.164 A 
HETATM   22  F1  UNL     1      -3.526   3.143   0.987  1.00  0.00    -0.202 F 
ENDBRANCH  13  15
ENDBRANCH   8  13
BRANCH  12  23
HETATM   23  C16 UNL     1       3.762   0.458   0.855  1.00  0.00     0.100 A 
HETATM   24  C17 UNL     1       5.023   0.101   0.227  1.00  0.00     0.040 A 
HETATM   25  C18 UNL     1       4.065   0.937  -0.543  1.00  0.00     0.072 A 
BRANCH  25  26
HETATM   26  C19 UNL     1       4.382   2.399  -0.749  1.00  0.00     0.237 C 
HETATM   27  O1  UNL     1       4.929   2.898   0.236  1.00  0.00    -0.306 OA
ENDBRANCH  25  26
ENDBRANCH  12  23
TORSDOF 4
