REMARK  6 active torsions:
REMARK  status: ('A' for Active; 'I' for Inactive)
REMARK    1  A    between atoms: C1_2  and  C2_3 
REMARK       I    between atoms: C1_2  and  N2_12 
REMARK    2  A    between atoms: C3_4  and  C4_5 
REMARK    3  A    between atoms: C4_5  and  N1_6 
REMARK    4  A    between atoms: N2_12  and  C9_13 
REMARK    5  A    between atoms: C11_16  and  N3_17 
REMARK    6  A    between atoms: N3_17  and  C12_18 
ROOT
HETATM    1  C9  UNL     1       0.769  -2.310  -0.787  1.00  0.00     0.265 A 
HETATM    2  S1  UNL     1       1.779  -2.214  -2.064  1.00  0.00     0.082 SA
HETATM    3  C10 UNL     1       2.825  -0.978  -1.987  1.00  0.00     0.092 C 
HETATM    4  C11 UNL     1       2.953  -0.539  -0.772  1.00  0.00     0.149 C 
HETATM    5  N4  UNL     1       2.952  -1.178   0.399  1.00  0.00    -0.223 NA
HETATM    6  C18 UNL     1       2.298  -1.373   1.432  1.00  0.00     0.234 C 
HETATM    7  N5  UNL     1       3.259  -2.256   2.054  1.00  0.00    -0.256 NA
HETATM    8  C19 UNL     1       3.430  -3.454   1.599  1.00  0.00     0.130 C 
HETATM    9  C20 UNL     1       2.424  -3.296   0.536  1.00  0.00     0.680 C 
HETATM   10  N6  UNL     1       1.603  -3.342  -0.433  1.00  0.00    -0.008 NA
ENDROOT
BRANCH   1  11
HETATM   11  N2  UNL     1      -0.365  -1.518  -0.497  1.00  0.00    -0.289 N 
HETATM   12  C1  UNL     1      -0.663  -0.502  -1.446  1.00  0.00     0.302 C 
HETATM   13  O1  UNL     1       0.054  -0.342  -2.468  1.00  0.00    -0.258 OA
HETATM   14  H11 UNL     1      -0.846  -1.781   0.388  1.00  0.00     0.171 HD
BRANCH  12  15
HETATM   15  C2  UNL     1      -1.821   0.292  -1.131  1.00  0.00    -0.004 C 
HETATM   16  C3  UNL     1      -2.799   0.954  -0.884  1.00  0.00    -0.066 C 
BRANCH  16  17
HETATM   17  C4  UNL     1      -4.012   1.751  -0.594  1.00  0.00     0.366 C 
BRANCH  17  18
HETATM   18  N1  UNL     1      -4.786   0.984   0.338  1.00  0.00     0.103 N 
HETATM   19  C5  UNL     1      -5.988   1.737   0.646  1.00  0.00     0.299 C 
HETATM   20  C6  UNL     1      -7.023   1.344  -0.395  1.00  0.00     0.198 C 
HETATM   21  O2  UNL     1      -7.519   0.077  -0.092  1.00  0.00    -0.388 OA
HETATM   22  C7  UNL     1      -6.475  -0.790   0.212  1.00  0.00     0.198 C 
HETATM   23  C8  UNL     1      -5.139  -0.265  -0.279  1.00  0.00     0.299 C 
ENDBRANCH  17  18
ENDBRANCH  16  17
ENDBRANCH  12  15
ENDBRANCH   1  11
BRANCH   4  24
HETATM   24  N3  UNL     1       3.141   0.736  -0.157  1.00  0.00    -0.340 N 
HETATM   25  H12 UNL     1       2.401   1.420   0.186  1.00  0.00     0.167 HD
BRANCH  24  26
HETATM   26  C12 UNL     1       4.480   1.173   0.030  1.00  0.00     0.035 A 
HETATM   27  C13 UNL     1       4.834   2.359   0.604  1.00  0.00     0.032 A 
HETATM   28  C14 UNL     1       6.115   2.807   0.798  1.00  0.00     0.046 A 
HETATM   29  C15 UNL     1       7.156   2.020   0.391  1.00  0.00     0.138 A 
HETATM   30  F1  UNL     1       8.442   2.387   0.544  1.00  0.00    -0.204 F 
HETATM   31  C16 UNL     1       6.886   0.803  -0.201  1.00  0.00     0.074 A 
HETATM   32 CL1  UNL     1       8.201  -0.251  -0.745  1.00  0.00    -0.081 Cl
HETATM   33  C17 UNL     1       5.574   0.413  -0.366  1.00  0.00     0.056 A 
ENDBRANCH  24  26
ENDBRANCH   4  24
TORSDOF 6
