REMARK  9 active torsions:
REMARK  status: ('A' for Active; 'I' for Inactive)
REMARK    1  A    between atoms: O1_2  and  C2_3 
REMARK    2  A    between atoms: C2_3  and  C15_22 
REMARK    3  A    between atoms: C3_4  and  C4_5 
REMARK    4  A    between atoms: C6_9  and  N3_10 
REMARK    5  A    between atoms: N3_10  and  C7_11 
REMARK    6  A    between atoms: C13_19  and  O2_20 
REMARK    7  A    between atoms: C15_22  and  C16_23 
REMARK    8  A    between atoms: C16_23  and  N4_24 
REMARK    9  A    between atoms: C19_27  and  C20_28 
REMARK       I    between atoms: C20_28  and  N5_29 
ROOT
HETATM    1  C4  UNL     1       1.391  -1.121  -0.593  1.00  0.00     0.097 A 
HETATM    2  N1  UNL     1       1.695  -2.262   0.081  1.00  0.00    -0.239 NA
HETATM    3  C5  UNL     1       2.855  -2.468   0.714  1.00  0.00     0.236 A 
HETATM    4  N2  UNL     1       3.741  -1.460   0.650  1.00  0.00    -0.221 NA
HETATM    5  C6  UNL     1       3.495  -0.309  -0.002  1.00  0.00     0.165 A 
HETATM    6  C13 UNL     1       2.304  -0.096  -0.651  1.00  0.00     0.143 A 
ENDROOT
BRANCH   1   7
HETATM    7  C3  UNL     1       0.129  -0.961  -1.295  1.00  0.00     0.067 C 
HETATM    8  C2  UNL     1      -0.913  -0.186  -1.509  1.00  0.00     0.049 C 
BRANCH   8   9
HETATM    9  O1  UNL     1      -1.024   1.038  -0.880  1.00  0.00    -0.360 OA
HETATM   10  C1  UNL     1      -1.415   2.220  -1.552  1.00  0.00     0.209 C 
ENDBRANCH   8   9
BRANCH   8  11
HETATM   11  C15 UNL     1      -1.982  -0.589  -2.423  1.00  0.00     0.095 C 
BRANCH  11  12
HETATM   12  C16 UNL     1      -3.268  -0.966  -1.817  1.00  0.00     0.279 C 
BRANCH  12  13
HETATM   13  N4  UNL     1      -3.998  -0.075  -1.014  1.00  0.00     0.089 N 
HETATM   14  C17 UNL     1      -3.510   0.180   0.282  1.00  0.00     0.273 C 
HETATM   15  C18 UNL     1      -4.639  -0.226   1.249  1.00  0.00     0.046 C 
HETATM   16  C19 UNL     1      -5.879  -0.056   0.421  1.00  0.00     0.107 C 
HETATM   17  C21 UNL     1      -5.392  -0.435  -0.962  1.00  0.00     0.286 C 
BRANCH  16  18
HETATM   18  C20 UNL     1      -6.949  -0.997   0.856  1.00  0.00     0.221 C 
HETATM   19  N5  UNL     1      -7.151  -0.619   2.211  1.00  0.00    -0.370 N 
HETATM   20  H22 UNL     1      -6.791  -0.663   3.203  1.00  0.00     0.159 HD
HETATM   21  H23 UNL     1      -8.042  -0.077   2.113  1.00  0.00     0.159 HD
HETATM   22  O3  UNL     1      -7.612  -1.916   0.355  1.00  0.00    -0.273 OA
ENDBRANCH  16  18
ENDBRANCH  12  13
ENDBRANCH  11  12
ENDBRANCH   8  11
ENDBRANCH   1   7
BRANCH   6  23
HETATM   23  O2  UNL     1       2.279   1.134  -1.237  1.00  0.00    -0.350 OA
HETATM   24  C14 UNL     1       1.849   2.263  -0.507  1.00  0.00     0.210 C 
ENDBRANCH   6  23
BRANCH   5  25
HETATM   25  N3  UNL     1       4.584   0.606   0.067  1.00  0.00    -0.336 N 
HETATM   26  H6  UNL     1       4.705   1.563  -0.323  1.00  0.00     0.168 HD
BRANCH  25  27
HETATM   27  C7  UNL     1       5.779   0.332   0.737  1.00  0.00     0.074 A 
HETATM   28  C8  UNL     1       7.004   0.321   0.080  1.00  0.00     0.033 A 
HETATM   29  C9  UNL     1       8.218   0.058   0.673  1.00  0.00     0.004 A 
HETATM   30  C10 UNL     1       8.260  -0.220   2.026  1.00  0.00     0.027 A 
HETATM   31  C11 UNL     1       7.076  -0.222   2.724  1.00  0.00     0.074 A 
HETATM   32 CL1  UNL     1       7.172  -0.581   4.440  1.00  0.00    -0.081 Cl
HETATM   33  C12 UNL     1       5.854   0.047   2.101  1.00  0.00     0.164 A 
HETATM   34  F1  UNL     1       4.729   0.032   2.833  1.00  0.00    -0.202 F 
ENDBRANCH  25  27
ENDBRANCH   5  25
TORSDOF 9
