REMARK  6 active torsions:
REMARK  status: ('A' for Active; 'I' for Inactive)
REMARK    1  A    between atoms: C2_2  and  C3_4 
REMARK    2  A    between atoms: C4_5  and  C5_6 
REMARK    3  A    between atoms: C6_7  and  N1_8 
REMARK    4  A    between atoms: C6_7  and  C11_15 
REMARK       I    between atoms: N1_8  and  C7_9 
REMARK    5  A    between atoms: C7_9  and  C8_11 
REMARK    6  A    between atoms: C9_12  and  C10_13 
ROOT
HETATM    1  C5  UNL     1      -0.609   1.301   0.385  1.00  0.00     0.032 C 
HETATM    2  C6  UNL     1      -0.002   0.140   0.264  1.00  0.00     0.065 C 
ENDROOT
BRANCH   2   3
HETATM    3  N1  UNL     1       1.357   0.497   0.059  1.00  0.00    -0.314 N 
HETATM    4  C7  UNL     1       2.198   0.323  -1.092  1.00  0.00     0.301 C 
HETATM    5  O1  UNL     1       1.704  -0.236  -2.129  1.00  0.00    -0.258 OA
HETATM    6  H6  UNL     1       1.903   0.966   0.832  1.00  0.00     0.170 HD
BRANCH   4   7
HETATM    7  C8  UNL     1       3.566   0.739  -1.150  1.00  0.00    -0.003 C 
HETATM    8  C9  UNL     1       4.715   1.098  -1.180  1.00  0.00    -0.065 C 
BRANCH   8   9
HETATM    9  C10 UNL     1       6.116   1.526  -1.200  1.00  0.00     0.316 C 
HETATM   10  F1  UNL     1       6.353   2.429  -2.210  1.00  0.00    -0.242 F 
ENDBRANCH   8   9
ENDBRANCH   4   7
ENDBRANCH   2   3
BRANCH   2  11
HETATM   11  C11 UNL     1      -0.793  -1.068   0.317  1.00  0.00     0.097 A 
HETATM   12  N2  UNL     1      -2.123  -0.981   0.246  1.00  0.00    -0.239 NA
HETATM   13  C12 UNL     1      -2.966  -1.997   0.293  1.00  0.00     0.234 A 
HETATM   14  N3  UNL     1      -2.499  -3.242   0.424  1.00  0.00    -0.240 NA
HETATM   15  C13 UNL     1      -1.183  -3.462   0.508  1.00  0.00     0.088 A 
HETATM   16  C14 UNL     1      -0.607  -4.725   0.667  1.00  0.00     0.148 A 
HETATM   17  C17 UNL     1      -0.359  -2.361   0.453  1.00  0.00     0.027 A 
HETATM   18  N4  UNL     1       0.732  -4.896   0.770  1.00  0.00    -0.271 NA
HETATM   19  C15 UNL     1       1.556  -3.821   0.721  1.00  0.00     0.117 A 
HETATM   20  C16 UNL     1       0.979  -2.583   0.563  1.00  0.00     0.035 A 
ENDBRANCH   2  11
BRANCH   1  21
HETATM   21  C4  UNL     1      -2.042   1.447   0.616  1.00  0.00     0.004 C 
HETATM   22  C3  UNL     1      -2.627   2.618   0.735  1.00  0.00     0.023 C 
BRANCH  22  23
HETATM   23  C2  UNL     1      -3.884   3.281   0.949  1.00  0.00     0.024 C 
HETATM   24  C1  UNL     1      -4.202   4.541   1.027  1.00  0.00     0.037 C 
HETATM   25 CL1  UNL     1      -4.976   1.912   1.091  1.00  0.00    -0.085 Cl
ENDBRANCH  22  23
ENDBRANCH   1  21
TORSDOF 6
