REMARK  4 active torsions:
REMARK  status: ('A' for Active; 'I' for Inactive)
REMARK    1  A    between atoms: C3_3  and  C4_4 
REMARK       I    between atoms: C4_4  and  N1_6 
REMARK    2  A    between atoms: N1_6  and  C5_7 
REMARK    3  A    between atoms: C9_14  and  N5_15 
REMARK    4  A    between atoms: N5_15  and  C10_16 
ROOT
HETATM    1  C1  UNL     1       6.950   2.272   0.533  1.00  0.00     0.112 C 
HETATM    2  C2  UNL     1       5.866   1.310   0.596  1.00  0.00    -0.101 C 
HETATM    3  C3  UNL     1       4.976   0.500   0.660  1.00  0.00    -0.006 C 
ENDROOT
BRANCH   3   4
HETATM    4  C4  UNL     1       3.908  -0.483   0.760  1.00  0.00     0.299 C 
HETATM    5  O1  UNL     1       3.898  -1.166   1.832  1.00  0.00    -0.258 OA
HETATM    6  N1  UNL     1       2.944  -0.651  -0.295  1.00  0.00    -0.305 N 
HETATM    7  H4  UNL     1       3.001  -0.072  -1.137  1.00  0.00     0.167 HD
BRANCH   6   8
HETATM    8  C5  UNL     1       1.921  -1.663  -0.086  1.00  0.00     0.360 A 
HETATM    9  N2  UNL     1       2.066  -2.751  -1.014  1.00  0.00    -0.247 NA
HETATM   10  C6  UNL     1       1.090  -3.172  -1.717  1.00  0.00     0.150 A 
HETATM   11  C7  UNL     1      -0.226  -2.611  -1.651  1.00  0.00     0.112 A 
HETATM   12  N3  UNL     1      -1.263  -3.044  -2.385  1.00  0.00    -0.238 NA
HETATM   13  C16 UNL     1      -0.404  -1.574  -0.779  1.00  0.00     0.149 A 
HETATM   14  C8  UNL     1      -2.481  -2.452  -2.258  1.00  0.00     0.236 A 
HETATM   15  N4  UNL     1      -2.665  -1.436  -1.407  1.00  0.00    -0.221 NA
HETATM   16  C9  UNL     1      -1.656  -0.976  -0.658  1.00  0.00     0.165 A 
HETATM   17  O2  UNL     1       0.638  -1.108  -0.014  1.00  0.00    -0.300 OA
BRANCH  16  18
HETATM   18  N5  UNL     1      -1.794   0.096   0.258  1.00  0.00    -0.339 N 
HETATM   19  H8  UNL     1      -0.940   0.397   0.813  1.00  0.00     0.167 HD
BRANCH  18  20
HETATM   20  C10 UNL     1      -2.926   0.882   0.588  1.00  0.00     0.035 A 
HETATM   21  C11 UNL     1      -2.891   1.913   1.525  1.00  0.00     0.032 A 
HETATM   22  C12 UNL     1      -3.983   2.673   1.844  1.00  0.00     0.046 A 
HETATM   23  C13 UNL     1      -5.195   2.448   1.239  1.00  0.00     0.138 A 
HETATM   24  F1  UNL     1      -6.248   3.224   1.585  1.00  0.00    -0.204 F 
HETATM   25  C14 UNL     1      -5.300   1.448   0.306  1.00  0.00     0.074 A 
HETATM   26 CL1  UNL     1      -6.851   1.186  -0.445  1.00  0.00    -0.081 Cl
HETATM   27  C15 UNL     1      -4.168   0.717   0.026  1.00  0.00     0.056 A 
ENDBRANCH  18  20
ENDBRANCH  16  18
ENDBRANCH   6   8
ENDBRANCH   3   4
TORSDOF 4
