REMARK  0 active torsions:
REMARK  status: ('A' for Active; 'I' for Inactive)
ROOT
HETATM    1  O1  UNL     1       0.378  -2.586  -3.179  1.00  0.00    -0.281 OA
HETATM    2  C1  UNL     1      -0.397  -2.106  -2.307  1.00  0.00     0.230 C 
HETATM    3  C2  UNL     1       0.256  -1.962  -1.082  1.00  0.00    -0.025 C 
HETATM    4  C3  UNL     1       0.776  -1.843  -0.064  1.00  0.00    -0.079 C 
HETATM    5  C4  UNL     1       1.423  -1.720   1.208  1.00  0.00     0.210 C 
HETATM    6  N1  UNL     1       2.697  -1.050   0.968  1.00  0.00    -0.402 N 
HETATM    7  C5  UNL     1       2.402   0.350   0.624  1.00  0.00     0.126 C 
HETATM    8  C6  UNL     1       3.170   1.482   0.534  1.00  0.00     0.003 C 
HETATM    9  C7  UNL     1       2.419   2.706   0.144  1.00  0.00     0.042 C 
HETATM   10  C8  UNL     1       1.293   3.370  -0.201  1.00  0.00     0.137 C 
HETATM   11  F1  UNL     1       1.455   4.728  -0.446  1.00  0.00    -0.204 F 
HETATM   12  C9  UNL     1      -0.142   3.060  -0.434  1.00  0.00     0.074 C 
HETATM   13 CL1  UNL     1      -1.133   4.475  -0.872  1.00  0.00    -0.081 Cl
HETATM   14  C10 UNL     1      -0.883   1.970  -0.397  1.00  0.00     0.057 C 
HETATM   15  C11 UNL     1      -1.481   0.670  -0.296  1.00  0.00     0.050 C 
HETATM   16  C12 UNL     1      -1.590  -0.169  -1.358  1.00  0.00     0.040 C 
HETATM   17  C13 UNL     1      -1.716  -1.567  -1.815  1.00  0.00     0.215 C 
HETATM   18  N2  UNL     1      -2.372  -2.446  -0.898  1.00  0.00    -0.282 NA
HETATM   19  C14 UNL     1      -2.734  -2.483   0.334  1.00  0.00     0.132 C 
HETATM   20  C15 UNL     1      -2.469  -1.781   1.558  1.00  0.00     0.157 C 
HETATM   21  N3  UNL     1      -1.920  -0.633   1.877  1.00  0.00    -0.185 NA
HETATM   22  N4  UNL     1      -1.876   0.551   1.094  1.00  0.00    -0.279 N 
HETATM   23  H3  UNL     1       3.452  -1.816   1.116  1.00  0.00     0.154 HD
HETATM   24  H12 UNL     1      -2.114   1.560   1.343  1.00  0.00     0.189 HD
ENDROOT
TORSDOF 0
