REMARK  0 active torsions:
REMARK  status: ('A' for Active; 'I' for Inactive)
ROOT
HETATM    1  O1  UNL     1       0.790  -1.762  -0.515  1.00  0.00    -0.144 OA
HETATM    2  C1  UNL     1       1.067  -2.578  -1.464  1.00  0.00     0.359 A 
HETATM    3  C2  UNL     1       2.528  -2.358  -1.565  1.00  0.00     0.083 C 
HETATM    4  C3  UNL     1       2.954  -1.178  -0.749  1.00  0.00     0.032 C 
HETATM    5  C4  UNL     1       2.475   0.137  -1.292  1.00  0.00     0.144 C 
HETATM    6 CL1  UNL     1       3.260   0.384  -2.887  1.00  0.00    -0.118 Cl
HETATM    7  C5  UNL     1       2.827   1.258  -0.385  1.00  0.00     0.112 C 
HETATM    8  F1  UNL     1       4.158   1.038  -0.428  1.00  0.00    -0.209 F 
HETATM    9  C6  UNL     1       2.343   2.251   0.359  1.00  0.00     0.041 C 
HETATM   10  C7  UNL     1       1.096   2.852   0.741  1.00  0.00     0.020 C 
HETATM   11  C8  UNL     1      -0.212   2.812   0.619  1.00  0.00     0.090 C 
HETATM   12  N1  UNL     1      -1.376   2.201   0.062  1.00  0.00    -0.350 N 
HETATM   13  C9  UNL     1      -2.328   1.390   0.794  1.00  0.00     0.135 A 
HETATM   14  N2  UNL     1      -3.124   2.219   1.457  1.00  0.00    -0.258 NA
HETATM   15  C10 UNL     1      -4.114   1.903   2.257  1.00  0.00     0.033 A 
HETATM   16  B1  UNL     1      -4.315  -0.045   2.477  1.00  0.00     0.238 B 
HETATM   17  C11 UNL     1      -3.156  -0.771   1.453  1.00  0.00    -0.068 A 
HETATM   18  C12 UNL     1      -3.003  -2.136   1.266  1.00  0.00     0.114 A 
HETATM   19  N3  UNL     1      -2.075  -2.725   0.448  1.00  0.00    -0.235 NA
HETATM   20  C13 UNL     1      -1.256  -1.935  -0.220  1.00  0.00     0.264 A 
HETATM   21  C14 UNL     1      -1.360  -0.571  -0.074  1.00  0.00     0.076 A 
HETATM   22  C15 UNL     1      -2.289   0.030   0.745  1.00  0.00     0.010 A 
HETATM   23  N4  UNL     1      -0.285  -2.502  -1.067  1.00  0.00     0.135 N 
HETATM   24  H9  UNL     1      -1.836   2.146  -0.859  1.00  0.00     0.166 HD
HETATM   25  H13 UNL     1      -0.781  -3.197  -1.716  1.00  0.00     0.331 HD
ENDROOT
TORSDOF 0
