REMARK  1 active torsions:
REMARK  status: ('A' for Active; 'I' for Inactive)
REMARK    1  A    between atoms: C13_17  and  N5_18 
ROOT
HETATM    1  C1  UNL     1       4.026   0.784  -1.430  1.00  0.00     0.031 C 
HETATM    2  C2  UNL     1       2.708   0.659  -0.811  1.00  0.00     0.046 C 
HETATM    3  C3  UNL     1       2.282   1.920  -0.577  1.00  0.00     0.041 C 
HETATM    4  C4  UNL     1       1.302   2.906  -0.080  1.00  0.00    -0.003 C 
HETATM    5  C5  UNL     1       0.108   3.159   0.509  1.00  0.00     0.086 C 
HETATM    6  N1  UNL     1      -0.829   2.216   0.957  1.00  0.00    -0.350 N 
HETATM    7  C6  UNL     1      -1.915   1.330   0.991  1.00  0.00     0.141 A 
HETATM    8  N2  UNL     1      -3.125   1.828   1.243  1.00  0.00    -0.224 NA
HETATM    9  C7  UNL     1      -4.253   1.111   1.310  1.00  0.00     0.236 A 
HETATM   10  N3  UNL     1      -4.234  -0.219   1.119  1.00  0.00    -0.240 NA
HETATM   11  C8  UNL     1      -3.015  -0.748   0.860  1.00  0.00     0.089 A 
HETATM   12  C9  UNL     1      -3.023  -2.134   0.658  1.00  0.00     0.149 A 
HETATM   13  N4  UNL     1      -1.929  -2.851   0.385  1.00  0.00    -0.260 NA
HETATM   14  C10 UNL     1      -0.732  -2.266   0.286  1.00  0.00     0.080 A 
HETATM   15  C11 UNL     1      -0.855  -0.913   0.505  1.00  0.00     0.048 A 
HETATM   16  C12 UNL     1      -1.852  -0.018   0.789  1.00  0.00     0.042 A 
HETATM   17  C13 UNL     1       0.717  -2.648  -0.021  1.00  0.00     0.348 C 
HETATM   18  C14 UNL     1       1.451  -1.477  -0.310  1.00  0.00    -0.064 C 
HETATM   19  C15 UNL     1       2.022  -0.527  -0.540  1.00  0.00    -0.092 C 
HETATM   20  H7  UNL     1      -0.514   2.059   1.919  1.00  0.00     0.166 HD
ENDROOT
BRANCH  17  21
HETATM   21  N5  UNL     1       0.741  -3.578  -1.138  1.00  0.00     0.100 N 
HETATM   22  H12 UNL     1       1.358  -3.183  -1.876  1.00  0.00     0.315 HD
HETATM   23  H13 UNL     1       1.139  -4.507  -0.857  1.00  0.00     0.315 HD
ENDBRANCH  17  21
TORSDOF 1
