REMARK  4 active torsions:
REMARK  status: ('A' for Active; 'I' for Inactive)
REMARK    1  A    between atoms: C3_3  and  C4_4 
REMARK       I    between atoms: C4_4  and  N1_6 
REMARK    2  A    between atoms: N1_6  and  C5_7 
REMARK    3  A    between atoms: C8_13  and  C9_14 
REMARK    4  A    between atoms: C16_23  and  N5_24 
ROOT
HETATM    1  C1  UNL     1       7.102   1.261  -1.533  1.00  0.00     0.112 C 
HETATM    2  C2  UNL     1       5.915   0.664  -0.870  1.00  0.00    -0.101 C 
HETATM    3  C3  UNL     1       4.960   0.168  -0.326  1.00  0.00    -0.006 C 
ENDROOT
BRANCH   3   4
HETATM    4  C4  UNL     1       3.833  -0.426   0.345  1.00  0.00     0.302 C 
HETATM    5  O1  UNL     1       4.039  -1.318   1.206  1.00  0.00    -0.258 OA
HETATM    6  N1  UNL     1       2.527   0.028   0.000  1.00  0.00    -0.299 N 
HETATM    7  H4  UNL     1       2.309   0.765  -0.707  1.00  0.00     0.171 HD
BRANCH   6   8
HETATM    8  C5  UNL     1       1.452  -0.596   0.697  1.00  0.00     0.161 A 
HETATM    9  N2  UNL     1       1.701  -1.551   1.616  1.00  0.00    -0.223 NA
HETATM   10  C6  UNL     1       0.714  -2.179   2.309  1.00  0.00     0.218 A 
HETATM   11  N3  UNL     1      -0.590  -1.892   2.128  1.00  0.00    -0.296 N 
HETATM   12  C7  UNL     1      -1.780  -2.288   2.601  1.00  0.00     0.216 A 
HETATM   13  C15 UNL     1      -0.844  -0.940   1.213  1.00  0.00     0.101 A 
HETATM   14  N4  UNL     1      -2.744  -1.587   1.984  1.00  0.00    -0.240 NA
HETATM   15  C8  UNL     1      -2.187  -0.715   1.091  1.00  0.00     0.098 A 
HETATM   16  C16 UNL     1       0.125  -0.279   0.488  1.00  0.00     0.102 A 
BRANCH  15  17
HETATM   17  C9  UNL     1      -3.091   0.126   0.323  1.00  0.00    -0.003 A 
HETATM   18  C10 UNL     1      -3.061   1.487   0.113  1.00  0.00     0.017 A 
HETATM   19  C11 UNL     1      -3.975   2.143  -0.655  1.00  0.00     0.045 A 
HETATM   20  C12 UNL     1      -4.990   1.456  -1.267  1.00  0.00     0.138 A 
HETATM   21  F1  UNL     1      -5.899   2.104  -2.030  1.00  0.00    -0.204 F 
HETATM   22  C13 UNL     1      -5.108   0.107  -1.122  1.00  0.00     0.073 A 
HETATM   23 CL1  UNL     1      -6.377  -0.831  -1.874  1.00  0.00    -0.081 Cl
HETATM   24  C14 UNL     1      -4.157  -0.505  -0.335  1.00  0.00     0.041 A 
ENDBRANCH  15  17
BRANCH  16  25
HETATM   25  N5  UNL     1      -0.140   0.714  -0.487  1.00  0.00    -0.394 N 
HETATM   26  H10 UNL     1      -0.701   0.465  -1.324  1.00  0.00     0.156 HD
HETATM   27  H11 UNL     1       0.094   1.713  -0.604  1.00  0.00     0.156 HD
ENDBRANCH  16  25
ENDBRANCH   6   8
ENDBRANCH   3   4
TORSDOF 4
