REMARK  0 active torsions:
REMARK  status: ('A' for Active; 'I' for Inactive)
ROOT
HETATM    1 CL1  UNL     1       3.826   0.941   1.881  1.00  0.00    -0.079 Cl
HETATM    2  C1  UNL     1       3.296   0.329   0.341  1.00  0.00     0.273 A 
HETATM    3  C2  UNL     1       3.759  -0.941   0.101  1.00  0.00     0.294 A 
HETATM    4  N1  UNL     1       2.374  -0.989  -0.161  1.00  0.00     0.023 N 
HETATM    5  C3  UNL     1       1.852  -0.781  -1.399  1.00  0.00     0.277 C 
HETATM    6  C4  UNL     1       2.001   0.700  -1.825  1.00  0.00     0.014 C 
HETATM    7  C5  UNL     1       2.423   1.136  -0.604  1.00  0.00     0.008 C 
HETATM    8  P1  UNL     1       1.792   2.698   0.141  1.00  0.00    -0.025 P 
HETATM    9  C6  UNL     1       0.137   2.899   0.565  1.00  0.00     0.024 C 
HETATM   10  C7  UNL     1      -0.823   1.731   0.301  1.00  0.00     0.176 C 
HETATM   11  O1  UNL     1      -1.073   1.918  -1.061  1.00  0.00    -0.368 OA
HETATM   12  C8  UNL     1      -2.557   2.010  -1.118  1.00  0.00     0.262 C 
HETATM   13  C9  UNL     1      -2.800   0.666  -0.660  1.00  0.00    -0.079 C 
HETATM   14  C10 UNL     1      -2.966  -0.364  -0.314  1.00  0.00    -0.085 C 
HETATM   15  C11 UNL     1      -3.157  -1.711   0.129  1.00  0.00     0.213 C 
HETATM   16  N2  UNL     1      -2.099  -2.461  -0.671  1.00  0.00    -0.388 N 
HETATM   17  C12 UNL     1      -0.809  -1.967  -0.244  1.00  0.00     0.097 C 
HETATM   18  C13 UNL     1      -0.350  -0.844   0.251  1.00  0.00     0.039 C 
HETATM   19  C14 UNL     1       1.110  -1.092   0.443  1.00  0.00     0.244 C 
HETATM   20  N3  UNL     1       1.176  -1.485   1.644  1.00  0.00    -0.217 NA
HETATM   21  C15 UNL     1       0.260  -0.793   2.623  1.00  0.00     0.229 C 
HETATM   22  N4  UNL     1      -0.577   0.185   2.239  1.00  0.00    -0.270 NA
HETATM   23  C16 UNL     1      -0.276   0.523   0.786  1.00  0.00     0.180 C 
HETATM   24  H11 UNL     1      -2.247  -3.178  -1.391  1.00  0.00     0.159 HD
ENDROOT
TORSDOF 0
