REMARK  6 active torsions:
REMARK  status: ('A' for Active; 'I' for Inactive)
REMARK    1  A    between atoms: C2_2  and  C3_3 
REMARK    2  A    between atoms: C3_3  and  C4_4 
REMARK    3  A    between atoms: C4_4  and  N1_5 
REMARK    4  A    between atoms: N2_9  and  O1_10 
REMARK    5  A    between atoms: C12_15  and  N3_16 
REMARK    6  A    between atoms: N3_16  and  C13_17 
ROOT
HETATM    1  N1  UNL     1      -3.466  -0.044   0.455  1.00  0.00     0.099 NA
HETATM    2  C5  UNL     1      -3.478  -1.509   0.323  1.00  0.00     0.367 C 
HETATM    3  C6  UNL     1      -2.250  -2.151   0.212  1.00  0.00    -0.051 C 
HETATM    4  C7  UNL     1      -1.246  -2.661   0.136  1.00  0.00     0.037 C 
HETATM    5  N2  UNL     1      -0.043  -3.247   0.055  1.00  0.00    -0.205 N 
HETATM    6  C9  UNL     1       0.950  -2.155   0.099  1.00  0.00     0.172 C 
HETATM    7  C10 UNL     1       1.584  -1.894  -1.179  1.00  0.00     0.007 C 
HETATM    8  C11 UNL     1       2.609  -1.096  -1.419  1.00  0.00     0.049 C 
HETATM    9  C12 UNL     1       3.488  -0.208  -0.637  1.00  0.00     0.129 C 
HETATM   10  N4  UNL     1       3.530   0.177   0.593  1.00  0.00    -0.225 NA
HETATM   11  C19 UNL     1       2.712  -0.117   1.719  1.00  0.00     0.229 C 
HETATM   12  N5  UNL     1       1.516  -0.579   1.849  1.00  0.00    -0.275 NA
HETATM   13  C20 UNL     1       0.454  -1.013   0.896  1.00  0.00     0.143 C 
HETATM   14  C21 UNL     1      -0.145   0.156   0.225  1.00  0.00     0.010 C 
HETATM   15  C22 UNL     1      -0.342   0.130  -1.257  1.00  0.00     0.012 C 
HETATM   16  C23 UNL     1      -1.197   0.905   0.903  1.00  0.00     0.036 C 
HETATM   17  C24 UNL     1      -2.505   0.482   1.348  1.00  0.00     0.274 C 
ENDROOT
BRANCH   9  18
HETATM   18  N3  UNL     1       4.564   0.384  -1.361  1.00  0.00    -0.341 N 
HETATM   19  H18 UNL     1       4.777  -0.040  -2.283  1.00  0.00     0.167 HD
BRANCH  18  20
HETATM   20  C13 UNL     1       5.346   1.490  -0.929  1.00  0.00     0.035 A 
HETATM   21  C14 UNL     1       4.941   2.746  -1.383  1.00  0.00     0.032 A 
HETATM   22  C15 UNL     1       5.650   3.860  -0.997  1.00  0.00     0.046 A 
HETATM   23  C16 UNL     1       6.724   3.706  -0.185  1.00  0.00     0.138 A 
HETATM   24  F1  UNL     1       7.441   4.796   0.213  1.00  0.00    -0.204 F 
HETATM   25  C17 UNL     1       7.163   2.484   0.289  1.00  0.00     0.074 A 
HETATM   26 CL1  UNL     1       8.552   2.287   1.341  1.00  0.00    -0.081 Cl
HETATM   27  C18 UNL     1       6.447   1.365  -0.102  1.00  0.00     0.056 A 
ENDBRANCH  18  20
ENDBRANCH   9  18
BRANCH   5  28
HETATM   28  O1  UNL     1       0.052  -4.594  -0.030  1.00  0.00    -0.274 OA
HETATM   29  C8  UNL     1       0.259  -5.030   1.300  1.00  0.00     0.239 C 
ENDBRANCH   5  28
BRANCH   1  30
HETATM   30  C4  UNL     1      -4.842   0.220   0.948  1.00  0.00     0.273 C 
BRANCH  30  31
HETATM   31  C3  UNL     1      -5.896   0.010  -0.072  1.00  0.00     0.030 C 
BRANCH  31  32
HETATM   32  C2  UNL     1      -5.727   0.932  -1.270  1.00  0.00    -0.003 C 
HETATM   33  C1  UNL     1      -5.782   2.380  -0.871  1.00  0.00     0.005 C 
ENDBRANCH  31  32
ENDBRANCH  30  31
ENDBRANCH   1  30
TORSDOF 6
