REMARK  6 active torsions:
REMARK  status: ('A' for Active; 'I' for Inactive)
REMARK    1  A    between atoms: O1_2  and  C2_3 
REMARK    2  A    between atoms: C3_4  and  C4_5 
REMARK    3  A    between atoms: C4_5  and  N1_6 
REMARK    4  A    between atoms: C7_9  and  C8_10 
REMARK       I    between atoms: C8_10  and  N2_11 
REMARK    5  A    between atoms: C9_13  and  B1_14 
REMARK    6  A    between atoms: B1_14  and  C10_15 
ROOT
HETATM    1  N1  UNL     1       0.532  -1.481   1.179  1.00  0.00    -0.393 N 
HETATM    2  C5  UNL     1       0.389  -2.840   1.659  1.00  0.00     0.123 C 
HETATM    3  C6  UNL     1       1.711  -3.553   1.333  1.00  0.00     0.039 C 
HETATM    4  C7  UNL     1       2.180  -2.758   0.163  1.00  0.00     0.112 C 
HETATM    5  C9  UNL     1       1.757  -1.371   0.458  1.00  0.00    -0.048 C 
ENDROOT
BRANCH   1   6
HETATM    6  C4  UNL     1      -0.351  -0.359   1.335  1.00  0.00     0.158 C 
BRANCH   6   7
HETATM    7  C3  UNL     1      -1.610  -0.408   0.581  1.00  0.00    -0.028 A 
HETATM    8  C2  UNL     1      -2.401   0.798   0.921  1.00  0.00     0.204 A 
HETATM    9  C21 UNL     1      -3.681   0.742   0.174  1.00  0.00     0.077 A 
HETATM   10  C18 UNL     1      -4.159  -0.269  -0.756  1.00  0.00    -0.011 A 
HETATM   11  N4  UNL     1      -4.410   1.795   0.472  1.00  0.00    -0.243 NA
HETATM   12  C17 UNL     1      -3.336  -1.282  -0.953  1.00  0.00     0.011 A 
HETATM   13  C19 UNL     1      -5.454  -0.247  -1.467  1.00  0.00     0.191 A 
HETATM   14  C16 UNL     1      -2.060  -1.307  -0.255  1.00  0.00     0.008 A 
HETATM   15  N3  UNL     1      -6.152   0.967  -1.044  1.00  0.00    -0.278 NA
HETATM   16  C20 UNL     1      -5.666   1.816  -0.210  1.00  0.00     0.227 A 
BRANCH   8  17
HETATM   17  O1  UNL     1      -2.617   0.955   2.290  1.00  0.00    -0.380 OA
HETATM   18  C1  UNL     1      -2.093   2.219   2.603  1.00  0.00     0.202 C 
ENDBRANCH   8  17
ENDBRANCH   6   7
ENDBRANCH   1   6
BRANCH   5  19
HETATM   19  B1  UNL     1       2.569   0.208   0.024  1.00  0.00     0.246 B 
BRANCH  19  20
HETATM   20  C10 UNL     1       3.581   1.494  -0.537  1.00  0.00    -0.059 A 
HETATM   21  C11 UNL     1       4.097   1.447  -1.816  1.00  0.00    -0.002 A 
HETATM   22  C12 UNL     1       4.903   2.477  -2.267  1.00  0.00     0.001 A 
HETATM   23  C13 UNL     1       5.153   3.525  -1.386  1.00  0.00     0.027 A 
HETATM   24  C14 UNL     1       4.634   3.563  -0.109  1.00  0.00     0.072 A 
HETATM   25 CL1  UNL     1       4.964   4.892   0.979  1.00  0.00    -0.081 Cl
HETATM   26  C15 UNL     1       3.818   2.526   0.356  1.00  0.00     0.133 A 
HETATM   27  F1  UNL     1       3.290   2.514   1.591  1.00  0.00    -0.205 F 
ENDBRANCH  19  20
ENDBRANCH   5  19
BRANCH   4  28
HETATM   28  C8  UNL     1       1.543  -3.197  -1.117  1.00  0.00     0.224 C 
HETATM   29  N2  UNL     1       2.037  -2.360  -2.174  1.00  0.00    -0.370 N 
HETATM   30  H12 UNL     1       2.352  -1.713  -2.927  1.00  0.00     0.159 HD
HETATM   31  H13 UNL     1       2.556  -1.924  -2.969  1.00  0.00     0.159 HD
HETATM   32  O2  UNL     1       0.751  -3.992  -1.678  1.00  0.00    -0.273 OA
ENDBRANCH   4  28
TORSDOF 6
