REMARK  10 active torsions:
REMARK  status: ('A' for Active; 'I' for Inactive)
REMARK       I    between atoms: N1_5  and  C5_6 
REMARK    1  A    between atoms: C5_6  and  C6_8 
REMARK    2  A    between atoms: C7_9  and  C8_10 
REMARK    3  A    between atoms: C8_10  and  N2_11 
REMARK    4  A    between atoms: N2_11  and  C9_12 
REMARK    5  A    between atoms: N2_11  and  C12_15 
REMARK    6  A    between atoms: C9_12  and  C10_13 
REMARK    7  A    between atoms: C12_15  and  C13_16 
REMARK    8  A    between atoms: C13_16  and  C14_17 
REMARK    9  A    between atoms: C18_23  and  N5_24 
REMARK   10  A    between atoms: N5_24  and  C19_25 
ROOT
HETATM    1  C1  UNL     1       2.505  -2.722   1.889  1.00  0.00     0.024 C 
HETATM    2  C2  UNL     1       2.620  -1.517   1.312  1.00  0.00    -0.008 C 
HETATM    3  C3  UNL     1       3.197  -0.164   1.067  1.00  0.00     0.035 C 
HETATM    4  C4  UNL     1       2.348   0.810   1.526  1.00  0.00     0.113 C 
HETATM    5  N1  UNL     1       1.165   0.161   0.952  1.00  0.00    -0.288 N 
HETATM    6  C5  UNL     1      -0.137   0.750   1.226  1.00  0.00     0.304 C 
HETATM    7  O1  UNL     1      -0.251   1.775   1.924  1.00  0.00    -0.258 OA
HETATM    8  C16 UNL     1       1.723  -0.984   0.218  1.00  0.00     0.251 C 
HETATM    9  N3  UNL     1       2.253  -0.807  -1.045  1.00  0.00    -0.252 NA
HETATM   10  C17 UNL     1       3.425  -0.570  -1.610  1.00  0.00     0.232 C 
HETATM   11  N4  UNL     1       4.633  -0.200  -0.839  1.00  0.00    -0.224 NA
HETATM   12  C18 UNL     1       4.474   0.353   0.372  1.00  0.00     0.141 C 
ENDROOT
BRANCH   6  13
HETATM   13  C6  UNL     1      -1.218   0.033   0.618  1.00  0.00    -0.003 C 
HETATM   14  C7  UNL     1      -2.121  -0.566   0.086  1.00  0.00    -0.066 C 
BRANCH  14  15
HETATM   15  C8  UNL     1      -3.206  -1.287  -0.580  1.00  0.00     0.366 C 
BRANCH  15  16
HETATM   16  N2  UNL     1      -4.455  -0.934   0.023  1.00  0.00     0.099 N 
BRANCH  16  17
HETATM   17  C9  UNL     1      -5.585  -1.563  -0.594  1.00  0.00     0.273 C 
BRANCH  17  18
HETATM   18  C10 UNL     1      -5.649  -3.046  -0.384  1.00  0.00     0.026 C 
HETATM   19  C11 UNL     1      -6.873  -3.588  -1.088  1.00  0.00     0.007 C 
ENDBRANCH  17  18
ENDBRANCH  16  17
BRANCH  16  20
HETATM   20  C12 UNL     1      -4.632   0.460   0.242  1.00  0.00     0.273 C 
BRANCH  20  21
HETATM   21  C13 UNL     1      -4.766   1.154  -1.087  1.00  0.00     0.030 C 
BRANCH  21  22
HETATM   22  C14 UNL     1      -4.956   2.659  -0.856  1.00  0.00    -0.003 C 
HETATM   23  C15 UNL     1      -3.749   3.170  -0.116  1.00  0.00     0.005 C 
ENDBRANCH  21  22
ENDBRANCH  20  21
ENDBRANCH  16  20
ENDBRANCH  15  16
ENDBRANCH  14  15
ENDBRANCH   6  13
BRANCH  12  24
HETATM   24  N5  UNL     1       5.187   1.323   1.134  1.00  0.00    -0.340 N 
HETATM   25  H24 UNL     1       4.697   1.731   1.959  1.00  0.00     0.167 HD
BRANCH  24  26
HETATM   26  C19 UNL     1       6.449   1.451   0.482  1.00  0.00     0.035 A 
HETATM   27  C20 UNL     1       7.368   0.556   1.045  1.00  0.00     0.032 A 
HETATM   28  C21 UNL     1       8.669   0.479   0.588  1.00  0.00     0.046 A 
HETATM   29  C22 UNL     1       9.068   1.301  -0.444  1.00  0.00     0.138 A 
HETATM   30  F1  UNL     1      10.338   1.263  -0.930  1.00  0.00    -0.204 F 
HETATM   31  C23 UNL     1       8.173   2.175  -0.995  1.00  0.00     0.074 A 
HETATM   32 CL1  UNL     1       8.586   3.267  -2.316  1.00  0.00    -0.081 Cl
HETATM   33  C24 UNL     1       6.875   2.268  -0.556  1.00  0.00     0.056 A 
ENDBRANCH  24  26
ENDBRANCH  12  24
TORSDOF 10
