REMARK  2 active torsions:
REMARK  status: ('A' for Active; 'I' for Inactive)
REMARK    1  A    between atoms: C3_3  and  O1_4 
REMARK    2  A    between atoms: O1_4  and  C4_5 
ROOT
HETATM    1  C1  UNL     1       4.672  -0.180   2.711  1.00  0.00     0.014 C 
HETATM    2  C2  UNL     1       3.915  -0.750   1.950  1.00  0.00    -0.091 C 
HETATM    3  C3  UNL     1       2.989  -1.456   1.046  1.00  0.00     0.268 C 
ENDROOT
BRANCH   3   4
HETATM    4  O1  UNL     1       1.728  -0.872   1.229  1.00  0.00    -0.343 OA
BRANCH   4   5
HETATM    5  C4  UNL     1       0.597  -1.328   0.527  1.00  0.00     0.062 A 
HETATM    6  C5  UNL     1      -0.235  -0.618  -0.239  1.00  0.00     0.012 A 
HETATM    7  C6  UNL     1      -1.258  -1.510  -0.761  1.00  0.00    -0.028 A 
HETATM    8  C17 UNL     1      -0.070   0.811  -0.458  1.00  0.00    -0.008 A 
HETATM    9  C7  UNL     1      -1.016  -2.722  -0.300  1.00  0.00    -0.011 A 
HETATM   10  C9  UNL     1      -2.331  -1.032  -1.655  1.00  0.00     0.189 C 
HETATM   11  C8  UNL     1       0.184  -2.765   0.572  1.00  0.00     0.093 A 
HETATM   12  N1  UNL     1      -3.582  -1.116  -0.926  1.00  0.00    -0.278 NA
HETATM   13  C10 UNL     1      -3.747  -0.221  -0.014  1.00  0.00     0.226 C 
HETATM   14  N2  UNL     1      -3.353   0.902   0.743  1.00  0.00    -0.254 NA
HETATM   15  C11 UNL     1      -2.252   1.487   0.505  1.00  0.00     0.130 C 
HETATM   16  C12 UNL     1      -0.993   1.772  -0.120  1.00  0.00    -0.006 A 
HETATM   17  C13 UNL     1      -0.791   3.111  -0.347  1.00  0.00     0.040 A 
HETATM   18  C14 UNL     1       0.385   3.532  -0.940  1.00  0.00     0.073 A 
HETATM   19 CL1  UNL     1       0.722   5.213  -1.266  1.00  0.00    -0.081 Cl
HETATM   20  C15 UNL     1       1.264   2.540  -1.253  1.00  0.00     0.139 A 
HETATM   21  F1  UNL     1       2.430   2.951  -1.842  1.00  0.00    -0.204 F 
HETATM   22  C16 UNL     1       1.120   1.171  -1.050  1.00  0.00     0.057 A 
ENDBRANCH   4   5
ENDBRANCH   3   4
TORSDOF 2
