REMARK  6 active torsions:
REMARK  status: ('A' for Active; 'I' for Inactive)
REMARK    1  A    between atoms: C1_2  and  C2_3 
REMARK       I    between atoms: C1_2  and  N1_7 
REMARK    2  A    between atoms: C3_4  and  P1_5 
REMARK    3  A    between atoms: P1_5  and  O2_6 
REMARK    4  A    between atoms: N1_7  and  P2_8 
REMARK    5  A    between atoms: C6_11  and  N2_12 
REMARK    6  A    between atoms: N2_12  and  C7_13 
ROOT
HETATM    1  P2  UNL     1       1.465  -0.229  -1.434  1.00  0.00    -0.027 P 
HETATM    2  C4  UNL     1       0.173  -0.094  -0.488  1.00  0.00     0.011 C 
HETATM    3  C5  UNL     1      -0.446   1.025  -0.427  1.00  0.00     0.051 A 
HETATM    4  C6  UNL     1      -1.428   0.998   0.567  1.00  0.00     0.143 A 
HETATM    5  N3  UNL     1      -2.209   2.077   0.814  1.00  0.00    -0.223 NA
HETATM    6  C13 UNL     1      -2.105   3.232   0.135  1.00  0.00     0.235 A 
HETATM    7  N4  UNL     1      -1.150   3.278  -0.842  1.00  0.00    -0.241 NA
HETATM    8  C14 UNL     1      -0.381   2.215  -1.082  1.00  0.00     0.069 A 
HETATM    9  C15 UNL     1       0.550   2.225  -2.010  1.00  0.00     0.012 C 
HETATM   10  C16 UNL     1       1.524   1.237  -2.491  1.00  0.00     0.081 C 
HETATM   11  H4  UNL     1       1.290  -1.402  -2.233  1.00  0.00     0.079 HD
ENDROOT
BRANCH   1  12
HETATM   12  N1  UNL     1       2.956  -0.332  -0.536  1.00  0.00    -0.328 N 
HETATM   13  C1  UNL     1       3.541  -1.270   0.356  1.00  0.00     0.300 C 
HETATM   14  O1  UNL     1       2.785  -2.290   0.535  1.00  0.00    -0.258 OA
HETATM   15  H3  UNL     1       3.628   0.494  -0.639  1.00  0.00     0.168 HD
BRANCH  13  16
HETATM   16  C2  UNL     1       4.820  -1.101   0.978  1.00  0.00     0.002 C 
HETATM   17  C3  UNL     1       5.898  -0.976   1.491  1.00  0.00    -0.039 C 
BRANCH  17  18
HETATM   18  P1  UNL     1       7.527  -0.808   2.245  1.00  0.00     0.089 P 
HETATM   19  H1  UNL     1       7.562  -1.573   3.459  1.00  0.00     0.101 HD
BRANCH  18  20
HETATM   20  O2  UNL     1       8.806  -1.226   1.145  1.00  0.00    -0.363 OA
HETATM   21  H2  UNL     1       8.490  -1.585   0.291  1.00  0.00     0.216 HD
ENDBRANCH  18  20
ENDBRANCH  17  18
ENDBRANCH  13  16
ENDBRANCH   1  12
BRANCH   4  22
HETATM   22  N2  UNL     1      -1.883  -0.003   1.497  1.00  0.00    -0.340 N 
HETATM   23  H5  UNL     1      -1.343  -0.325   2.315  1.00  0.00     0.167 HD
BRANCH  22  24
HETATM   24  C7  UNL     1      -3.174  -0.539   1.206  1.00  0.00     0.035 A 
HETATM   25  C8  UNL     1      -3.928  -0.198   0.116  1.00  0.00     0.032 A 
HETATM   26  C9  UNL     1      -5.188  -0.707  -0.154  1.00  0.00     0.046 A 
HETATM   27  C10 UNL     1      -5.741  -1.614   0.712  1.00  0.00     0.138 A 
HETATM   28  F1  UNL     1      -6.983  -2.094   0.411  1.00  0.00    -0.204 F 
HETATM   29  C11 UNL     1      -5.009  -1.976   1.812  1.00  0.00     0.074 A 
HETATM   30 CL1  UNL     1      -5.703  -3.135   2.917  1.00  0.00    -0.081 Cl
HETATM   31  C12 UNL     1      -3.759  -1.463   2.068  1.00  0.00     0.056 A 
ENDBRANCH  22  24
ENDBRANCH   4  22
TORSDOF 6
