REMARK  2 active torsions:
REMARK  status: ('A' for Active; 'I' for Inactive)
REMARK    1  A    between atoms: C2_2  and  C3_3 
REMARK    2  A    between atoms: C3_3  and  N1_4 
ROOT
HETATM    1  N1  UNL     1       2.822  -0.163  -0.774  1.00  0.00     0.099 N 
HETATM    2  C4  UNL     1       2.539   1.229  -1.028  1.00  0.00     0.366 C 
HETATM    3  C5  UNL     1       1.235   1.638  -0.649  1.00  0.00    -0.066 C 
HETATM    4  C6  UNL     1       0.190   1.946  -0.357  1.00  0.00    -0.004 C 
HETATM    5  C7  UNL     1      -1.094   2.300  -0.011  1.00  0.00     0.298 C 
HETATM    6  O1  UNL     1      -1.519   3.087   0.768  1.00  0.00    -0.258 OA
HETATM    7  N2  UNL     1      -2.381   1.817  -0.500  1.00  0.00    -0.337 N 
HETATM    8  C8  UNL     1      -3.641   2.252   0.072  1.00  0.00     0.156 C 
HETATM    9  C9  UNL     1      -4.193   0.968   0.668  1.00  0.00     0.021 C 
HETATM   10  C10 UNL     1      -3.692  -0.258   0.381  1.00  0.00     0.043 C 
HETATM   11  N3  UNL     1      -3.988  -1.143   1.490  1.00  0.00    -0.246 NA
HETATM   12  C11 UNL     1      -3.231  -2.184   1.765  1.00  0.00     0.234 C 
HETATM   13  N4  UNL     1      -2.038  -2.603   1.048  1.00  0.00    -0.240 NA
HETATM   14  C12 UNL     1      -1.358  -1.703   0.409  1.00  0.00     0.090 C 
HETATM   15  C13 UNL     1      -1.781  -1.234  -0.764  1.00  0.00    -0.037 C 
HETATM   16  C14 UNL     1      -0.527  -1.870  -1.393  1.00  0.00     0.039 C 
HETATM   17  C15 UNL     1       0.608  -0.925  -1.122  1.00  0.00     0.034 C 
HETATM   18  C16 UNL     1       2.011  -1.162  -1.460  1.00  0.00     0.274 C 
HETATM   19  C17 UNL     1      -2.989  -0.458  -0.937  1.00  0.00     0.087 C 
HETATM   20  C18 UNL     1      -2.874   0.927  -1.518  1.00  0.00     0.142 C 
ENDROOT
BRANCH   1  21
HETATM   21  C3  UNL     1       2.856  -0.405   0.646  1.00  0.00     0.273 C 
BRANCH  21  22
HETATM   22  C2  UNL     1       4.063   0.237   1.253  1.00  0.00     0.026 C 
HETATM   23  C1  UNL     1       5.325  -0.317   0.600  1.00  0.00     0.007 C 
ENDBRANCH  21  22
ENDBRANCH   1  21
TORSDOF 2
