REMARK  4 active torsions:
REMARK  status: ('A' for Active; 'I' for Inactive)
REMARK    1  A    between atoms: C2_2  and  C3_3 
REMARK    2  A    between atoms: C3_3  and  C4_4 
REMARK    3  A    between atoms: C4_4  and  N1_5 
REMARK    4  A    between atoms: C13_15  and  O1_16 
ROOT
HETATM    1  N1  UNL     1      -2.471  -0.470   0.383  1.00  0.00    -0.342 N 
HETATM    2  C5  UNL     1      -1.449   0.050   1.075  1.00  0.00     0.010 C 
HETATM    3  C6  UNL     1      -0.573   0.514   1.662  1.00  0.00    -0.059 C 
HETATM    4  C7  UNL     1       0.487   1.103   2.385  1.00  0.00     0.158 C 
HETATM    5  C8  UNL     1       0.082   2.434   3.047  1.00  0.00     0.046 C 
HETATM    6  N2  UNL     1       1.733   1.282   1.686  1.00  0.00    -0.384 N 
HETATM    7  C9  UNL     1       2.025   1.954   0.485  1.00  0.00     0.084 C 
HETATM    8  C10 UNL     1       2.964   1.870  -0.427  1.00  0.00     0.027 C 
HETATM    9  C11 UNL     1       4.110   0.964  -0.481  1.00  0.00    -0.018 A 
HETATM   10  C12 UNL     1       5.180   0.215  -0.041  1.00  0.00     0.027 A 
HETATM   11  C13 UNL     1       4.755   0.262  -1.481  1.00  0.00     0.115 A 
HETATM   12  C15 UNL     1       3.952  -0.865  -2.059  1.00  0.00     0.130 C 
HETATM   13  S1  UNL     1       2.300  -1.020  -1.393  1.00  0.00    -0.118 SA
HETATM   14  N3  UNL     1       2.247  -1.517   0.281  1.00  0.00    -0.342 N 
HETATM   15  C16 UNL     1       2.456  -2.106   1.592  1.00  0.00     0.091 C 
HETATM   16  C17 UNL     1       1.344  -2.728   1.933  1.00  0.00    -0.003 C 
HETATM   17  C18 UNL     1       0.278  -2.652   0.958  1.00  0.00     0.027 C 
HETATM   18  C19 UNL     1      -0.954  -3.017   0.694  1.00  0.00    -0.027 C 
HETATM   19  C20 UNL     1      -2.162  -3.779   1.207  1.00  0.00     0.016 C 
HETATM   20  C21 UNL     1      -1.349  -2.456  -0.620  1.00  0.00     0.031 C 
HETATM   21  C22 UNL     1      -2.578  -1.605  -0.467  1.00  0.00     0.133 C 
HETATM   22  H14 UNL     1       2.688   0.965   1.913  1.00  0.00     0.160 HD
HETATM   23  H23 UNL     1       1.586  -0.831  -0.204  1.00  0.00     0.255 HD
ENDROOT
BRANCH   1  24
HETATM   24  C4  UNL     1      -3.683   0.309   0.554  1.00  0.00     0.133 C 
BRANCH  24  25
HETATM   25  C3  UNL     1      -4.006   0.997  -0.752  1.00  0.00     0.020 C 
BRANCH  25  26
HETATM   26  C2  UNL     1      -5.278   1.842  -0.576  1.00  0.00    -0.003 C 
HETATM   27  C1  UNL     1      -5.556   2.500  -1.908  1.00  0.00     0.005 C 
ENDBRANCH  25  26
ENDBRANCH  24  25
ENDBRANCH   1  24
BRANCH  11  28
HETATM   28  O1  UNL     1       5.734   0.739  -2.360  1.00  0.00    -0.375 OA
HETATM   29  C14 UNL     1       5.286   1.790  -3.142  1.00  0.00     0.203 C 
ENDBRANCH  11  28
TORSDOF 4
