REMARK  8 active torsions:
REMARK  status: ('A' for Active; 'I' for Inactive)
REMARK    1  A    between atoms: C3_3  and  C4_5 
REMARK    2  A    between atoms: C5_7  and  C6_8 
REMARK    3  A    between atoms: C6_8  and  N1_9 
REMARK    4  A    between atoms: N1_9  and  C7_10 
REMARK    5  A    between atoms: C12_16  and  N3_17 
REMARK       I    between atoms: N3_17  and  C13_18 
REMARK    6  A    between atoms: C13_18  and  C14_20 
REMARK    7  A    between atoms: C15_21  and  C16_22 
REMARK    8  A    between atoms: C16_22  and  O2_23 
ROOT
HETATM    1  C7  UNL     1      -1.161   0.210   0.139  1.00  0.00     0.129 A 
HETATM    2  N2  UNL     1      -1.886  -0.636  -0.525  1.00  0.00    -0.268 NA
HETATM    3  C8  UNL     1      -1.067  -1.416  -1.430  1.00  0.00     0.190 A 
HETATM    4  C9  UNL     1       0.300  -0.907  -1.215  1.00  0.00    -0.024 A 
HETATM    5  C10 UNL     1       1.494  -1.273  -1.799  1.00  0.00     0.012 A 
HETATM    6  C11 UNL     1       2.617  -0.567  -1.348  1.00  0.00     0.030 A 
HETATM    7  C12 UNL     1       2.544   0.411  -0.401  1.00  0.00     0.036 A 
HETATM    8  C17 UNL     1       1.363   0.770   0.174  1.00  0.00     0.045 A 
HETATM    9  C18 UNL     1       0.238   0.086  -0.256  1.00  0.00     0.019 A 
ENDROOT
BRANCH   1  10
HETATM   10  N1  UNL     1      -1.734   1.108   1.107  1.00  0.00    -0.371 N 
HETATM   11  H8  UNL     1      -1.226   2.012   1.277  1.00  0.00     0.161 HD
BRANCH  10  12
HETATM   12  C6  UNL     1      -2.975   0.669   1.765  1.00  0.00     0.150 C 
BRANCH  12  13
HETATM   13  C5  UNL     1      -4.075   0.640   0.781  1.00  0.00     0.019 C 
HETATM   14  C4  UNL     1      -4.920  -0.267   0.283  1.00  0.00     0.070 C 
HETATM   15 CL1  UNL     1      -6.057   0.304  -0.919  1.00  0.00    -0.081 Cl
BRANCH  14  16
HETATM   16  C3  UNL     1      -5.096  -1.684   0.538  1.00  0.00     0.133 C 
HETATM   17  C2  UNL     1      -5.936  -2.583   0.043  1.00  0.00     0.013 C 
HETATM   18  C1  UNL     1      -7.067  -2.627  -0.949  1.00  0.00     0.039 C 
HETATM   19  F1  UNL     1      -4.144  -2.007   1.476  1.00  0.00    -0.205 F 
ENDBRANCH  14  16
ENDBRANCH  12  13
ENDBRANCH  10  12
ENDBRANCH   1  10
BRANCH   7  20
HETATM   20  N3  UNL     1       3.796   1.005  -0.081  1.00  0.00    -0.316 N 
HETATM   21  C13 UNL     1       4.636   2.071  -0.472  1.00  0.00     0.301 C 
HETATM   22  O1  UNL     1       4.401   2.913  -1.398  1.00  0.00    -0.258 OA
HETATM   23  H13 UNL     1       4.071   0.361   0.694  1.00  0.00     0.170 HD
BRANCH  21  24
HETATM   24  C14 UNL     1       5.871   2.214   0.247  1.00  0.00    -0.003 C 
HETATM   25  C15 UNL     1       6.926   2.315   0.853  1.00  0.00    -0.071 C 
BRANCH  25  26
HETATM   26  C16 UNL     1       8.185   2.456   1.579  1.00  0.00     0.258 C 
BRANCH  26  27
HETATM   27  O2  UNL     1       9.191   1.960   0.752  1.00  0.00    -0.389 OA
HETATM   28  H16 UNL     1       9.168   0.978   0.693  1.00  0.00     0.210 HD
ENDBRANCH  26  27
ENDBRANCH  25  26
ENDBRANCH  21  24
ENDBRANCH   7  20
TORSDOF 8
