REMARK  6 active torsions:
REMARK  status: ('A' for Active; 'I' for Inactive)
REMARK    1  A    between atoms: N1_1  and  O1_2 
REMARK    2  A    between atoms: O1_2  and  C1_3 
REMARK    3  A    between atoms: C1_3  and  C2_4 
REMARK    4  A    between atoms: C3_5  and  C4_6 
REMARK       I    between atoms: C4_6  and  N2_8 
REMARK    5  A    between atoms: N2_8  and  C5_9 
REMARK    6  A    between atoms: C10_16  and  C11_17 
ROOT
HETATM    1  C5  UNL     1       0.321  -1.205  -0.971  1.00  0.00     0.050 C 
HETATM    2  C6  UNL     1       0.124  -2.131  -1.959  1.00  0.00     0.203 A 
HETATM    3  C7  UNL     1       0.800  -3.344  -2.544  1.00  0.00     0.018 A 
HETATM    4  C8  UNL     1      -0.254  -3.280  -3.286  1.00  0.00     0.091 A 
HETATM    5  N3  UNL     1      -0.851  -2.159  -2.719  1.00  0.00    -0.341 N 
HETATM    6  C9  UNL     1      -2.039  -1.741  -3.053  1.00  0.00     0.210 C 
HETATM    7  N4  UNL     1      -2.517  -0.603  -2.397  1.00  0.00    -0.247 NA
HETATM    8  C10 UNL     1      -1.832  -0.049  -1.467  1.00  0.00     0.048 C 
HETATM    9  C17 UNL     1      -0.591  -0.103  -0.655  1.00  0.00     0.088 C 
ENDROOT
BRANCH   1  10
HETATM   10  N2  UNL     1       1.351  -0.899   0.087  1.00  0.00    -0.342 N 
HETATM   11  C4  UNL     1       1.161  -0.942   1.481  1.00  0.00     0.296 C 
HETATM   12  O2  UNL     1       0.142  -1.220   2.170  1.00  0.00    -0.258 OA
HETATM   13  H5  UNL     1       2.300  -0.621  -0.330  1.00  0.00     0.163 HD
BRANCH  11  14
HETATM   14  C3  UNL     1       2.321  -0.621   2.275  1.00  0.00    -0.003 C 
HETATM   15  C2  UNL     1       3.308  -0.361   2.933  1.00  0.00    -0.068 C 
BRANCH  15  16
HETATM   16  C1  UNL     1       4.509  -0.048   3.731  1.00  0.00     0.287 C 
BRANCH  16  17
HETATM   17  O1  UNL     1       4.621   1.318   3.929  1.00  0.00    -0.296 OA
BRANCH  17  18
HETATM   18  N1  UNL     1       5.692   1.500   4.752  1.00  0.00    -0.214 NA
HETATM   19  H1  UNL     1       5.609   0.895   5.599  1.00  0.00     0.150 HD
HETATM   20  H2  UNL     1       6.592   1.279   4.255  1.00  0.00     0.150 HD
ENDBRANCH  17  18
ENDBRANCH  16  17
ENDBRANCH  15  16
ENDBRANCH  11  14
ENDBRANCH   1  10
BRANCH   8  21
HETATM   21  C11 UNL     1      -2.649   1.107  -1.018  1.00  0.00    -0.010 A 
HETATM   22  C12 UNL     1      -3.905   1.389  -1.558  1.00  0.00     0.016 A 
HETATM   23  C13 UNL     1      -4.741   2.441  -1.146  1.00  0.00     0.045 A 
HETATM   24  C14 UNL     1      -4.281   3.253  -0.133  1.00  0.00     0.138 A 
HETATM   25  F1  UNL     1      -5.054   4.280   0.296  1.00  0.00    -0.204 F 
HETATM   26  C15 UNL     1      -3.062   3.053   0.451  1.00  0.00     0.073 A 
HETATM   27 CL1  UNL     1      -2.437   4.065   1.733  1.00  0.00    -0.081 Cl
HETATM   28  C16 UNL     1      -2.331   2.009  -0.018  1.00  0.00     0.040 A 
ENDBRANCH   8  21
TORSDOF 6
