REMARK  2 active torsions:
REMARK  status: ('A' for Active; 'I' for Inactive)
REMARK    1  A    between atoms: C5_7  and  N1_8 
REMARK    2  A    between atoms: N1_8  and  C6_9 
ROOT
HETATM    1  O1  UNL     1      -4.156  -2.180   1.239  1.00  0.00    -0.258 OA
HETATM    2  C1  UNL     1      -3.096  -2.068   0.767  1.00  0.00     0.302 C 
HETATM    3  C2  UNL     1      -1.834  -2.588   0.555  1.00  0.00    -0.003 C 
HETATM    4  C3  UNL     1      -0.817  -2.985   0.377  1.00  0.00    -0.070 C 
HETATM    5  C4  UNL     1       0.494  -3.468   0.137  1.00  0.00     0.273 C 
HETATM    6  O2  UNL     1       1.082  -2.417  -0.757  1.00  0.00    -0.309 OA
HETATM    7  C5  UNL     1       0.636  -1.054  -0.475  1.00  0.00     0.243 C 
HETATM    8  N2  UNL     1      -0.047   0.103  -0.408  1.00  0.00    -0.237 NA
HETATM    9  C12 UNL     1      -1.310   0.413  -1.002  1.00  0.00     0.188 C 
HETATM   10  C13 UNL     1      -2.669   0.151  -0.744  1.00  0.00     0.022 C 
HETATM   11  C14 UNL     1      -3.899   0.546  -1.438  1.00  0.00     0.075 C 
HETATM   12  C15 UNL     1      -4.452   0.461  -0.031  1.00  0.00     0.138 C 
HETATM   13  N3  UNL     1      -3.511  -0.695   0.190  1.00  0.00    -0.312 N 
ENDROOT
BRANCH   7  14
HETATM   14  N1  UNL     1       1.769  -0.614   0.343  1.00  0.00    -0.321 N 
HETATM   15  H3  UNL     1       2.172  -1.231   1.143  1.00  0.00     0.169 HD
BRANCH  14  16
HETATM   16  C6  UNL     1       2.506   0.631   0.230  1.00  0.00     0.037 A 
HETATM   17  C7  UNL     1       2.255   1.542  -0.762  1.00  0.00     0.032 A 
HETATM   18  C8  UNL     1       2.902   2.748  -0.930  1.00  0.00     0.046 A 
HETATM   19  C9  UNL     1       3.905   3.062  -0.001  1.00  0.00     0.138 A 
HETATM   20  F1  UNL     1       4.635   4.208  -0.031  1.00  0.00    -0.204 F 
HETATM   21  C10 UNL     1       4.157   2.148   0.994  1.00  0.00     0.074 A 
HETATM   22 CL1  UNL     1       5.401   2.486   2.183  1.00  0.00    -0.081 Cl
HETATM   23  C11 UNL     1       3.491   0.950   1.134  1.00  0.00     0.056 A 
ENDBRANCH  14  16
ENDBRANCH   7  14
TORSDOF 2
