REMARK  4 active torsions:
REMARK  status: ('A' for Active; 'I' for Inactive)
REMARK    1  A    between atoms: C1_2  and  N1_3 
REMARK    2  A    between atoms: N1_3  and  C2_4 
REMARK    3  A    between atoms: C7_11  and  N4_12 
REMARK    4  A    between atoms: N4_12  and  C8_13 
ROOT
HETATM    1  C2  UNL     1       3.245  -0.481  -0.527  1.00  0.00     0.143 A 
HETATM    2  C3  UNL     1       3.554   0.192   0.562  1.00  0.00     0.058 A 
HETATM    3  C4  UNL     1       2.655   0.487   1.682  1.00  0.00     0.037 A 
HETATM    4  C5  UNL     1       1.353   0.159   1.793  1.00  0.00     0.074 A 
HETATM    5  N2  UNL     1       0.876   0.599   2.958  1.00  0.00    -0.241 NA
HETATM    6  C6  UNL     1      -0.395   0.408   3.295  1.00  0.00     0.236 A 
HETATM    7  N3  UNL     1      -1.184  -0.249   2.414  1.00  0.00    -0.223 NA
HETATM    8  C7  UNL     1      -0.702  -0.693   1.237  1.00  0.00     0.143 A 
HETATM    9  C14 UNL     1       0.592  -0.516   0.860  1.00  0.00     0.061 A 
HETATM   10  C15 UNL     1       0.846  -1.070  -0.326  1.00  0.00     0.162 A 
HETATM   11  O1  UNL     1       2.093  -1.108  -0.993  1.00  0.00    -0.305 OA
ENDROOT
BRANCH   8  12
HETATM   12  N4  UNL     1      -1.673  -1.352   0.393  1.00  0.00    -0.340 N 
HETATM   13  H7  UNL     1      -1.616  -2.390   0.159  1.00  0.00     0.167 HD
BRANCH  12  14
HETATM   14  C8  UNL     1      -2.789  -0.636  -0.194  1.00  0.00     0.035 A 
HETATM   15  C9  UNL     1      -3.647  -1.150  -1.116  1.00  0.00     0.029 A 
HETATM   16  C10 UNL     1      -4.708  -0.445  -1.645  1.00  0.00     0.004 A 
HETATM   17  C11 UNL     1      -4.868   0.855  -1.181  1.00  0.00     0.019 A 
HETATM   18  C12 UNL     1      -3.995   1.351  -0.256  1.00  0.00     0.013 A 
HETATM   19 BR1  UNL     1      -4.327   3.166   0.308  1.00  0.00    -0.051 Br
HETATM   20  C13 UNL     1      -2.905   0.674   0.310  1.00  0.00     0.048 A 
ENDBRANCH  12  14
ENDBRANCH   8  12
BRANCH   1  21
HETATM   21  N1  UNL     1       4.458  -0.494  -1.306  1.00  0.00    -0.358 N 
HETATM   22  H3  UNL     1       4.899  -1.351  -0.918  1.00  0.00     0.162 HD
BRANCH  21  23
HETATM   23  C1  UNL     1       4.417   0.662  -2.184  1.00  0.00     0.237 C 
HETATM   24 CL1  UNL     1       5.975   0.830  -3.062  1.00  0.00    -0.109 Cl
ENDBRANCH  21  23
ENDBRANCH   1  21
TORSDOF 4
