REMARK  5 active torsions:
REMARK  status: ('A' for Active; 'I' for Inactive)
REMARK    1  A    between atoms: C3_3  and  C4_5 
REMARK    2  A    between atoms: C11_16  and  N4_17 
REMARK       I    between atoms: N4_17  and  C12_18 
REMARK    3  A    between atoms: C12_18  and  C13_20 
REMARK    4  A    between atoms: C13_20  and  C14_21 
REMARK    5  A    between atoms: C14_21  and  O2_22 
ROOT
HETATM    1  C4  UNL     1      -2.150  -0.515  -0.132  1.00  0.00     0.101 C 
HETATM    2 CL1  UNL     1      -3.848  -0.758   0.219  1.00  0.00    -0.079 Cl
HETATM    3  C5  UNL     1      -1.651   0.682  -0.173  1.00  0.00     0.085 C 
HETATM    4  N1  UNL     1      -2.730   1.629   0.098  1.00  0.00    -0.341 N 
HETATM    5  C6  UNL     1      -2.868   2.993  -0.252  1.00  0.00     0.111 C 
HETATM    6  N2  UNL     1      -3.384   3.837   0.592  1.00  0.00    -0.228 NA
HETATM    7  C7  UNL     1      -2.503   5.061   0.814  1.00  0.00     0.235 C 
HETATM    8  N3  UNL     1      -1.298   5.215   0.167  1.00  0.00    -0.246 NA
HETATM    9  C8  UNL     1      -1.028   4.094  -0.718  1.00  0.00     0.043 C 
HETATM   10  C9  UNL     1       0.144   3.492  -0.657  1.00  0.00     0.030 C 
HETATM   11  C10 UNL     1       0.439   2.036  -0.778  1.00  0.00     0.034 C 
HETATM   12  C11 UNL     1      -0.226   0.940  -0.424  1.00  0.00     0.063 C 
HETATM   13  C16 UNL     1      -2.354   3.789  -1.485  1.00  0.00     0.137 C 
HETATM   14  H5  UNL     1      -3.583   1.460   0.636  1.00  0.00     0.167 HD
ENDROOT
BRANCH  12  15
HETATM   15  N4  UNL     1       0.513  -0.188  -0.193  1.00  0.00    -0.325 N 
HETATM   16  C12 UNL     1       1.888  -0.484  -0.157  1.00  0.00     0.224 C 
HETATM   17  O1  UNL     1       2.707   0.442  -0.366  1.00  0.00    -0.273 OA
HETATM   18  H9  UNL     1       0.078  -1.099   0.013  1.00  0.00     0.169 HD
BRANCH  16  19
HETATM   19  C13 UNL     1       2.617  -1.753   0.096  1.00  0.00     0.129 C 
BRANCH  19  20
HETATM   20  C14 UNL     1       4.086  -1.411  -0.003  1.00  0.00     0.176 C 
BRANCH  20  21
HETATM   21  O2  UNL     1       4.945  -2.450   0.192  1.00  0.00    -0.395 OA
HETATM   22  C15 UNL     1       4.761  -2.983   1.460  1.00  0.00     0.201 C 
ENDBRANCH  20  21
ENDBRANCH  19  20
ENDBRANCH  16  19
ENDBRANCH  12  15
BRANCH   1  23
HETATM   23  C3  UNL     1      -2.136  -1.944  -0.209  1.00  0.00     0.136 C 
HETATM   24  C2  UNL     1      -1.985  -2.958   0.667  1.00  0.00     0.013 C 
HETATM   25  C1  UNL     1      -2.064  -4.212  -0.144  1.00  0.00     0.039 C 
HETATM   26  F1  UNL     1      -2.274  -2.716  -1.344  1.00  0.00    -0.205 F 
ENDBRANCH   1  23
TORSDOF 5
