REMARK  1 active torsions:
REMARK  status: ('A' for Active; 'I' for Inactive)
REMARK       I    between atoms: C3_3  and  N1_5 
REMARK    1  A    between atoms: N1_5  and  C4_6 
ROOT
HETATM    1  C1  UNL     1       6.617  -2.155  -0.294  1.00  0.00     0.022 C 
HETATM    2  C2  UNL     1       5.694  -1.401  -0.396  1.00  0.00    -0.016 C 
HETATM    3  C3  UNL     1       4.583  -0.523  -0.508  1.00  0.00     0.299 C 
HETATM    4  O1  UNL     1       4.732   0.648  -0.912  1.00  0.00    -0.258 OA
HETATM    5  N1  UNL     1       3.227  -0.694  -0.239  1.00  0.00    -0.319 N 
HETATM    6  H2  UNL     1       3.254  -1.717   0.080  1.00  0.00     0.169 HD
ENDROOT
BRANCH   5   7
HETATM    7  C4  UNL     1       1.858  -0.401  -0.116  1.00  0.00     0.028 C 
HETATM    8  C5  UNL     1       1.372   0.771  -0.402  1.00  0.00     0.028 C 
HETATM    9  C6  UNL     1       2.070   1.971  -0.874  1.00  0.00     0.067 C 
HETATM   10  S1  UNL     1      -0.279   1.264  -0.364  1.00  0.00    -0.004 SA
HETATM   11  C7  UNL     1       1.113   3.120  -0.944  1.00  0.00     0.129 C 
HETATM   12  N2  UNL     1      -0.215   2.727  -0.721  1.00  0.00    -0.166 NA
HETATM   13  N3  UNL     1      -1.347   0.544   0.644  1.00  0.00    -0.340 N 
HETATM   14  C8  UNL     1      -2.421   1.208   1.235  1.00  0.00     0.159 C 
HETATM   15  C13 UNL     1      -1.388  -0.894   0.656  1.00  0.00     0.096 C 
HETATM   16  C9  UNL     1      -3.612   1.032   0.324  1.00  0.00    -0.004 C 
HETATM   17  C10 UNL     1      -3.666  -0.213  -0.136  1.00  0.00    -0.084 C 
HETATM   18  C11 UNL     1      -4.807  -0.528  -1.058  1.00  0.00     0.043 C 
HETATM   19  C12 UNL     1      -2.734  -1.340   0.148  1.00  0.00     0.059 C 
HETATM   20  C14 UNL     1      -0.324  -1.464  -0.277  1.00  0.00     0.032 C 
HETATM   21  C15 UNL     1       1.001  -1.520   0.387  1.00  0.00     0.060 C 
ENDBRANCH   5   7
TORSDOF 1
