REMARK  7 active torsions:
REMARK  status: ('A' for Active; 'I' for Inactive)
REMARK    1  A    between atoms: N1_6  and  C5_7 
REMARK    2  A    between atoms: C5_7  and  C6_8 
REMARK    3  A    between atoms: C7_9  and  C8_10 
REMARK    4  A    between atoms: C11_15  and  N4_16 
REMARK    5  A    between atoms: N4_16  and  C12_17 
REMARK    6  A    between atoms: C13_18  and  C14_19 
REMARK    7  A    between atoms: C14_19  and  N5_20 
ROOT
HETATM    1  C8  UNL     1       0.803  -1.097  -1.142  1.00  0.00     0.027 A 
HETATM    2  C9  UNL     1       0.246  -1.208  -2.398  1.00  0.00     0.133 A 
HETATM    3  N2  UNL     1       0.878  -1.930  -3.347  1.00  0.00    -0.253 NA
HETATM    4  C10 UNL     1       2.050  -2.538  -3.058  1.00  0.00     0.234 A 
HETATM    5  N3  UNL     1       2.580  -2.418  -1.819  1.00  0.00    -0.224 NA
HETATM    6  C11 UNL     1       1.995  -1.710  -0.830  1.00  0.00     0.140 A 
ENDROOT
BRANCH   1   7
HETATM    7  C7  UNL     1       0.149  -0.326  -0.100  1.00  0.00     0.014 C 
HETATM    8  C6  UNL     1      -0.993   0.327  -0.231  1.00  0.00    -0.006 C 
BRANCH   8   9
HETATM    9  C5  UNL     1      -1.789   1.144   0.696  1.00  0.00     0.148 C 
BRANCH   9  10
HETATM   10  N1  UNL     1      -3.128   0.612   0.907  1.00  0.00    -0.396 N 
HETATM   11  C2  UNL     1      -4.270   1.307   0.417  1.00  0.00    -0.071 C 
HETATM   12  C1  UNL     1      -4.574   2.757   0.289  1.00  0.00     0.048 C 
HETATM   13  B1  UNL     1      -5.409  -0.136  -0.064  1.00  0.00     0.200 B 
HETATM   14  C3  UNL     1      -3.814  -1.669   0.606  1.00  0.00    -0.031 C 
HETATM   15  C4  UNL     1      -3.554  -0.597   1.580  1.00  0.00     0.111 C 
ENDBRANCH   9  10
ENDBRANCH   8   9
ENDBRANCH   1   7
BRANCH   6  16
HETATM   16  N4  UNL     1       2.538  -1.574   0.475  1.00  0.00    -0.350 N 
HETATM   17  H14 UNL     1       2.459  -2.118   1.371  1.00  0.00     0.166 HD
BRANCH  16  18
HETATM   18  C12 UNL     1       3.325  -0.397   0.327  1.00  0.00     0.087 C 
HETATM   19  C13 UNL     1       4.555   0.081   0.411  1.00  0.00     0.014 C 
BRANCH  19  20
HETATM   20  C14 UNL     1       5.573   1.172   0.320  1.00  0.00     0.211 C 
BRANCH  20  21
HETATM   21  N5  UNL     1       6.208   1.353   1.571  1.00  0.00    -0.137 NA
HETATM   22  O1  UNL     1       6.198   2.400   2.172  1.00  0.00    -0.067 OA
ENDBRANCH  20  21
ENDBRANCH  19  20
ENDBRANCH  16  18
ENDBRANCH   6  16
TORSDOF 7
