REMARK  8 active torsions:
REMARK  status: ('A' for Active; 'I' for Inactive)
REMARK    1  A    between atoms: N2_5  and  C4_6 
REMARK    2  A    between atoms: C4_6  and  C5_7 
REMARK    3  A    between atoms: C5_7  and  C6_8 
REMARK    4  A    between atoms: C6_8  and  C7_9 
REMARK    5  A    between atoms: C7_9  and  N3_10 
REMARK    6  A    between atoms: N3_10  and  C8_11 
REMARK    7  A    between atoms: C11_14  and  N4_15 
REMARK    8  A    between atoms: N4_15  and  C12_16 
ROOT
HETATM    1  C8  UNL     1      -1.704  -0.006   1.205  1.00  0.00     0.124 A 
HETATM    2  C9  UNL     1      -3.055  -0.166   1.096  1.00  0.00     0.067 A 
HETATM    3  C10 UNL     1      -3.777  -1.269   1.534  1.00  0.00     0.044 A 
HETATM    4  C11 UNL     1      -5.143  -1.320   1.372  1.00  0.00     0.142 A 
HETATM    5  N5  UNL     1      -5.810  -2.418   1.819  1.00  0.00    -0.224 NA
HETATM    6  C18 UNL     1      -5.085  -3.402   2.400  1.00  0.00     0.236 A 
HETATM    7  N6  UNL     1      -3.754  -3.334   2.549  1.00  0.00    -0.240 NA
HETATM    8  C19 UNL     1      -3.028  -2.281   2.132  1.00  0.00     0.089 A 
HETATM    9  C20 UNL     1      -1.668  -2.110   2.237  1.00  0.00     0.151 A 
HETATM   10  N7  UNL     1      -1.046  -1.020   1.792  1.00  0.00    -0.241 NA
ENDROOT
BRANCH   1  11
HETATM   11  N3  UNL     1      -1.061   1.163   0.725  1.00  0.00    -0.375 N 
HETATM   12  H16 UNL     1      -1.632   1.905   0.276  1.00  0.00     0.161 HD
BRANCH  11  13
HETATM   13  C7  UNL     1       0.345   1.377   0.828  1.00  0.00     0.121 C 
BRANCH  13  14
HETATM   14  C6  UNL     1       1.125   0.310   0.090  1.00  0.00     0.021 C 
BRANCH  14  15
HETATM   15  C5  UNL     1       2.590   0.656   0.279  1.00  0.00     0.021 C 
BRANCH  15  16
HETATM   16  C4  UNL     1       3.415  -0.394  -0.443  1.00  0.00     0.126 C 
BRANCH  16  17
HETATM   17  N2  UNL     1       4.839  -0.066  -0.266  1.00  0.00    -0.349 N 
HETATM   18  C3  UNL     1       5.481   0.801  -1.260  1.00  0.00     0.156 C 
HETATM   19  C2  UNL     1       6.268   1.812  -0.425  1.00  0.00     0.292 C 
HETATM   20  N1  UNL     1       7.179   1.184   0.476  1.00  0.00     0.094 N 
HETATM   21  C1  UNL     1       8.243   0.500  -0.197  1.00  0.00     0.310 C 
HETATM   22  C22 UNL     1       6.601   0.326   1.459  1.00  0.00     0.374 C 
HETATM   23  C21 UNL     1       5.577  -0.572   0.836  1.00  0.00     0.248 C 
HETATM   24  O1  UNL     1       5.302  -1.756   1.204  1.00  0.00    -0.271 OA
ENDBRANCH  16  17
ENDBRANCH  15  16
ENDBRANCH  14  15
ENDBRANCH  13  14
ENDBRANCH  11  13
ENDBRANCH   1  11
BRANCH   4  25
HETATM   25  N4  UNL     1      -5.874  -0.270   0.757  1.00  0.00    -0.340 N 
HETATM   26  H18 UNL     1      -6.033   0.310   1.619  1.00  0.00     0.167 HD
BRANCH  25  27
HETATM   27  C12 UNL     1      -6.346   0.090  -0.538  1.00  0.00     0.035 A 
HETATM   28  C13 UNL     1      -6.996   1.284  -0.663  1.00  0.00     0.032 A 
HETATM   29  C14 UNL     1      -7.427   1.565  -1.939  1.00  0.00     0.046 A 
HETATM   30  C15 UNL     1      -7.245   0.747  -3.032  1.00  0.00     0.138 A 
HETATM   31  F1  UNL     1      -7.703   1.090  -4.279  1.00  0.00    -0.204 F 
HETATM   32  C16 UNL     1      -6.575  -0.450  -2.830  1.00  0.00     0.074 A 
HETATM   33 CL1  UNL     1      -6.336  -1.498  -4.202  1.00  0.00    -0.081 Cl
HETATM   34  C17 UNL     1      -6.108  -0.803  -1.560  1.00  0.00     0.056 A 
ENDBRANCH  25  27
ENDBRANCH   4  25
TORSDOF 8
