REMARK  6 active torsions:
REMARK  status: ('A' for Active; 'I' for Inactive)
REMARK    1  A    between atoms: C3_3  and  N1_4 
REMARK       I    between atoms: N1_4  and  C4_5 
REMARK    2  A    between atoms: C4_5  and  C5_7 
REMARK    3  A    between atoms: C6_8  and  C7_9 
REMARK    4  A    between atoms: C7_9  and  C8_10 
REMARK    5  A    between atoms: C8_10  and  N2_11 
REMARK    6  A    between atoms: C17_21  and  C18_22 
ROOT
HETATM    1  C1  UNL     1       3.481  -1.916   0.265  1.00  0.00     0.070 C 
HETATM    2  C2  UNL     1       3.524  -0.506  -0.182  1.00  0.00     0.031 C 
HETATM    3  C3  UNL     1       2.483   0.299  -0.419  1.00  0.00     0.037 C 
HETATM    4  C14 UNL     1       3.081   1.633  -0.867  1.00  0.00     0.089 C 
HETATM    5  C15 UNL     1       4.317   1.114  -1.519  1.00  0.00     0.120 C 
HETATM    6  C16 UNL     1       5.611   1.737  -1.386  1.00  0.00     0.029 C 
HETATM    7  C17 UNL     1       6.035   0.850  -0.469  1.00  0.00     0.043 C 
HETATM    8  N4  UNL     1       4.757   0.229  -0.398  1.00  0.00    -0.340 N 
ENDROOT
BRANCH   3   9
HETATM    9  N1  UNL     1       1.092   0.162  -0.353  1.00  0.00    -0.318 N 
HETATM   10  C4  UNL     1       0.112  -0.795  -0.034  1.00  0.00     0.300 C 
HETATM   11  O1  UNL     1       0.525  -1.921   0.312  1.00  0.00    -0.258 OA
HETATM   12  H4  UNL     1       0.543   1.026  -0.617  1.00  0.00     0.169 HD
BRANCH  10  13
HETATM   13  C5  UNL     1      -1.288  -0.648  -0.053  1.00  0.00    -0.005 C 
HETATM   14  C6  UNL     1      -2.484  -0.524  -0.089  1.00  0.00    -0.095 C 
BRANCH  14  15
HETATM   15  C7  UNL     1      -3.940  -0.398  -0.138  1.00  0.00     0.124 C 
BRANCH  15  16
HETATM   16  C8  UNL     1      -4.388   0.812   0.606  1.00  0.00     0.284 C 
BRANCH  16  17
HETATM   17  N2  UNL     1      -5.820   0.953   0.580  1.00  0.00     0.092 N 
HETATM   18  C9  UNL     1      -6.524  -0.025   1.323  1.00  0.00     0.302 C 
HETATM   19  C10 UNL     1      -7.946  -0.157   0.840  1.00  0.00     0.302 C 
HETATM   20  N3  UNL     1      -7.902  -0.662  -0.494  1.00  0.00     0.087 N 
HETATM   21  C11 UNL     1      -7.623  -2.064  -0.559  1.00  0.00     0.310 C 
HETATM   22  C12 UNL     1      -7.081   0.107  -1.386  1.00  0.00     0.302 C 
HETATM   23  C13 UNL     1      -6.345   1.226  -0.724  1.00  0.00     0.302 C 
ENDBRANCH  16  17
ENDBRANCH  15  16
ENDBRANCH  14  15
ENDBRANCH  10  13
ENDBRANCH   3   9
BRANCH   7  24
HETATM   24  C18 UNL     1       7.143   0.453   0.379  1.00  0.00    -0.008 A 
HETATM   25  C19 UNL     1       7.276  -0.580   1.276  1.00  0.00     0.017 A 
HETATM   26  C20 UNL     1       8.450  -0.752   1.971  1.00  0.00     0.045 A 
HETATM   27  C21 UNL     1       9.545   0.071   1.824  1.00  0.00     0.138 A 
HETATM   28  F1  UNL     1      10.641  -0.206   2.566  1.00  0.00    -0.204 F 
HETATM   29  C22 UNL     1       9.419   1.104   0.930  1.00  0.00     0.073 A 
HETATM   30 CL1  UNL     1      10.827   2.142   0.758  1.00  0.00    -0.081 Cl
HETATM   31  C23 UNL     1       8.243   1.303   0.213  1.00  0.00     0.040 A 
ENDBRANCH   7  24
TORSDOF 6
