REMARK  3 active torsions:
REMARK  status: ('A' for Active; 'I' for Inactive)
REMARK    1  A    between atoms: C1_2  and  C2_3 
REMARK    2  A    between atoms: C2_3  and  N1_4 
REMARK    3  A    between atoms: N1_4  and  C3_5 
ROOT
HETATM    1  C3  UNL     1       1.796   0.771   0.760  1.00  0.00     0.350 C 
HETATM    2  N2  UNL     1       0.524   1.182   0.255  1.00  0.00    -0.265 NA
HETATM    3  C4  UNL     1      -0.113   2.187   0.683  1.00  0.00     0.126 C 
HETATM    4  C5  UNL     1      -1.428   2.757   0.285  1.00  0.00     0.108 C 
HETATM    5  N3  UNL     1      -1.965   2.071  -0.655  1.00  0.00    -0.161 NA
HETATM    6  C6  UNL     1      -3.215   2.420  -1.195  1.00  0.00     0.195 A 
HETATM    7  N4  UNL     1      -3.006   1.168  -1.153  1.00  0.00    -0.272 N 
HETATM    8  C7  UNL     1      -4.015   0.246  -1.636  1.00  0.00     0.413 C 
HETATM    9  N5  UNL     1      -3.433  -1.111  -1.640  1.00  0.00     0.105 N 
HETATM   10  C8  UNL     1      -3.061  -1.440  -0.246  1.00  0.00     0.301 C 
HETATM   11  C9  UNL     1      -2.222  -2.643  -0.295  1.00  0.00     0.030 C 
HETATM   12  C10 UNL     1      -0.980  -2.746   0.100  1.00  0.00     0.070 C 
HETATM   13 CL1  UNL     1       0.153  -4.076   0.116  1.00  0.00    -0.081 Cl
HETATM   14  C11 UNL     1       0.128  -2.031   0.689  1.00  0.00     0.140 C 
HETATM   15  F1  UNL     1      -0.669  -0.959   0.813  1.00  0.00    -0.204 F 
HETATM   16  C12 UNL     1       1.274  -1.652   1.192  1.00  0.00    -0.031 A 
HETATM   17  C13 UNL     1       2.680  -1.468   1.725  1.00  0.00     0.051 A 
HETATM   18  C14 UNL     1       1.735  -0.385   1.688  1.00  0.00     0.076 A 
HETATM   19  H11 UNL     1      -4.141  -1.787  -2.014  1.00  0.00     0.318 HD
ENDROOT
BRANCH   1  20
HETATM   20  N1  UNL     1       2.769   0.691  -0.296  1.00  0.00     0.115 N 
HETATM   21  H4  UNL     1       2.627  -0.101  -0.953  1.00  0.00     0.319 HD
BRANCH  20  22
HETATM   22  C2  UNL     1       4.139   0.859   0.131  1.00  0.00     0.341 C 
BRANCH  22  23
HETATM   23  C1  UNL     1       4.992   0.638  -1.065  1.00  0.00     0.261 C 
HETATM   24  O1  UNL     1       6.154   0.799  -0.655  1.00  0.00    -0.305 OA
ENDBRANCH  22  23
ENDBRANCH  20  22
ENDBRANCH   1  20
TORSDOF 3
