REMARK  4 active torsions:
REMARK  status: ('A' for Active; 'I' for Inactive)
REMARK       I    between atoms: C3_3  and  N1_5 
REMARK    1  A    between atoms: N1_5  and  C4_6 
REMARK    2  A    between atoms: C9_13  and  N4_14 
REMARK    3  A    between atoms: N4_14  and  C10_15 
REMARK    4  A    between atoms: C10_15  and  C11_16 
ROOT
HETATM    1  C1  UNL     1      -6.087   3.218   0.776  1.00  0.00     0.022 C 
HETATM    2  C2  UNL     1      -5.517   2.166   0.687  1.00  0.00    -0.016 C 
HETATM    3  C3  UNL     1      -4.816   0.924   0.575  1.00  0.00     0.300 C 
HETATM    4  O1  UNL     1      -5.496  -0.121   0.699  1.00  0.00    -0.258 OA
HETATM    5  N1  UNL     1      -3.428   0.786   0.337  1.00  0.00    -0.316 N 
HETATM    6  H2  UNL     1      -2.987   1.727   0.255  1.00  0.00     0.170 HD
ENDROOT
BRANCH   5   7
HETATM    7  C4  UNL     1      -2.642  -0.382   0.210  1.00  0.00     0.036 A 
HETATM    8  C5  UNL     1      -3.068  -1.685   0.292  1.00  0.00     0.032 A 
HETATM    9  C6  UNL     1      -2.255  -2.790   0.159  1.00  0.00     0.035 A 
HETATM   10  C7  UNL     1      -0.930  -2.596  -0.070  1.00  0.00     0.072 A 
HETATM   11  N2  UNL     1      -0.105  -3.652  -0.205  1.00  0.00    -0.241 NA
HETATM   12  C14 UNL     1      -0.456  -1.309  -0.160  1.00  0.00     0.041 A 
HETATM   13  C8  UNL     1       1.222  -3.480  -0.435  1.00  0.00     0.235 A 
HETATM   14  N3  UNL     1       1.649  -2.211  -0.517  1.00  0.00    -0.224 NA
HETATM   15  C9  UNL     1       0.882  -1.123  -0.392  1.00  0.00     0.137 A 
HETATM   16  C15 UNL     1      -1.296  -0.230  -0.023  1.00  0.00     0.047 A 
BRANCH  15  17
HETATM   17  N4  UNL     1       1.490   0.159  -0.505  1.00  0.00    -0.371 N 
HETATM   18  H6  UNL     1       1.033   1.084  -0.433  1.00  0.00     0.161 HD
BRANCH  17  19
HETATM   19  C10 UNL     1       2.898   0.273  -0.748  1.00  0.00     0.149 C 
BRANCH  19  20
HETATM   20  C11 UNL     1       3.411   1.651  -0.846  1.00  0.00     0.007 C 
HETATM   21  C12 UNL     1       4.334   2.200  -0.068  1.00  0.00    -0.018 C 
HETATM   22  C13 UNL     1       4.927   1.369   1.016  1.00  0.00     0.056 C 
HETATM   23 BR1  UNL     1       4.824   4.015  -0.409  1.00  0.00    -0.056 Br
ENDBRANCH  19  20
ENDBRANCH  17  19
ENDBRANCH  15  17
ENDBRANCH   5   7
TORSDOF 4
