REMARK  6 active torsions:
REMARK  status: ('A' for Active; 'I' for Inactive)
REMARK    1  A    between atoms: N2_5  and  C4_6 
REMARK    2  A    between atoms: C4_6  and  C5_7 
REMARK    3  A    between atoms: C5_7  and  C6_8 
REMARK    4  A    between atoms: C7_9  and  C8_10 
REMARK    5  A    between atoms: C8_10  and  C9_12 
REMARK    6  A    between atoms: C14_19  and  N5_20 
ROOT
HETATM    1  C9  UNL     1       1.599  -0.208  -0.442  1.00  0.00     0.089 A 
HETATM    2  C10 UNL     1       2.883  -0.318  -0.238  1.00  0.00     0.051 A 
HETATM    3  C11 UNL     1       3.739   0.854  -0.190  1.00  0.00     0.038 A 
HETATM    4  C12 UNL     1       3.258   2.133  -0.352  1.00  0.00     0.067 A 
HETATM    5  N3  UNL     1       4.114   3.190  -0.309  1.00  0.00    -0.244 NA
HETATM    6  C13 UNL     1       5.424   2.967  -0.108  1.00  0.00     0.235 A 
HETATM    7  N4  UNL     1       5.940   1.715   0.057  1.00  0.00    -0.224 NA
HETATM    8  C14 UNL     1       5.070   0.664   0.012  1.00  0.00     0.139 A 
HETATM    9  C20 UNL     1       1.813   2.388  -0.572  1.00  0.00     0.180 A 
HETATM   10  N6  UNL     1       1.127   1.125  -0.602  1.00  0.00    -0.380 N 
HETATM   11  H23 UNL     1       0.090   1.268  -0.777  1.00  0.00     0.160 HD
ENDROOT
BRANCH   1  12
HETATM   12  C8  UNL     1       0.653  -1.329  -0.508  1.00  0.00     0.251 C 
HETATM   13  O1  UNL     1       1.111  -2.482  -0.352  1.00  0.00    -0.276 OA
BRANCH  12  14
HETATM   14  C7  UNL     1      -0.737  -1.042  -0.747  1.00  0.00    -0.022 C 
HETATM   15  C6  UNL     1      -1.898  -0.790  -0.964  1.00  0.00    -0.096 C 
BRANCH  15  16
HETATM   16  C5  UNL     1      -3.285  -0.470  -1.242  1.00  0.00     0.124 C 
BRANCH  16  17
HETATM   17  C4  UNL     1      -3.882   0.256  -0.068  1.00  0.00     0.284 C 
BRANCH  17  18
HETATM   18  N2  UNL     1      -5.267   0.551  -0.410  1.00  0.00     0.092 N 
HETATM   19  C3  UNL     1      -6.059  -0.635  -0.490  1.00  0.00     0.302 C 
HETATM   20  C2  UNL     1      -7.522  -0.353  -0.252  1.00  0.00     0.302 C 
HETATM   21  N1  UNL     1      -7.746   0.197   1.049  1.00  0.00     0.087 N 
HETATM   22  C1  UNL     1      -7.979  -0.811   2.065  1.00  0.00     0.310 C 
HETATM   23  C22 UNL     1      -6.700   1.067   1.515  1.00  0.00     0.302 C 
HETATM   24  C21 UNL     1      -5.824   1.590   0.421  1.00  0.00     0.302 C 
ENDBRANCH  17  18
ENDBRANCH  16  17
ENDBRANCH  15  16
ENDBRANCH  12  14
ENDBRANCH   1  12
BRANCH   8  25
HETATM   25  N5  UNL     1       5.746  -0.587   0.205  1.00  0.00    -0.361 N 
HETATM   26  C15 UNL     1       6.412  -0.794   1.499  1.00  0.00     0.154 C 
HETATM   27  C16 UNL     1       7.866  -0.498   1.216  1.00  0.00     0.030 C 
HETATM   28  C17 UNL     1       8.234  -1.267   0.199  1.00  0.00     0.093 C 
HETATM   29  F1  UNL     1       9.544  -1.104  -0.174  1.00  0.00    -0.211 F 
HETATM   30  C18 UNL     1       7.400  -2.249  -0.543  1.00  0.00     0.089 C 
HETATM   31  C19 UNL     1       5.963  -1.790  -0.614  1.00  0.00     0.131 C 
ENDBRANCH   8  25
TORSDOF 6
