REMARK  8 active torsions:
REMARK  status: ('A' for Active; 'I' for Inactive)
REMARK    1  A    between atoms: C2_2  and  N1_4 
REMARK    2  A    between atoms: N1_4  and  C4_5 
REMARK    3  A    between atoms: N1_4  and  C18_25 
REMARK    4  A    between atoms: C4_5  and  C5_6 
REMARK    5  A    between atoms: C5_6  and  C6_7 
REMARK    6  A    between atoms: C6_7  and  C7_9 
REMARK    7  A    between atoms: C8_10  and  C9_11 
REMARK    8  A    between atoms: C11_16  and  C12_17 
ROOT
HETATM    1  C9  UNL     1       3.531  -1.657  -0.125  1.00  0.00     0.007 C 
HETATM    2  C10 UNL     1       3.113  -2.957  -0.117  1.00  0.00     0.105 C 
HETATM    3  N2  UNL     1       3.614  -4.182  -0.335  1.00  0.00    -0.340 NA
HETATM    4  B1  UNL     1       5.205  -3.610  -1.657  1.00  0.00     0.464 B 
HETATM    5  N3  UNL     1       5.705  -2.192  -0.718  1.00  0.00    -0.329 NA
HETATM    6  C11 UNL     1       4.799  -1.270  -0.416  1.00  0.00     0.057 C 
ENDROOT
BRANCH   1   7
HETATM    7  C8  UNL     1       2.525  -0.640   0.178  1.00  0.00     0.019 C 
HETATM    8  C7  UNL     1       1.283  -0.959   0.489  1.00  0.00     0.051 C 
BRANCH   8   9
HETATM    9  C6  UNL     1       0.292   0.066   0.788  1.00  0.00     0.150 C 
HETATM   10  O1  UNL     1       0.625   1.295   0.747  1.00  0.00    -0.293 OA
BRANCH   9  11
HETATM   11  C5  UNL     1      -1.131  -0.112   1.154  1.00  0.00     0.102 C 
BRANCH  11  12
HETATM   12  C4  UNL     1      -1.986   0.126  -0.098  1.00  0.00     0.125 C 
BRANCH  12  13
HETATM   13  N1  UNL     1      -3.371  -0.018   0.138  1.00  0.00    -0.405 N 
BRANCH  13  14
HETATM   14  C2  UNL     1      -4.003   0.934   0.951  1.00  0.00     0.071 C 
HETATM   15  C1  UNL     1      -5.470   0.712   1.164  1.00  0.00     0.031 C 
HETATM   16  C3  UNL     1      -3.837   2.380   0.476  1.00  0.00     0.031 C 
ENDBRANCH  13  14
BRANCH  13  17
HETATM   17  C18 UNL     1      -4.090  -1.042  -0.480  1.00  0.00     0.071 C 
HETATM   18  C19 UNL     1      -3.225  -1.994  -1.308  1.00  0.00     0.031 C 
HETATM   19  C20 UNL     1      -5.179  -0.545  -1.423  1.00  0.00     0.031 C 
ENDBRANCH  13  17
ENDBRANCH  12  13
ENDBRANCH  11  12
ENDBRANCH   9  11
ENDBRANCH   8   9
ENDBRANCH   1   7
BRANCH   6  20
HETATM   20  C12 UNL     1       5.300   0.098  -0.426  1.00  0.00    -0.007 A 
HETATM   21  C13 UNL     1       6.032   0.702  -1.453  1.00  0.00     0.017 A 
HETATM   22  C14 UNL     1       6.516   1.981  -1.429  1.00  0.00     0.045 A 
HETATM   23  C15 UNL     1       6.277   2.756  -0.320  1.00  0.00     0.138 A 
HETATM   24  F1  UNL     1       6.795   4.008  -0.384  1.00  0.00    -0.204 F 
HETATM   25  C16 UNL     1       5.564   2.248   0.742  1.00  0.00     0.073 A 
HETATM   26 CL1  UNL     1       5.290   3.277   2.127  1.00  0.00    -0.081 Cl
HETATM   27  C17 UNL     1       5.105   0.954   0.657  1.00  0.00     0.040 A 
ENDBRANCH   6  20
TORSDOF 8
