REMARK  10 active torsions:
REMARK  status: ('A' for Active; 'I' for Inactive)
REMARK    1  A    between atoms: C2_2  and  C3_3 
REMARK    2  A    between atoms: C3_3  and  C4_4 
REMARK    3  A    between atoms: C4_4  and  N1_5 
REMARK    4  A    between atoms: N1_5  and  C5_6 
REMARK    5  A    between atoms: N1_5  and  C16_21 
REMARK    6  A    between atoms: C5_6  and  C6_7 
REMARK    7  A    between atoms: C7_8  and  C8_9 
REMARK       I    between atoms: C8_9  and  N2_11 
REMARK    8  A    between atoms: N2_11  and  C9_12 
REMARK    9  A    between atoms: C16_21  and  C17_22 
REMARK   10  A    between atoms: C17_22  and  C18_23 
ROOT
HETATM    1  C8  UNL     1       1.770  -0.744   0.539  1.00  0.00     0.297 C 
HETATM    2  O1  UNL     1       1.875  -1.738  -0.256  1.00  0.00    -0.258 OA
HETATM    3  N2  UNL     1       3.064  -0.370   0.950  1.00  0.00    -0.339 N 
HETATM    4  H10 UNL     1       3.092   0.469   1.608  1.00  0.00     0.164 HD
ENDROOT
BRANCH   1   5
HETATM    5  C7  UNL     1       0.540  -0.117   0.946  1.00  0.00    -0.004 C 
HETATM    6  C6  UNL     1      -0.487   0.405   1.309  1.00  0.00    -0.077 C 
BRANCH   6   7
HETATM    7  C5  UNL     1      -1.725   1.014   1.765  1.00  0.00     0.212 C 
BRANCH   7   8
HETATM    8  N1  UNL     1      -2.610   1.322   0.755  1.00  0.00    -0.402 N 
BRANCH   8   9
HETATM    9  C4  UNL     1      -2.377   2.439  -0.106  1.00  0.00     0.121 C 
BRANCH   9  10
HETATM   10  C3  UNL     1      -3.424   2.747  -1.115  1.00  0.00     0.046 C 
BRANCH  10  11
HETATM   11  C2  UNL     1      -3.653   1.781  -2.194  1.00  0.00    -0.035 C 
HETATM   12  C1  UNL     1      -4.242   0.814  -2.956  1.00  0.00     0.007 C 
ENDBRANCH  10  11
ENDBRANCH   9  10
ENDBRANCH   8   9
BRANCH   8  13
HETATM   13  C16 UNL     1      -3.577   0.355   0.326  1.00  0.00     0.117 C 
BRANCH  13  14
HETATM   14  C17 UNL     1      -3.706  -0.709   1.412  1.00  0.00     0.019 C 
BRANCH  14  15
HETATM   15  C18 UNL     1      -4.739  -1.750   1.008  1.00  0.00    -0.003 C 
HETATM   16  C19 UNL     1      -4.306  -2.423  -0.234  1.00  0.00     0.005 C 
ENDBRANCH  14  15
ENDBRANCH  13  14
ENDBRANCH   8  13
ENDBRANCH   7   8
ENDBRANCH   6   7
ENDBRANCH   1   5
BRANCH   3  17
HETATM   17  C9  UNL     1       4.209  -1.018   0.552  1.00  0.00     0.060 A 
HETATM   18  C10 UNL     1       4.346  -2.409   0.887  1.00  0.00     0.041 C 
HETATM   19  C11 UNL     1       5.465  -0.200   1.242  1.00  0.00     0.056 A 
HETATM   20  C12 UNL     1       6.406   0.428   0.430  1.00  0.00     0.070 A 
HETATM   21  C13 UNL     1       5.487  -0.164  -0.522  1.00  0.00     0.126 A 
HETATM   22  N4  UNL     1       7.110   0.908  -0.803  1.00  0.00    -0.372 N 
HETATM   23  C15 UNL     1       6.531   0.549  -2.158  1.00  0.00     0.197 A 
HETATM   24  H17 UNL     1       7.811   1.356  -0.153  1.00  0.00     0.161 HD
HETATM   25  N3  UNL     1       5.349  -0.229  -2.370  1.00  0.00    -0.276 NA
HETATM   26  C14 UNL     1       4.774  -0.627  -0.889  1.00  0.00     0.070 A 
ENDBRANCH   3  17
TORSDOF 10
