REMARK  9 active torsions:
REMARK  status: ('A' for Active; 'I' for Inactive)
REMARK    1  A    between atoms: C2_2  and  C3_3 
REMARK    2  A    between atoms: C3_3  and  N1_4 
REMARK       I    between atoms: N1_4  and  C4_5 
REMARK    3  A    between atoms: C4_5  and  C5_7 
REMARK    4  A    between atoms: C6_8  and  C7_9 
REMARK    5  A    between atoms: C7_9  and  N2_10 
REMARK    6  A    between atoms: N2_10  and  C8_11 
REMARK    7  A    between atoms: N2_10  and  C11_14 
REMARK    8  A    between atoms: C17_22  and  N5_23 
REMARK    9  A    between atoms: N5_23  and  C18_24 
ROOT
HETATM    1  C3  UNL     1       1.867  -1.261  -1.946  1.00  0.00     0.024 C 
HETATM    2  C14 UNL     1       3.144  -1.070  -2.064  1.00  0.00     0.030 A 
HETATM    3  C15 UNL     1       3.960  -1.681  -3.126  1.00  0.00     0.194 A 
HETATM    4  N3  UNL     1       5.346  -1.418  -3.011  1.00  0.00    -0.278 NA
HETATM    5  C16 UNL     1       5.950  -0.680  -2.203  1.00  0.00     0.229 A 
HETATM    6  N4  UNL     1       5.223   0.040  -1.196  1.00  0.00    -0.224 NA
HETATM    7  C17 UNL     1       3.932  -0.190  -1.212  1.00  0.00     0.139 A 
ENDROOT
BRANCH   1   8
HETATM    8  C2  UNL     1       1.393  -2.160  -3.065  1.00  0.00     0.053 C 
HETATM    9  C1  UNL     1       0.827  -3.459  -2.508  1.00  0.00     0.011 C 
ENDBRANCH   1   8
BRANCH   1  10
HETATM   10  N1  UNL     1       0.669  -1.257  -1.217  1.00  0.00    -0.319 N 
HETATM   11  C4  UNL     1       0.310  -0.974   0.120  1.00  0.00     0.300 C 
HETATM   12  O1  UNL     1       1.105  -0.664   1.032  1.00  0.00    -0.258 OA
HETATM   13  H6  UNL     1      -0.279  -1.475  -1.649  1.00  0.00     0.169 HD
BRANCH  11  14
HETATM   14  C5  UNL     1      -1.012  -0.992   0.659  1.00  0.00    -0.004 C 
HETATM   15  C6  UNL     1      -2.122  -1.024   1.099  1.00  0.00    -0.066 C 
BRANCH  15  16
HETATM   16  C7  UNL     1      -3.467  -1.054   1.658  1.00  0.00     0.367 C 
BRANCH  16  17
HETATM   17  N2  UNL     1      -4.169   0.075   1.017  1.00  0.00     0.107 N 
BRANCH  17  18
HETATM   18  C8  UNL     1      -3.636   1.312   1.438  1.00  0.00     0.216 C 
HETATM   19  C9  UNL     1      -4.263   2.578   1.005  1.00  0.00     0.042 C 
HETATM   20  C10 UNL     1      -3.410   1.271   2.952  1.00  0.00     0.042 C 
ENDBRANCH  17  18
BRANCH  17  21
HETATM   21  C11 UNL     1      -4.215  -0.180  -0.403  1.00  0.00     0.216 C 
HETATM   22  C12 UNL     1      -4.883  -1.565  -0.542  1.00  0.00     0.042 C 
HETATM   23  C13 UNL     1      -5.094   0.743  -1.166  1.00  0.00     0.042 C 
ENDBRANCH  17  21
ENDBRANCH  16  17
ENDBRANCH  15  16
ENDBRANCH  11  14
ENDBRANCH   1  10
BRANCH   7  24
HETATM   24  N5  UNL     1       3.310   0.686  -0.282  1.00  0.00    -0.340 N 
HETATM   25  H26 UNL     1       2.310   0.986  -0.563  1.00  0.00     0.167 HD
BRANCH  24  26
HETATM   26  C18 UNL     1       3.724   1.272   0.935  1.00  0.00     0.035 A 
HETATM   27  C19 UNL     1       3.986   0.728   2.173  1.00  0.00     0.032 A 
HETATM   28  C20 UNL     1       4.347   1.520   3.241  1.00  0.00     0.046 A 
HETATM   29  C21 UNL     1       4.461   2.884   3.114  1.00  0.00     0.138 A 
HETATM   30  F1  UNL     1       4.812   3.673   4.156  1.00  0.00    -0.204 F 
HETATM   31  C22 UNL     1       4.207   3.448   1.900  1.00  0.00     0.074 A 
HETATM   32 CL1  UNL     1       4.348   5.201   1.749  1.00  0.00    -0.081 Cl
HETATM   33  C23 UNL     1       3.845   2.667   0.826  1.00  0.00     0.056 A 
ENDBRANCH  24  26
ENDBRANCH   7  24
TORSDOF 9
