REMARK  4 active torsions:
REMARK  status: ('A' for Active; 'I' for Inactive)
REMARK    1  A    between atoms: C1_2  and  C2_3 
REMARK       I    between atoms: C1_2  and  N1_5 
REMARK    2  A    between atoms: N1_5  and  C3_6 
REMARK    3  A    between atoms: C6_9  and  N2_10 
REMARK    4  A    between atoms: N2_10  and  C7_11 
ROOT
HETATM    1  C3  UNL     1       2.828  -0.148   1.449  1.00  0.00     0.122 C 
HETATM    2  C4  UNL     1       1.653  -0.565   1.075  1.00  0.00     0.075 C 
HETATM    3  C5  UNL     1       0.628  -0.103   0.164  1.00  0.00     0.083 C 
HETATM    4  C6  UNL     1      -0.565  -0.385  -0.314  1.00  0.00     0.131 C 
HETATM    5  N3  UNL     1      -1.110  -1.575   0.220  1.00  0.00    -0.224 NA
HETATM    6  C13 UNL     1      -0.815  -2.729  -0.278  1.00  0.00     0.236 C 
HETATM    7  N4  UNL     1      -0.393  -3.940  -0.939  1.00  0.00    -0.240 NA
HETATM    8  C14 UNL     1       0.168  -4.784  -0.140  1.00  0.00     0.088 C 
HETATM    9  C15 UNL     1       1.027  -4.285   0.734  1.00  0.00     0.053 C 
HETATM   10  C16 UNL     1       1.267  -2.844   0.870  1.00  0.00     0.119 C 
HETATM   11  N5  UNL     1       1.014  -1.742   1.537  1.00  0.00    -0.260 NA
ENDROOT
BRANCH   4  12
HETATM   12  N2  UNL     1      -1.282   0.371  -1.260  1.00  0.00    -0.341 N 
HETATM   13  H6  UNL     1      -0.740   0.616  -2.117  1.00  0.00     0.167 HD
BRANCH  12  14
HETATM   14  C7  UNL     1      -2.622   0.772  -1.072  1.00  0.00     0.033 A 
HETATM   15  C8  UNL     1      -3.230   1.514  -2.079  1.00  0.00     0.032 A 
HETATM   16  C9  UNL     1      -4.554   1.886  -1.849  1.00  0.00     0.044 A 
HETATM   17  C10 UNL     1      -5.253   1.565  -0.720  1.00  0.00     0.116 A 
HETATM   18  F1  UNL     1      -6.542   1.978  -0.596  1.00  0.00    -0.206 F 
HETATM   19  C11 UNL     1      -4.615   0.820   0.270  1.00  0.00     0.044 A 
HETATM   20  C12 UNL     1      -3.302   0.438   0.069  1.00  0.00     0.032 A 
ENDBRANCH  12  14
ENDBRANCH   4  12
BRANCH   1  21
HETATM   21  N1  UNL     1       3.843   0.813   1.345  1.00  0.00    -0.334 N 
HETATM   22  C1  UNL     1       3.903   1.977   0.554  1.00  0.00     0.235 C 
HETATM   23  O1  UNL     1       3.058   2.414  -0.236  1.00  0.00    -0.272 OA
HETATM   24  H3  UNL     1       4.741   0.815   1.855  1.00  0.00     0.168 HD
BRANCH  22  25
HETATM   25  C2  UNL     1       4.960   3.002   0.429  1.00  0.00     0.217 C 
HETATM   26 CL1  UNL     1       4.469   4.257  -0.731  1.00  0.00    -0.121 Cl
ENDBRANCH  22  25
ENDBRANCH   1  21
TORSDOF 4
