REMARK  2 active torsions:
REMARK  status: ('A' for Active; 'I' for Inactive)
REMARK    1  A    between atoms: C2_2  and  C3_4 
REMARK    2  A    between atoms: C4_6  and  N1_7 
ROOT
HETATM    1  N1  UNL     1       0.901   0.309   0.024  1.00  0.00    -0.309 N 
HETATM    2  C5  UNL     1       1.068   1.655   0.474  1.00  0.00     0.143 A 
HETATM    3  N2  UNL     1       2.298   2.117   0.647  1.00  0.00    -0.224 NA
HETATM    4  C6  UNL     1       2.657   3.322   1.105  1.00  0.00     0.236 A 
HETATM    5  N3  UNL     1       1.732   4.259   1.465  1.00  0.00    -0.240 NA
HETATM    6  C7  UNL     1       0.443   3.815   1.299  1.00  0.00     0.081 A 
HETATM    7  C8  UNL     1      -0.704   4.557   1.603  1.00  0.00     0.100 A 
HETATM    8  N4  UNL     1      -1.888   4.080   1.435  1.00  0.00    -0.229 NA
HETATM    9  C9  UNL     1      -2.571   3.130   1.074  1.00  0.00     0.090 A 
HETATM   10  C10 UNL     1      -1.200   2.778   0.921  1.00  0.00     0.170 A 
HETATM   11  C11 UNL     1       0.130   2.558   0.819  1.00  0.00     0.043 A 
HETATM   12  N5  UNL     1      -3.292   2.007   0.640  1.00  0.00    -0.308 N 
HETATM   13  C12 UNL     1      -4.008   0.914   0.212  1.00  0.00     0.301 C 
HETATM   14  O1  UNL     1      -4.945   1.658   0.003  1.00  0.00    -0.258 OA
HETATM   15  C13 UNL     1      -3.550  -0.402   0.153  1.00  0.00    -0.004 C 
HETATM   16  C14 UNL     1      -3.164  -1.450   0.103  1.00  0.00    -0.077 C 
HETATM   17  C15 UNL     1      -2.651  -2.766   0.041  1.00  0.00     0.212 C 
HETATM   18  N6  UNL     1      -1.192  -2.754  -0.119  1.00  0.00    -0.396 N 
HETATM   19  C16 UNL     1      -0.488  -3.512   0.841  1.00  0.00     0.144 C 
HETATM   20  C17 UNL     1       0.332  -2.709   1.813  1.00  0.00     0.190 C 
HETATM   21  O2  UNL     1       0.937  -1.608   1.227  1.00  0.00    -0.363 OA
HETATM   22  C18 UNL     1       0.030  -0.725   0.631  1.00  0.00     0.246 C 
HETATM   23  C19 UNL     1      -0.651  -1.466  -0.463  1.00  0.00     0.171 C 
HETATM   24  H7  UNL     1      -2.603   1.330   1.007  1.00  0.00     0.170 HD
ENDROOT
BRANCH   1  25
HETATM   25  C4  UNL     1       1.645  -0.132  -1.097  1.00  0.00     0.139 C 
HETATM   26  C3  UNL     1       1.934  -0.390  -2.383  1.00  0.00     0.149 C 
HETATM   27  F1  UNL     1       1.205  -0.183  -3.481  1.00  0.00    -0.203 F 
BRANCH  26  28
HETATM   28  C2  UNL     1       3.252  -0.996  -2.647  1.00  0.00     0.049 A 
HETATM   29  C1  UNL     1       4.380  -1.528  -3.016  1.00  0.00     0.156 A 
HETATM   30 CL1  UNL     1       4.366  -1.336  -1.305  1.00  0.00    -0.178 Cl
ENDBRANCH  26  28
ENDBRANCH   1  25
TORSDOF 2
