REMARK  2 active torsions:
REMARK  status: ('A' for Active; 'I' for Inactive)
REMARK    1  A    between atoms: C11_16  and  N4_17 
REMARK    2  A    between atoms: N4_17  and  C12_18 
ROOT
HETATM    1  O1  UNL     1      -3.619  -0.689   0.328  1.00  0.00    -0.273 OA
HETATM    2  C1  UNL     1      -4.874  -0.862   0.136  1.00  0.00     0.222 C 
HETATM    3  C2  UNL     1      -5.569   0.476   0.136  1.00  0.00     0.122 C 
HETATM    4  C3  UNL     1      -4.532   1.568  -0.016  1.00  0.00     0.123 C 
HETATM    5  N1  UNL     1      -3.498   1.402   0.949  1.00  0.00    -0.419 N 
HETATM    6  C4  UNL     1      -2.441   2.366   0.910  1.00  0.00     0.140 C 
HETATM    7  C5  UNL     1      -1.348   1.800   1.831  1.00  0.00     0.186 C 
HETATM    8  O2  UNL     1      -0.962   0.535   1.366  1.00  0.00    -0.387 OA
HETATM    9  C6  UNL     1      -0.477   0.594   0.086  1.00  0.00     0.208 C 
HETATM   10  C7  UNL     1      -0.078  -0.789  -0.463  1.00  0.00     0.286 C 
HETATM   11  C8  UNL     1       1.088  -0.555  -1.369  1.00  0.00     0.050 A 
HETATM   12  C9  UNL     1       0.682  -0.572  -2.686  1.00  0.00     0.076 A 
HETATM   13  N2  UNL     1       1.588  -0.381  -3.652  1.00  0.00    -0.244 NA
HETATM   14  C10 UNL     1       2.891  -0.171  -3.393  1.00  0.00     0.235 A 
HETATM   15  N3  UNL     1       3.253  -0.160  -2.105  1.00  0.00    -0.224 NA
HETATM   16  C11 UNL     1       2.435  -0.339  -1.065  1.00  0.00     0.140 A 
HETATM   17  C18 UNL     1      -0.779  -0.818  -2.696  1.00  0.00     0.333 C 
HETATM   18  N5  UNL     1      -1.103  -1.196  -1.360  1.00  0.00     0.110 N 
HETATM   19  C19 UNL     1      -1.611  -2.518  -1.218  1.00  0.00     0.326 C 
HETATM   20  P1  UNL     1      -2.540  -2.630   0.369  1.00  0.00     0.002 P 
HETATM   21  N6  UNL     1      -4.240  -2.136   0.132  1.00  0.00    -0.337 N 
HETATM   22  H5  UNL     1      -3.804   1.184   1.907  1.00  0.00     0.153 HD
HETATM   23  H22 UNL     1      -1.896  -2.017   1.491  1.00  0.00     0.082 HD
HETATM   24  H23 UNL     1      -4.935  -2.921  -0.049  1.00  0.00     0.167 HD
ENDROOT
BRANCH  16  25
HETATM   25  N4  UNL     1       2.838  -0.314   0.296  1.00  0.00    -0.340 N 
HETATM   26  H14 UNL     1       2.094  -0.443   1.019  1.00  0.00     0.167 HD
BRANCH  25  27
HETATM   27  C12 UNL     1       4.138  -0.137   0.837  1.00  0.00     0.035 A 
HETATM   28  C13 UNL     1       5.301  -0.166   0.061  1.00  0.00     0.032 A 
HETATM   29  C14 UNL     1       6.564   0.018   0.581  1.00  0.00     0.046 A 
HETATM   30  C15 UNL     1       6.715   0.245   1.932  1.00  0.00     0.138 A 
HETATM   31  F1  UNL     1       7.938   0.425   2.439  1.00  0.00    -0.204 F 
HETATM   32  C16 UNL     1       5.579   0.276   2.707  1.00  0.00     0.074 A 
HETATM   33 CL1  UNL     1       5.704   0.560   4.435  1.00  0.00    -0.081 Cl
HETATM   34  C17 UNL     1       4.331   0.091   2.180  1.00  0.00     0.056 A 
ENDBRANCH  25  27
ENDBRANCH  16  25
TORSDOF 2
