REMARK  5 active torsions:
REMARK  status: ('A' for Active; 'I' for Inactive)
REMARK    1  A    between atoms: B1_1  and  C1_2 
REMARK    2  A    between atoms: C1_2  and  C2_4 
REMARK       I    between atoms: C2_4  and  N1_6 
REMARK    3  A    between atoms: N1_6  and  C3_7 
REMARK    4  A    between atoms: C6_10  and  N2_11 
REMARK    5  A    between atoms: N2_11  and  C7_12 
ROOT
HETATM    1  C3  UNL     1      -2.477  -0.573   0.426  1.00  0.00     0.130 A 
HETATM    2  C4  UNL     1      -1.114  -0.393   0.321  1.00  0.00     0.068 A 
HETATM    3  C5  UNL     1      -0.215  -0.322   1.361  1.00  0.00     0.044 A 
HETATM    4  C6  UNL     1       1.124  -0.143   1.226  1.00  0.00     0.142 A 
HETATM    5  N3  UNL     1       1.817  -0.102   2.365  1.00  0.00    -0.224 NA
HETATM    6  C13 UNL     1       1.249  -0.225   3.565  1.00  0.00     0.236 A 
HETATM    7  N4  UNL     1      -0.058  -0.400   3.704  1.00  0.00    -0.240 NA
HETATM    8  C14 UNL     1      -0.804  -0.450   2.594  1.00  0.00     0.089 A 
HETATM    9  C15 UNL     1      -2.153  -0.630   2.763  1.00  0.00     0.151 A 
HETATM   10  N5  UNL     1      -2.976  -0.691   1.681  1.00  0.00    -0.241 NA
ENDROOT
BRANCH   1  11
HETATM   11  N1  UNL     1      -3.332  -0.635  -0.708  1.00  0.00    -0.311 N 
HETATM   12  C2  UNL     1      -3.894   0.605  -1.182  1.00  0.00     0.231 C 
HETATM   13  O1  UNL     1      -3.601   1.666  -0.571  1.00  0.00    -0.273 OA
HETATM   14  H4  UNL     1      -3.500  -1.576  -1.127  1.00  0.00     0.170 HD
BRANCH  12  15
HETATM   15  C1  UNL     1      -4.780   0.406  -2.385  1.00  0.00     0.120 C 
HETATM   16 CL1  UNL     1      -5.440   1.934  -2.969  1.00  0.00    -0.127 Cl
BRANCH  15  17
HETATM   17  B1  UNL     1      -5.937  -0.578  -1.891  1.00  0.00     0.170 B 
HETATM   18  H1  UNL     1      -5.573  -1.625  -1.464  1.00  0.00    -0.030 HD
HETATM   19  H2  UNL     1      -6.849  -0.081  -1.332  1.00  0.00    -0.030 HD
ENDBRANCH  15  17
ENDBRANCH  12  15
ENDBRANCH   1  11
BRANCH   4  20
HETATM   20  N2  UNL     1       1.690  -0.022  -0.061  1.00  0.00    -0.340 N 
HETATM   21  H6  UNL     1       1.106  -0.083  -0.915  1.00  0.00     0.167 HD
BRANCH  20  22
HETATM   22  C7  UNL     1       3.033   0.189  -0.468  1.00  0.00     0.033 A 
HETATM   23  C8  UNL     1       3.498   0.196  -1.764  1.00  0.00     0.032 A 
HETATM   24  C9  UNL     1       4.809   0.409  -2.108  1.00  0.00     0.044 A 
HETATM   25  C10 UNL     1       5.762   0.635  -1.144  1.00  0.00     0.116 A 
HETATM   26  F1  UNL     1       7.019   0.832  -1.590  1.00  0.00    -0.206 F 
HETATM   27  C11 UNL     1       5.344   0.637   0.169  1.00  0.00     0.044 A 
HETATM   28  C12 UNL     1       4.016   0.418   0.465  1.00  0.00     0.032 A 
ENDBRANCH  20  22
ENDBRANCH   4  20
TORSDOF 5
