REMARK  7 active torsions:
REMARK  status: ('A' for Active; 'I' for Inactive)
REMARK    1  A    between atoms: C4_4  and  N1_5 
REMARK    2  A    between atoms: N1_5  and  C5_6 
REMARK    3  A    between atoms: C9_12  and  C10_13 
REMARK    4  A    between atoms: C10_13  and  P1_14 
REMARK    5  A    between atoms: C11_17  and  C12_19 
REMARK    6  A    between atoms: C13_20  and  C14_21 
REMARK    7  A    between atoms: C14_21  and  N6_22 
ROOT
HETATM    1  C5  UNL     1      -2.675   2.017  -0.298  1.00  0.00     0.138 A 
HETATM    2  N2  UNL     1      -3.570   3.009  -0.632  1.00  0.00    -0.224 NA
HETATM    3  C6  UNL     1      -3.743   4.033   0.177  1.00  0.00     0.235 A 
HETATM    4  N3  UNL     1      -3.034   4.126   1.370  1.00  0.00    -0.246 NA
HETATM    5  C7  UNL     1      -2.163   3.135   1.671  1.00  0.00     0.042 A 
HETATM    6  C8  UNL     1      -1.319   3.050   2.913  1.00  0.00     0.071 C 
HETATM    7  C9  UNL     1      -1.922   2.035   0.884  1.00  0.00     0.018 A 
ENDROOT
BRANCH   7   8
HETATM    8  C10 UNL     1      -0.988   0.809   1.012  1.00  0.00     0.111 C 
BRANCH   8   9
HETATM    9  P1  UNL     1       0.331   2.669  -0.639  1.00  0.00     0.082 P 
HETATM   10  N4  UNL     1       1.029   3.718  -1.535  1.00  0.00    -0.159 N 
HETATM   11  N5  UNL     1       0.064   2.246  -0.289  1.00  0.00    -0.230 NA
HETATM   12  C11 UNL     1       1.354   1.340  -0.995  1.00  0.00     0.262 A 
HETATM   13  H12 UNL     1       0.633   1.442  -0.458  1.00  0.00     0.202 HD
HETATM   14  O1  UNL     1       2.322   1.808  -1.874  1.00  0.00    -0.189 OA
BRANCH  12  15
HETATM   15  C12 UNL     1       2.115  -0.051  -1.138  1.00  0.00    -0.040 C 
HETATM   16  C13 UNL     1       2.645  -1.042  -1.221  1.00  0.00    -0.082 C 
BRANCH  16  17
HETATM   17  C14 UNL     1       3.325  -2.280  -1.304  1.00  0.00     0.211 C 
BRANCH  17  18
HETATM   18  N6  UNL     1       4.567  -2.138  -0.596  1.00  0.00    -0.399 N 
HETATM   19  C15 UNL     1       5.466  -3.182  -0.565  1.00  0.00     0.144 C 
HETATM   20  C16 UNL     1       6.926  -2.772  -0.571  1.00  0.00     0.187 C 
HETATM   21  O2  UNL     1       7.087  -1.414  -0.854  1.00  0.00    -0.388 OA
HETATM   22  C17 UNL     1       6.408  -0.691   0.122  1.00  0.00     0.187 C 
HETATM   23  C18 UNL     1       4.902  -0.855  -0.115  1.00  0.00     0.144 C 
ENDBRANCH  17  18
ENDBRANCH  16  17
ENDBRANCH  12  15
ENDBRANCH   8   9
ENDBRANCH   7   8
BRANCH   1  24
HETATM   24  N1  UNL     1      -2.663   1.015  -1.337  1.00  0.00    -0.340 N 
HETATM   25  H5  UNL     1      -2.049   1.071  -2.153  1.00  0.00     0.167 HD
BRANCH  24  26
HETATM   26  C4  UNL     1      -3.594  -0.019  -1.067  1.00  0.00     0.034 A 
HETATM   27  C3  UNL     1      -4.284  -0.162   0.110  1.00  0.00     0.039 A 
HETATM   28  C2  UNL     1      -5.189  -1.164   0.357  1.00  0.00    -0.021 A 
HETATM   29  C1  UNL     1      -5.901  -1.272   1.647  1.00  0.00     0.051 C 
HETATM   30  C21 UNL     1      -5.456  -2.129  -0.632  1.00  0.00     0.122 A 
HETATM   31  C20 UNL     1      -4.787  -2.034  -1.843  1.00  0.00     0.045 A 
HETATM   32  F1  UNL     1      -6.343  -3.133  -0.428  1.00  0.00    -0.206 F 
HETATM   33  C19 UNL     1      -3.911  -1.009  -1.996  1.00  0.00     0.032 A 
ENDBRANCH  24  26
ENDBRANCH   1  24
TORSDOF 7
