REMARK  6 active torsions:
REMARK  status: ('A' for Active; 'I' for Inactive)
REMARK    1  A    between atoms: C1_2  and  C2_3 
REMARK       I    between atoms: C1_2  and  N2_12 
REMARK    2  A    between atoms: C3_4  and  C4_5 
REMARK    3  A    between atoms: C4_5  and  N1_6 
REMARK    4  A    between atoms: N2_12  and  C9_13 
REMARK    5  A    between atoms: C11_16  and  N3_17 
REMARK    6  A    between atoms: N3_17  and  C12_18 
ROOT
HETATM    1  C9  UNL     1      -1.226  -2.452  -0.119  1.00  0.00     0.054 A 
HETATM    2  B1  UNL     1      -1.939  -1.079  -1.141  1.00  0.00     0.279 B 
HETATM    3  C10 UNL     1      -3.710  -1.442  -1.241  1.00  0.00    -0.043 A 
HETATM    4  C11 UNL     1      -4.694  -0.837  -1.816  1.00  0.00     0.027 A 
HETATM    5  C18 UNL     1      -5.907  -1.646  -1.526  1.00  0.00     0.206 A 
HETATM    6  N4  UNL     1      -5.359  -2.710  -0.739  1.00  0.00    -0.283 NA
HETATM    7  C19 UNL     1      -4.086  -2.575  -0.585  1.00  0.00     0.066 A 
HETATM    8  C20 UNL     1      -3.352  -3.480   0.137  1.00  0.00     0.148 A 
HETATM    9  N5  UNL     1      -2.065  -3.349   0.298  1.00  0.00    -0.259 NA
ENDROOT
BRANCH   1  10
HETATM   10  N2  UNL     1       0.135  -2.104  -0.082  1.00  0.00    -0.314 N 
HETATM   11  C1  UNL     1       0.932  -1.317   0.783  1.00  0.00     0.301 C 
HETATM   12  O1  UNL     1       0.600  -0.681   1.811  1.00  0.00    -0.258 OA
HETATM   13  H11 UNL     1       0.559  -2.578  -0.909  1.00  0.00     0.170 HD
BRANCH  11  14
HETATM   14  C2  UNL     1       2.335  -1.216   0.455  1.00  0.00    -0.004 C 
HETATM   15  C3  UNL     1       3.524  -1.112   0.165  1.00  0.00    -0.066 C 
BRANCH  15  16
HETATM   16  C4  UNL     1       4.941  -1.015  -0.181  1.00  0.00     0.366 C 
BRANCH  16  17
HETATM   17  N1  UNL     1       5.608  -0.131   0.711  1.00  0.00     0.103 N 
HETATM   18  C5  UNL     1       5.672  -0.678   2.023  1.00  0.00     0.299 C 
HETATM   19  C6  UNL     1       4.523  -0.249   2.866  1.00  0.00     0.198 C 
HETATM   20  O2  UNL     1       3.849   0.872   2.425  1.00  0.00    -0.388 OA
HETATM   21  C7  UNL     1       4.818   1.789   1.981  1.00  0.00     0.198 C 
HETATM   22  C8  UNL     1       5.274   1.246   0.628  1.00  0.00     0.299 C 
ENDBRANCH  16  17
ENDBRANCH  15  16
ENDBRANCH  11  14
ENDBRANCH   1  10
BRANCH   4  23
HETATM   23  N3  UNL     1      -4.349   0.353  -2.516  1.00  0.00    -0.358 N 
HETATM   24  H12 UNL     1      -4.390   0.468  -3.550  1.00  0.00     0.166 HD
BRANCH  23  25
HETATM   25  C12 UNL     1      -3.912   1.479  -1.768  1.00  0.00     0.034 A 
HETATM   26  C13 UNL     1      -3.804   1.488  -0.387  1.00  0.00     0.032 A 
HETATM   27  C14 UNL     1      -3.389   2.552   0.348  1.00  0.00     0.046 A 
HETATM   28  C15 UNL     1      -3.040   3.729  -0.283  1.00  0.00     0.138 A 
HETATM   29  F1  UNL     1      -2.624   4.803   0.407  1.00  0.00    -0.204 F 
HETATM   30  C16 UNL     1      -3.124   3.791  -1.659  1.00  0.00     0.074 A 
HETATM   31 CL1  UNL     1      -2.685   5.284  -2.487  1.00  0.00    -0.081 Cl
HETATM   32  C17 UNL     1      -3.553   2.675  -2.353  1.00  0.00     0.056 A 
ENDBRANCH  23  25
ENDBRANCH   4  23
TORSDOF 6
