REMARK  9 active torsions:
REMARK  status: ('A' for Active; 'I' for Inactive)
REMARK    1  A    between atoms: C2_2  and  C3_3 
REMARK    2  A    between atoms: C3_3  and  C4_4 
REMARK    3  A    between atoms: C4_4  and  C5_5 
REMARK    4  A    between atoms: C6_6  and  C7_7 
REMARK       I    between atoms: C7_7  and  N1_9 
REMARK    5  A    between atoms: N1_9  and  C8_10 
REMARK    6  A    between atoms: C8_10  and  N2_11 
REMARK    7  A    between atoms: C9_12  and  C10_13 
REMARK    8  A    between atoms: C13_18  and  N5_19 
REMARK    9  A    between atoms: N5_19  and  C14_20 
ROOT
HETATM    1  C10 UNL     1      -1.653  -0.507   0.889  1.00  0.00     0.031 A 
HETATM    2  C11 UNL     1      -0.796  -1.174   1.732  1.00  0.00     0.133 A 
HETATM    3  N3  UNL     1      -1.216  -2.315   2.286  1.00  0.00    -0.253 NA
HETATM    4  C12 UNL     1      -2.414  -2.879   2.094  1.00  0.00     0.234 A 
HETATM    5  N4  UNL     1      -3.233  -2.210   1.267  1.00  0.00    -0.224 NA
HETATM    6  C13 UNL     1      -2.904  -1.061   0.665  1.00  0.00     0.141 A 
ENDROOT
BRANCH   1   7
HETATM    7  C9  UNL     1      -1.402   0.725   0.175  1.00  0.00     0.065 C 
HETATM    8  C8  UNL     1      -0.281   0.919  -0.506  1.00  0.00     0.102 C 
BRANCH   8   9
HETATM    9  N1  UNL     1       0.741  -0.068  -0.579  1.00  0.00    -0.302 N 
HETATM   10  C7  UNL     1       1.934   0.489  -0.047  1.00  0.00     0.302 C 
HETATM   11  O1  UNL     1       1.741   1.697   0.337  1.00  0.00    -0.258 OA
HETATM   12  H10 UNL     1       0.830  -1.063  -0.914  1.00  0.00     0.171 HD
BRANCH  10  13
HETATM   13  C6  UNL     1       3.211  -0.146   0.077  1.00  0.00    -0.005 C 
HETATM   14  C5  UNL     1       4.280  -0.701   0.185  1.00  0.00    -0.096 C 
BRANCH  14  15
HETATM   15  C4  UNL     1       5.562  -1.387   0.333  1.00  0.00     0.094 C 
BRANCH  15  16
HETATM   16  C3  UNL     1       6.420  -0.629   1.345  1.00  0.00     0.012 C 
BRANCH  16  17
HETATM   17  C2  UNL     1       6.630   0.762   0.797  1.00  0.00    -0.004 C 
HETATM   18  C1  UNL     1       7.346   0.600  -0.527  1.00  0.00     0.005 C 
ENDBRANCH  16  17
ENDBRANCH  15  16
ENDBRANCH  14  15
ENDBRANCH  10  13
ENDBRANCH   8   9
BRANCH   8  19
HETATM   19  N2  UNL     1      -0.184   2.158  -1.177  1.00  0.00    -0.385 N 
HETATM   20  H11 UNL     1      -0.625   3.063  -0.907  1.00  0.00     0.157 HD
HETATM   21  H12 UNL     1       0.047   2.921  -1.843  1.00  0.00     0.157 HD
ENDBRANCH   8  19
ENDBRANCH   1   7
BRANCH   6  22
HETATM   22  N5  UNL     1      -3.970  -0.609  -0.095  1.00  0.00    -0.340 N 
HETATM   23  H16 UNL     1      -3.454  -0.951  -0.967  1.00  0.00     0.167 HD
BRANCH  22  24
HETATM   24  C14 UNL     1      -5.113  -0.096  -0.685  1.00  0.00     0.035 A 
HETATM   25  C15 UNL     1      -5.746   0.630   0.335  1.00  0.00     0.032 A 
HETATM   26  C16 UNL     1      -6.980   1.261   0.090  1.00  0.00     0.046 A 
HETATM   27  C17 UNL     1      -7.504   1.117  -1.191  1.00  0.00     0.138 A 
HETATM   28  F1  UNL     1      -8.676   1.664  -1.567  1.00  0.00    -0.204 F 
HETATM   29  C18 UNL     1      -6.835   0.400  -2.129  1.00  0.00     0.074 A 
HETATM   30 CL1  UNL     1      -7.435   0.159  -3.783  1.00  0.00    -0.081 Cl
HETATM   31  C19 UNL     1      -5.633  -0.235  -1.951  1.00  0.00     0.056 A 
ENDBRANCH  22  24
ENDBRANCH   6  22
TORSDOF 9
