REMARK  5 active torsions:
REMARK  status: ('A' for Active; 'I' for Inactive)
REMARK    1  A    between atoms: C2_2  and  C3_3 
REMARK    2  A    between atoms: C3_3  and  C4_4 
REMARK    3  A    between atoms: C4_4  and  C5_5 
REMARK    4  A    between atoms: C6_6  and  C7_7 
REMARK       I    between atoms: C7_7  and  N1_9 
REMARK    5  A    between atoms: N1_9  and  C8_10 
ROOT
HETATM    1  C8  UNL     1      -0.920  -0.239  -0.690  1.00  0.00     0.129 C 
HETATM    2  C9  UNL     1      -1.955  -0.334  -1.549  1.00  0.00     0.028 C 
HETATM    3  C10 UNL     1      -3.435  -0.484  -1.668  1.00  0.00     0.072 C 
HETATM    4  C11 UNL     1      -4.137  -0.574  -0.392  1.00  0.00    -0.025 A 
HETATM    5  C12 UNL     1      -4.397  -1.869   0.064  1.00  0.00     0.053 A 
HETATM    6  C13 UNL     1      -5.043  -2.207   1.233  1.00  0.00     0.138 A 
HETATM    7  F1  UNL     1      -5.253  -3.480   1.600  1.00  0.00    -0.204 F 
HETATM    8  C14 UNL     1      -5.477  -1.160   2.033  1.00  0.00     0.074 A 
HETATM    9 CL1  UNL     1      -6.299  -1.551   3.521  1.00  0.00    -0.081 Cl
HETATM   10  C15 UNL     1      -5.225   0.128   1.591  1.00  0.00     0.056 A 
HETATM   11  C16 UNL     1      -4.565   0.441   0.396  1.00  0.00     0.037 A 
HETATM   12  N2  UNL     1      -4.476   1.853   0.264  1.00  0.00    -0.371 N 
HETATM   13  C17 UNL     1      -3.296   2.564  -0.246  1.00  0.00     0.272 C 
HETATM   14  N3  UNL     1      -2.115   2.175   0.508  1.00  0.00    -0.263 NA
HETATM   15  C18 UNL     1      -0.964   2.089  -0.121  1.00  0.00     0.231 C 
HETATM   16  N4  UNL     1      -0.239   1.692   1.064  1.00  0.00    -0.219 NA
HETATM   17  C19 UNL     1      -0.293   0.485   1.474  1.00  0.00     0.201 C 
HETATM   18  N5  UNL     1      -1.017  -0.280   0.751  1.00  0.00    -0.208 NA
HETATM   19  H16 UNL     1      -5.297   2.473   0.540  1.00  0.00     0.161 HD
ENDROOT
BRANCH   1  20
HETATM   20  N1  UNL     1       0.460  -0.093  -1.102  1.00  0.00    -0.301 N 
HETATM   21  C7  UNL     1       1.300  -1.144  -0.655  1.00  0.00     0.302 C 
HETATM   22  O1  UNL     1       0.828  -2.086   0.032  1.00  0.00    -0.258 OA
HETATM   23  H10 UNL     1       1.003   0.625  -1.668  1.00  0.00     0.171 HD
BRANCH  21  24
HETATM   24  C6  UNL     1       2.710  -1.225  -0.934  1.00  0.00    -0.005 C 
HETATM   25  C5  UNL     1       3.888  -1.277  -1.182  1.00  0.00    -0.096 C 
BRANCH  25  26
HETATM   26  C4  UNL     1       5.319  -1.316  -1.490  1.00  0.00     0.094 C 
BRANCH  26  27
HETATM   27  C3  UNL     1       6.153  -0.881  -0.323  1.00  0.00     0.012 C 
BRANCH  27  28
HETATM   28  C2  UNL     1       5.838   0.535   0.109  1.00  0.00    -0.004 C 
HETATM   29  C1  UNL     1       6.745   0.861   1.298  1.00  0.00     0.005 C 
ENDBRANCH  27  28
ENDBRANCH  26  27
ENDBRANCH  25  26
ENDBRANCH  21  24
ENDBRANCH   1  20
TORSDOF 5
