REMARK  5 active torsions:
REMARK  status: ('A' for Active; 'I' for Inactive)
REMARK    1  A    between atoms: C1_2  and  C2_3 
REMARK       I    between atoms: C1_2  and  N2_12 
REMARK    2  A    between atoms: C2_3  and  C3_4 
REMARK    3  A    between atoms: C3_4  and  C4_5 
REMARK    4  A    between atoms: C14_19  and  N4_20 
REMARK    5  A    between atoms: N4_20  and  C15_21 
ROOT
HETATM    1  O1  UNL     1      -0.420  -3.040  -1.363  1.00  0.00    -0.273 OA
HETATM    2  C1  UNL     1      -0.909  -1.929  -1.030  1.00  0.00     0.227 C 
HETATM    3  N2  UNL     1      -0.068  -0.848  -0.686  1.00  0.00    -0.303 N 
HETATM    4  C9  UNL     1      -0.580   0.364  -0.108  1.00  0.00     0.100 A 
HETATM    5  C10 UNL     1       0.023   1.476   0.177  1.00  0.00     0.031 A 
HETATM    6  C11 UNL     1       1.446   1.580  -0.099  1.00  0.00    -0.003 A 
HETATM    7  C12 UNL     1       2.213   2.620   0.147  1.00  0.00     0.129 C 
HETATM    8  N3  UNL     1       3.611   2.468  -0.231  1.00  0.00    -0.255 NA
HETATM    9  C13 UNL     1       3.803   1.663  -1.242  1.00  0.00     0.115 C 
HETATM   10  C14 UNL     1       3.471   0.376  -0.997  1.00  0.00     0.076 C 
HETATM   11  C21 UNL     1       2.042   0.353  -0.697  1.00  0.00     0.021 A 
HETATM   12  C22 UNL     1       1.329  -0.739  -0.959  1.00  0.00     0.114 A 
ENDROOT
BRANCH   2  13
HETATM   13  C2  UNL     1      -2.362  -1.666  -0.987  1.00  0.00     0.105 C 
BRANCH  13  14
HETATM   14  C3  UNL     1      -3.253  -2.699  -0.443  1.00  0.00     0.029 C 
BRANCH  14  15
HETATM   15  C4  UNL     1      -4.726  -2.173  -0.449  1.00  0.00     0.118 C 
HETATM   16  N1  UNL     1      -5.018  -1.173   0.310  1.00  0.00    -0.406 N 
HETATM   17  C5  UNL     1      -6.347  -0.280  -0.072  1.00  0.00     0.152 C 
HETATM   18  C8  UNL     1      -4.426  -0.427   1.327  1.00  0.00     0.136 A 
HETATM   19  C6  UNL     1      -5.443   0.574   0.102  1.00  0.00    -0.057 A 
HETATM   20  P1  UNL     1      -4.505   1.423   0.273  1.00  0.00    -0.103 P 
HETATM   21  C7  UNL     1      -4.447   1.474   0.285  1.00  0.00     0.081 A 
HETATM   22  H9  UNL     1      -2.947   2.841   0.505  1.00  0.00     0.059 HD
ENDBRANCH  14  15
ENDBRANCH  13  14
ENDBRANCH   2  13
BRANCH  10  23
HETATM   23  N4  UNL     1       4.266  -0.803  -0.954  1.00  0.00    -0.353 N 
HETATM   24  H17 UNL     1       4.057  -1.690  -1.470  1.00  0.00     0.166 HD
BRANCH  23  25
HETATM   25  C15 UNL     1       5.201  -0.137  -0.059  1.00  0.00     0.034 A 
HETATM   26  C16 UNL     1       5.068  -0.088   1.302  1.00  0.00     0.032 A 
HETATM   27  C17 UNL     1       5.970   0.627   2.089  1.00  0.00     0.046 A 
HETATM   28  C18 UNL     1       6.960   1.247   1.403  1.00  0.00     0.138 A 
HETATM   29  F1  UNL     1       7.813   1.937   2.212  1.00  0.00    -0.204 F 
HETATM   30  C19 UNL     1       7.245   1.304   0.030  1.00  0.00     0.074 A 
HETATM   31 CL1  UNL     1       8.559   2.150  -0.699  1.00  0.00    -0.081 Cl
HETATM   32  C20 UNL     1       6.259   0.543  -0.629  1.00  0.00     0.056 A 
ENDBRANCH  23  25
ENDBRANCH  10  23
TORSDOF 5
