REMARK  4 active torsions:
REMARK  status: ('A' for Active; 'I' for Inactive)
REMARK    1  A    between atoms: N1_7  and  C6_8 
REMARK    2  A    between atoms: C6_8  and  C7_9 
REMARK    3  A    between atoms: C8_10  and  C9_11 
REMARK       I    between atoms: C9_11  and  N2_13 
REMARK    4  A    between atoms: N2_13  and  C10_14 
ROOT
HETATM    1  C9  UNL     1       2.023  -0.702   0.830  1.00  0.00     0.301 C 
HETATM    2  O2  UNL     1       2.548  -0.582   1.986  1.00  0.00    -0.258 OA
HETATM    3  N2  UNL     1       2.785  -0.619  -0.373  1.00  0.00    -0.314 N 
HETATM    4  H13 UNL     1       2.339  -0.718  -1.322  1.00  0.00     0.170 HD
ENDROOT
BRANCH   1   5
HETATM    5  C8  UNL     1       0.604  -0.931   0.707  1.00  0.00    -0.004 C 
HETATM    6  C7  UNL     1      -0.592  -1.131   0.590  1.00  0.00    -0.066 C 
BRANCH   6   7
HETATM    7  C6  UNL     1      -2.032  -1.382   0.472  1.00  0.00     0.366 C 
BRANCH   7   8
HETATM    8  N1  UNL     1      -2.704  -0.173   0.106  1.00  0.00     0.107 N 
HETATM    9  C2  UNL     1      -4.110  -0.288   0.414  1.00  0.00     0.243 C 
HETATM   10  C1  UNL     1      -4.240  -0.477   1.912  1.00  0.00     0.045 C 
HETATM   11  C3  UNL     1      -4.880   0.962   0.063  1.00  0.00     0.203 C 
HETATM   12  O1  UNL     1      -4.368   1.591  -1.067  1.00  0.00    -0.387 OA
HETATM   13  C4  UNL     1      -3.729   0.665  -1.901  1.00  0.00     0.198 C 
HETATM   14  C5  UNL     1      -2.432   0.309  -1.211  1.00  0.00     0.300 C 
ENDBRANCH   7   8
ENDBRANCH   6   7
ENDBRANCH   1   5
BRANCH   3  15
HETATM   15  C10 UNL     1       4.200  -0.402  -0.546  1.00  0.00     0.067 A 
HETATM   16  C11 UNL     1       5.073  -1.200  -1.134  1.00  0.00     0.034 A 
HETATM   17  C12 UNL     1       6.381  -0.553  -1.064  1.00  0.00     0.036 A 
HETATM   18  C13 UNL     1       6.238   0.601  -0.439  1.00  0.00     0.089 A 
HETATM   19  N3  UNL     1       7.016   1.714  -0.022  1.00  0.00    -0.240 NA
HETATM   20  C15 UNL     1       4.827   0.812  -0.046  1.00  0.00     0.113 A 
HETATM   21  C14 UNL     1       6.172   2.501   0.554  1.00  0.00     0.234 A 
HETATM   22  N4  UNL     1       4.862   1.962   0.539  1.00  0.00    -0.237 NA
ENDBRANCH   3  15
TORSDOF 4
