REMARK  8 active torsions:
REMARK  status: ('A' for Active; 'I' for Inactive)
REMARK    1  A    between atoms: C5_6  and  C6_7 
REMARK    2  A    between atoms: C7_8  and  C8_9 
REMARK    3  A    between atoms: C11_13  and  C12_14 
REMARK    4  A    between atoms: C12_14  and  N2_15 
REMARK    5  A    between atoms: N2_15  and  C14_17 
REMARK    6  A    between atoms: C14_17  and  C15_18 
REMARK    7  A    between atoms: C14_17  and  C18_22 
REMARK    8  A    between atoms: C15_18  and  N3_19 
REMARK       I    between atoms: C18_22  and  N4_23 
ROOT
HETATM    1  C1  UNL     1       1.309  -3.549   0.049  1.00  0.00     0.051 C 
HETATM    2  C2  UNL     1       1.486  -2.105  -0.220  1.00  0.00    -0.027 A 
HETATM    3  C3  UNL     1       2.605  -1.480   0.095  1.00  0.00     0.045 A 
HETATM    4  N1  UNL     1       3.889  -1.658   0.670  1.00  0.00    -0.384 N 
HETATM    5  C4  UNL     1       4.577  -0.378   0.649  1.00  0.00     0.159 A 
HETATM    6  C5  UNL     1       3.573   0.517   0.001  1.00  0.00    -0.028 A 
HETATM    7  C9  UNL     1       2.468  -0.095  -0.312  1.00  0.00    -0.001 A 
HETATM    8  C10 UNL     1       1.130  -0.081  -0.881  1.00  0.00     0.023 A 
HETATM    9  C11 UNL     1       0.495  -1.272  -0.848  1.00  0.00    -0.032 A 
HETATM   10  H4  UNL     1       4.317  -2.522   1.055  1.00  0.00     0.160 HD
ENDROOT
BRANCH   9  11
HETATM   11  C12 UNL     1      -0.856  -1.437  -1.409  1.00  0.00     0.156 C 
BRANCH  11  12
HETATM   12  N2  UNL     1      -1.814  -1.779  -0.454  1.00  0.00    -0.399 N 
HETATM   13  C13 UNL     1      -1.856  -3.014   0.186  1.00  0.00     0.144 C 
BRANCH  12  14
HETATM   14  C14 UNL     1      -2.834  -0.823  -0.211  1.00  0.00     0.200 C 
BRANCH  14  15
HETATM   15  C15 UNL     1      -2.270   0.478   0.313  1.00  0.00     0.305 C 
BRANCH  15  16
HETATM   16  N3  UNL     1      -3.392   1.384   0.495  1.00  0.00     0.082 N 
HETATM   17  C16 UNL     1      -3.959   1.813  -0.747  1.00  0.00     0.309 C 
HETATM   18  C17 UNL     1      -3.091   2.466   1.399  1.00  0.00     0.309 C 
ENDBRANCH  15  16
ENDBRANCH  14  15
BRANCH  14  19
HETATM   19  C18 UNL     1      -3.807  -1.316   0.828  1.00  0.00     0.239 C 
HETATM   20  N4  UNL     1      -4.801  -0.373   1.190  1.00  0.00    -0.368 N 
HETATM   21  H26 UNL     1      -5.702   0.168   1.142  1.00  0.00     0.159 HD
HETATM   22  H27 UNL     1      -5.430   0.356   1.576  1.00  0.00     0.159 HD
HETATM   23  O1  UNL     1      -4.436  -1.998   1.678  1.00  0.00    -0.271 OA
ENDBRANCH  14  19
ENDBRANCH  12  14
ENDBRANCH  11  12
ENDBRANCH   9  11
BRANCH   6  24
HETATM   24  C6  UNL     1       3.794   1.933  -0.253  1.00  0.00     0.007 C 
HETATM   25  C7  UNL     1       4.928   2.538   0.073  1.00  0.00    -0.011 C 
BRANCH  25  26
HETATM   26  C8  UNL     1       5.241   3.985  -0.149  1.00  0.00     0.141 C 
HETATM   27 CL1  UNL     1       6.669   4.135  -1.201  1.00  0.00    -0.126 Cl
ENDBRANCH  25  26
ENDBRANCH   6  24
TORSDOF 8
