REMARK  4 active torsions:
REMARK  status: ('A' for Active; 'I' for Inactive)
REMARK    1  A    between atoms: C11_15  and  N4_16 
REMARK    2  A    between atoms: N4_16  and  C12_17 
REMARK    3  A    between atoms: C12_17  and  C13_18 
REMARK    4  A    between atoms: C14_19  and  C15_20 
ROOT
HETATM    1  O1  UNL     1      -1.761  -4.430   0.612  1.00  0.00    -0.256 OA
HETATM    2  C1  UNL     1      -1.671  -3.179   0.405  1.00  0.00     0.321 C 
HETATM    3  C2  UNL     1      -2.747  -2.330   0.673  1.00  0.00    -0.003 C 
HETATM    4  C3  UNL     1      -3.630  -1.638   0.912  1.00  0.00    -0.096 C 
HETATM    5  C4  UNL     1      -4.707  -0.770   1.197  1.00  0.00     0.094 C 
HETATM    6  C5  UNL     1      -4.921   0.287   0.145  1.00  0.00     0.014 C 
HETATM    7  C6  UNL     1      -3.771   1.160  -0.156  1.00  0.00     0.034 C 
HETATM    8  C7  UNL     1      -3.190   1.977   0.937  1.00  0.00     0.161 A 
HETATM    9  N1  UNL     1      -3.741   1.972   2.229  1.00  0.00    -0.288 NA
HETATM   10  C8  UNL     1      -2.701   1.492   2.760  1.00  0.00     0.140 A 
HETATM   11  C9  UNL     1      -1.982   1.419   1.528  1.00  0.00     0.077 A 
HETATM   12  N2  UNL     1      -0.755   0.955   1.433  1.00  0.00    -0.243 NA
HETATM   13  C10 UNL     1      -0.145   0.909   0.130  1.00  0.00     0.235 C 
HETATM   14  N3  UNL     1       0.532   0.629  -0.895  1.00  0.00    -0.225 NA
HETATM   15  C11 UNL     1       1.457  -0.400  -1.106  1.00  0.00     0.126 C 
HETATM   16  C16 UNL     1       1.528  -1.692  -0.969  1.00  0.00     0.069 C 
HETATM   17  C17 UNL     1       0.480  -2.570  -0.470  1.00  0.00     0.125 C 
HETATM   18  N5  UNL     1      -0.699  -2.227  -0.074  1.00  0.00    -0.215 NA
ENDROOT
BRANCH  15  19
HETATM   19  N4  UNL     1       2.556   0.342  -1.611  1.00  0.00    -0.371 N 
HETATM   20  H10 UNL     1       2.529   0.314  -2.666  1.00  0.00     0.161 HD
BRANCH  19  21
HETATM   21  C12 UNL     1       3.587   1.053  -0.863  1.00  0.00     0.148 C 
BRANCH  21  22
HETATM   22  C13 UNL     1       4.433   0.080  -0.152  1.00  0.00    -0.009 C 
HETATM   23  C14 UNL     1       5.733  -0.087  -0.312  1.00  0.00     0.002 C 
BRANCH  23  24
HETATM   24  C15 UNL     1       6.659   0.631  -1.212  1.00  0.00     0.249 C 
HETATM   25  F1  UNL     1       7.621   1.236  -0.398  1.00  0.00    -0.251 F 
ENDBRANCH  23  24
ENDBRANCH  21  22
ENDBRANCH  19  21
ENDBRANCH  15  19
TORSDOF 4
