REMARK  6 active torsions:
REMARK  status: ('A' for Active; 'I' for Inactive)
REMARK    1  A    between atoms: N1_1  and  P1_2 
REMARK    2  A    between atoms: C5_9  and  N4_10 
REMARK       I    between atoms: N4_10  and  C6_11 
REMARK    3  A    between atoms: C6_11  and  C7_13 
REMARK    4  A    between atoms: C8_14  and  C9_15 
REMARK    5  A    between atoms: C9_15  and  C10_16 
REMARK    6  A    between atoms: C10_16  and  N5_17 
ROOT
HETATM    1  N4  UNL     1      -1.813   0.599   0.638  1.00  0.00    -0.316 N 
HETATM    2  C6  UNL     1      -0.851  -0.114  -0.164  1.00  0.00     0.300 C 
HETATM    3  O1  UNL     1      -1.136  -0.764  -1.199  1.00  0.00    -0.258 OA
HETATM    4  H5  UNL     1      -1.531   1.128   1.493  1.00  0.00     0.170 HD
ENDROOT
BRANCH   1   5
HETATM    5  C5  UNL     1      -3.219   0.714   0.442  1.00  0.00     0.036 A 
HETATM    6  C4  UNL     1      -3.764   1.733  -0.309  1.00  0.00     0.032 A 
HETATM    7  C3  UNL     1      -5.101   1.943  -0.566  1.00  0.00     0.035 A 
HETATM    8  C2  UNL     1      -5.969   1.011   0.006  1.00  0.00     0.072 A 
HETATM    9  N3  UNL     1      -7.351   1.130  -0.192  1.00  0.00    -0.241 NA
HETATM   10  C16 UNL     1      -5.481  -0.048   0.779  1.00  0.00     0.037 A 
HETATM   11  C1  UNL     1      -8.260   0.343   0.275  1.00  0.00     0.234 A 
HETATM   12  N2  UNL     1      -8.178  -0.838   1.099  1.00  0.00    -0.232 NA
HETATM   13  P1  UNL     1      -6.665  -1.208   1.482  1.00  0.00     0.136 P 
HETATM   14  C15 UNL     1      -4.108  -0.201   1.000  1.00  0.00     0.047 A 
BRANCH  13  15
HETATM   15  N1  UNL     1      -6.232  -1.982   2.778  1.00  0.00    -0.205 NA
HETATM   16  H1  UNL     1      -6.954  -2.637   3.139  1.00  0.00     0.148 HD
ENDBRANCH  13  15
ENDBRANCH   1   5
BRANCH   2  17
HETATM   17  C7  UNL     1       0.510  -0.043   0.295  1.00  0.00    -0.005 C 
HETATM   18  C8  UNL     1       1.651   0.006   0.696  1.00  0.00    -0.095 C 
BRANCH  18  19
HETATM   19  C9  UNL     1       3.044   0.088   1.199  1.00  0.00     0.124 C 
BRANCH  19  20
HETATM   20  C10 UNL     1       3.946   0.658   0.132  1.00  0.00     0.284 C 
BRANCH  20  21
HETATM   21  N5  UNL     1       3.996  -0.104  -1.075  1.00  0.00     0.093 N 
HETATM   22  C11 UNL     1       4.851   0.473  -2.062  1.00  0.00     0.298 C 
HETATM   23  C12 UNL     1       6.289   0.362  -1.674  1.00  0.00     0.198 C 
HETATM   24  O2  UNL     1       6.650  -0.952  -1.500  1.00  0.00    -0.388 OA
HETATM   25  C13 UNL     1       5.586  -1.831  -1.688  1.00  0.00     0.198 C 
HETATM   26  C14 UNL     1       4.415  -1.445  -0.785  1.00  0.00     0.298 C 
ENDBRANCH  20  21
ENDBRANCH  19  20
ENDBRANCH  18  19
ENDBRANCH   2  17
TORSDOF 6
