REMARK  10 active torsions:
REMARK  status: ('A' for Active; 'I' for Inactive)
REMARK    1  A    between atoms: C2_2  and  C3_3 
REMARK    2  A    between atoms: C2_2  and  N1_6 
REMARK    3  A    between atoms: C3_3  and  C4_4 
REMARK    4  A    between atoms: N1_6  and  C6_7 
REMARK    5  A    between atoms: C7_9  and  N3_10 
REMARK    6  A    between atoms: N3_10  and  C8_11 
REMARK    7  A    between atoms: C8_11  and  C9_12 
REMARK    8  A    between atoms: C10_13  and  C12_15 
REMARK    9  A    between atoms: C12_15  and  C13_16 
REMARK   10  A    between atoms: C15_19  and  C16_20 
ROOT
HETATM    1  C6  UNL     1       1.197  -0.951   1.033  1.00  0.00     0.142 C 
HETATM    2  N2  UNL     1       1.147  -0.376  -0.121  1.00  0.00    -0.231 NA
HETATM    3  C7  UNL     1       0.307  -0.533  -1.291  1.00  0.00     0.369 C 
HETATM    4  C14 UNL     1      -0.097  -1.912  -1.570  1.00  0.00     0.066 C 
HETATM    5  C15 UNL     1      -0.372  -2.868  -0.697  1.00  0.00     0.094 C 
HETATM    6  N4  UNL     1      -0.362  -2.857   0.746  1.00  0.00    -0.254 NA
HETATM    7  C17 UNL     1       0.318  -2.026   1.499  1.00  0.00     0.167 C 
ENDROOT
BRANCH   3   8
HETATM    8  N3  UNL     1      -0.801   0.397  -1.305  1.00  0.00     0.115 N 
HETATM    9  H12 UNL     1      -0.448   1.359  -1.179  1.00  0.00     0.319 HD
BRANCH   8  10
HETATM   10  C8  UNL     1      -1.820   0.091  -0.329  1.00  0.00     0.300 C 
BRANCH  10  11
HETATM   11  C9  UNL     1      -2.960   1.043  -0.341  1.00  0.00     0.005 C 
HETATM   12  C10 UNL     1      -4.226   0.731  -0.574  1.00  0.00    -0.084 C 
HETATM   13  C11 UNL     1      -4.832  -0.569  -0.872  1.00  0.00     0.043 C 
BRANCH  12  14
HETATM   14  C12 UNL     1      -5.315   1.729  -0.571  1.00  0.00     0.064 C 
BRANCH  14  15
HETATM   15  C13 UNL     1      -4.740   3.092  -0.267  1.00  0.00     0.226 C 
HETATM   16  F1  UNL     1      -5.768   4.019  -0.266  1.00  0.00    -0.255 F 
ENDBRANCH  14  15
ENDBRANCH  12  14
ENDBRANCH  10  11
ENDBRANCH   8  10
ENDBRANCH   3   8
BRANCH   1  17
HETATM   17  N1  UNL     1       2.222  -0.468   1.920  1.00  0.00    -0.347 N 
HETATM   18  H10 UNL     1       2.104  -0.729   2.930  1.00  0.00     0.167 HD
BRANCH  17  19
HETATM   19  C2  UNL     1       3.309   0.308   1.430  1.00  0.00    -0.011 C 
HETATM   20  C1  UNL     1       3.707   1.488   1.875  1.00  0.00     0.058 C 
BRANCH  19  21
HETATM   21  C3  UNL     1       4.099  -0.238   0.296  1.00  0.00     0.052 C 
BRANCH  21  22
HETATM   22  C4  UNL     1       5.208   0.692  -0.108  1.00  0.00     0.001 C 
HETATM   23  C5  UNL     1       6.127   0.884   1.094  1.00  0.00     0.005 C 
ENDBRANCH  21  22
ENDBRANCH  19  21
ENDBRANCH  17  19
ENDBRANCH   1  17
BRANCH   5  24
HETATM   24  C16 UNL     1      -0.753  -4.164  -1.270  1.00  0.00     0.289 C 
HETATM   25  O1  UNL     1      -0.778  -4.231  -2.542  1.00  0.00    -0.300 OA
ENDBRANCH   5  24
TORSDOF 10
