REMARK  6 active torsions:
REMARK  status: ('A' for Active; 'I' for Inactive)
REMARK    1  A    between atoms: C2_2  and  C3_3 
REMARK    2  A    between atoms: C3_3  and  C4_4 
REMARK    3  A    between atoms: C4_4  and  C5_5 
REMARK    4  A    between atoms: C6_6  and  C7_7 
REMARK       I    between atoms: C7_7  and  N1_9 
REMARK    5  A    between atoms: N1_9  and  C8_10 
REMARK    6  A    between atoms: N4_18  and  C14_19 
ROOT
HETATM    1  C8  UNL     1      -0.397   0.014   0.263  1.00  0.00     0.018 A 
HETATM    2  C9  UNL     1      -1.341  -0.915   0.176  1.00  0.00     0.028 A 
HETATM    3  C10 UNL     1      -2.742  -0.535   0.054  1.00  0.00     0.036 A 
HETATM    4  C11 UNL     1      -3.077   0.725   0.028  1.00  0.00     0.084 A 
HETATM    5  C12 UNL     1      -2.092   1.783   0.115  1.00  0.00     0.070 A 
HETATM    6  N2  UNL     1      -2.519   2.988   0.062  1.00  0.00    -0.242 NA
HETATM    7  C13 UNL     1      -3.927   3.273  -0.078  1.00  0.00     0.255 A 
HETATM    8  N3  UNL     1      -4.814   2.339  -0.156  1.00  0.00    -0.160 NA
HETATM    9  N4  UNL     1      -4.462   0.981  -0.109  1.00  0.00    -0.231 N 
HETATM   10  C20 UNL     1      -0.666   1.476   0.252  1.00  0.00     0.118 A 
ENDROOT
BRANCH   1  11
HETATM   11  N1  UNL     1       1.008  -0.194   0.387  1.00  0.00    -0.320 N 
HETATM   12  C7  UNL     1       1.963   0.173   1.372  1.00  0.00     0.300 C 
HETATM   13  O1  UNL     1       1.689   0.821   2.426  1.00  0.00    -0.258 OA
HETATM   14  H10 UNL     1       1.293  -0.729  -0.463  1.00  0.00     0.169 HD
BRANCH  12  15
HETATM   15  C6  UNL     1       3.323  -0.230   1.133  1.00  0.00    -0.005 C 
HETATM   16  C5  UNL     1       4.471  -0.555   0.942  1.00  0.00    -0.096 C 
BRANCH  16  17
HETATM   17  C4  UNL     1       5.888  -0.929   0.704  1.00  0.00     0.094 C 
BRANCH  17  18
HETATM   18  C3  UNL     1       6.449  -0.208  -0.484  1.00  0.00     0.012 C 
BRANCH  18  19
HETATM   19  C2  UNL     1       7.904  -0.558  -0.772  1.00  0.00    -0.004 C 
HETATM   20  C1  UNL     1       8.832  -0.237   0.351  1.00  0.00     0.005 C 
ENDBRANCH  18  19
ENDBRANCH  17  18
ENDBRANCH  16  17
ENDBRANCH  12  15
ENDBRANCH   1  11
BRANCH   9  21
HETATM   21  C14 UNL     1      -5.550   0.092  -0.211  1.00  0.00     0.059 A 
HETATM   22  C15 UNL     1      -5.895  -1.008   0.543  1.00  0.00     0.034 A 
HETATM   23  C16 UNL     1      -7.004  -1.775   0.260  1.00  0.00     0.044 A 
HETATM   24  C17 UNL     1      -7.837  -1.489  -0.796  1.00  0.00     0.116 A 
HETATM   25  F1  UNL     1      -8.903  -2.294  -1.002  1.00  0.00    -0.206 F 
HETATM   26  C18 UNL     1      -7.537  -0.398  -1.583  1.00  0.00     0.044 A 
HETATM   27  C19 UNL     1      -6.421   0.353  -1.278  1.00  0.00     0.034 A 
ENDBRANCH   9  21
TORSDOF 6
