REMARK  6 active torsions:
REMARK  status: ('A' for Active; 'I' for Inactive)
REMARK    1  A    between atoms: C1_2  and  N1_3 
REMARK    2  A    between atoms: N1_3  and  C2_4 
REMARK    3  A    between atoms: C3_5  and  C4_6 
REMARK    4  A    between atoms: C4_6  and  C5_7 
REMARK    5  A    between atoms: C8_12  and  C9_13 
REMARK    6  A    between atoms: C9_13  and  B1_14 
ROOT
HETATM    1  C5  UNL     1      -1.249  -0.457  -1.322  1.00  0.00     0.068 A 
HETATM    2  N2  UNL     1      -2.506  -0.398  -1.805  1.00  0.00    -0.241 NA
HETATM    3  C6  UNL     1      -2.867  -1.107  -2.910  1.00  0.00     0.233 A 
HETATM    4  N3  UNL     1      -1.998  -1.883  -3.554  1.00  0.00    -0.253 NA
HETATM    5  C7  UNL     1      -0.738  -2.009  -3.159  1.00  0.00     0.130 A 
HETATM    6  C8  UNL     1      -0.410  -1.279  -2.040  1.00  0.00    -0.003 A 
ENDROOT
BRANCH   6   7
HETATM    7  C9  UNL     1       0.842  -1.398  -1.638  1.00  0.00    -0.057 C 
BRANCH   7   8
HETATM    8  B1  UNL     1       1.983  -1.060  -0.679  1.00  0.00     0.233 B 
HETATM    9  C10 UNL     1       2.816   0.269  -0.797  1.00  0.00    -0.046 A 
HETATM   10  C11 UNL     1       3.580   0.846   0.135  1.00  0.00     0.058 A 
HETATM   11 CL1  UNL     1       4.481   2.334  -0.073  1.00  0.00    -0.082 Cl
HETATM   12  C12 UNL     1       3.640   0.141   1.427  1.00  0.00     0.132 A 
HETATM   13  F1  UNL     1       4.387   0.638   2.447  1.00  0.00    -0.205 F 
HETATM   14  C13 UNL     1       2.983  -0.980   1.636  1.00  0.00     0.008 A 
HETATM   15  C14 UNL     1       2.091  -1.780   0.752  1.00  0.00    -0.009 A 
ENDBRANCH   7   8
ENDBRANCH   6   7
BRANCH   1  16
HETATM   16  C4  UNL     1      -0.928   0.234  -0.259  1.00  0.00     0.034 C 
BRANCH  16  17
HETATM   17  C3  UNL     1      -1.991   1.039   0.336  1.00  0.00     0.019 C 
HETATM   18  C2  UNL     1      -1.784   1.781   1.418  1.00  0.00     0.090 C 
BRANCH  18  19
HETATM   19  N1  UNL     1      -2.766   2.578   2.039  1.00  0.00    -0.344 N 
HETATM   20  H2  UNL     1      -3.065   3.263   1.298  1.00  0.00     0.167 HD
BRANCH  19  21
HETATM   21  C1  UNL     1      -3.175   2.387   3.397  1.00  0.00     0.352 C 
HETATM   22  O1  UNL     1      -2.523   1.417   3.912  1.00  0.00    -0.283 OA
ENDBRANCH  19  21
ENDBRANCH  18  19
ENDBRANCH  16  17
ENDBRANCH   1  16
TORSDOF 6
