REMARK  5 active torsions:
REMARK  status: ('A' for Active; 'I' for Inactive)
REMARK    1  A    between atoms: C3_3  and  C4_4 
REMARK       I    between atoms: C4_4  and  N1_6 
REMARK    2  A    between atoms: N1_6  and  C5_7 
REMARK    3  A    between atoms: C8_10  and  N2_11 
REMARK    4  A    between atoms: N2_11  and  C9_12 
REMARK    5  A    between atoms: C9_12  and  C10_13 
ROOT
HETATM    1  C1  UNL     1       8.098   0.121  -0.666  1.00  0.00     0.112 C 
HETATM    2  C2  UNL     1       6.634   0.250  -0.679  1.00  0.00    -0.101 C 
HETATM    3  C3  UNL     1       5.417   0.342  -0.675  1.00  0.00    -0.006 C 
ENDROOT
BRANCH   3   4
HETATM    4  C4  UNL     1       3.983   0.431  -0.684  1.00  0.00     0.300 C 
HETATM    5  O1  UNL     1       3.485   1.577  -0.913  1.00  0.00    -0.258 OA
HETATM    6  N1  UNL     1       3.220  -0.730  -0.443  1.00  0.00    -0.315 N 
HETATM    7  H4  UNL     1       3.717  -1.626  -0.264  1.00  0.00     0.170 HD
BRANCH   6   8
HETATM    8  C5  UNL     1       1.791  -0.728  -0.434  1.00  0.00     0.047 A 
HETATM    9  C6  UNL     1       0.765  -0.917  -1.366  1.00  0.00     0.046 A 
HETATM   10  C7  UNL     1      -0.173  -0.710  -0.349  1.00  0.00     0.024 A 
HETATM   11  C8  UNL     1      -1.571  -0.710  -0.351  1.00  0.00     0.136 C 
HETATM   12  C16 UNL     1       0.910  -0.516   0.607  1.00  0.00     0.006 A 
HETATM   13  N3  UNL     1      -2.446  -0.806   0.665  1.00  0.00    -0.224 NA
HETATM   14  C13 UNL     1      -2.365  -0.718   1.999  1.00  0.00     0.234 C 
HETATM   15  N4  UNL     1      -1.418  -0.485   2.915  1.00  0.00    -0.254 NA
HETATM   16  C14 UNL     1      -0.125  -0.157   2.930  1.00  0.00     0.119 C 
HETATM   17  C15 UNL     1       0.882  -0.240   1.963  1.00  0.00     0.034 C 
BRANCH  11  18
HETATM   18  N2  UNL     1      -2.163  -0.589  -1.639  1.00  0.00    -0.371 N 
HETATM   19  H6  UNL     1      -1.514  -0.512  -2.449  1.00  0.00     0.161 HD
BRANCH  18  20
HETATM   20  C9  UNL     1      -3.605  -0.574  -1.793  1.00  0.00     0.149 C 
BRANCH  20  21
HETATM   21  C10 UNL     1      -4.135   0.572  -1.035  1.00  0.00     0.007 C 
HETATM   22  C11 UNL     1      -4.987   0.761  -0.016  1.00  0.00    -0.018 C 
HETATM   23  C12 UNL     1      -5.409   2.044   0.632  1.00  0.00     0.056 C 
HETATM   24 BR1  UNL     1      -5.931  -0.612   0.922  1.00  0.00    -0.056 Br
ENDBRANCH  20  21
ENDBRANCH  18  20
ENDBRANCH  11  18
ENDBRANCH   6   8
ENDBRANCH   3   4
TORSDOF 5
