REMARK  3 active torsions:
REMARK  status: ('A' for Active; 'I' for Inactive)
REMARK    1  A    between atoms: C3_3  and  C4_4 
REMARK       I    between atoms: C4_4  and  N1_6 
REMARK    2  A    between atoms: N1_6  and  C5_7 
REMARK    3  A    between atoms: C11_13  and  C12_14 
ROOT
HETATM    1  C1  UNL     1       6.252  -1.684  -2.580  1.00  0.00     0.112 C 
HETATM    2  C2  UNL     1       5.177  -0.911  -1.923  1.00  0.00    -0.101 C 
HETATM    3  C3  UNL     1       4.314  -0.265  -1.382  1.00  0.00    -0.006 C 
ENDROOT
BRANCH   3   4
HETATM    4  C4  UNL     1       3.294   0.497  -0.721  1.00  0.00     0.300 C 
HETATM    5  O1  UNL     1       3.057   1.709  -0.962  1.00  0.00    -0.258 OA
HETATM    6  N1  UNL     1       2.508  -0.191   0.273  1.00  0.00    -0.316 N 
HETATM    7  H4  UNL     1       2.666  -1.211   0.514  1.00  0.00     0.170 HD
BRANCH   6   8
HETATM    8  C5  UNL     1       1.441   0.301   1.080  1.00  0.00     0.036 A 
HETATM    9  C6  UNL     1       1.711   0.862   2.316  1.00  0.00     0.032 A 
HETATM   10  C7  UNL     1       0.727   1.366   3.165  1.00  0.00     0.035 A 
HETATM   11  C8  UNL     1      -0.579   1.291   2.729  1.00  0.00     0.069 A 
HETATM   12  C9  UNL     1      -0.842   0.731   1.496  1.00  0.00     0.008 A 
HETATM   13  N2  UNL     1      -1.828   1.670   3.258  1.00  0.00    -0.245 NA
HETATM   14  C10 UNL     1       0.117   0.237   0.661  1.00  0.00     0.044 A 
HETATM   15  C11 UNL     1      -2.286   0.789   1.310  1.00  0.00     0.018 C 
HETATM   16  C18 UNL     1      -2.721   1.489   2.344  1.00  0.00     0.099 C 
BRANCH  15  17
HETATM   17  C12 UNL     1      -3.162   0.248   0.277  1.00  0.00    -0.021 A 
HETATM   18  C13 UNL     1      -4.284   0.966  -0.105  1.00  0.00     0.012 A 
HETATM   19  C14 UNL     1      -5.200   0.583  -1.063  1.00  0.00     0.002 A 
HETATM   20  C15 UNL     1      -4.970  -0.626  -1.692  1.00  0.00     0.019 A 
HETATM   21  C16 UNL     1      -3.867  -1.386  -1.352  1.00  0.00     0.011 A 
HETATM   22 BR1  UNL     1      -3.490  -3.050  -2.171  1.00  0.00    -0.051 Br
HETATM   23  C17 UNL     1      -2.972  -0.958  -0.380  1.00  0.00     0.031 A 
ENDBRANCH  15  17
ENDBRANCH   6   8
ENDBRANCH   3   4
TORSDOF 3
