REMARK  6 active torsions:
REMARK  status: ('A' for Active; 'I' for Inactive)
REMARK    1  A    between atoms: C1_2  and  C2_3 
REMARK       I    between atoms: C1_2  and  N2_12 
REMARK    2  A    between atoms: C3_4  and  C4_5 
REMARK    3  A    between atoms: C4_5  and  C5_6 
REMARK    4  A    between atoms: N2_12  and  C9_13 
REMARK    5  A    between atoms: C14_20  and  N5_21 
REMARK    6  A    between atoms: N5_21  and  C15_22 
ROOT
HETATM    1  C9  UNL     1      -0.495   1.513  -0.827  1.00  0.00     0.036 A 
HETATM    2  C10 UNL     1      -0.293   2.884  -0.911  1.00  0.00     0.032 A 
HETATM    3  C11 UNL     1      -1.396   3.704  -0.792  1.00  0.00     0.035 A 
HETATM    4  C12 UNL     1      -2.643   3.163  -0.597  1.00  0.00     0.072 A 
HETATM    5  N3  UNL     1      -3.663   4.031  -0.492  1.00  0.00    -0.241 NA
HETATM    6  C13 UNL     1      -4.922   3.604  -0.300  1.00  0.00     0.236 A 
HETATM    7  N4  UNL     1      -5.088   2.298  -0.223  1.00  0.00    -0.224 NA
HETATM    8  C14 UNL     1      -4.161   1.342  -0.312  1.00  0.00     0.142 A 
HETATM    9  C21 UNL     1      -2.881   1.808  -0.508  1.00  0.00     0.041 A 
HETATM   10  C22 UNL     1      -1.764   1.038  -0.631  1.00  0.00     0.047 A 
ENDROOT
BRANCH   1  11
HETATM   11  N2  UNL     1       0.641   0.644  -0.948  1.00  0.00    -0.316 N 
HETATM   12  C1  UNL     1       1.208   0.406   0.335  1.00  0.00     0.300 C 
HETATM   13  O1  UNL     1       0.618   0.989   1.305  1.00  0.00    -0.258 OA
HETATM   14  H11 UNL     1       1.105   0.179  -1.762  1.00  0.00     0.170 HD
BRANCH  12  15
HETATM   15  C2  UNL     1       2.360  -0.425   0.551  1.00  0.00    -0.005 C 
HETATM   16  C3  UNL     1       3.335  -1.115   0.729  1.00  0.00    -0.094 C 
BRANCH  16  17
HETATM   17  C4  UNL     1       4.524  -1.949   0.969  1.00  0.00     0.132 C 
BRANCH  17  18
HETATM   18  C5  UNL     1       5.699  -1.462   0.116  1.00  0.00     0.255 C 
HETATM   19  C6  UNL     1       6.866  -2.369   0.426  1.00  0.00     0.204 C 
HETATM   20  O2  UNL     1       8.097  -1.736   0.330  1.00  0.00    -0.387 OA
HETATM   21  C7  UNL     1       8.107  -0.769  -0.674  1.00  0.00     0.197 C 
HETATM   22  C8  UNL     1       7.103   0.320  -0.429  1.00  0.00     0.296 C 
HETATM   23  N1  UNL     1       6.069  -0.112   0.486  1.00  0.00     0.093 N 
HETATM   24  H10 UNL     1       6.453  -0.133   1.450  1.00  0.00     0.316 HD
ENDBRANCH  17  18
ENDBRANCH  16  17
ENDBRANCH  12  15
ENDBRANCH   1  11
BRANCH   8  25
HETATM   25  N5  UNL     1      -4.369  -0.052  -0.225  1.00  0.00    -0.340 N 
HETATM   26  H15 UNL     1      -3.588  -0.728  -0.306  1.00  0.00     0.167 HD
BRANCH  25  27
HETATM   27  C15 UNL     1      -5.565  -0.773  -0.030  1.00  0.00     0.035 A 
HETATM   28  C16 UNL     1      -5.675  -2.165   0.042  1.00  0.00     0.032 A 
HETATM   29  C17 UNL     1      -6.865  -2.822   0.235  1.00  0.00     0.046 A 
HETATM   30  C18 UNL     1      -8.035  -2.136   0.369  1.00  0.00     0.138 A 
HETATM   31  F1  UNL     1      -9.158  -2.856   0.555  1.00  0.00    -0.204 F 
HETATM   32  C19 UNL     1      -7.977  -0.754   0.305  1.00  0.00     0.074 A 
HETATM   33 CL1  UNL     1      -9.510   0.072   0.484  1.00  0.00    -0.081 Cl
HETATM   34  C20 UNL     1      -6.770  -0.124   0.111  1.00  0.00     0.056 A 
ENDBRANCH  25  27
ENDBRANCH   8  25
TORSDOF 6
