REMARK  5 active torsions:
REMARK  status: ('A' for Active; 'I' for Inactive)
REMARK    1  A    between atoms: C3_3  and  C4_4 
REMARK       I    between atoms: C4_4  and  N1_6 
REMARK    2  A    between atoms: N1_6  and  C5_7 
REMARK    3  A    between atoms: C9_12  and  C10_13 
REMARK    4  A    between atoms: C10_13  and  N2_14 
REMARK    5  A    between atoms: N2_14  and  C11_15 
ROOT
HETATM    1  C1  UNL     1      -7.616   2.019   1.315  1.00  0.00     0.112 C 
HETATM    2  C2  UNL     1      -6.355   1.248   1.257  1.00  0.00    -0.101 C 
HETATM    3  C3  UNL     1      -5.321   0.598   1.197  1.00  0.00    -0.006 C 
ENDROOT
BRANCH   3   4
HETATM    4  C4  UNL     1      -4.114  -0.175   1.109  1.00  0.00     0.300 C 
HETATM    5  O1  UNL     1      -3.804  -0.947   2.078  1.00  0.00    -0.258 OA
HETATM    6  N1  UNL     1      -3.351  -0.015  -0.071  1.00  0.00    -0.316 N 
HETATM    7  H4  UNL     1      -3.655   0.633  -0.833  1.00  0.00     0.170 HD
BRANCH   6   8
HETATM    8  C5  UNL     1      -2.144  -0.513  -0.639  1.00  0.00     0.036 A 
HETATM    9  C6  UNL     1      -2.169  -1.640  -1.430  1.00  0.00     0.031 A 
HETATM   10  C7  UNL     1      -0.981  -2.095  -1.964  1.00  0.00     0.021 A 
HETATM   11  C8  UNL     1       0.214  -1.419  -1.701  1.00  0.00     0.014 A 
HETATM   12  I1  UNL     1       1.918  -2.258  -2.598  1.00  0.00    -0.044 I 
HETATM   13  C9  UNL     1       0.208  -0.283  -0.897  1.00  0.00    -0.022 A 
HETATM   14  C17 UNL     1      -0.981   0.175  -0.362  1.00  0.00     0.039 A 
BRANCH  13  15
HETATM   15  C10 UNL     1       1.561   0.286  -0.738  1.00  0.00     0.160 C 
BRANCH  15  16
HETATM   16  N2  UNL     1       2.314  -0.526   0.195  1.00  0.00    -0.386 N 
HETATM   17  H9  UNL     1       1.884  -1.364   0.638  1.00  0.00     0.160 HD
BRANCH  16  18
HETATM   18  C11 UNL     1       3.665  -0.261   0.576  1.00  0.00     0.029 A 
HETATM   19  C12 UNL     1       4.388  -1.028   1.463  1.00  0.00     0.029 A 
HETATM   20  C13 UNL     1       5.702  -0.714   1.791  1.00  0.00     0.004 A 
HETATM   21  C14 UNL     1       6.330   0.395   1.226  1.00  0.00     0.019 A 
HETATM   22  C15 UNL     1       5.585   1.147   0.342  1.00  0.00     0.013 A 
HETATM   23 BR1  UNL     1       6.474   2.662  -0.414  1.00  0.00    -0.051 Br
HETATM   24  C16 UNL     1       4.270   0.858  -0.005  1.00  0.00     0.048 A 
ENDBRANCH  16  18
ENDBRANCH  15  16
ENDBRANCH  13  15
ENDBRANCH   6   8
ENDBRANCH   3   4
TORSDOF 5
