REMARK  0 active torsions:
REMARK  status: ('A' for Active; 'I' for Inactive)
ROOT
HETATM    1  O1  UNL     1       1.189   0.023  -0.951  1.00  0.00     0.000 OA
HETATM    2  C1  UNL     1       1.933  -0.076  -1.935  1.00  0.00     0.275 A 
HETATM    3  C2  UNL     1       2.482   0.511  -0.747  1.00  0.00     0.003 A 
HETATM    4  C3  UNL     1       2.911   0.993   0.235  1.00  0.00    -0.040 A 
HETATM    5  C4  UNL     1       3.377   1.550   1.364  1.00  0.00    -0.005 A 
HETATM    6  C5  UNL     1       2.104   1.893   1.493  1.00  0.00     0.067 A 
HETATM    7  C6  UNL     1       0.686   2.143   1.419  1.00  0.00     0.020 C 
HETATM    8  C7  UNL     1      -0.270   1.826   0.634  1.00  0.00     0.077 C 
HETATM    9  C8  UNL     1      -1.226   1.398  -0.308  1.00  0.00     0.067 C 
HETATM   10 BR1  UNL     1      -1.943   3.217  -0.671  1.00  0.00    -0.046 Br
HETATM   11  C9  UNL     1      -1.782   0.452  -0.949  1.00  0.00     0.098 C 
HETATM   12  N1  UNL     1      -2.833   0.010  -1.722  1.00  0.00    -0.349 N 
HETATM   13  C10 UNL     1      -3.005  -1.400  -1.746  1.00  0.00     0.207 C 
HETATM   14  N2  UNL     1      -2.239  -2.238  -1.088  1.00  0.00    -0.244 NA
HETATM   15  C11 UNL     1      -1.140  -1.784  -0.266  1.00  0.00     0.102 C 
HETATM   16  C12 UNL     1      -0.688  -2.558   0.701  1.00  0.00     0.034 C 
HETATM   17  C13 UNL     1       0.408  -1.823   1.341  1.00  0.00     0.231 C 
HETATM   18  O2  UNL     1       0.316  -0.502   1.456  1.00  0.00    -0.271 OA
HETATM   19  N3  UNL     1      -0.180   0.297   0.536  1.00  0.00    -0.206 N 
HETATM   20  C14 UNL     1      -0.689  -0.482  -0.625  1.00  0.00     0.344 C 
HETATM   21  N4  UNL     1       0.466  -0.425  -1.574  1.00  0.00     0.148 N 
HETATM   22  H4  UNL     1      -3.335   0.796  -2.164  1.00  0.00     0.166 HD
HETATM   23  H9  UNL     1      -0.164  -0.884  -2.357  1.00  0.00     0.322 HD
ENDROOT
TORSDOF 0
