REMARK  6 active torsions:
REMARK  status: ('A' for Active; 'I' for Inactive)
REMARK    1  A    between atoms: N1_2  and  C3_4 
REMARK    2  A    between atoms: C3_4  and  C4_5 
REMARK    3  A    between atoms: C4_5  and  C5_6 
REMARK    4  A    between atoms: C4_5  and  N3_9 
REMARK       I    between atoms: C5_6  and  N2_7 
REMARK    5  A    between atoms: N3_9  and  C7_11 
REMARK    6  A    between atoms: C7_11  and  C8_12 
ROOT
HETATM    1  C8  UNL     1      -0.356  -0.154   0.605  1.00  0.00    -0.040 C 
HETATM    2  C9  UNL     1       0.726  -0.873   0.199  1.00  0.00     0.018 C 
HETATM    3  C10 UNL     1       1.996  -0.277  -0.302  1.00  0.00    -0.029 C 
HETATM    4  C11 UNL     1       3.120  -1.049  -0.082  1.00  0.00     0.042 C 
HETATM    5  C12 UNL     1       3.080  -2.362   0.593  1.00  0.00     0.060 C 
HETATM    6  C13 UNL     1       3.770  -2.397   1.961  1.00  0.00     0.013 C 
HETATM    7  C14 UNL     1       5.214  -2.015   1.678  1.00  0.00     0.016 C 
HETATM    8  C15 UNL     1       6.350  -1.662   1.053  1.00  0.00     0.142 A 
HETATM    9  C16 UNL     1       7.631  -1.288   0.528  1.00  0.00     0.127 A 
HETATM   10 CL1  UNL     1       8.044  -1.481   2.220  1.00  0.00    -0.153 Cl
HETATM   11  N4  UNL     1       7.597  -1.075  -0.779  1.00  0.00    -0.166 NA
HETATM   12  N5  UNL     1       6.319  -1.256  -1.378  1.00  0.00    -0.271 N 
HETATM   13  C17 UNL     1       5.193  -0.369  -1.132  1.00  0.00     0.225 C 
HETATM   14  N6  UNL     1       4.032  -0.148  -0.699  1.00  0.00    -0.247 NA
HETATM   15  C18 UNL     1       1.909   1.082  -0.908  1.00  0.00     0.067 C 
HETATM   16  C19 UNL     1       0.733   1.806  -0.398  1.00  0.00    -0.021 C 
HETATM   17  C20 UNL     1      -0.294   1.260   0.278  1.00  0.00     0.005 C 
HETATM   18  H24 UNL     1       6.019  -2.002  -2.051  1.00  0.00     0.190 HD
ENDROOT
BRANCH   1  19
HETATM   19  C7  UNL     1      -1.579  -0.757   1.122  1.00  0.00     0.156 C 
BRANCH  19  20
HETATM   20  N3  UNL     1      -2.793  -0.569   0.474  1.00  0.00    -0.399 N 
HETATM   21  C6  UNL     1      -3.274  -1.706  -0.219  1.00  0.00     0.144 C 
BRANCH  20  22
HETATM   22  C4  UNL     1      -3.493   0.630   0.428  1.00  0.00     0.200 C 
BRANCH  22  23
HETATM   23  C3  UNL     1      -3.692   1.160  -0.969  1.00  0.00     0.305 C 
BRANCH  23  24
HETATM   24  N1  UNL     1      -4.436   2.371  -1.028  1.00  0.00     0.082 N 
HETATM   25  C1  UNL     1      -4.647   2.852  -2.385  1.00  0.00     0.309 C 
HETATM   26  C2  UNL     1      -3.985   3.441  -0.194  1.00  0.00     0.309 C 
ENDBRANCH  23  24
ENDBRANCH  22  23
BRANCH  22  27
HETATM   27  C5  UNL     1      -4.910   0.411   0.951  1.00  0.00     0.239 C 
HETATM   28  N2  UNL     1      -6.256   0.414   1.361  1.00  0.00    -0.368 N 
HETATM   29  H10 UNL     1      -6.949   0.052   0.671  1.00  0.00     0.159 HD
HETATM   30  H11 UNL     1      -6.409   0.783   2.329  1.00  0.00     0.159 HD
HETATM   31  O1  UNL     1      -4.614  -0.746   1.335  1.00  0.00    -0.271 OA
ENDBRANCH  22  27
ENDBRANCH  20  22
ENDBRANCH  19  20
ENDBRANCH   1  19
TORSDOF 6
