REMARK  0 active torsions:
REMARK  status: ('A' for Active; 'I' for Inactive)
ROOT
HETATM    1  O1  UNL     1      -0.824   3.427  -1.511  1.00  0.00    -0.130 OA
HETATM    2  C1  UNL     1       0.356   3.582  -1.241  1.00  0.00     0.431 A 
HETATM    3  C2  UNL     1       1.480   3.183  -0.529  1.00  0.00    -0.021 C 
HETATM    4  C3  UNL     1       2.394   2.835   0.056  1.00  0.00    -0.073 C 
HETATM    5  C4  UNL     1       3.498   2.390   0.779  1.00  0.00     0.065 C 
HETATM    6  C5  UNL     1       3.514   1.102   0.809  1.00  0.00     0.025 C 
HETATM    7  C6  UNL     1       2.957  -0.122   0.457  1.00  0.00     0.005 A 
HETATM    8 BR1  UNL     1       2.370   0.562  -1.193  1.00  0.00    -0.109 Br
HETATM    9  C7  UNL     1       2.327  -1.167   0.047  1.00  0.00     0.087 A 
HETATM   10  C8  UNL     1       3.094  -2.304   0.620  1.00  0.00    -0.000 A 
HETATM   11  C9  UNL     1       2.185  -3.049   0.020  1.00  0.00    -0.002 A 
HETATM   12  C10 UNL     1       1.331  -1.964  -0.609  1.00  0.00     0.134 A 
HETATM   13  N1  UNL     1      -0.004  -1.954  -0.144  1.00  0.00    -0.364 N 
HETATM   14  C11 UNL     1      -1.404  -1.969   0.017  1.00  0.00     0.138 A 
HETATM   15  N2  UNL     1      -2.250  -2.980   0.243  1.00  0.00    -0.224 NA
HETATM   16  C12 UNL     1      -3.589  -2.706   0.397  1.00  0.00     0.235 A 
HETATM   17  N3  UNL     1      -4.197  -1.476   0.347  1.00  0.00    -0.241 NA
HETATM   18  C13 UNL     1      -3.383  -0.420   0.120  1.00  0.00     0.072 A 
HETATM   19  C14 UNL     1      -3.838   0.877   0.047  1.00  0.00     0.035 A 
HETATM   20  C15 UNL     1      -2.999   1.938  -0.181  1.00  0.00     0.043 A 
HETATM   21  C16 UNL     1      -1.673   1.703  -0.345  1.00  0.00     0.172 A 
HETATM   22  C17 UNL     1      -1.339   0.330  -0.245  1.00  0.00     0.058 A 
HETATM   23  C18 UNL     1      -2.067  -0.770  -0.024  1.00  0.00     0.041 A 
HETATM   24  N4  UNL     1      -0.530   2.565  -0.665  1.00  0.00     0.132 N 
HETATM   25  H6  UNL     1       0.118  -1.873   0.911  1.00  0.00     0.162 HD
HETATM   26  H11 UNL     1      -0.310   2.063   0.267  1.00  0.00     0.330 HD
ENDROOT
TORSDOF 0
