REMARK  3 active torsions:
REMARK  status: ('A' for Active; 'I' for Inactive)
REMARK       I    between atoms: C3_3  and  N1_5 
REMARK    1  A    between atoms: N1_5  and  C4_6 
REMARK    2  A    between atoms: C9_13  and  N4_14 
REMARK    3  A    between atoms: N4_14  and  C10_15 
ROOT
HETATM    1  C1  UNL     1       5.838  -4.153   0.257  1.00  0.00     0.022 C 
HETATM    2  C2  UNL     1       5.380  -3.048   0.129  1.00  0.00    -0.016 C 
HETATM    3  C3  UNL     1       4.817  -1.741  -0.015  1.00  0.00     0.300 C 
HETATM    4  O1  UNL     1       5.633  -0.804  -0.152  1.00  0.00    -0.258 OA
HETATM    5  N1  UNL     1       3.445  -1.426  -0.017  1.00  0.00    -0.316 N 
HETATM    6  H2  UNL     1       2.882  -2.306   0.107  1.00  0.00     0.170 HD
ENDROOT
BRANCH   5   7
HETATM    7  C4  UNL     1       2.805  -0.179  -0.152  1.00  0.00     0.036 A 
HETATM    8  C5  UNL     1       3.411   1.032  -0.324  1.00  0.00     0.032 A 
HETATM    9  C6  UNL     1       2.745   2.231  -0.449  1.00  0.00     0.035 A 
HETATM   10  C7  UNL     1       1.373   2.199  -0.397  1.00  0.00     0.072 A 
HETATM   11  N2  UNL     1       0.744   3.405  -0.522  1.00  0.00    -0.241 NA
HETATM   12  C16 UNL     1       0.698   0.991  -0.224  1.00  0.00     0.041 A 
HETATM   13  C8  UNL     1      -0.597   3.389  -0.470  1.00  0.00     0.236 A 
HETATM   14  N3  UNL     1      -1.283   2.253  -0.305  1.00  0.00    -0.224 NA
HETATM   15  C9  UNL     1      -0.675   1.065  -0.182  1.00  0.00     0.142 A 
HETATM   16  C17 UNL     1       1.431  -0.148  -0.108  1.00  0.00     0.047 A 
BRANCH  15  17
HETATM   17  N4  UNL     1      -1.424  -0.104  -0.009  1.00  0.00    -0.340 N 
HETATM   18  H6  UNL     1      -1.003  -1.056   0.040  1.00  0.00     0.167 HD
BRANCH  17  19
HETATM   19  C10 UNL     1      -2.828  -0.259   0.131  1.00  0.00     0.035 A 
HETATM   20  C11 UNL     1      -3.538  -1.456  -0.029  1.00  0.00     0.029 A 
HETATM   21  C12 UNL     1      -4.879  -1.604   0.118  1.00  0.00     0.004 A 
HETATM   22  C13 UNL     1      -5.643  -0.513   0.451  1.00  0.00     0.019 A 
HETATM   23  C14 UNL     1      -5.036   0.687   0.625  1.00  0.00     0.013 A 
HETATM   24 BR1  UNL     1      -6.148   2.179   1.091  1.00  0.00    -0.051 Br
HETATM   25  C15 UNL     1      -3.661   0.786   0.464  1.00  0.00     0.048 A 
ENDBRANCH  17  19
ENDBRANCH  15  17
ENDBRANCH   5   7
TORSDOF 3
