REMARK  1 active torsions:
REMARK  status: ('A' for Active; 'I' for Inactive)
REMARK       I    between atoms: C3_3  and  N1_5 
REMARK    1  A    between atoms: N1_5  and  C4_6 
ROOT
HETATM    1  C1  UNL     1       6.108   2.631   1.494  1.00  0.00     0.022 C 
HETATM    2  C2  UNL     1       4.961   2.300   1.378  1.00  0.00    -0.016 C 
HETATM    3  C3  UNL     1       3.576   1.883   1.219  1.00  0.00     0.299 C 
HETATM    4  O1  UNL     1       2.778   2.417   2.020  1.00  0.00    -0.258 OA
HETATM    5  N1  UNL     1       3.102   0.957   0.262  1.00  0.00    -0.323 N 
HETATM    6  H2  UNL     1       3.940   0.647  -0.289  1.00  0.00     0.169 HD
ENDROOT
BRANCH   5   7
HETATM    7  C4  UNL     1       1.734   0.511   0.064  1.00  0.00     0.003 C 
HETATM    8  C5  UNL     1       1.076   1.224   0.972  1.00  0.00     0.069 C 
HETATM    9  C6  UNL     1      -0.182   1.563   1.592  1.00  0.00     0.016 C 
HETATM   10  C7  UNL     1      -1.484   1.350   1.593  1.00  0.00     0.081 C 
HETATM   11  N2  UNL     1      -2.581   1.830   2.359  1.00  0.00    -0.245 NA
HETATM   12  C9  UNL     1      -2.269   0.507   0.655  1.00  0.00     0.146 C 
HETATM   13  C8  UNL     1      -3.490   0.865   2.384  1.00  0.00     0.205 C 
HETATM   14  N3  UNL     1      -3.011  -0.283   1.621  1.00  0.00    -0.353 N 
HETATM   15  H6  UNL     1      -3.378  -1.168   2.057  1.00  0.00     0.163 HD
HETATM   16  C10 UNL     1      -3.301   1.419  -0.039  1.00  0.00     0.070 C 
HETATM   17  N4  UNL     1      -1.517  -0.214  -0.310  1.00  0.00    -0.358 N 
HETATM   18  C11 UNL     1      -0.726  -1.247  -0.869  1.00  0.00     0.038 A 
HETATM   19  H10 UNL     1      -1.500   0.263  -1.237  1.00  0.00     0.162 HD
HETATM   20  C12 UNL     1      -1.645  -2.272  -1.133  1.00  0.00     0.030 A 
HETATM   21  C16 UNL     1       0.585  -1.355  -1.122  1.00  0.00    -0.009 A 
HETATM   22  C13 UNL     1      -1.302  -3.516  -1.685  1.00  0.00     0.004 A 
HETATM   23  C14 UNL     1       0.035  -3.638  -1.948  1.00  0.00     0.020 A 
HETATM   24  C15 UNL     1       0.889  -2.611  -1.674  1.00  0.00     0.019 A 
HETATM   25 BR1  UNL     1       2.710  -3.061  -2.143  1.00  0.00    -0.050 Br
HETATM   26  C17 UNL     1       1.776  -0.551  -0.987  1.00  0.00     0.095 C 
ENDBRANCH   5   7
TORSDOF 1
