REMARK  4 active torsions:
REMARK  status: ('A' for Active; 'I' for Inactive)
REMARK       I    between atoms: C3_3  and  N1_5 
REMARK    1  A    between atoms: N1_5  and  C4_6 
REMARK    2  A    between atoms: C4_6  and  C5_7 
REMARK    3  A    between atoms: C5_7  and  C6_8 
REMARK    4  A    between atoms: C6_8  and  C7_9 
ROOT
HETATM    1  C1  UNL     1       6.682   1.987  -1.179  1.00  0.00     0.022 C 
HETATM    2  C2  UNL     1       5.581   1.497  -1.214  1.00  0.00    -0.016 C 
HETATM    3  C3  UNL     1       4.243   0.919  -1.263  1.00  0.00     0.299 C 
HETATM    4  O1  UNL     1       3.638   0.731  -2.346  1.00  0.00    -0.258 OA
HETATM    5  N1  UNL     1       3.623   0.564  -0.040  1.00  0.00    -0.326 N 
HETATM    6  H2  UNL     1       4.139   0.729   0.852  1.00  0.00     0.169 HD
ENDROOT
BRANCH   5   7
HETATM    7  C4  UNL     1       2.353  -0.012   0.242  1.00  0.00     0.092 C 
BRANCH   7   8
HETATM    8  C5  UNL     1       2.071  -1.158   0.829  1.00  0.00     0.019 C 
BRANCH   8   9
HETATM    9  C6  UNL     1       0.980  -1.979   1.238  1.00  0.00     0.034 C 
BRANCH   9  10
HETATM   10  C7  UNL     1      -0.339  -1.988   1.226  1.00  0.00     0.070 A 
HETATM   11  N2  UNL     1      -1.054  -2.998   1.738  1.00  0.00    -0.241 NA
HETATM   12  C8  UNL     1      -2.376  -3.027   1.736  1.00  0.00     0.234 A 
HETATM   13  N3  UNL     1      -3.111  -2.046   1.221  1.00  0.00    -0.244 NA
HETATM   14  C9  UNL     1      -2.536  -0.987   0.682  1.00  0.00     0.068 A 
HETATM   15  C10 UNL     1      -1.136  -0.978   0.695  1.00  0.00     0.017 A 
HETATM   16  C12 UNL     1      -2.566   0.306   0.015  1.00  0.00     0.061 A 
HETATM   17  C11 UNL     1      -1.093   0.198   0.089  1.00  0.00     0.013 A 
HETATM   18  C13 UNL     1      -3.150   0.400  -1.323  1.00  0.00    -0.001 A 
HETATM   19  C16 UNL     1      -3.151   1.454   0.743  1.00  0.00     0.016 A 
HETATM   20  C14 UNL     1      -3.949   1.457  -1.336  1.00  0.00     0.016 A 
HETATM   21  C15 UNL     1      -3.967   2.137  -0.047  1.00  0.00     0.008 A 
HETATM   22 BR1  UNL     1      -4.992   3.704   0.355  1.00  0.00    -0.051 Br
ENDBRANCH   9  10
ENDBRANCH   8   9
ENDBRANCH   7   8
ENDBRANCH   5   7
TORSDOF 4
