REMARK  3 active torsions:
REMARK  status: ('A' for Active; 'I' for Inactive)
REMARK       I    between atoms: C3_3  and  N1_5 
REMARK    1  A    between atoms: N1_5  and  C4_6 
REMARK    2  A    between atoms: C7_11  and  N4_12 
REMARK    3  A    between atoms: N4_12  and  C8_13 
ROOT
HETATM    1  C1  UNL     1       7.275   0.074   0.575  1.00  0.00     0.022 C 
HETATM    2  C2  UNL     1       6.241   0.458   0.051  1.00  0.00    -0.016 C 
HETATM    3  C3  UNL     1       5.041   0.922  -0.581  1.00  0.00     0.300 C 
HETATM    4  O1  UNL     1       4.954   2.052  -1.174  1.00  0.00    -0.258 OA
HETATM    5  N1  UNL     1       3.900   0.094  -0.551  1.00  0.00    -0.315 N 
HETATM    6  H2  UNL     1       3.984  -0.828  -0.072  1.00  0.00     0.170 HD
ENDROOT
BRANCH   5   7
HETATM    7  C4  UNL     1       2.540  -0.054  -0.925  1.00  0.00     0.053 C 
HETATM    8  C5  UNL     1       2.205  -1.029  -1.753  1.00  0.00     0.147 C 
HETATM    9  N2  UNL     1       0.954  -1.430  -2.302  1.00  0.00    -0.252 NA
HETATM   10  C6  UNL     1      -0.260  -1.144  -2.031  1.00  0.00     0.234 C 
HETATM   11  N3  UNL     1      -1.028  -0.350  -1.128  1.00  0.00    -0.225 NA
HETATM   12  C7  UNL     1      -0.687   0.605  -0.332  1.00  0.00     0.129 C 
HETATM   13  C14 UNL     1       0.535   1.315   0.048  1.00  0.00     0.053 C 
HETATM   14  C15 UNL     1       1.814   1.006  -0.218  1.00  0.00     0.035 C 
BRANCH  12  15
HETATM   15  N4  UNL     1      -1.808   1.100   0.379  1.00  0.00    -0.341 N 
HETATM   16  H5  UNL     1      -1.820   2.075   0.753  1.00  0.00     0.167 HD
BRANCH  15  17
HETATM   17  C8  UNL     1      -2.970   0.329   0.632  1.00  0.00     0.034 A 
HETATM   18  C9  UNL     1      -2.915  -0.504   1.750  1.00  0.00     0.029 A 
HETATM   19  C10 UNL     1      -3.919  -1.329   2.199  1.00  0.00     0.004 A 
HETATM   20  C11 UNL     1      -5.091  -1.325   1.467  1.00  0.00     0.019 A 
HETATM   21  C12 UNL     1      -5.199  -0.514   0.347  1.00  0.00     0.013 A 
HETATM   22 BR1  UNL     1      -6.823  -0.529  -0.637  1.00  0.00    -0.051 Br
HETATM   23  C13 UNL     1      -4.165   0.288  -0.055  1.00  0.00     0.048 A 
ENDBRANCH  15  17
ENDBRANCH  12  15
ENDBRANCH   5   7
TORSDOF 3
