REMARK  4 active torsions:
REMARK  status: ('A' for Active; 'I' for Inactive)
REMARK    1  A    between atoms: N1_2  and  C3_4 
REMARK    2  A    between atoms: C3_4  and  C4_5 
REMARK    3  A    between atoms: C4_5  and  C5_6 
REMARK    4  A    between atoms: C4_5  and  N3_9 
REMARK       I    between atoms: C5_6  and  N2_7 
ROOT
HETATM    1  N3  UNL     1       0.925  -0.213  -0.267  1.00  0.00    -0.385 N 
HETATM    2  C6  UNL     1       0.334  -0.301   1.075  1.00  0.00     0.129 C 
HETATM    3  C7  UNL     1      -0.819  -0.434   1.769  1.00  0.00    -0.003 C 
HETATM    4  C8  UNL     1      -2.309  -0.590   1.938  1.00  0.00    -0.019 C 
HETATM    5  C9  UNL     1      -3.539  -0.707   1.379  1.00  0.00     0.076 C 
HETATM    6  C10 UNL     1      -4.670  -0.807   0.459  1.00  0.00     0.191 C 
HETATM    7  F1  UNL     1      -5.627   0.169   0.781  1.00  0.00    -0.224 F 
HETATM    8 CL1  UNL     1      -5.516  -2.362   0.665  1.00  0.00    -0.081 Cl
HETATM    9  C11 UNL     1      -4.427  -0.574  -1.033  1.00  0.00     0.121 C 
HETATM   10  C12 UNL     1      -3.877   0.780  -1.307  1.00  0.00     0.052 A 
HETATM   11  N4  UNL     1      -4.468   1.990  -1.364  1.00  0.00    -0.245 NA
HETATM   12  C13 UNL     1      -3.717   3.121  -1.543  1.00  0.00     0.234 A 
HETATM   13  N5  UNL     1      -2.355   3.114  -1.675  1.00  0.00    -0.241 NA
HETATM   14  C14 UNL     1      -1.715   1.973  -1.631  1.00  0.00     0.078 A 
HETATM   15  C15 UNL     1      -2.546   0.900  -1.452  1.00  0.00     0.019 A 
HETATM   16  C16 UNL     1      -1.503  -0.035  -1.474  1.00  0.00     0.027 A 
HETATM   17  C17 UNL     1      -0.669   0.978  -1.627  1.00  0.00    -0.010 A 
HETATM   18  C18 UNL     1       0.652   0.355  -1.621  1.00  0.00     0.159 C 
ENDROOT
BRANCH   1  19
HETATM   19  C4  UNL     1       2.160  -0.939  -0.027  1.00  0.00     0.201 C 
BRANCH  19  20
HETATM   20  C3  UNL     1       3.027  -0.346   1.033  1.00  0.00     0.305 C 
BRANCH  20  21
HETATM   21  N1  UNL     1       3.410   1.020   0.803  1.00  0.00     0.082 N 
HETATM   22  C1  UNL     1       4.243   1.416   1.932  1.00  0.00     0.309 C 
HETATM   23  C2  UNL     1       4.216   1.196  -0.383  1.00  0.00     0.309 C 
ENDBRANCH  20  21
ENDBRANCH  19  20
BRANCH  19  24
HETATM   24  C5  UNL     1       1.878  -2.349   0.397  1.00  0.00     0.239 C 
HETATM   25  N2  UNL     1       2.995  -3.191   0.658  1.00  0.00    -0.368 N 
HETATM   26  H10 UNL     1       3.683  -3.191  -0.144  1.00  0.00     0.159 HD
HETATM   27  H11 UNL     1       3.019  -3.702   1.581  1.00  0.00     0.159 HD
HETATM   28  O1  UNL     1       0.636  -2.574   0.456  1.00  0.00    -0.271 OA
ENDBRANCH  19  24
ENDBRANCH   1  19
TORSDOF 4
