REMARK  2 active torsions:
REMARK  status: ('A' for Active; 'I' for Inactive)
REMARK    1  A    between atoms: C1_2  and  C2_3 
REMARK    2  A    between atoms: N3_11  and  C8_12 
ROOT
HETATM    1  C2  UNL     1      -3.097  -1.052   0.074  1.00  0.00    -0.015 A 
HETATM    2  C3  UNL     1      -1.968  -1.763  -0.002  1.00  0.00     0.013 A 
HETATM    3  C4  UNL     1      -0.731  -1.014   0.008  1.00  0.00     0.034 A 
HETATM    4  C5  UNL     1      -0.740   0.303   0.087  1.00  0.00     0.084 A 
HETATM    5  C6  UNL     1      -1.956   1.098   0.166  1.00  0.00     0.069 A 
HETATM    6  N1  UNL     1      -1.891   2.385   0.225  1.00  0.00    -0.242 NA
HETATM    7  C7  UNL     1      -0.578   2.984   0.208  1.00  0.00     0.255 A 
HETATM    8  N2  UNL     1       0.525   2.318   0.139  1.00  0.00    -0.160 NA
HETATM    9  N3  UNL     1       0.533   0.903   0.073  1.00  0.00    -0.231 N 
HETATM   10  C14 UNL     1      -3.274   0.419   0.174  1.00  0.00     0.103 A 
ENDROOT
BRANCH   9  11
HETATM   11  C8  UNL     1       1.828   0.335  -0.003  1.00  0.00     0.060 A 
HETATM   12  C9  UNL     1       2.417  -0.692   0.702  1.00  0.00     0.035 A 
HETATM   13  C10 UNL     1       3.699  -1.106   0.443  1.00  0.00     0.046 A 
HETATM   14  C11 UNL     1       4.482  -0.533  -0.526  1.00  0.00     0.138 A 
HETATM   15  F1  UNL     1       5.727  -1.023  -0.692  1.00  0.00    -0.204 F 
HETATM   16  C12 UNL     1       3.941   0.494  -1.254  1.00  0.00     0.074 A 
HETATM   17 CL1  UNL     1       4.915   1.246  -2.498  1.00  0.00    -0.081 Cl
HETATM   18  C13 UNL     1       2.651   0.902  -0.986  1.00  0.00     0.058 A 
ENDBRANCH   9  11
BRANCH   1  19
HETATM   19  C1  UNL     1      -4.388  -1.731   0.069  1.00  0.00     0.266 C 
HETATM   20  O1  UNL     1      -5.564  -1.315   0.128  1.00  0.00    -0.302 OA
ENDBRANCH   1  19
TORSDOF 2
