REMARK  6 active torsions:
REMARK  status: ('A' for Active; 'I' for Inactive)
REMARK    1  A    between atoms: N2_5  and  C4_6 
REMARK    2  A    between atoms: C4_6  and  C5_7 
REMARK    3  A    between atoms: C6_8  and  C7_9 
REMARK    4  A    between atoms: C7_9  and  N3_10 
REMARK    5  A    between atoms: C11_14  and  C12_15 
REMARK    6  A    between atoms: N6_27  and  N7_28 
ROOT
HETATM    1  N3  UNL     1       0.759   0.756   1.272  1.00  0.00    -0.274 N 
HETATM    2  C8  UNL     1       1.672  -0.345   1.248  1.00  0.00     0.114 A 
HETATM    3  C9  UNL     1       2.800  -0.326   0.549  1.00  0.00     0.037 A 
HETATM    4  C10 UNL     1       3.149   0.849  -0.238  1.00  0.00     0.044 A 
HETATM    5  C11 UNL     1       4.315   0.827  -0.970  1.00  0.00     0.082 A 
HETATM    6  N4  UNL     1       4.547   1.939  -1.688  1.00  0.00    -0.240 NA
HETATM    7  C18 UNL     1       3.714   2.989  -1.693  1.00  0.00     0.236 A 
HETATM    8  N5  UNL     1       2.580   3.002  -0.974  1.00  0.00    -0.221 NA
HETATM    9  C19 UNL     1       2.276   1.915  -0.222  1.00  0.00     0.175 A 
HETATM   10  N6  UNL     1       1.060   1.921   0.522  1.00  0.00    -0.199 N 
ENDROOT
BRANCH   1  11
HETATM   11  C7  UNL     1      -0.499   0.831   1.981  1.00  0.00     0.243 C 
BRANCH  11  12
HETATM   12  C6  UNL     1      -1.461  -0.027   1.325  1.00  0.00    -0.083 C 
HETATM   13  C5  UNL     1      -2.287  -0.736   0.773  1.00  0.00    -0.074 C 
BRANCH  13  14
HETATM   14  C4  UNL     1      -3.297  -1.583   0.123  1.00  0.00     0.368 C 
BRANCH  14  15
HETATM   15  N2  UNL     1      -4.604  -1.373   0.685  1.00  0.00     0.129 N 
HETATM   16  C3  UNL     1      -5.670  -2.112   0.104  1.00  0.00     0.306 C 
HETATM   17  C2  UNL     1      -6.473  -1.109  -0.665  1.00  0.00     0.304 C 
HETATM   18  N1  UNL     1      -5.945   0.198  -0.345  1.00  0.00     0.114 N 
HETATM   19  C1  UNL     1      -7.052   1.053   0.009  1.00  0.00     0.312 C 
HETATM   20  C20 UNL     1      -5.013   0.006   0.737  1.00  0.00     0.543 C 
ENDBRANCH  14  15
ENDBRANCH  13  14
ENDBRANCH  11  12
ENDBRANCH   1  11
BRANCH  10  21
HETATM   21  N7  UNL     1       0.211   3.036   0.502  1.00  0.00    -0.226 NA
HETATM   22  H18 UNL     1       0.726   3.816   0.019  1.00  0.00     0.145 HD
HETATM   23  H19 UNL     1      -0.564   2.791  -0.182  1.00  0.00     0.145 HD
ENDBRANCH  10  21
BRANCH   5  24
HETATM   24  C12 UNL     1       5.272  -0.267  -1.019  1.00  0.00    -0.005 A 
HETATM   25  C13 UNL     1       5.776  -0.928  -2.118  1.00  0.00     0.017 A 
HETATM   26  C14 UNL     1       6.737  -1.917  -1.961  1.00  0.00     0.044 A 
HETATM   27  C15 UNL     1       7.222  -2.269  -0.699  1.00  0.00     0.133 A 
HETATM   28  F1  UNL     1       8.151  -3.239  -0.629  1.00  0.00    -0.205 F 
HETATM   29  C16 UNL     1       6.739  -1.624   0.443  1.00  0.00     0.050 A 
HETATM   30 BR1  UNL     1       7.430  -2.131   2.119  1.00  0.00    -0.048 Br
HETATM   31  C17 UNL     1       5.794  -0.663   0.220  1.00  0.00     0.036 A 
ENDBRANCH   5  24
TORSDOF 6
