REMARK  4 active torsions:
REMARK  status: ('A' for Active; 'I' for Inactive)
REMARK    1  A    between atoms: N1_2  and  C2_3 
REMARK    2  A    between atoms: C2_3  and  C3_4 
REMARK    3  A    between atoms: C3_4  and  N2_5 
REMARK    4  A    between atoms: C16_23  and  C17_24 
ROOT
HETATM    1  N2  UNL     1       2.005   0.527   1.039  1.00  0.00    -0.350 N 
HETATM    2  C4  UNL     1       2.094   1.658   1.910  1.00  0.00     0.129 C 
HETATM    3  C5  UNL     1       1.231   2.812   1.513  1.00  0.00     0.049 C 
HETATM    4  C6  UNL     1      -0.193   2.573   1.375  1.00  0.00    -0.001 C 
HETATM    5  C7  UNL     1      -1.151   2.696   0.490  1.00  0.00     0.003 C 
HETATM    6  C8  UNL     1      -0.553   3.252  -0.718  1.00  0.00     0.068 C 
HETATM    7  N3  UNL     1      -2.530   2.479   0.315  1.00  0.00    -0.345 N 
HETATM    8  C9  UNL     1      -3.155   1.276  -0.115  1.00  0.00     0.128 A 
HETATM    9  C10 UNL     1      -2.489   0.116   0.187  1.00  0.00     0.068 A 
HETATM   10  C11 UNL     1      -2.906  -1.110  -0.135  1.00  0.00     0.043 A 
HETATM   11  C12 UNL     1      -2.304  -2.294   0.127  1.00  0.00     0.138 A 
HETATM   12  N4  UNL     1      -2.865  -3.454  -0.274  1.00  0.00    -0.224 NA
HETATM   13  C13 UNL     1      -4.056  -3.461  -0.955  1.00  0.00     0.236 A 
HETATM   14  N5  UNL     1      -4.676  -2.297  -1.228  1.00  0.00    -0.240 NA
HETATM   15  C14 UNL     1      -4.103  -1.154  -0.822  1.00  0.00     0.089 A 
HETATM   16  C15 UNL     1      -4.772   0.033  -1.123  1.00  0.00     0.151 A 
HETATM   17  N6  UNL     1      -4.320   1.281  -0.779  1.00  0.00    -0.241 NA
HETATM   18  N7  UNL     1      -1.085  -2.580   0.810  1.00  0.00    -0.368 N 
HETATM   19  C16 UNL     1       0.293  -2.927   0.644  1.00  0.00     0.097 C 
HETATM   20  C19 UNL     1       1.170  -1.855   0.044  1.00  0.00     0.128 C 
HETATM   21  C20 UNL     1       1.283  -0.680   0.925  1.00  0.00     0.221 C 
HETATM   22  O1  UNL     1       0.678  -0.414   1.971  1.00  0.00    -0.273 OA
HETATM   23  H17 UNL     1      -3.089   3.329   0.532  1.00  0.00     0.167 HD
HETATM   24  H21 UNL     1      -1.474  -2.459   1.787  1.00  0.00     0.161 HD
ENDROOT
BRANCH   1  25
HETATM   25  C3  UNL     1       2.883   0.474  -0.078  1.00  0.00     0.155 C 
BRANCH  25  26
HETATM   26  C2  UNL     1       2.336   1.085  -1.342  1.00  0.00     0.288 C 
BRANCH  26  27
HETATM   27  N1  UNL     1       3.333   0.931  -2.400  1.00  0.00     0.080 N 
HETATM   28  C1  UNL     1       2.790   1.533  -3.613  1.00  0.00     0.306 C 
HETATM   29  H4  UNL     1       3.553  -0.049  -2.622  1.00  0.00     0.315 HD
ENDBRANCH  26  27
ENDBRANCH  25  26
ENDBRANCH   1  25
BRANCH  19  30
HETATM   30  C17 UNL     1       0.943  -3.194   1.997  1.00  0.00     0.032 C 
HETATM   31  C18 UNL     1       0.905  -4.439   2.447  1.00  0.00     0.187 C 
HETATM   32 BR1  UNL     1       1.580  -5.232   4.066  1.00  0.00    -0.198 Br
ENDBRANCH  19  30
TORSDOF 4
