REMARK  5 active torsions:
REMARK  status: ('A' for Active; 'I' for Inactive)
REMARK    1  A    between atoms: O1_3  and  C3_4 
REMARK    2  A    between atoms: C8_11  and  N3_12 
REMARK    3  A    between atoms: N3_12  and  C9_13 
REMARK    4  A    between atoms: C9_13  and  C10_14 
REMARK    5  A    between atoms: C11_15  and  C12_16 
ROOT
HETATM    1  C1  UNL     1       0.063   4.352  -1.902  1.00  0.00     0.045 C 
HETATM    2  C2  UNL     1      -0.548   4.324  -0.841  1.00  0.00     0.049 C 
HETATM    3  O1  UNL     1      -1.229   4.318   0.332  1.00  0.00    -0.262 OA
ENDROOT
BRANCH   3   4
HETATM    4  C3  UNL     1      -1.502   3.140   1.014  1.00  0.00     0.088 A 
HETATM    5  C4  UNL     1      -2.200   3.209   2.203  1.00  0.00     0.040 A 
HETATM    6  C5  UNL     1      -2.482   2.050   2.898  1.00  0.00     0.035 A 
HETATM    7  C6  UNL     1      -2.056   0.844   2.382  1.00  0.00     0.072 A 
HETATM    8  N1  UNL     1      -2.335  -0.303   3.068  1.00  0.00    -0.241 NA
HETATM    9  C14 UNL     1      -1.358   0.722   1.203  1.00  0.00     0.041 A 
HETATM   10  C7  UNL     1      -1.905  -1.477   2.540  1.00  0.00     0.235 A 
HETATM   11  N2  UNL     1      -1.228  -1.551   1.388  1.00  0.00    -0.224 NA
HETATM   12  C8  UNL     1      -0.921  -0.469   0.664  1.00  0.00     0.137 A 
HETATM   13  C15 UNL     1      -1.102   1.902   0.549  1.00  0.00     0.055 A 
BRANCH  12  14
HETATM   14  N3  UNL     1      -0.194  -0.562  -0.569  1.00  0.00    -0.371 N 
HETATM   15  H5  UNL     1       0.066   0.246  -1.164  1.00  0.00     0.161 HD
BRANCH  14  16
HETATM   16  C9  UNL     1       0.185  -1.914  -0.976  1.00  0.00     0.148 C 
BRANCH  16  17
HETATM   17  C10 UNL     1       0.918  -1.794  -2.257  1.00  0.00    -0.008 C 
HETATM   18  C11 UNL     1       2.166  -2.227  -2.317  1.00  0.00    -0.005 C 
BRANCH  18  19
HETATM   19  C12 UNL     1       2.689  -2.790  -1.078  1.00  0.00    -0.010 C 
HETATM   20  C13 UNL     1       3.891  -3.291  -0.862  1.00  0.00     0.206 C 
HETATM   21 BR1  UNL     1       5.511  -3.596  -1.799  1.00  0.00    -0.193 Br
ENDBRANCH  18  19
ENDBRANCH  16  17
ENDBRANCH  14  16
ENDBRANCH  12  14
ENDBRANCH   3   4
TORSDOF 5
