REMARK  6 active torsions:
REMARK  status: ('A' for Active; 'I' for Inactive)
REMARK    1  A    between atoms: C2_2  and  C3_3 
REMARK    2  A    between atoms: C3_3  and  N1_5 
REMARK    3  A    between atoms: N1_5  and  C5_6 
REMARK    4  A    between atoms: C6_7  and  C7_8 
REMARK    5  A    between atoms: C9_10  and  N2_11 
REMARK    6  A    between atoms: N2_11  and  C10_12 
ROOT
HETATM    1  C7  UNL     1      -0.293  -0.552  -0.280  1.00  0.00     0.140 A 
HETATM    2  C8  UNL     1       0.844  -1.096   0.519  1.00  0.00     0.110 A 
HETATM    3  C9  UNL     1       2.178  -0.848  -0.095  1.00  0.00     0.108 A 
HETATM    4  N3  UNL     1       2.364  -0.227  -1.233  1.00  0.00    -0.229 NA
HETATM    5  C16 UNL     1       1.235   0.266  -1.967  1.00  0.00     0.229 A 
HETATM    6  N4  UNL     1       0.053   0.101  -1.507  1.00  0.00    -0.273 NA
ENDROOT
BRANCH   3   7
HETATM    7  N2  UNL     1       3.286  -1.327   0.668  1.00  0.00    -0.344 N 
HETATM    8  H16 UNL     1       3.267  -2.044   1.411  1.00  0.00     0.167 HD
BRANCH   7   9
HETATM    9  C10 UNL     1       4.601  -0.783   0.415  1.00  0.00     0.034 A 
HETATM   10  C11 UNL     1       5.661  -1.504  -0.090  1.00  0.00     0.029 A 
HETATM   11  C12 UNL     1       6.859  -0.880  -0.301  1.00  0.00     0.004 A 
HETATM   12  C13 UNL     1       7.058   0.478  -0.022  1.00  0.00     0.019 A 
HETATM   13  C14 UNL     1       5.954   1.174   0.490  1.00  0.00     0.013 A 
HETATM   14 BR1  UNL     1       6.334   3.035   0.837  1.00  0.00    -0.051 Br
HETATM   15  C15 UNL     1       4.722   0.580   0.718  1.00  0.00     0.048 A 
ENDBRANCH   7   9
ENDBRANCH   3   7
BRANCH   1  16
HETATM   16  C6  UNL     1      -1.070   0.400   0.565  1.00  0.00     0.017 C 
HETATM   17  C5  UNL     1      -2.368   0.570   0.722  1.00  0.00     0.081 C 
BRANCH  17  18
HETATM   18  N1  UNL     1      -3.367  -0.174   0.067  1.00  0.00    -0.395 N 
HETATM   19  H10 UNL     1      -2.953  -0.833  -0.663  1.00  0.00     0.159 HD
BRANCH  18  20
HETATM   20  C3  UNL     1      -4.793  -0.181   0.221  1.00  0.00     0.076 C 
HETATM   21  C4  UNL     1      -5.368  -1.372  -0.536  1.00  0.00     0.032 C 
BRANCH  20  22
HETATM   22  C2  UNL     1      -5.499   1.083  -0.134  1.00  0.00     0.020 C 
HETATM   23  C1  UNL     1      -4.988   2.312   0.577  1.00  0.00     0.007 C 
ENDBRANCH  20  22
ENDBRANCH  18  20
ENDBRANCH  17  18
ENDBRANCH   1  16
TORSDOF 6
