REMARK  6 active torsions:
REMARK  status: ('A' for Active; 'I' for Inactive)
REMARK    1  A    between atoms: C3_3  and  C4_4 
REMARK    2  A    between atoms: C4_4  and  N1_5 
REMARK    3  A    between atoms: C9_11  and  C10_12 
REMARK       I    between atoms: C10_12  and  N3_14 
REMARK    4  A    between atoms: N3_14  and  C11_15 
REMARK    5  A    between atoms: C14_18  and  N4_19 
REMARK    6  A    between atoms: N4_19  and  C15_20 
ROOT
HETATM    1  C1  UNL     1      -4.436   4.670   1.624  1.00  0.00     0.012 C 
HETATM    2  C2  UNL     1      -4.384   3.471   1.526  1.00  0.00    -0.116 C 
HETATM    3  C3  UNL     1      -4.343   1.993   1.396  1.00  0.00     0.112 C 
ENDROOT
BRANCH   3   4
HETATM    4  C4  UNL     1      -3.330   1.710   0.317  1.00  0.00     0.130 C 
BRANCH   4   5
HETATM    5  N1  UNL     1      -3.107   0.350   0.014  1.00  0.00    -0.396 N 
HETATM    6  C5  UNL     1      -4.145  -0.386  -0.603  1.00  0.00     0.148 C 
HETATM    7  C6  UNL     1      -4.846  -1.382   0.271  1.00  0.00     0.291 C 
HETATM    8  N2  UNL     1      -3.945  -2.028   1.165  1.00  0.00     0.088 N 
HETATM    9  C7  UNL     1      -4.279  -3.405   1.412  1.00  0.00     0.310 C 
HETATM   10  C8  UNL     1      -2.563  -1.829   0.866  1.00  0.00     0.306 C 
HETATM   11  C9  UNL     1      -2.172  -0.363   0.808  1.00  0.00     0.200 C 
BRANCH  11  12
HETATM   12  C10 UNL     1      -0.826  -0.370   0.124  1.00  0.00     0.247 C 
HETATM   13  O1  UNL     1       0.109  -0.915   0.758  1.00  0.00    -0.271 OA
HETATM   14  N3  UNL     1      -0.594   0.186  -1.142  1.00  0.00    -0.310 N 
HETATM   15  H16 UNL     1      -1.462   0.599  -1.540  1.00  0.00     0.170 HD
BRANCH  14  16
HETATM   16  C11 UNL     1       0.619   0.233  -1.872  1.00  0.00     0.130 A 
HETATM   17  C12 UNL     1       1.841  -0.217  -1.488  1.00  0.00     0.068 A 
HETATM   18  C13 UNL     1       2.961  -0.140  -2.271  1.00  0.00     0.044 A 
HETATM   19  C14 UNL     1       4.170  -0.618  -1.817  1.00  0.00     0.142 A 
HETATM   20  C22 UNL     1       2.896   0.413  -3.521  1.00  0.00     0.089 A 
HETATM   21  N5  UNL     1       5.244  -0.527  -2.612  1.00  0.00    -0.224 NA
HETATM   22  C21 UNL     1       5.162   0.020  -3.841  1.00  0.00     0.236 A 
HETATM   23  N6  UNL     1       3.982   0.494  -4.300  1.00  0.00    -0.240 NA
HETATM   24  C23 UNL     1       1.649   0.866  -3.899  1.00  0.00     0.151 A 
HETATM   25  N7  UNL     1       0.584   0.771  -3.101  1.00  0.00    -0.241 NA
BRANCH  19  26
HETATM   26  N4  UNL     1       4.329  -1.213  -0.511  1.00  0.00    -0.340 N 
HETATM   27  H18 UNL     1       4.171  -2.242  -0.425  1.00  0.00     0.167 HD
BRANCH  26  28
HETATM   28  C15 UNL     1       4.686  -0.479   0.653  1.00  0.00     0.035 A 
HETATM   29  C16 UNL     1       4.909  -1.108   1.862  1.00  0.00     0.032 A 
HETATM   30  C17 UNL     1       5.253  -0.323   2.954  1.00  0.00     0.046 A 
HETATM   31  C18 UNL     1       5.386   1.053   2.904  1.00  0.00     0.138 A 
HETATM   32  F1  UNL     1       5.720   1.785   3.980  1.00  0.00    -0.204 F 
HETATM   33  C19 UNL     1       5.164   1.674   1.703  1.00  0.00     0.074 A 
HETATM   34 CL1  UNL     1       5.323   3.415   1.612  1.00  0.00    -0.081 Cl
HETATM   35  C20 UNL     1       4.819   0.900   0.599  1.00  0.00     0.056 A 
ENDBRANCH  26  28
ENDBRANCH  19  26
ENDBRANCH  14  16
ENDBRANCH  11  12
ENDBRANCH   4   5
ENDBRANCH   3   4
TORSDOF 6
