REMARK  7 active torsions:
REMARK  status: ('A' for Active; 'I' for Inactive)
REMARK    1  A    between atoms: N2_5  and  C4_6 
REMARK    2  A    between atoms: C4_6  and  C5_7 
REMARK    3  A    between atoms: C5_7  and  C6_8 
REMARK    4  A    between atoms: C7_9  and  C8_10 
REMARK    5  A    between atoms: C8_10  and  N3_11 
REMARK    6  A    between atoms: N3_11  and  C9_12 
REMARK    7  A    between atoms: N6_20  and  C15_21 
ROOT
HETATM    1  C9  UNL     1       2.074  -0.644  -1.383  1.00  0.00     0.100 A 
HETATM    2  C10 UNL     1       3.293  -0.161  -1.150  1.00  0.00     0.091 A 
HETATM    3  C11 UNL     1       4.557  -1.015  -1.424  1.00  0.00     0.351 A 
HETATM    4  C12 UNL     1       5.249  -2.211  -1.850  1.00  0.00     0.553 A 
HETATM    5  C13 UNL     1       4.038  -2.060  -1.841  1.00  0.00     0.364 A 
HETATM    6  N4  UNL     1       5.080  -1.455  -1.564  1.00  0.00     0.220 N 
HETATM    7  N5  UNL     1       6.373  -1.108  -1.376  1.00  0.00     0.222 N 
HETATM    8  C14 UNL     1       7.812  -0.869  -1.223  1.00  0.00     0.345 C 
HETATM    9  N6  UNL     1       5.568  -0.024  -0.997  1.00  0.00    -0.132 N 
HETATM   10  N7  UNL     1       2.609  -1.877  -1.830  1.00  0.00    -0.334 N 
HETATM   11  H23 UNL     1       2.309  -2.781  -2.184  1.00  0.00     0.164 HD
ENDROOT
BRANCH   1  12
HETATM   12  N3  UNL     1       0.754  -0.536  -1.379  1.00  0.00    -0.366 N 
HETATM   13  H14 UNL     1       0.476  -0.365  -2.361  1.00  0.00     0.162 HD
BRANCH  12  14
HETATM   14  C8  UNL     1       0.483  -0.721   0.021  1.00  0.00     0.215 C 
BRANCH  14  15
HETATM   15  C7  UNL     1      -0.966  -0.630   0.252  1.00  0.00    -0.087 C 
HETATM   16  C6  UNL     1      -2.146  -0.535   0.442  1.00  0.00    -0.103 C 
BRANCH  16  17
HETATM   17  C5  UNL     1      -3.564  -0.396   0.674  1.00  0.00     0.113 C 
BRANCH  17  18
HETATM   18  C4  UNL     1      -4.273  -1.701   0.599  1.00  0.00     0.129 C 
BRANCH  18  19
HETATM   19  N2  UNL     1      -5.691  -1.602   0.838  1.00  0.00    -0.408 N 
HETATM   20  C3  UNL     1      -6.419  -0.919  -0.159  1.00  0.00     0.147 C 
HETATM   21  C2  UNL     1      -7.073   0.366   0.274  1.00  0.00     0.291 C 
HETATM   22  N1  UNL     1      -7.752   0.222   1.555  1.00  0.00     0.087 N 
HETATM   23  C1  UNL     1      -8.189   1.588   1.898  1.00  0.00     0.310 C 
HETATM   24  C22 UNL     1      -6.714  -0.111   2.516  1.00  0.00     0.291 C 
HETATM   25  C21 UNL     1      -6.079  -1.432   2.186  1.00  0.00     0.147 C 
ENDBRANCH  18  19
ENDBRANCH  17  18
ENDBRANCH  16  17
ENDBRANCH  14  15
ENDBRANCH  12  14
ENDBRANCH   1  12
BRANCH   9  26
HETATM   26  C15 UNL     1       5.767   1.301  -0.455  1.00  0.00     0.065 A 
HETATM   27  C16 UNL     1       5.188   2.427  -1.064  1.00  0.00     0.034 A 
HETATM   28  C17 UNL     1       5.380   3.656  -0.504  1.00  0.00     0.046 A 
HETATM   29  C18 UNL     1       6.145   3.665   0.633  1.00  0.00     0.138 A 
HETATM   30  F1  UNL     1       6.341   4.883   1.198  1.00  0.00    -0.204 F 
HETATM   31  C19 UNL     1       6.739   2.608   1.279  1.00  0.00     0.074 A 
HETATM   32 CL1  UNL     1       7.691   2.784   2.732  1.00  0.00    -0.081 Cl
HETATM   33  C20 UNL     1       6.546   1.374   0.719  1.00  0.00     0.058 A 
ENDBRANCH   9  26
TORSDOF 7
