REMARK  3 active torsions:
REMARK  status: ('A' for Active; 'I' for Inactive)
REMARK    1  A    between atoms: C1_2  and  C2_3 
REMARK       I    between atoms: C1_2  and  N1_6 
REMARK    2  A    between atoms: C3_4  and  O2_5 
REMARK    3  A    between atoms: N1_6  and  C4_7 
ROOT
HETATM    1  C4  UNL     1       1.063  -0.328  -0.877  1.00  0.00     0.036 A 
HETATM    2  C5  UNL     1       1.778  -1.412  -0.361  1.00  0.00     0.032 A 
HETATM    3  C6  UNL     1       1.369  -2.165   0.736  1.00  0.00     0.034 A 
HETATM    4  C7  UNL     1       0.175  -1.820   1.357  1.00  0.00     0.062 A 
HETATM    5  C8  UNL     1      -0.571  -0.736   0.863  1.00  0.00     0.002 A 
HETATM    6  C9  UNL     1      -0.144   0.019  -0.247  1.00  0.00     0.044 A 
HETATM    7  C10 UNL     1      -1.849  -0.234   1.367  1.00  0.00    -0.026 C 
HETATM    8  C11 UNL     1      -2.562   0.128   0.279  1.00  0.00     0.051 C 
HETATM    9  C12 UNL     1      -3.899   0.678   0.465  1.00  0.00     0.111 C 
HETATM   10  F1  UNL     1      -4.392   1.635  -0.315  1.00  0.00    -0.207 F 
HETATM   11  C13 UNL     1      -4.694   0.274   1.402  1.00  0.00    -0.068 C 
HETATM   12  B1  UNL     1      -3.968   0.106   2.993  1.00  0.00     0.227 B 
HETATM   13  C14 UNL     1      -2.165  -0.216   2.801  1.00  0.00     0.119 C 
HETATM   14  N2  UNL     1      -2.008  -1.467   3.482  1.00  0.00    -0.175 NA
HETATM   15  N3  UNL     1      -1.227  -2.412   3.357  1.00  0.00    -0.073 NA
HETATM   16  N4  UNL     1      -0.175  -2.628   2.486  1.00  0.00    -0.260 N 
HETATM   17  H8  UNL     1       0.450  -3.447   2.628  1.00  0.00     0.191 HD
ENDROOT
BRANCH   1  18
HETATM   18  N1  UNL     1       1.562   0.384  -2.007  1.00  0.00    -0.316 N 
HETATM   19  C1  UNL     1       2.423   1.500  -1.789  1.00  0.00     0.303 C 
HETATM   20  O1  UNL     1       2.817   1.959  -0.689  1.00  0.00    -0.258 OA
HETATM   21  H2  UNL     1       1.308   0.102  -2.978  1.00  0.00     0.170 HD
BRANCH  19  22
HETATM   22  C2  UNL     1       2.904   2.191  -2.952  1.00  0.00     0.025 C 
HETATM   23  C3  UNL     1       3.293   2.785  -3.939  1.00  0.00     0.062 C 
BRANCH  23  24
HETATM   24  O2  UNL     1       3.754   3.446  -5.059  1.00  0.00    -0.314 OA
HETATM   25  H1  UNL     1       4.719   3.644  -5.235  1.00  0.00     0.230 HD
ENDBRANCH  23  24
ENDBRANCH  19  22
ENDBRANCH   1  18
TORSDOF 3
