REMARK  0 active torsions:
REMARK  status: ('A' for Active; 'I' for Inactive)
ROOT
HETATM    1  C1  UNL     1      -0.863  -2.665  -0.792  1.00  0.00     0.143 C 
HETATM    2  N1  UNL     1      -1.411  -1.390  -0.439  1.00  0.00    -0.405 N 
HETATM    3  C2  UNL     1      -2.662  -1.465   0.232  1.00  0.00     0.136 C 
HETATM    4  C3  UNL     1      -3.748  -0.420   0.062  1.00  0.00     0.136 C 
HETATM    5  N2  UNL     1      -3.274   0.799   0.253  1.00  0.00    -0.405 N 
HETATM    6  C4  UNL     1      -3.600   2.098   0.557  1.00  0.00     0.128 C 
HETATM    7  C5  UNL     1      -2.276   2.909   1.361  1.00  0.00     0.104 C 
HETATM    8  C6  UNL     1      -1.359   2.131   0.821  1.00  0.00    -0.145 C 
HETATM    9  C7  UNL     1      -0.707   1.550   0.418  1.00  0.00     0.031 A 
HETATM   10  C8  UNL     1       0.217   0.685  -0.184  1.00  0.00     0.181 A 
HETATM   11  N3  UNL     1       0.728  -0.187   0.820  1.00  0.00    -0.248 NA
HETATM   12  C9  UNL     1       1.970  -0.549   0.861  1.00  0.00     0.094 A 
HETATM   13  C10 UNL     1       2.524  -1.495   1.954  1.00  0.00     0.066 A 
HETATM   14  C11 UNL     1       3.875  -1.962   2.120  1.00  0.00     0.079 A 
HETATM   15 CL1  UNL     1       3.725  -2.887   3.467  1.00  0.00    -0.075 Cl
HETATM   16  C12 UNL     1       4.388  -1.358   1.090  1.00  0.00    -0.085 A 
HETATM   17  C13 UNL     1       4.792  -0.850   0.236  1.00  0.00     0.280 A 
HETATM   18  C14 UNL     1       5.268  -0.212  -0.828  1.00  0.00     0.259 A 
HETATM   19  C15 UNL     1       4.604   0.586  -1.697  1.00  0.00     0.269 A 
HETATM   20  C16 UNL     1       3.435   1.199  -2.122  1.00  0.00     0.041 A 
HETATM   21  C17 UNL     1       2.384   0.872  -1.279  1.00  0.00     0.066 A 
HETATM   22  C18 UNL     1       2.852   0.034  -0.281  1.00  0.00     0.195 A 
HETATM   23  N4  UNL     1       4.084  -0.199  -0.409  1.00  0.00     0.021 N 
HETATM   24  N5  UNL     1       1.003   1.185  -1.207  1.00  0.00    -0.354 N 
HETATM   25  C19 UNL     1      -1.017  -0.255  -0.891  1.00  0.00     0.155 A 
HETATM   26  C20 UNL     1      -2.046   0.650  -0.267  1.00  0.00     0.171 A 
HETATM   27  H15 UNL     1       0.795   1.801  -2.022  1.00  0.00     0.162 HD
ENDROOT
TORSDOF 0
