REMARK  3 active torsions:
REMARK  status: ('A' for Active; 'I' for Inactive)
REMARK    1  A    between atoms: C6_6  and  N1_7 
REMARK    2  A    between atoms: N1_7  and  C7_8 
REMARK    3  A    between atoms: C11_14  and  O1_15 
ROOT
HETATM    1  C7  UNL     1       0.348  -1.617   0.444  1.00  0.00     0.160 A 
HETATM    2  N2  UNL     1       0.397  -2.944   0.226  1.00  0.00    -0.222 NA
HETATM    3  C8  UNL     1       1.520  -3.547  -0.232  1.00  0.00     0.236 A 
HETATM    4  N3  UNL     1       2.610  -2.806  -0.476  1.00  0.00    -0.240 NA
HETATM    5  C9  UNL     1       2.647  -1.478  -0.286  1.00  0.00     0.093 A 
HETATM    6  C10 UNL     1       3.738  -0.660  -0.516  1.00  0.00     0.072 A 
HETATM    7  C11 UNL     1       3.655   0.717  -0.278  1.00  0.00     0.087 A 
HETATM    8  C13 UNL     1       2.470   1.249   0.190  1.00  0.00     0.154 A 
HETATM    9  N4  UNL     1       1.421   0.428   0.406  1.00  0.00    -0.252 NA
HETATM   10  C14 UNL     1       1.491  -0.893   0.181  1.00  0.00     0.131 A 
ENDROOT
BRANCH   1  11
HETATM   11  N1  UNL     1      -0.889  -1.129   0.923  1.00  0.00    -0.336 N 
HETATM   12  H7  UNL     1      -0.722  -1.188   1.960  1.00  0.00     0.168 HD
BRANCH  11  13
HETATM   13  C6  UNL     1      -2.136  -0.643   0.507  1.00  0.00     0.073 A 
HETATM   14  C5  UNL     1      -3.174  -1.447   0.990  1.00  0.00     0.033 A 
HETATM   15  C4  UNL     1      -4.511  -1.162   0.705  1.00  0.00     0.003 A 
HETATM   16  C3  UNL     1      -4.715  -0.039  -0.080  1.00  0.00     0.010 A 
HETATM   17  C2  UNL     1      -3.725   0.780  -0.577  1.00  0.00    -0.021 A 
HETATM   18  C1  UNL     1      -4.028   1.968  -1.413  1.00  0.00     0.051 C 
HETATM   19  C15 UNL     1      -2.432   0.453  -0.265  1.00  0.00     0.148 A 
HETATM   20  F1  UNL     1      -1.380   1.160  -0.681  1.00  0.00    -0.203 F 
ENDBRANCH  11  13
ENDBRANCH   1  11
BRANCH   7  21
HETATM   21  O1  UNL     1       4.857   1.344  -0.575  1.00  0.00    -0.354 OA
HETATM   22  C12 UNL     1       5.021   2.731  -0.416  1.00  0.00     0.210 C 
ENDBRANCH   7  21
TORSDOF 3
