REMARK  4 active torsions:
REMARK  status: ('A' for Active; 'I' for Inactive)
REMARK    1  A    between atoms: C3_3  and  C4_4 
REMARK       I    between atoms: C4_4  and  N1_6 
REMARK    2  A    between atoms: N1_6  and  C5_7 
REMARK    3  A    between atoms: C10_14  and  N4_15 
REMARK    4  A    between atoms: N4_15  and  C11_16 
ROOT
HETATM    1  C1  UNL     1      -7.189   2.844   0.390  1.00  0.00     0.112 C 
HETATM    2  C2  UNL     1      -6.205   1.735   0.383  1.00  0.00    -0.101 C 
HETATM    3  C3  UNL     1      -5.412   0.828   0.363  1.00  0.00    -0.006 C 
ENDROOT
BRANCH   3   4
HETATM    4  C4  UNL     1      -4.452  -0.234   0.335  1.00  0.00     0.300 C 
HETATM    5  O1  UNL     1      -4.921  -1.397   0.349  1.00  0.00    -0.258 OA
HETATM    6  N1  UNL     1      -3.055  -0.079   0.293  1.00  0.00    -0.316 N 
HETATM    7  H4  UNL     1      -2.812   0.937   0.286  1.00  0.00     0.170 HD
BRANCH   6   8
HETATM    8  C5  UNL     1      -2.042  -1.070   0.262  1.00  0.00     0.036 A 
HETATM    9  C6  UNL     1      -2.207  -2.415   0.267  1.00  0.00     0.032 A 
HETATM   10  C7  UNL     1      -1.204  -3.347   0.237  1.00  0.00     0.035 A 
HETATM   11  C8  UNL     1       0.108  -2.860   0.198  1.00  0.00     0.072 A 
HETATM   12  N2  UNL     1       1.062  -3.815   0.170  1.00  0.00    -0.241 NA
HETATM   13  C17 UNL     1       0.333  -1.485   0.193  1.00  0.00     0.041 A 
HETATM   14  C9  UNL     1       2.332  -3.387   0.132  1.00  0.00     0.236 A 
HETATM   15  N3  UNL     1       2.564  -2.079   0.126  1.00  0.00    -0.224 NA
HETATM   16  C10 UNL     1       1.651  -1.105   0.154  1.00  0.00     0.142 A 
HETATM   17  C18 UNL     1      -0.735  -0.637   0.224  1.00  0.00     0.047 A 
BRANCH  16  18
HETATM   18  N4  UNL     1       1.971   0.273   0.146  1.00  0.00    -0.340 N 
HETATM   19  H8  UNL     1       1.239   1.008   0.185  1.00  0.00     0.167 HD
BRANCH  18  20
HETATM   20  C11 UNL     1       3.238   0.914   0.088  1.00  0.00     0.035 A 
HETATM   21  C12 UNL     1       3.459   2.272   0.234  1.00  0.00     0.032 A 
HETATM   22  C13 UNL     1       4.690   2.864   0.169  1.00  0.00     0.046 A 
HETATM   23  C14 UNL     1       5.816   2.106  -0.052  1.00  0.00     0.138 A 
HETATM   24  F1  UNL     1       7.001   2.758  -0.104  1.00  0.00    -0.204 F 
HETATM   25  C15 UNL     1       5.657   0.746  -0.205  1.00  0.00     0.074 A 
HETATM   26 CL1  UNL     1       7.128  -0.160  -0.485  1.00  0.00    -0.081 Cl
HETATM   27  C16 UNL     1       4.393   0.205  -0.131  1.00  0.00     0.056 A 
ENDBRANCH  18  20
ENDBRANCH  16  18
ENDBRANCH   6   8
ENDBRANCH   3   4
TORSDOF 4
