REMARK  7 active torsions:
REMARK  status: ('A' for Active; 'I' for Inactive)
REMARK    1  A    between atoms: O1_1  and  C1_2 
REMARK    2  A    between atoms: C1_2  and  C2_3 
REMARK    3  A    between atoms: C3_4  and  C4_5 
REMARK    4  A    between atoms: C4_5  and  N1_6 
REMARK    5  A    between atoms: C7_9  and  N2_10 
REMARK    6  A    between atoms: N2_10  and  C8_11 
REMARK    7  A    between atoms: C17_24  and  O2_25 
ROOT
HETATM    1  N1  UNL     1       2.175  -1.566   0.719  1.00  0.00    -0.349 N 
HETATM    2  C5  UNL     1       0.908  -0.922   0.590  1.00  0.00     0.107 A 
HETATM    3  C6  UNL     1      -0.201  -1.483   0.140  1.00  0.00     0.054 A 
HETATM    4  C7  UNL     1      -1.407  -0.876   0.016  1.00  0.00     0.143 A 
HETATM    5  N3  UNL     1      -2.404  -1.603  -0.461  1.00  0.00    -0.223 NA
HETATM    6  C14 UNL     1      -2.318  -2.885  -0.828  1.00  0.00     0.236 A 
HETATM    7  N4  UNL     1      -1.105  -3.482  -0.699  1.00  0.00    -0.241 NA
HETATM    8  C15 UNL     1      -0.048  -2.801  -0.222  1.00  0.00     0.074 A 
HETATM    9  C16 UNL     1       1.078  -3.480  -0.145  1.00  0.00     0.058 A 
HETATM   10  C17 UNL     1       2.366  -2.948   0.340  1.00  0.00     0.247 A 
ENDROOT
BRANCH   4  11
HETATM   11  N2  UNL     1      -1.551   0.464   0.401  1.00  0.00    -0.340 N 
HETATM   12  H7  UNL     1      -0.788   1.027   0.832  1.00  0.00     0.167 HD
BRANCH  11  13
HETATM   13  C8  UNL     1      -2.701   1.290   0.292  1.00  0.00     0.035 A 
HETATM   14  C9  UNL     1      -3.783   0.966  -0.490  1.00  0.00     0.032 A 
HETATM   15  C10 UNL     1      -4.914   1.705  -0.628  1.00  0.00     0.046 A 
HETATM   16  C11 UNL     1      -5.022   2.904   0.067  1.00  0.00     0.138 A 
HETATM   17  F1  UNL     1      -6.096   3.722   0.005  1.00  0.00    -0.204 F 
HETATM   18  C12 UNL     1      -3.978   3.299   0.873  1.00  0.00     0.074 A 
HETATM   19 CL1  UNL     1      -4.054   4.786   1.768  1.00  0.00    -0.081 Cl
HETATM   20  C13 UNL     1      -2.880   2.487   0.949  1.00  0.00     0.056 A 
ENDBRANCH  11  13
ENDBRANCH   4  11
BRANCH   1  21
HETATM   21  C4  UNL     1       3.290  -0.797   1.246  1.00  0.00     0.219 C 
BRANCH  21  22
HETATM   22  C3  UNL     1       3.700   0.246   0.331  1.00  0.00    -0.085 C 
HETATM   23  C2  UNL     1       4.050   1.129  -0.420  1.00  0.00    -0.079 C 
BRANCH  23  24
HETATM   24  C1  UNL     1       4.488   2.218  -1.316  1.00  0.00     0.257 C 
BRANCH  24  25
HETATM   25  O1  UNL     1       4.736   3.379  -0.608  1.00  0.00    -0.389 OA
HETATM   26  H1  UNL     1       4.081   3.563   0.107  1.00  0.00     0.210 HD
ENDBRANCH  24  25
ENDBRANCH  23  24
ENDBRANCH  21  22
ENDBRANCH   1  21
BRANCH  10  27
HETATM   27  O2  UNL     1       3.285  -3.057  -0.711  1.00  0.00    -0.373 OA
HETATM   28  H14 UNL     1       2.862  -2.864  -1.578  1.00  0.00     0.212 HD
ENDBRANCH  10  27
TORSDOF 7
