REMARK  3 active torsions:
REMARK  status: ('A' for Active; 'I' for Inactive)
REMARK    1  A    between atoms: C1_2  and  C2_3 
REMARK    2  A    between atoms: C7_10  and  N3_11 
REMARK    3  A    between atoms: N3_11  and  C8_12 
ROOT
HETATM    1  C2  UNL     1      -3.909   0.506  -1.364  1.00  0.00     0.015 A 
HETATM    2  C3  UNL     1      -4.487  -0.149  -0.200  1.00  0.00     0.074 A 
HETATM    3  C4  UNL     1      -3.573  -0.657   0.811  1.00  0.00     0.011 A 
HETATM    4  C5  UNL     1      -2.272  -0.631   0.865  1.00  0.00     0.070 A 
HETATM    5  N1  UNL     1      -1.691  -1.198   1.957  1.00  0.00    -0.241 NA
HETATM    6  C6  UNL     1      -0.359  -1.228   2.117  1.00  0.00     0.236 A 
HETATM    7  N2  UNL     1       0.544  -0.712   1.236  1.00  0.00    -0.223 NA
HETATM    8  C7  UNL     1      -0.018  -0.142   0.138  1.00  0.00     0.143 A 
HETATM    9  C13 UNL     1      -1.387  -0.098  -0.050  1.00  0.00     0.053 A 
HETATM   10  P2  UNL     1      -2.079   0.600  -1.395  1.00  0.00    -0.005 P 
ENDROOT
BRANCH   8  11
HETATM   11  N3  UNL     1       0.839   0.426  -0.844  1.00  0.00    -0.339 N 
HETATM   12  H5  UNL     1       0.444   0.874  -1.698  1.00  0.00     0.167 HD
BRANCH  11  13
HETATM   13  C8  UNL     1       2.262   0.356  -0.611  1.00  0.00     0.048 A 
HETATM   14  C9  UNL     1       3.010   1.297   0.055  1.00  0.00     0.034 A 
HETATM   15  C10 UNL     1       4.356   1.162   0.237  1.00  0.00     0.046 A 
HETATM   16  C11 UNL     1       5.196   0.171  -0.153  1.00  0.00     0.139 A 
HETATM   17  F1  UNL     1       6.540   0.233   0.138  1.00  0.00    -0.204 F 
HETATM   18  C12 UNL     1       4.830  -0.966  -0.856  1.00  0.00     0.087 A 
HETATM   19 CL1  UNL     1       5.944  -2.226  -1.344  1.00  0.00    -0.079 Cl
HETATM   20  P1  UNL     1       3.119  -1.044  -1.226  1.00  0.00     0.024 P 
ENDBRANCH  11  13
ENDBRANCH   8  11
BRANCH   1  21
HETATM   21  C1  UNL     1      -4.751   0.950  -2.252  1.00  0.00     0.230 C 
HETATM   22  O1  UNL     1      -5.392   1.651  -3.061  1.00  0.00    -0.283 OA
ENDBRANCH   1  21
TORSDOF 3
