REMARK  6 active torsions:
REMARK  status: ('A' for Active; 'I' for Inactive)
REMARK    1  A    between atoms: C1_2  and  C2_3 
REMARK       I    between atoms: C1_2  and  N1_7 
REMARK    2  A    between atoms: C3_4  and  C4_5 
REMARK    3  A    between atoms: C4_5  and  O2_6 
REMARK    4  A    between atoms: N1_7  and  C5_8 
REMARK    5  A    between atoms: C10_15  and  N2_16 
REMARK    6  A    between atoms: N2_16  and  C11_17 
ROOT
HETATM    1  C5  UNL     1       1.206  -2.234   0.164  1.00  0.00     0.065 A 
HETATM    2  C6  UNL     1       2.180  -3.147  -0.218  1.00  0.00     0.076 A 
HETATM    3  C7  UNL     1       1.923  -4.523  -0.231  1.00  0.00     0.140 A 
HETATM    4  F1  UNL     1       2.836  -5.457  -0.594  1.00  0.00    -0.204 F 
HETATM    5  C8  UNL     1       0.664  -4.935   0.152  1.00  0.00     0.074 A 
HETATM    6 CL1  UNL     1       0.230  -6.640   0.174  1.00  0.00    -0.081 Cl
HETATM    7  C9  UNL     1      -0.280  -4.010   0.525  1.00  0.00     0.058 A 
HETATM    8  C10 UNL     1      -0.048  -2.657   0.543  1.00  0.00     0.061 A 
ENDROOT
BRANCH   8   9
HETATM    9  N2  UNL     1      -0.947  -1.645   0.922  1.00  0.00    -0.354 N 
HETATM   10  H7  UNL     1      -1.120  -1.918   1.924  1.00  0.00     0.166 HD
BRANCH   9  11
HETATM   11  C11 UNL     1      -1.560  -0.530   0.336  1.00  0.00     0.033 A 
HETATM   12  C12 UNL     1      -1.468  -0.236  -0.985  1.00  0.00     0.032 A 
HETATM   13  C13 UNL     1      -2.054   0.857  -1.602  1.00  0.00     0.035 A 
HETATM   14  C14 UNL     1      -2.775   1.674  -0.761  1.00  0.00     0.070 A 
HETATM   15  N3  UNL     1      -3.376   2.753  -1.270  1.00  0.00    -0.241 NA
HETATM   16  C17 UNL     1      -2.882   1.394   0.581  1.00  0.00     0.012 A 
HETATM   17  C15 UNL     1      -4.090   3.577  -0.484  1.00  0.00     0.233 A 
HETATM   18  N4  UNL     1      -4.191   3.302   0.815  1.00  0.00    -0.253 NA
HETATM   19  C16 UNL     1      -3.618   2.238   1.406  1.00  0.00     0.132 A 
HETATM   20  C18 UNL     1      -2.281   0.302   1.128  1.00  0.00     0.044 A 
ENDBRANCH   9  11
ENDBRANCH   8   9
BRANCH   1  21
HETATM   21  N1  UNL     1       1.732  -0.915   0.093  1.00  0.00    -0.314 N 
HETATM   22  C1  UNL     1       1.909   0.158  -0.794  1.00  0.00     0.301 C 
HETATM   23  O1  UNL     1       1.571   0.217  -1.999  1.00  0.00    -0.258 OA
HETATM   24  H4  UNL     1       2.073  -0.823   1.097  1.00  0.00     0.170 HD
BRANCH  22  25
HETATM   25  C2  UNL     1       2.548   1.341  -0.294  1.00  0.00    -0.003 C 
HETATM   26  C3  UNL     1       3.107   2.340   0.139  1.00  0.00    -0.071 C 
BRANCH  26  27
HETATM   27  C4  UNL     1       3.794   3.542   0.639  1.00  0.00     0.258 C 
BRANCH  27  28
HETATM   28  O2  UNL     1       3.761   4.454  -0.412  1.00  0.00    -0.389 OA
HETATM   29  H3  UNL     1       4.687   4.777  -0.570  1.00  0.00     0.210 HD
ENDBRANCH  27  28
ENDBRANCH  26  27
ENDBRANCH  22  25
ENDBRANCH   1  21
TORSDOF 6
