REMARK  8 active torsions:
REMARK  status: ('A' for Active; 'I' for Inactive)
REMARK    1  A    between atoms: C3_3  and  N1_4 
REMARK    2  A    between atoms: N1_4  and  C4_5 
REMARK    3  A    between atoms: C11_16  and  C12_17 
REMARK    4  A    between atoms: C12_17  and  C13_18 
REMARK    5  A    between atoms: C13_18  and  N4_19 
REMARK       I    between atoms: N4_19  and  C14_20 
REMARK    6  A    between atoms: C14_20  and  C15_22 
REMARK    7  A    between atoms: C16_23  and  C17_24 
REMARK    8  A    between atoms: C17_24  and  O2_25 
ROOT
HETATM    1  C1  UNL     1      -0.351  -0.140   1.009  1.00  0.00     0.049 C 
HETATM    2  C2  UNL     1      -0.399   0.559  -0.111  1.00  0.00     0.017 A 
HETATM    3  C3  UNL     1      -1.458   1.424  -0.407  1.00  0.00     0.138 A 
HETATM    4  N2  UNL     1      -1.500   2.138  -1.560  1.00  0.00    -0.224 NA
HETATM    5  C10 UNL     1      -0.495   2.028  -2.470  1.00  0.00     0.235 A 
HETATM    6  N3  UNL     1       0.551   1.191  -2.206  1.00  0.00    -0.241 NA
HETATM    7  C11 UNL     1       0.594   0.482  -1.064  1.00  0.00     0.069 A 
ENDROOT
BRANCH   3   8
HETATM    8  N1  UNL     1      -2.523   1.564   0.517  1.00  0.00    -0.340 N 
HETATM    9  H3  UNL     1      -2.497   2.288   1.275  1.00  0.00     0.167 HD
BRANCH   8  10
HETATM   10  C4  UNL     1      -3.655   0.726   0.437  1.00  0.00     0.035 A 
HETATM   11  C5  UNL     1      -4.711   0.829   1.320  1.00  0.00     0.032 A 
HETATM   12  C6  UNL     1      -5.806  -0.022   1.201  1.00  0.00     0.046 A 
HETATM   13  C7  UNL     1      -5.859  -0.975   0.209  1.00  0.00     0.138 A 
HETATM   14  F1  UNL     1      -6.906  -1.817   0.064  1.00  0.00    -0.204 F 
HETATM   15  C8  UNL     1      -4.818  -1.125  -0.714  1.00  0.00     0.074 A 
HETATM   16 CL1  UNL     1      -4.802  -2.308  -2.003  1.00  0.00    -0.081 Cl
HETATM   17  C9  UNL     1      -3.759  -0.250  -0.541  1.00  0.00     0.056 A 
ENDBRANCH   8  10
ENDBRANCH   3   8
BRANCH   7  18
HETATM   18  C12 UNL     1       1.626  -0.316  -0.850  1.00  0.00     0.051 C 
BRANCH  18  19
HETATM   19  C13 UNL     1       1.690  -1.081   0.363  1.00  0.00     0.293 C 
BRANCH  19  20
HETATM   20  N4  UNL     1       2.614  -1.900   0.731  1.00  0.00    -0.347 NA
HETATM   21  C14 UNL     1       3.764  -2.193  -0.031  1.00  0.00     0.291 C 
HETATM   22  O1  UNL     1       3.919  -3.026  -0.971  1.00  0.00    -0.259 OA
BRANCH  21  23
HETATM   23  C15 UNL     1       4.957  -1.439   0.297  1.00  0.00    -0.004 C 
HETATM   24  C16 UNL     1       5.955  -0.797   0.593  1.00  0.00    -0.071 C 
BRANCH  24  25
HETATM   25  C17 UNL     1       7.139  -0.021   0.951  1.00  0.00     0.258 C 
BRANCH  25  26
HETATM   26  O2  UNL     1       7.620   0.683  -0.132  1.00  0.00    -0.389 OA
HETATM   27  H12 UNL     1       7.458   1.655  -0.063  1.00  0.00     0.210 HD
ENDBRANCH  25  26
ENDBRANCH  24  25
ENDBRANCH  21  23
ENDBRANCH  19  20
ENDBRANCH  18  19
ENDBRANCH   7  18
TORSDOF 8
