REMARK  7 active torsions:
REMARK  status: ('A' for Active; 'I' for Inactive)
REMARK    1  A    between atoms: O1_2  and  C2_3 
REMARK    2  A    between atoms: C2_3  and  C3_4 
REMARK    3  A    between atoms: C3_4  and  C4_5 
REMARK       I    between atoms: C4_5  and  N1_7 
REMARK    4  A    between atoms: N1_7  and  C5_8 
REMARK    5  A    between atoms: C6_9  and  C7_10 
REMARK    6  A    between atoms: C10_15  and  N4_16 
REMARK    7  A    between atoms: N4_16  and  C11_17 
ROOT
HETATM    1  C7  UNL     1      -0.501  -0.675  -0.221  1.00  0.00     0.036 C 
HETATM    2  C8  UNL     1      -0.553  -2.177  -0.245  1.00  0.00     0.159 C 
HETATM    3  N2  UNL     1      -1.615  -2.581  -1.177  1.00  0.00    -0.282 NA
HETATM    4  C9  UNL     1      -2.803  -2.082  -1.235  1.00  0.00     0.228 C 
HETATM    5  N3  UNL     1      -3.417  -1.039  -0.452  1.00  0.00    -0.229 NA
HETATM    6  C10 UNL     1      -2.840  -0.264   0.405  1.00  0.00     0.106 C 
HETATM    7  C17 UNL     1      -1.429  -0.172   0.865  1.00  0.00     0.088 C 
ENDROOT
BRANCH   1   8
HETATM    8  C6  UNL     1       0.883  -0.167  -0.032  1.00  0.00    -0.003 C 
HETATM    9  C5  UNL     1       2.024  -0.814   0.151  1.00  0.00     0.087 C 
BRANCH   9  10
HETATM   10  N1  UNL     1       3.316  -0.245   0.325  1.00  0.00    -0.337 N 
HETATM   11  C4  UNL     1       4.439  -0.468  -0.517  1.00  0.00     0.223 C 
HETATM   12  O2  UNL     1       4.264  -1.240  -1.503  1.00  0.00    -0.273 OA
HETATM   13  H8  UNL     1       3.220   0.346   1.190  1.00  0.00     0.168 HD
BRANCH  11  14
HETATM   14  C3  UNL     1       5.612   0.314   0.010  1.00  0.00     0.129 C 
BRANCH  14  15
HETATM   15  C2  UNL     1       6.823   0.125  -0.827  1.00  0.00     0.176 C 
BRANCH  15  16
HETATM   16  O1  UNL     1       7.883   0.862  -0.357  1.00  0.00    -0.395 OA
HETATM   17  C1  UNL     1       8.217   0.489   0.932  1.00  0.00     0.201 C 
ENDBRANCH  15  16
ENDBRANCH  14  15
ENDBRANCH  11  14
ENDBRANCH   9  10
ENDBRANCH   1   8
BRANCH   6  18
HETATM   18  N4  UNL     1      -3.784   0.643   0.977  1.00  0.00    -0.344 N 
HETATM   19  H15 UNL     1      -3.533   1.160   1.870  1.00  0.00     0.167 HD
BRANCH  18  20
HETATM   20  C11 UNL     1      -5.080   0.952   0.471  1.00  0.00     0.035 A 
HETATM   21  C12 UNL     1      -6.142   0.172   0.909  1.00  0.00     0.032 A 
HETATM   22  C13 UNL     1      -7.414   0.464   0.421  1.00  0.00     0.046 A 
HETATM   23  C14 UNL     1      -7.578   1.517  -0.480  1.00  0.00     0.138 A 
HETATM   24  F1  UNL     1      -8.771   1.867  -1.001  1.00  0.00    -0.204 F 
HETATM   25  C15 UNL     1      -6.502   2.270  -0.894  1.00  0.00     0.074 A 
HETATM   26 CL1  UNL     1      -6.661   3.601  -2.024  1.00  0.00    -0.081 Cl
HETATM   27  C16 UNL     1      -5.239   1.993  -0.420  1.00  0.00     0.056 A 
ENDBRANCH  18  20
ENDBRANCH   6  18
TORSDOF 7
