REMARK  6 active torsions:
REMARK  status: ('A' for Active; 'I' for Inactive)
REMARK    1  A    between atoms: C1_2  and  C2_3 
REMARK       I    between atoms: C1_2  and  N1_7 
REMARK    2  A    between atoms: C3_4  and  C4_5 
REMARK    3  A    between atoms: C4_5  and  O2_6 
REMARK    4  A    between atoms: N1_7  and  C5_8 
REMARK    5  A    between atoms: C10_15  and  N4_16 
REMARK    6  A    between atoms: N4_16  and  C11_17 
ROOT
HETATM    1  C5  UNL     1       1.838  -1.390   0.310  1.00  0.00     0.036 A 
HETATM    2  C6  UNL     1       2.082  -2.648  -0.170  1.00  0.00     0.032 A 
HETATM    3  C7  UNL     1       1.006  -3.381  -0.625  1.00  0.00     0.035 A 
HETATM    4  C8  UNL     1      -0.265  -2.849  -0.590  1.00  0.00     0.072 A 
HETATM    5  N2  UNL     1      -1.272  -3.621  -1.051  1.00  0.00    -0.241 NA
HETATM    6  C9  UNL     1      -2.548  -3.194  -1.060  1.00  0.00     0.236 A 
HETATM    7  N3  UNL     1      -2.764  -1.963  -0.587  1.00  0.00    -0.224 NA
HETATM    8  C10 UNL     1      -1.844  -1.120  -0.109  1.00  0.00     0.142 A 
HETATM    9  C17 UNL     1      -0.554  -1.590  -0.116  1.00  0.00     0.041 A 
HETATM   10  C18 UNL     1       0.554  -0.905   0.324  1.00  0.00     0.047 A 
ENDROOT
BRANCH   8  11
HETATM   11  N4  UNL     1      -2.082   0.182   0.390  1.00  0.00    -0.340 N 
HETATM   12  H8  UNL     1      -1.323   0.779   0.747  1.00  0.00     0.167 HD
BRANCH  11  13
HETATM   13  C11 UNL     1      -3.297   0.897   0.503  1.00  0.00     0.035 A 
HETATM   14  C12 UNL     1      -3.443   2.176   1.033  1.00  0.00     0.031 A 
HETATM   15  C13 UNL     1      -4.642   2.835   1.123  1.00  0.00     0.028 A 
HETATM   16  C14 UNL     1      -5.804   2.247   0.680  1.00  0.00     0.055 A 
HETATM   17 CL1  UNL     1      -7.258   3.173   0.844  1.00  0.00    -0.083 Cl
HETATM   18  C15 UNL     1      -5.712   0.981   0.147  1.00  0.00     0.058 A 
HETATM   19 CL2  UNL     1      -7.216   0.287  -0.398  1.00  0.00    -0.082 Cl
HETATM   20  C16 UNL     1      -4.489   0.362   0.078  1.00  0.00     0.055 A 
ENDBRANCH  11  13
ENDBRANCH   8  11
BRANCH   1  21
HETATM   21  N1  UNL     1       2.945  -0.631   0.781  1.00  0.00    -0.316 N 
HETATM   22  C1  UNL     1       3.515   0.137  -0.269  1.00  0.00     0.301 C 
HETATM   23  O1  UNL     1       3.077   0.132  -1.466  1.00  0.00    -0.258 OA
HETATM   24  H4  UNL     1       3.369  -0.568   1.737  1.00  0.00     0.170 HD
BRANCH  22  25
HETATM   25  C2  UNL     1       4.664   1.009  -0.071  1.00  0.00    -0.003 C 
HETATM   26  C3  UNL     1       5.611   1.741   0.103  1.00  0.00    -0.071 C 
BRANCH  26  27
HETATM   27  C4  UNL     1       6.750   2.638   0.317  1.00  0.00     0.258 C 
BRANCH  27  28
HETATM   28  O2  UNL     1       7.741   1.864   0.927  1.00  0.00    -0.389 OA
HETATM   29  H3  UNL     1       8.148   1.212   0.309  1.00  0.00     0.210 HD
ENDBRANCH  27  28
ENDBRANCH  26  27
ENDBRANCH  22  25
ENDBRANCH   1  21
TORSDOF 6
