REMARK  4 active torsions:
REMARK  status: ('A' for Active; 'I' for Inactive)
REMARK    1  A    between atoms: C7_8  and  N1_9 
REMARK    2  A    between atoms: N1_9  and  C8_10 
REMARK    3  A    between atoms: C8_10  and  C9_11 
REMARK    4  A    between atoms: C10_12  and  C11_14 
ROOT
HETATM    1  C1  UNL     1      -5.506   0.517   0.155  1.00  0.00     0.025 C 
HETATM    2  C2  UNL     1      -4.454   0.356   0.907  1.00  0.00    -0.020 C 
HETATM    3  C3  UNL     1      -4.433  -0.127   2.317  1.00  0.00     0.025 C 
HETATM    4  C4  UNL     1      -3.310  -0.409   2.984  1.00  0.00    -0.021 C 
HETATM    5  C5  UNL     1      -2.343  -1.065   2.354  1.00  0.00     0.067 C 
HETATM    6  C6  UNL     1      -1.448  -1.100   1.159  1.00  0.00     0.211 C 
HETATM    7  O1  UNL     1      -0.860  -2.207   1.152  1.00  0.00    -0.288 OA
HETATM    8  C7  UNL     1      -1.170  -0.144   0.094  1.00  0.00     0.319 C 
HETATM    9  C14 UNL     1      -1.919   1.182   0.294  1.00  0.00     0.135 C 
HETATM   10  C15 UNL     1      -3.345   0.751   0.002  1.00  0.00     0.050 C 
HETATM   11  N2  UNL     1      -3.512   0.735  -1.276  1.00  0.00    -0.246 NA
HETATM   12  C16 UNL     1      -2.499  -0.076  -1.975  1.00  0.00     0.230 C 
HETATM   13  N3  UNL     1      -1.623  -0.635  -1.222  1.00  0.00    -0.233 NA
ENDROOT
BRANCH   8  14
HETATM   14  N1  UNL     1       0.196   0.228  -0.116  1.00  0.00     0.124 N 
HETATM   15  H5  UNL     1       0.635   0.784   0.627  1.00  0.00     0.320 HD
BRANCH  14  16
HETATM   16  C8  UNL     1       1.045  -0.876  -0.490  1.00  0.00     0.298 C 
BRANCH  16  17
HETATM   17  C9  UNL     1       2.365  -0.360  -0.871  1.00  0.00     0.146 A 
HETATM   18  C10 UNL     1       3.682  -0.204  -0.814  1.00  0.00     0.054 A 
HETATM   19 CL1  UNL     1       3.292  -1.315   0.471  1.00  0.00    -0.171 Cl
BRANCH  18  20
HETATM   20  C11 UNL     1       4.384   0.676  -1.743  1.00  0.00     0.130 C 
HETATM   21  F1  UNL     1       3.615   1.332  -2.624  1.00  0.00    -0.205 F 
HETATM   22  C12 UNL     1       5.667   0.764  -1.630  1.00  0.00     0.013 C 
HETATM   23  C13 UNL     1       6.602   0.110  -0.694  1.00  0.00     0.039 C 
ENDBRANCH  18  20
ENDBRANCH  16  17
ENDBRANCH  14  16
ENDBRANCH   8  14
TORSDOF 4
