REMARK  11 active torsions:
REMARK  status: ('A' for Active; 'I' for Inactive)
REMARK    1  A    between atoms: C5_7  and  C6_8 
REMARK    2  A    between atoms: C6_8  and  C7_9 
REMARK    3  A    between atoms: C7_9  and  O2_10 
REMARK    4  A    between atoms: O2_10  and  C8_11 
REMARK    5  A    between atoms: C10_13  and  N2_14 
REMARK    6  A    between atoms: N2_14  and  C11_15 
REMARK    7  A    between atoms: C12_16  and  C13_17 
REMARK    8  A    between atoms: C13_17  and  C14_18 
REMARK    9  A    between atoms: C14_18  and  C15_19 
REMARK   10  A    between atoms: C15_19  and  C16_21 
REMARK   11  A    between atoms: C16_21  and  N3_22 
ROOT
HETATM    1  C8  UNL     1       0.255   1.369  -0.759  1.00  0.00     0.079 A 
HETATM    2  C9  UNL     1       0.539   2.342   0.141  1.00  0.00     0.043 A 
HETATM    3  C10 UNL     1       1.970   1.994  -0.033  1.00  0.00     0.120 A 
HETATM    4  C17 UNL     1       2.695   2.458  -1.195  1.00  0.00     0.698 A 
HETATM    5  N4  UNL     1       2.375   1.556  -2.033  1.00  0.00     0.036 NA
HETATM    6  C18 UNL     1       1.575   0.909  -1.044  1.00  0.00     0.293 A 
ENDROOT
BRANCH   3   7
HETATM    7  N2  UNL     1       2.635   1.476   1.103  1.00  0.00    -0.385 N 
HETATM    8  H16 UNL     1       1.898   1.152   1.815  1.00  0.00     0.159 HD
BRANCH   7   9
HETATM    9  C11 UNL     1       3.467   1.017   2.085  1.00  0.00     0.066 C 
HETATM   10  C12 UNL     1       4.212  -0.086   2.419  1.00  0.00     0.059 C 
BRANCH  10  11
HETATM   11  C13 UNL     1       4.486  -1.439   1.762  1.00  0.00    -0.014 C 
BRANCH  11  12
HETATM   12  C14 UNL     1       5.256  -2.377   2.535  1.00  0.00     0.021 C 
BRANCH  12  13
HETATM   13  C15 UNL     1       5.838  -2.240   3.979  1.00  0.00     0.043 C 
HETATM   14 CL1  UNL     1       5.402  -0.572   4.421  1.00  0.00    -0.083 Cl
BRANCH  13  15
HETATM   15  C16 UNL     1       6.505  -3.407   4.477  1.00  0.00     0.078 C 
BRANCH  15  16
HETATM   16  N3  UNL     1       6.244  -4.119   3.219  1.00  0.00    -0.311 N 
HETATM   17  H22 UNL     1       7.011  -4.664   3.724  1.00  0.00     0.123 HD
HETATM   18  H23 UNL     1       7.033  -4.623   3.806  1.00  0.00     0.123 HD
ENDBRANCH  15  16
ENDBRANCH  13  15
ENDBRANCH  12  13
ENDBRANCH  11  12
ENDBRANCH  10  11
ENDBRANCH   7   9
ENDBRANCH   3   7
BRANCH   1  19
HETATM   19  O2  UNL     1      -1.124   1.166  -1.072  1.00  0.00    -0.353 OA
BRANCH  19  20
HETATM   20  C7  UNL     1      -1.698   0.119  -0.278  1.00  0.00     0.177 C 
BRANCH  20  21
HETATM   21  C6  UNL     1      -3.188   0.244  -0.290  1.00  0.00     0.062 C 
BRANCH  21  22
HETATM   22  C5  UNL     1      -3.709   0.165  -1.683  1.00  0.00     0.230 C 
HETATM   23  C2  UNL     1      -5.226   0.245  -1.658  1.00  0.00     0.039 C 
HETATM   24  C1  UNL     1      -5.845  -1.089  -1.368  1.00  0.00     0.014 C 
HETATM   25  C3  UNL     1      -5.623   0.762  -3.040  1.00  0.00     0.176 C 
HETATM   26  O1  UNL     1      -5.332   2.115  -3.071  1.00  0.00    -0.362 OA
HETATM   27  C4  UNL     1      -4.112   2.400  -2.446  1.00  0.00     0.438 C 
HETATM   28  N1  UNL     1      -3.241   1.259  -2.512  1.00  0.00     0.111 N 
HETATM   29  H9  UNL     1      -2.993   0.989  -3.476  1.00  0.00     0.319 HD
ENDBRANCH  21  22
ENDBRANCH  20  21
ENDBRANCH  19  20
ENDBRANCH   1  19
TORSDOF 11
