REMARK  7 active torsions:
REMARK  status: ('A' for Active; 'I' for Inactive)
REMARK    1  A    between atoms: C1_1  and  C10_14 
REMARK    2  A    between atoms: C2_2  and  C3_3 
REMARK    3  A    between atoms: C3_3  and  N1_4 
REMARK    4  A    between atoms: N1_4  and  C4_5 
REMARK    5  A    between atoms: C4_5  and  N2_6 
REMARK    6  A    between atoms: C10_14  and  C11_15 
REMARK    7  A    between atoms: C11_15  and  N5_16 
ROOT
HETATM    1  N1  UNL     1      -2.387   1.097   1.594  1.00  0.00    -0.395 N 
HETATM    2  H3  UNL     1      -2.689   1.460   2.482  1.00  0.00     0.155 HD
ENDROOT
BRANCH   1   3
HETATM    3  C3  UNL     1      -1.583  -0.065   1.520  1.00  0.00     0.210 C 
BRANCH   3   4
HETATM    4  C2  UNL     1      -0.212   0.217   1.017  1.00  0.00    -0.087 C 
HETATM    5  C1  UNL     1       0.911   0.468   0.615  1.00  0.00    -0.103 C 
BRANCH   5   6
HETATM    6  C10 UNL     1       2.260   0.763   0.130  1.00  0.00     0.124 C 
BRANCH   6   7
HETATM    7  C11 UNL     1       3.214  -0.189   0.768  1.00  0.00     0.284 C 
BRANCH   7   8
HETATM    8  N5  UNL     1       4.571   0.018   0.361  1.00  0.00     0.089 N 
HETATM    9  C12 UNL     1       4.817  -0.304  -1.017  1.00  0.00     0.272 C 
HETATM   10  C13 UNL     1       6.188   0.141  -1.433  1.00  0.00     0.030 C 
HETATM   11  C14 UNL     1       7.218   0.189  -0.385  1.00  0.00     0.003 C 
HETATM   12  C15 UNL     1       6.837  -0.249   0.993  1.00  0.00     0.030 C 
HETATM   13  C16 UNL     1       5.461  -0.854   1.108  1.00  0.00     0.272 C 
ENDBRANCH   7   8
ENDBRANCH   6   7
ENDBRANCH   5   6
ENDBRANCH   3   4
ENDBRANCH   1   3
BRANCH   1  14
HETATM   14  C4  UNL     1      -2.762   1.723   0.386  1.00  0.00     0.268 C 
BRANCH  14  15
HETATM   15  N2  UNL     1      -3.484   0.953  -0.563  1.00  0.00    -0.258 NA
HETATM   16  C5  UNL     1      -4.576   0.336  -0.365  1.00  0.00     0.101 C 
HETATM   17  C6  UNL     1      -5.010  -0.357  -1.618  1.00  0.00     0.080 C 
HETATM   18  N4  UNL     1      -5.326   0.279   0.844  1.00  0.00    -0.340 N 
HETATM   19  C7  UNL     1      -6.429   0.076  -1.924  1.00  0.00     0.029 C 
HETATM   20  C8  UNL     1      -7.447  -0.785  -1.248  1.00  0.00     0.150 C 
HETATM   21  N3  UNL     1      -7.578  -0.387   0.134  1.00  0.00    -0.285 NA
HETATM   22  C9  UNL     1      -6.722   0.046   0.988  1.00  0.00     0.202 C 
HETATM   23  H13 UNL     1      -4.671   0.440   1.655  1.00  0.00     0.168 HD
ENDBRANCH  14  15
ENDBRANCH   1  14
TORSDOF 7
