REMARK  4 active torsions:
REMARK  status: ('A' for Active; 'I' for Inactive)
REMARK    1  A    between atoms: C2_2  and  O1_3 
REMARK    2  A    between atoms: O1_3  and  C3_4 
REMARK    3  A    between atoms: C4_5  and  C5_6 
REMARK    4  A    between atoms: N3_17  and  C13_18 
ROOT
HETATM    1  C5  UNL     1       3.199   1.331  -0.475  1.00  0.00     0.072 A 
HETATM    2  N1  UNL     1       3.731   2.534  -0.693  1.00  0.00    -0.241 NA
HETATM    3  C6  UNL     1       2.940   3.610  -0.568  1.00  0.00     0.235 A 
HETATM    4  N2  UNL     1       1.625   3.468  -0.227  1.00  0.00    -0.224 NA
HETATM    5  C7  UNL     1       1.061   2.245   0.000  1.00  0.00     0.140 A 
HETATM    6  C8  UNL     1       1.895   1.157  -0.134  1.00  0.00     0.040 A 
HETATM    7  C9  UNL     1       1.093  -0.092   0.150  1.00  0.00     0.212 C 
HETATM    8  O2  UNL     1      -0.067  -0.058  -0.590  1.00  0.00    -0.386 OA
HETATM    9  C10 UNL     1      -0.848  -1.165  -0.291  1.00  0.00     0.169 C 
HETATM   10  C11 UNL     1      -1.094  -1.142   1.175  1.00  0.00     0.046 C 
HETATM   11  C12 UNL     1      -2.287  -1.970   1.546  1.00  0.00     0.121 C 
HETATM   12  N3  UNL     1      -3.548  -1.477   1.221  1.00  0.00    -0.392 N 
HETATM   13  C15 UNL     1      -3.757  -0.452   0.286  1.00  0.00     0.295 C 
HETATM   14  O3  UNL     1      -2.851   0.595   0.553  1.00  0.00    -0.330 OA
HETATM   15  C16 UNL     1      -2.709   1.760  -0.130  1.00  0.00     0.100 A 
HETATM   16  C17 UNL     1      -3.818   2.157  -0.831  1.00  0.00     0.083 A 
HETATM   17  C18 UNL     1      -3.922   3.298  -1.597  1.00  0.00     0.140 A 
HETATM   18  F1  UNL     1      -5.059   3.635  -2.272  1.00  0.00    -0.204 F 
HETATM   19  C19 UNL     1      -2.849   4.156  -1.705  1.00  0.00     0.074 A 
HETATM   20 CL1  UNL     1      -2.969   5.590  -2.664  1.00  0.00    -0.081 Cl
HETATM   21  C20 UNL     1      -1.717   3.739  -0.982  1.00  0.00     0.059 A 
HETATM   22  C21 UNL     1      -1.603   2.574  -0.198  1.00  0.00     0.069 A 
HETATM   23  N4  UNL     1      -0.277   2.602   0.312  1.00  0.00    -0.338 N 
HETATM   24  H26 UNL     1      -0.520   3.087   1.200  1.00  0.00     0.167 HD
ENDROOT
BRANCH   1  25
HETATM   25  C4  UNL     1       3.948   0.099  -0.579  1.00  0.00     0.056 C 
HETATM   26  C3  UNL     1       5.203   0.220  -0.909  1.00  0.00     0.137 C 
BRANCH  26  27
HETATM   27  O1  UNL     1       6.074  -0.850  -1.056  1.00  0.00    -0.363 OA
BRANCH  27  28
HETATM   28  C2  UNL     1       6.427  -1.699   0.020  1.00  0.00     0.170 C 
HETATM   29  C1  UNL     1       7.322  -2.814  -0.498  1.00  0.00     0.034 C 
ENDBRANCH  27  28
ENDBRANCH  26  27
ENDBRANCH   1  25
BRANCH  12  30
HETATM   30  C13 UNL     1      -4.613  -2.325   1.569  1.00  0.00     0.114 C 
HETATM   31  C14 UNL     1      -4.678  -3.600   0.770  1.00  0.00     0.026 C 
ENDBRANCH  12  30
TORSDOF 4
