REMARK  8 active torsions:
REMARK  status: ('A' for Active; 'I' for Inactive)
REMARK    1  A    between atoms: O1_2  and  C2_3 
REMARK    2  A    between atoms: C2_3  and  C3_5 
REMARK    3  A    between atoms: C7_10  and  C8_11 
REMARK    4  A    between atoms: C9_12  and  B1_13 
REMARK    5  A    between atoms: B1_13  and  C10_14 
REMARK    6  A    between atoms: C10_14  and  C11_15 
REMARK    7  A    between atoms: C14_19  and  C15_20 
REMARK    8  A    between atoms: C15_20  and  N2_21 
ROOT
HETATM    1  C3  UNL     1      -1.232   3.386   0.312  1.00  0.00     0.105 C 
HETATM    2  C4  UNL     1      -0.382   4.268   0.875  1.00  0.00     0.036 C 
HETATM    3  C5  UNL     1       1.085   4.086   0.900  1.00  0.00     0.003 C 
HETATM    4  C6  UNL     1       2.259   3.499   0.668  1.00  0.00     0.131 C 
HETATM    5  N1  UNL     1       2.807   2.317   0.032  1.00  0.00    -0.380 N 
HETATM    6  C7  UNL     1       2.531   0.924  -0.320  1.00  0.00     0.023 C 
HETATM    7  C12 UNL     1       1.492   0.127  -0.390  1.00  0.00     0.003 C 
HETATM    8  C13 UNL     1       0.301  -0.695  -0.443  1.00  0.00     0.037 C 
HETATM    9  C14 UNL     1      -0.995  -0.175   0.044  1.00  0.00     0.031 C 
HETATM   10  C20 UNL     1      -1.448   1.098  -0.543  1.00  0.00     0.182 C 
HETATM   11  O3  UNL     1      -0.682   2.234  -0.264  1.00  0.00    -0.350 OA
HETATM   12  H8  UNL     1       3.738   2.654  -0.266  1.00  0.00     0.160 HD
ENDROOT
BRANCH   9  13
HETATM   13  C15 UNL     1      -2.119  -1.195  -0.131  1.00  0.00     0.124 C 
BRANCH  13  14
HETATM   14  N2  UNL     1      -1.798  -2.385   0.613  1.00  0.00    -0.408 N 
HETATM   15  C16 UNL     1      -1.815  -2.199   2.028  1.00  0.00     0.143 C 
HETATM   16  C17 UNL     1      -2.552  -3.288   2.761  1.00  0.00     0.187 C 
HETATM   17  O2  UNL     1      -3.776  -3.447   2.081  1.00  0.00    -0.388 OA
HETATM   18  C18 UNL     1      -3.498  -4.162   0.922  1.00  0.00     0.187 C 
HETATM   19  C19 UNL     1      -2.376  -3.591   0.126  1.00  0.00     0.143 C 
ENDBRANCH  13  14
ENDBRANCH   9  13
BRANCH   6  20
HETATM   20  C8  UNL     1       3.669   0.156  -0.692  1.00  0.00     0.013 C 
HETATM   21  C9  UNL     1       3.497  -1.096  -1.018  1.00  0.00    -0.080 C 
BRANCH  21  22
HETATM   22  B1  UNL     1       4.830  -2.109  -1.485  1.00  0.00     0.196 B 
BRANCH  22  23
HETATM   23  C10 UNL     1       6.262  -3.263  -1.607  1.00  0.00    -0.078 C 
BRANCH  23  24
HETATM   24  C11 UNL     1       6.775  -3.897  -0.390  1.00  0.00     0.234 C 
HETATM   25  F2  UNL     1       8.174  -3.886  -0.327  1.00  0.00    -0.253 F 
ENDBRANCH  23  24
ENDBRANCH  22  23
ENDBRANCH  21  22
ENDBRANCH   6  20
BRANCH   1  26
HETATM   26  C2  UNL     1      -2.671   3.783   0.400  1.00  0.00     0.364 C 
HETATM   27  F1  UNL     1      -3.417   2.876   1.143  1.00  0.00    -0.212 F 
BRANCH  26  28
HETATM   28  O1  UNL     1      -2.796   5.067   0.929  1.00  0.00    -0.356 OA
HETATM   29  C1  UNL     1      -3.330   5.963   0.009  1.00  0.00     0.205 C 
ENDBRANCH  26  28
ENDBRANCH   1  26
TORSDOF 8
