REMARK  8 active torsions:
REMARK  status: ('A' for Active; 'I' for Inactive)
REMARK    1  A    between atoms: C2_2  and  O1_3 
REMARK    2  A    between atoms: O1_3  and  C3_4 
REMARK    3  A    between atoms: C7_10  and  N3_11 
REMARK    4  A    between atoms: N3_11  and  C8_12 
REMARK    5  A    between atoms: C16_22  and  C17_23 
REMARK    6  A    between atoms: C17_23  and  C18_24 
REMARK    7  A    between atoms: C18_24  and  C19_25 
REMARK    8  A    between atoms: C19_25  and  N4_26 
ROOT
HETATM    1  C3  UNL     1      -0.376   2.495   0.202  1.00  0.00     0.077 A 
HETATM    2  C4  UNL     1       0.844   3.028   0.604  1.00  0.00     0.070 A 
HETATM    3  C5  UNL     1       1.978   2.247   0.607  1.00  0.00     0.074 A 
HETATM    4  N1  UNL     1       3.104   2.847   1.008  1.00  0.00    -0.241 NA
HETATM    5  C6  UNL     1       4.268   2.181   1.050  1.00  0.00     0.236 A 
HETATM    6  N2  UNL     1       4.237   0.901   0.672  1.00  0.00    -0.224 NA
HETATM    7  C7  UNL     1       3.166   0.218   0.259  1.00  0.00     0.142 A 
HETATM    8  C14 UNL     1       1.991   0.929   0.228  1.00  0.00     0.039 A 
HETATM    9  C15 UNL     1       0.775   0.443  -0.159  1.00  0.00     0.027 A 
HETATM   10  C16 UNL     1      -0.390   1.151  -0.190  1.00  0.00    -0.024 A 
ENDROOT
BRANCH   7  11
HETATM   11  N3  UNL     1       3.142  -1.140  -0.141  1.00  0.00    -0.340 N 
HETATM   12  H8  UNL     1       2.276  -1.606  -0.435  1.00  0.00     0.167 HD
BRANCH  11  13
HETATM   13  C8  UNL     1       4.192  -2.089  -0.225  1.00  0.00     0.035 A 
HETATM   14  C9  UNL     1       4.069  -3.425  -0.562  1.00  0.00     0.032 A 
HETATM   15  C10 UNL     1       5.130  -4.292  -0.629  1.00  0.00     0.046 A 
HETATM   16  C11 UNL     1       6.412  -3.872  -0.357  1.00  0.00     0.138 A 
HETATM   17  F1  UNL     1       7.355  -4.833  -0.462  1.00  0.00    -0.204 F 
HETATM   18  C12 UNL     1       6.584  -2.547  -0.016  1.00  0.00     0.074 A 
HETATM   19 CL1  UNL     1       8.233  -2.067   0.319  1.00  0.00    -0.081 Cl
HETATM   20  C13 UNL     1       5.490  -1.711   0.039  1.00  0.00     0.056 A 
ENDBRANCH  11  13
ENDBRANCH   7  11
BRANCH  10  21
HETATM   21  C17 UNL     1      -1.697   0.644  -0.601  1.00  0.00     0.043 C 
BRANCH  21  22
HETATM   22  C18 UNL     1      -1.750  -0.777  -1.035  1.00  0.00     0.035 C 
BRANCH  22  23
HETATM   23  C19 UNL     1      -3.208  -1.062  -1.411  1.00  0.00     0.275 C 
BRANCH  23  24
HETATM   24  N4  UNL     1      -4.077  -0.850  -0.280  1.00  0.00     0.113 N 
HETATM   25  C20 UNL     1      -3.918  -1.788   0.787  1.00  0.00     0.301 C 
HETATM   26  C21 UNL     1      -5.124  -2.686   0.595  1.00  0.00     0.200 C 
HETATM   27  O2  UNL     1      -6.090  -1.818   0.137  1.00  0.00    -0.361 OA
HETATM   28  C22 UNL     1      -5.452  -0.905  -0.701  1.00  0.00     0.440 C 
ENDBRANCH  23  24
ENDBRANCH  22  23
ENDBRANCH  21  22
ENDBRANCH  10  21
BRANCH   1  29
HETATM   29  O1  UNL     1      -1.501   3.281   0.202  1.00  0.00    -0.351 OA
BRANCH  29  30
HETATM   30  C2  UNL     1      -1.594   4.622   0.572  1.00  0.00     0.171 C 
HETATM   31  C1  UNL     1      -3.052   5.044   0.398  1.00  0.00     0.034 C 
ENDBRANCH  29  30
ENDBRANCH   1  29
TORSDOF 8
