REMARK  7 active torsions:
REMARK  status: ('A' for Active; 'I' for Inactive)
REMARK    1  A    between atoms: C2_2  and  N1_4 
REMARK    2  A    between atoms: N1_4  and  C4_5 
REMARK    3  A    between atoms: N1_4  and  C19_28 
REMARK    4  A    between atoms: C4_5  and  C5_6 
REMARK       I    between atoms: C5_6  and  N2_8 
REMARK    5  A    between atoms: N2_8  and  C6_9 
REMARK    6  A    between atoms: C9_12  and  N3_13 
REMARK    7  A    between atoms: N3_13  and  C10_14 
ROOT
HETATM    1  C6  UNL     1       0.610  -0.685   1.121  1.00  0.00     0.129 C 
HETATM    2  C7  UNL     1       1.382   0.392   0.735  1.00  0.00     0.054 C 
HETATM    3  C8  UNL     1       2.662   0.412   0.222  1.00  0.00     0.054 C 
HETATM    4  C9  UNL     1       3.129   0.940  -0.967  1.00  0.00     0.129 C 
HETATM    5  N4  UNL     1       2.740   0.532  -2.191  1.00  0.00    -0.225 NA
HETATM    6  C16 UNL     1       2.727  -0.783  -2.505  1.00  0.00     0.234 C 
HETATM    7  N5  UNL     1       2.075  -1.869  -2.049  1.00  0.00    -0.253 NA
HETATM    8  C17 UNL     1       2.401  -2.495  -0.896  1.00  0.00     0.137 C 
HETATM    9  C18 UNL     1       1.553  -2.643   0.200  1.00  0.00     0.138 C 
HETATM   10  N6  UNL     1       1.391  -1.796   1.234  1.00  0.00    -0.242 NA
ENDROOT
BRANCH   1  11
HETATM   11  N2  UNL     1      -0.771  -0.299   1.281  1.00  0.00    -0.310 N 
HETATM   12  C5  UNL     1      -1.709  -0.388   0.183  1.00  0.00     0.251 C 
HETATM   13  O1  UNL     1      -0.892  -0.840  -0.680  1.00  0.00    -0.271 OA
HETATM   14  H10 UNL     1      -0.779   0.001   2.310  1.00  0.00     0.170 HD
BRANCH  12  15
HETATM   15  C4  UNL     1      -3.026   0.081   0.674  1.00  0.00     0.375 C 
BRANCH  15  16
HETATM   16  N1  UNL     1      -4.090   0.068  -0.263  1.00  0.00     0.105 N 
BRANCH  16  17
HETATM   17  C2  UNL     1      -4.588  -1.194  -0.671  1.00  0.00     0.216 C 
HETATM   18  C1  UNL     1      -5.041  -2.064   0.483  1.00  0.00     0.042 C 
HETATM   19  C3  UNL     1      -3.650  -1.986  -1.529  1.00  0.00     0.042 C 
ENDBRANCH  16  17
BRANCH  16  20
HETATM   20  C19 UNL     1      -5.130   0.994   0.145  1.00  0.00     0.216 C 
HETATM   21  C20 UNL     1      -6.136   1.217  -0.969  1.00  0.00     0.042 C 
HETATM   22  C21 UNL     1      -4.558   2.356   0.483  1.00  0.00     0.042 C 
ENDBRANCH  16  20
ENDBRANCH  15  16
ENDBRANCH  12  15
ENDBRANCH   1  11
BRANCH   4  23
HETATM   23  N3  UNL     1       3.999   1.886  -0.362  1.00  0.00    -0.341 N 
HETATM   24  H13 UNL     1       3.651   2.850  -0.133  1.00  0.00     0.167 HD
BRANCH  23  25
HETATM   25  C10 UNL     1       5.345   1.539  -0.061  1.00  0.00     0.035 A 
HETATM   26  C11 UNL     1       5.855   0.304  -0.368  1.00  0.00     0.032 A 
HETATM   27  C12 UNL     1       7.162  -0.050  -0.081  1.00  0.00     0.046 A 
HETATM   28  C13 UNL     1       8.004   0.876   0.545  1.00  0.00     0.138 A 
HETATM   29  F1  UNL     1       9.308   0.631   0.874  1.00  0.00    -0.204 F 
HETATM   30  C14 UNL     1       7.482   2.120   0.852  1.00  0.00     0.074 A 
HETATM   31 CL1  UNL     1       8.453   3.360   1.641  1.00  0.00    -0.081 Cl
HETATM   32  C15 UNL     1       6.175   2.454   0.557  1.00  0.00     0.056 A 
ENDBRANCH  23  25
ENDBRANCH   4  23
TORSDOF 7
