REMARK  4 active torsions:
REMARK  status: ('A' for Active; 'I' for Inactive)
REMARK    1  A    between atoms: C3_3  and  C4_4 
REMARK    2  A    between atoms: C14_18  and  O3_19 
REMARK    3  A    between atoms: O3_19  and  C15_20 
REMARK    4  A    between atoms: C15_20  and  N2_21 
ROOT
HETATM    1  C4  UNL     1       3.152  -0.126   0.068  1.00  0.00     0.071 A 
HETATM    2  C5  UNL     1       2.153  -0.907  -0.298  1.00  0.00     0.064 A 
HETATM    3  C6  UNL     1       0.765  -0.407  -0.394  1.00  0.00     0.060 A 
HETATM    4  C7  UNL     1      -0.013  -1.396  -0.739  1.00  0.00     0.164 C 
HETATM    5  O1  UNL     1      -0.940  -2.361  -1.102  1.00  0.00    -0.361 OA
HETATM    6  C8  UNL     1      -1.959  -2.727  -0.131  1.00  0.00     0.176 C 
HETATM    7  C9  UNL     1      -2.711  -3.929  -0.494  1.00  0.00     0.046 C 
HETATM    8  C10 UNL     1      -3.765  -4.272   0.517  1.00  0.00     0.120 C 
HETATM    9  N1  UNL     1      -4.880  -3.440   0.604  1.00  0.00    -0.398 N 
HETATM   10  P1  UNL     1      -4.739  -1.736   0.979  1.00  0.00    -0.010 P 
HETATM   11  C11 UNL     1      -5.240  -0.701  -0.478  1.00  0.00     0.220 C 
HETATM   12  O2  UNL     1      -4.810   0.593  -0.479  1.00  0.00    -0.385 OA
HETATM   13  C12 UNL     1      -3.430   0.719  -0.446  1.00  0.00     0.170 C 
HETATM   14  C13 UNL     1      -3.070   2.196  -0.612  1.00  0.00     0.061 C 
HETATM   15  C14 UNL     1      -1.605   2.431  -0.587  1.00  0.00     0.072 C 
HETATM   16  C16 UNL     1      -0.939   1.290  -0.267  1.00  0.00     0.222 C 
HETATM   17  N3  UNL     1       0.426   0.930  -0.102  1.00  0.00    -0.330 N 
HETATM   18  C17 UNL     1       1.628   1.634   0.280  1.00  0.00     0.211 A 
HETATM   19  N4  UNL     1       2.827   1.206   0.365  1.00  0.00    -0.243 NA
HETATM   20  H12 UNL     1      -5.601  -3.610  -0.120  1.00  0.00     0.158 HD
HETATM   21  H13 UNL     1      -5.424  -1.338   2.196  1.00  0.00     0.082 HD
ENDROOT
BRANCH   1  22
HETATM   22  C3  UNL     1       4.569  -0.422   0.221  1.00  0.00     0.001 A 
HETATM   23  C2  UNL     1       5.532   0.494   0.603  1.00  0.00    -0.025 A 
HETATM   24  C1  UNL     1       5.147   1.880   0.879  1.00  0.00     0.051 C 
HETATM   25  C21 UNL     1       6.820   0.028   0.695  1.00  0.00     0.079 A 
HETATM   26  C20 UNL     1       7.243  -1.255   0.446  1.00  0.00     0.138 A 
HETATM   27 CL1  UNL     1       8.029   1.216   1.182  1.00  0.00    -0.080 Cl
HETATM   28  C19 UNL     1       6.249  -2.133   0.068  1.00  0.00     0.045 A 
HETATM   29  F1  UNL     1       8.541  -1.609   0.571  1.00  0.00    -0.204 F 
HETATM   30  C18 UNL     1       4.908  -1.746  -0.052  1.00  0.00     0.017 A 
ENDBRANCH   1  22
BRANCH  15  31
HETATM   31  O3  UNL     1      -1.678   3.825  -0.935  1.00  0.00    -0.355 OA
BRANCH  31  32
HETATM   32  C15 UNL     1      -1.125   4.788  -0.070  1.00  0.00     0.434 C 
BRANCH  32  33
HETATM   33  N2  UNL     1      -1.235   6.122  -0.563  1.00  0.00     0.101 N 
HETATM   34  H22 UNL     1      -2.052   6.629  -0.115  1.00  0.00     0.315 HD
HETATM   35  H23 UNL     1      -0.398   6.658  -0.188  1.00  0.00     0.315 HD
ENDBRANCH  32  33
ENDBRANCH  31  32
ENDBRANCH  15  31
TORSDOF 4
