REMARK  7 active torsions:
REMARK  status: ('A' for Active; 'I' for Inactive)
REMARK    1  A    between atoms: C2_2  and  N1_4 
REMARK    2  A    between atoms: N1_4  and  C4_5 
REMARK    3  A    between atoms: N1_4  and  C20_29 
REMARK    4  A    between atoms: C4_5  and  C5_6 
REMARK    5  A    between atoms: C6_7  and  C7_8 
REMARK       I    between atoms: C7_8  and  N2_10 
REMARK    6  A    between atoms: N2_10  and  C8_11 
REMARK    7  A    between atoms: N5_18  and  C13_19 
ROOT
HETATM    1  C8  UNL     1       1.850   0.654   1.314  1.00  0.00     0.129 C 
HETATM    2  C9  UNL     1       3.041   0.547   0.697  1.00  0.00     0.057 C 
HETATM    3  C10 UNL     1       4.065   1.344   1.392  1.00  0.00     0.190 A 
HETATM    4  C11 UNL     1       3.753   1.460   2.814  1.00  0.00     0.082 A 
HETATM    5  N3  UNL     1       4.709   1.364   3.710  1.00  0.00    -0.241 NA
HETATM    6  C12 UNL     1       6.065   1.132   3.359  1.00  0.00     0.255 A 
HETATM    7  N4  UNL     1       6.334   1.007   2.119  1.00  0.00    -0.164 NA
HETATM    8  N5  UNL     1       5.421   1.070   1.076  1.00  0.00    -0.254 N 
HETATM    9  C19 UNL     1       2.431   1.594   3.402  1.00  0.00     0.148 C 
HETATM   10  N6  UNL     1       1.472   1.156   2.601  1.00  0.00    -0.241 NA
ENDROOT
BRANCH   1  11
HETATM   11  N2  UNL     1       0.630   0.009   0.868  1.00  0.00    -0.301 N 
HETATM   12  C7  UNL     1      -0.216  -0.936   1.526  1.00  0.00     0.302 C 
HETATM   13  O1  UNL     1       0.021  -1.360   2.680  1.00  0.00    -0.258 OA
HETATM   14  H10 UNL     1       0.444   0.373  -0.098  1.00  0.00     0.171 HD
BRANCH  12  15
HETATM   15  C6  UNL     1      -1.362  -1.374   0.782  1.00  0.00    -0.004 C 
HETATM   16  C5  UNL     1      -2.337  -1.726   0.159  1.00  0.00    -0.077 C 
BRANCH  16  17
HETATM   17  C4  UNL     1      -3.545  -2.142  -0.589  1.00  0.00     0.212 C 
BRANCH  17  18
HETATM   18  N1  UNL     1      -4.526  -1.091  -0.456  1.00  0.00    -0.395 N 
BRANCH  18  19
HETATM   19  C2  UNL     1      -4.200   0.106  -1.110  1.00  0.00     0.072 C 
HETATM   20  C1  UNL     1      -4.047   0.062  -2.603  1.00  0.00     0.031 C 
HETATM   21  C3  UNL     1      -4.968   1.336  -0.680  1.00  0.00     0.031 C 
ENDBRANCH  18  19
BRANCH  18  22
HETATM   22  C20 UNL     1      -5.818  -1.638  -0.501  1.00  0.00     0.072 C 
HETATM   23  C21 UNL     1      -6.943  -0.821   0.047  1.00  0.00     0.031 C 
HETATM   24  C22 UNL     1      -6.263  -2.198  -1.821  1.00  0.00     0.031 C 
ENDBRANCH  18  22
ENDBRANCH  17  18
ENDBRANCH  16  17
ENDBRANCH  12  15
ENDBRANCH   1  11
BRANCH   8  25
HETATM   25  C13 UNL     1       5.904   0.856  -0.240  1.00  0.00     0.056 A 
HETATM   26  C14 UNL     1       5.192   1.083  -1.387  1.00  0.00     0.034 A 
HETATM   27  C15 UNL     1       5.655   0.868  -2.668  1.00  0.00     0.046 A 
HETATM   28  C16 UNL     1       6.957   0.379  -2.797  1.00  0.00     0.138 A 
HETATM   29  F1  UNL     1       7.501   0.135  -4.012  1.00  0.00    -0.204 F 
HETATM   30  C17 UNL     1       7.748   0.121  -1.691  1.00  0.00     0.074 A 
HETATM   31 CL1  UNL     1       9.380  -0.492  -1.843  1.00  0.00    -0.081 Cl
HETATM   32  C18 UNL     1       7.186   0.371  -0.461  1.00  0.00     0.058 A 
ENDBRANCH   8  25
TORSDOF 7
