REMARK  6 active torsions:
REMARK  status: ('A' for Active; 'I' for Inactive)
REMARK    1  A    between atoms: C2_2  and  C4_4 
REMARK    2  A    between atoms: C4_4  and  C5_5 
REMARK    3  A    between atoms: C5_5  and  C7_7 
REMARK       I    between atoms: C7_7  and  N1_9 
REMARK    4  A    between atoms: N1_9  and  C8_10 
REMARK    5  A    between atoms: C13_17  and  N4_18 
REMARK    6  A    between atoms: N4_18  and  C14_19 
ROOT
HETATM    1  C8  UNL     1       0.191   0.799   0.325  1.00  0.00     0.141 A 
HETATM    2  C9  UNL     1       1.376   0.259   0.520  1.00  0.00     0.037 A 
HETATM    3  C10 UNL     1       2.415   1.009   0.754  1.00  0.00     0.031 A 
HETATM    4  C11 UNL     1       2.301   2.462   0.807  1.00  0.00     0.086 A 
HETATM    5  N2  UNL     1       3.327   3.223   1.039  1.00  0.00    -0.240 NA
HETATM    6  C12 UNL     1       4.590   2.560   1.242  1.00  0.00     0.230 A 
HETATM    7  N3  UNL     1       4.782   1.272   1.211  1.00  0.00    -0.252 NA
HETATM    8  C13 UNL     1       3.710   0.334   0.961  1.00  0.00     0.244 A 
HETATM    9  C19 UNL     1       0.966   3.025   0.586  1.00  0.00     0.151 A 
HETATM   10  N5  UNL     1      -0.012   2.206   0.360  1.00  0.00    -0.240 NA
ENDROOT
BRANCH   1  11
HETATM   11  N1  UNL     1      -0.911  -0.062   0.074  1.00  0.00    -0.311 N 
HETATM   12  C7  UNL     1      -2.213   0.476  -0.143  1.00  0.00     0.227 C 
HETATM   13  O1  UNL     1      -2.428   1.722  -0.119  1.00  0.00    -0.273 OA
HETATM   14  H14 UNL     1      -0.797  -1.095   0.042  1.00  0.00     0.170 HD
BRANCH  12  15
HETATM   15  C5  UNL     1      -3.403  -0.418  -0.412  1.00  0.00     0.074 C 
HETATM   16  C6  UNL     1      -3.517  -1.323   0.784  1.00  0.00     0.020 C 
BRANCH  15  17
HETATM   17  C4  UNL     1      -4.571   0.466  -0.586  1.00  0.00     0.017 C 
BRANCH  17  18
HETATM   18  C2  UNL     1      -5.906  -0.140  -0.804  1.00  0.00    -0.022 C 
HETATM   19  C1  UNL     1      -6.456  -1.024   0.254  1.00  0.00     0.009 C 
HETATM   20  C3  UNL     1      -6.881   1.026  -1.059  1.00  0.00     0.009 C 
ENDBRANCH  17  18
ENDBRANCH  15  17
ENDBRANCH  12  15
ENDBRANCH   1  11
BRANCH   8  21
HETATM   21  N4  UNL     1       4.067  -0.487  -0.189  1.00  0.00    -0.365 N 
HETATM   22  H17 UNL     1       3.738  -0.783  -1.131  1.00  0.00     0.162 HD
BRANCH  21  23
HETATM   23  C14 UNL     1       5.317  -1.164  -0.038  1.00  0.00     0.032 A 
HETATM   24  C15 UNL     1       5.352  -2.164   0.857  1.00  0.00     0.029 A 
HETATM   25  C16 UNL     1       6.714  -2.724   0.859  1.00  0.00     0.042 A 
HETATM   26  C17 UNL     1       7.445  -2.058  -0.017  1.00  0.00     0.118 A 
HETATM   27  F1  UNL     1       8.738  -2.089  -0.470  1.00  0.00    -0.209 F 
HETATM   28  C18 UNL     1       6.645  -0.996  -0.685  1.00  0.00     0.193 A 
HETATM   29 CL1  UNL     1       6.607  -1.352  -2.425  1.00  0.00    -0.111 Cl
ENDBRANCH  21  23
ENDBRANCH   8  21
TORSDOF 6
