REMARK  7 active torsions:
REMARK  status: ('A' for Active; 'I' for Inactive)
REMARK    1  A    between atoms: C4_5  and  O1_6 
REMARK    2  A    between atoms: O1_6  and  C5_7 
REMARK    3  A    between atoms: C12_18  and  N4_19 
REMARK    4  A    between atoms: N4_19  and  C13_20 
REMARK    5  A    between atoms: C13_20  and  C14_21 
REMARK    6  A    between atoms: C15_22  and  C16_23 
REMARK    7  A    between atoms: C16_23  and  N5_24 
ROOT
HETATM    1  C5  UNL     1      -7.338  -0.499  -2.693  1.00  0.00     0.156 C 
HETATM    2  C6  UNL     1      -7.189   0.812  -2.890  1.00  0.00     0.242 C 
HETATM    3 CL1  UNL     1      -7.121   2.537  -3.203  1.00  0.00    -0.228 Cl
ENDROOT
BRANCH   1   4
HETATM    4  O1  UNL     1      -6.300  -1.255  -2.126  1.00  0.00    -0.305 OA
BRANCH   4   5
HETATM    5  C4  UNL     1      -6.145  -1.050  -0.727  1.00  0.00     0.147 C 
HETATM    6  C3  UNL     1      -4.895  -1.451  -0.866  1.00  0.00     0.059 C 
HETATM    7  C2  UNL     1      -3.780  -1.612   0.101  1.00  0.00     0.042 C 
HETATM    8  C1  UNL     1      -2.629  -1.839   0.767  1.00  0.00     0.099 C 
HETATM    9  F1  UNL     1      -2.172  -1.739   2.071  1.00  0.00    -0.210 F 
HETATM   10  C21 UNL     1      -1.420  -2.379   0.112  1.00  0.00     0.126 C 
HETATM   11  C12 UNL     1      -0.293  -1.391   0.150  1.00  0.00     0.009 C 
HETATM   12  C11 UNL     1      -0.200  -0.074   0.427  1.00  0.00     0.009 C 
HETATM   13  C10 UNL     1      -1.589   0.434   0.617  1.00  0.00     0.063 C 
HETATM   14  C9  UNL     1      -2.134   1.641   0.906  1.00  0.00     0.100 C 
HETATM   15  N3  UNL     1      -3.523   1.514   0.955  1.00  0.00    -0.257 NA
HETATM   16  C8  UNL     1      -4.380   1.892   1.806  1.00  0.00     0.233 C 
HETATM   17  N2  UNL     1      -5.119   1.223   0.751  1.00  0.00    -0.237 NA
HETATM   18  C7  UNL     1      -5.867   0.267   1.087  1.00  0.00     0.210 C 
HETATM   19  N1  UNL     1      -6.731  -0.650   0.519  1.00  0.00    -0.331 N 
HETATM   20  H5  UNL     1      -7.348  -1.319   0.091  1.00  0.00     0.168 HD
BRANCH  11  21
HETATM   21  N4  UNL     1       0.898  -2.165  -0.097  1.00  0.00    -0.383 N 
HETATM   22  H11 UNL     1       0.917  -2.893  -0.882  1.00  0.00     0.160 HD
BRANCH  21  23
HETATM   23  C13 UNL     1       2.224  -2.197   0.508  1.00  0.00     0.214 C 
BRANCH  23  24
HETATM   24  C14 UNL     1       3.024  -1.014   0.211  1.00  0.00    -0.085 C 
HETATM   25  C15 UNL     1       3.709  -0.039  -0.037  1.00  0.00    -0.075 C 
BRANCH  25  26
HETATM   26  C16 UNL     1       4.549   1.120  -0.347  1.00  0.00     0.366 C 
BRANCH  26  27
HETATM   27  N5  UNL     1       5.446   1.336   0.775  1.00  0.00     0.103 N 
HETATM   28  C17 UNL     1       6.297   2.467   0.517  1.00  0.00     0.299 C 
HETATM   29  C18 UNL     1       7.565   2.117  -0.191  1.00  0.00     0.198 C 
HETATM   30  O2  UNL     1       8.196   1.044   0.433  1.00  0.00    -0.388 OA
HETATM   31  C19 UNL     1       7.390  -0.076   0.216  1.00  0.00     0.198 C 
HETATM   32  C20 UNL     1       6.152   0.121   1.064  1.00  0.00     0.299 C 
ENDBRANCH  26  27
ENDBRANCH  25  26
ENDBRANCH  23  24
ENDBRANCH  21  23
ENDBRANCH  11  21
ENDBRANCH   4   5
ENDBRANCH   1   4
TORSDOF 7
