REMARK  8 active torsions:
REMARK  status: ('A' for Active; 'I' for Inactive)
REMARK    1  A    between atoms: C2_2  and  C3_3 
REMARK    2  A    between atoms: C2_2  and  C11_12 
REMARK    3  A    between atoms: C3_3  and  C4_4 
REMARK    4  A    between atoms: C4_4  and  N1_5 
REMARK    5  A    between atoms: N1_5  and  C5_6 
REMARK    6  A    between atoms: N1_5  and  C8_9 
REMARK    7  A    between atoms: C14_15  and  N2_16 
REMARK    8  A    between atoms: N2_16  and  C15_17 
ROOT
HETATM    1  C11 UNL     1       0.724   0.307   1.168  1.00  0.00     0.039 A 
HETATM    2  C12 UNL     1       1.755   0.978   0.684  1.00  0.00     0.042 A 
HETATM    3  C13 UNL     1       3.031   0.407   1.096  1.00  0.00     0.011 A 
HETATM    4  C14 UNL     1       4.171   0.916   0.729  1.00  0.00     0.102 C 
HETATM    5  C20 UNL     1       3.089  -0.773   1.948  1.00  0.00     0.077 A 
HETATM    6  N3  UNL     1       4.133  -1.385   2.390  1.00  0.00    -0.298 NA
HETATM    7  C21 UNL     1       1.832  -1.405   2.404  1.00  0.00     0.148 A 
HETATM    8  N4  UNL     1       0.722  -0.841   1.997  1.00  0.00    -0.263 NA
HETATM    9  H29 UNL     1       5.109  -1.092   2.178  1.00  0.00     0.187 HD
ENDROOT
BRANCH   1  10
HETATM   10  C2  UNL     1      -0.623   0.798   0.814  1.00  0.00     0.035 C 
HETATM   11  C1  UNL     1      -1.441   1.117   2.071  1.00  0.00     0.016 C 
BRANCH  10  12
HETATM   12  C3  UNL     1      -1.440  -0.236   0.065  1.00  0.00     0.030 C 
BRANCH  12  13
HETATM   13  C4  UNL     1      -2.774   0.438  -0.236  1.00  0.00     0.118 C 
BRANCH  13  14
HETATM   14  N1  UNL     1      -3.656  -0.414  -0.942  1.00  0.00    -0.405 N 
BRANCH  14  15
HETATM   15  C5  UNL     1      -4.141  -1.529  -0.205  1.00  0.00     0.071 C 
HETATM   16  C6  UNL     1      -4.913  -1.189   1.034  1.00  0.00     0.031 C 
HETATM   17  C7  UNL     1      -5.026  -2.405  -1.059  1.00  0.00     0.031 C 
ENDBRANCH  14  15
BRANCH  14  18
HETATM   18  C8  UNL     1      -4.561   0.186  -1.846  1.00  0.00     0.071 C 
HETATM   19  C9  UNL     1      -3.758   0.923  -2.901  1.00  0.00     0.031 C 
HETATM   20  C10 UNL     1      -5.546   1.157  -1.258  1.00  0.00     0.031 C 
ENDBRANCH  14  18
ENDBRANCH  13  14
ENDBRANCH  12  13
ENDBRANCH  10  12
ENDBRANCH   1  10
BRANCH   4  21
HETATM   21  N2  UNL     1       5.578   0.792   0.819  1.00  0.00    -0.367 N 
HETATM   22  H25 UNL     1       5.909   1.185   1.748  1.00  0.00     0.165 HD
BRANCH  21  23
HETATM   23  C15 UNL     1       6.487   0.244  -0.129  1.00  0.00     0.034 A 
HETATM   24  C16 UNL     1       6.356   0.222  -1.442  1.00  0.00     0.029 A 
HETATM   25  C17 UNL     1       7.561  -0.452  -1.953  1.00  0.00     0.042 A 
HETATM   26  C18 UNL     1       8.379  -0.817  -0.958  1.00  0.00     0.118 A 
HETATM   27  F1  UNL     1       9.584  -1.460  -1.023  1.00  0.00    -0.209 F 
HETATM   28  C19 UNL     1       7.762  -0.402   0.312  1.00  0.00     0.193 A 
HETATM   29 CL1  UNL     1       8.831   0.760   1.130  1.00  0.00    -0.111 Cl
ENDBRANCH  21  23
ENDBRANCH   4  21
TORSDOF 8
