REMARK  7 active torsions:
REMARK  status: ('A' for Active; 'I' for Inactive)
REMARK    1  A    between atoms: O1_1  and  C1_2 
REMARK    2  A    between atoms: C3_4  and  N1_5 
REMARK    3  A    between atoms: N1_5  and  C4_6 
REMARK    4  A    between atoms: C9_13  and  N4_14 
REMARK    5  A    between atoms: N4_14  and  C10_15 
REMARK    6  A    between atoms: C10_15  and  C11_16 
REMARK    7  A    between atoms: C12_17  and  C13_18 
ROOT
HETATM    1  C4  UNL     1       2.179   0.919   0.569  1.00  0.00     0.142 A 
HETATM    2  N2  UNL     1       3.091   0.973   1.542  1.00  0.00    -0.224 NA
HETATM    3  C5  UNL     1       3.138   1.899   2.504  1.00  0.00     0.236 A 
HETATM    4  N3  UNL     1       2.212   2.877   2.535  1.00  0.00    -0.241 NA
HETATM    5  C6  UNL     1       1.255   2.897   1.587  1.00  0.00     0.072 A 
HETATM    6  C7  UNL     1       0.350   3.916   1.678  1.00  0.00     0.035 A 
HETATM    7  C8  UNL     1      -0.646   4.002   0.754  1.00  0.00     0.031 A 
HETATM    8  C9  UNL     1      -0.752   3.064  -0.281  1.00  0.00     0.029 A 
HETATM    9  C17 UNL     1       0.207   2.074  -0.287  1.00  0.00     0.046 A 
HETATM   10  C18 UNL     1       1.240   1.924   0.612  1.00  0.00     0.041 A 
ENDROOT
BRANCH   8  11
HETATM   11  N4  UNL     1      -1.786   3.129  -1.268  1.00  0.00    -0.380 N 
HETATM   12  H7  UNL     1      -2.458   3.947  -1.149  1.00  0.00     0.160 HD
BRANCH  11  13
HETATM   13  C10 UNL     1      -1.963   2.209  -2.351  1.00  0.00     0.214 C 
BRANCH  13  14
HETATM   14  C11 UNL     1      -2.195   0.874  -1.780  1.00  0.00    -0.085 C 
HETATM   15  C12 UNL     1      -2.403  -0.209  -1.324  1.00  0.00    -0.067 C 
BRANCH  15  16
HETATM   16  C13 UNL     1      -2.680  -1.534  -0.767  1.00  0.00     0.322 C 
HETATM   17  C14 UNL     1      -3.907  -2.162  -1.382  1.00  0.00     0.216 C 
HETATM   18  O2  UNL     1      -5.005  -1.350  -1.115  1.00  0.00    -0.386 OA
HETATM   19  C15 UNL     1      -5.241  -1.373   0.241  1.00  0.00     0.197 C 
HETATM   20  C16 UNL     1      -4.089  -0.931   1.084  1.00  0.00     0.297 C 
HETATM   21  N5  UNL     1      -2.813  -1.479   0.671  1.00  0.00     0.103 N 
HETATM   22  H17 UNL     1      -2.762  -2.467   1.022  1.00  0.00     0.317 HD
ENDBRANCH  15  16
ENDBRANCH  13  14
ENDBRANCH  11  13
ENDBRANCH   8  11
BRANCH   1  23
HETATM   23  N1  UNL     1       2.109  -0.050  -0.458  1.00  0.00    -0.340 N 
HETATM   24  H3  UNL     1       1.357  -0.053  -1.170  1.00  0.00     0.167 HD
BRANCH  23  25
HETATM   25  C3  UNL     1       3.003  -1.125  -0.682  1.00  0.00     0.036 A 
HETATM   26  C2  UNL     1       4.202  -1.262  -0.030  1.00  0.00     0.069 A 
HETATM   27  C1  UNL     1       5.085  -2.297  -0.218  1.00  0.00     0.106 A 
HETATM   28  C21 UNL     1       4.782  -3.295  -1.122  1.00  0.00     0.149 A 
HETATM   29  C20 UNL     1       3.592  -3.217  -1.812  1.00  0.00     0.047 A 
HETATM   30  F1  UNL     1       5.564  -4.364  -1.398  1.00  0.00    -0.203 F 
HETATM   31  C19 UNL     1       2.758  -2.151  -1.571  1.00  0.00     0.032 A 
BRANCH  27  32
HETATM   32  O1  UNL     1       6.284  -2.435   0.434  1.00  0.00    -0.358 OA
HETATM   33  H1  UNL     1       7.146  -1.982   0.156  1.00  0.00     0.217 HD
ENDBRANCH  27  32
ENDBRANCH  23  25
ENDBRANCH   1  23
TORSDOF 7
