REMARK  9 active torsions:
REMARK  status: ('A' for Active; 'I' for Inactive)
REMARK       I    between atoms: N1_2  and  C2_3 
REMARK    1  A    between atoms: C2_3  and  C3_5 
REMARK    2  A    between atoms: C3_5  and  N2_7 
REMARK    3  A    between atoms: N2_7  and  C6_9 
REMARK    4  A    between atoms: C6_9  and  C7_10 
REMARK    5  A    between atoms: C10_13  and  N3_14 
REMARK    6  A    between atoms: N3_14  and  C11_15 
REMARK    7  A    between atoms: C12_16  and  C13_17 
REMARK    8  A    between atoms: C14_18  and  C15_19 
REMARK    9  A    between atoms: C20_28  and  O2_29 
ROOT
HETATM    1  C7  UNL     1      -1.355  -1.957  -0.220  1.00  0.00    -0.006 A 
HETATM    2  C8  UNL     1      -0.027  -1.561  -0.325  1.00  0.00     0.029 A 
HETATM    3  C9  UNL     1       1.008  -1.979   0.492  1.00  0.00     0.039 A 
HETATM    4  C10 UNL     1       2.310  -1.552   0.351  1.00  0.00     0.141 A 
HETATM    5  N4  UNL     1       3.304  -1.965   1.153  1.00  0.00    -0.224 NA
HETATM    6  C17 UNL     1       3.043  -2.848   2.161  1.00  0.00     0.236 A 
HETATM    7  N5  UNL     1       1.772  -3.242   2.273  1.00  0.00    -0.241 NA
HETATM    8  C18 UNL     1       0.751  -2.866   1.512  1.00  0.00     0.074 A 
HETATM    9  C19 UNL     1      -0.554  -3.291   1.658  1.00  0.00     0.070 A 
HETATM   10  C20 UNL     1      -1.564  -2.857   0.832  1.00  0.00     0.078 A 
ENDROOT
BRANCH   1  11
HETATM   11  C6  UNL     1      -2.341  -1.442  -1.165  1.00  0.00     0.159 C 
BRANCH  11  12
HETATM   12  N2  UNL     1      -3.233  -0.444  -0.758  1.00  0.00    -0.401 N 
HETATM   13  C5  UNL     1      -4.446  -0.893  -0.115  1.00  0.00     0.144 C 
BRANCH  12  14
HETATM   14  C3  UNL     1      -2.767   0.821  -0.331  1.00  0.00     0.167 C 
HETATM   15  C4  UNL     1      -1.478   1.268  -0.943  1.00  0.00     0.042 C 
BRANCH  14  16
HETATM   16  C2  UNL     1      -3.823   1.893  -0.507  1.00  0.00     0.239 C 
HETATM   17  N1  UNL     1      -3.420   3.185  -0.044  1.00  0.00    -0.364 N 
HETATM   18  C1  UNL     1      -4.240   4.373  -0.100  1.00  0.00     0.149 C 
HETATM   19  H4  UNL     1      -2.462   3.323   0.378  1.00  0.00     0.161 HD
HETATM   20  O1  UNL     1      -5.012   1.988  -0.964  1.00  0.00    -0.271 OA
ENDBRANCH  14  16
ENDBRANCH  12  14
ENDBRANCH  11  12
ENDBRANCH   1  11
BRANCH  10  21
HETATM   21  O2  UNL     1      -2.869  -3.291   0.994  1.00  0.00    -0.355 OA
HETATM   22  C21 UNL     1      -3.195  -4.198   2.028  1.00  0.00     0.210 C 
ENDBRANCH  10  21
BRANCH   4  23
HETATM   23  N3  UNL     1       2.609  -0.612  -0.659  1.00  0.00    -0.350 N 
HETATM   24  H15 UNL     1       2.411   0.216   0.004  1.00  0.00     0.166 HD
BRANCH  23  25
HETATM   25  C11 UNL     1       2.904   0.322  -1.656  1.00  0.00     0.089 C 
HETATM   26  C12 UNL     1       3.981   1.136  -1.644  1.00  0.00     0.014 C 
BRANCH  26  27
HETATM   27  C13 UNL     1       4.946   1.067  -0.522  1.00  0.00    -0.014 C 
HETATM   28  C14 UNL     1       5.776   2.002  -0.922  1.00  0.00     0.064 C 
BRANCH  28  29
HETATM   29  C15 UNL     1       6.945   2.784  -0.751  1.00  0.00     0.034 C 
HETATM   30 CL1  UNL     1       8.403   3.437  -0.100  1.00  0.00    -0.090 Cl
HETATM   31  C16 UNL     1       6.735   3.465  -1.889  1.00  0.00     0.462 C 
HETATM   32  F1  UNL     1       7.343   4.451  -2.584  1.00  0.00    -0.451 F 
ENDBRANCH  28  29
ENDBRANCH  26  27
ENDBRANCH  23  25
ENDBRANCH   4  23
TORSDOF 9
