REMARK  10 active torsions:
REMARK  status: ('A' for Active; 'I' for Inactive)
REMARK    1  A    between atoms: C2_2  and  C3_3 
REMARK    2  A    between atoms: C3_3  and  C4_4 
REMARK    3  A    between atoms: C4_4  and  N1_5 
REMARK    4  A    between atoms: N1_5  and  C6_7 
REMARK    5  A    between atoms: C6_7  and  S1_8 
REMARK    6  A    between atoms: S1_8  and  C7_9 
REMARK    7  A    between atoms: C7_9  and  C8_10 
REMARK       I    between atoms: C8_10  and  N2_12 
REMARK    8  A    between atoms: N2_12  and  C9_13 
REMARK    9  A    between atoms: C14_20  and  C15_21 
REMARK   10  A    between atoms: C17_24  and  N5_25 
ROOT
HETATM    1  C9  UNL     1      -2.591   0.249   1.353  1.00  0.00     0.062 A 
HETATM    2  C10 UNL     1      -2.371  -0.657   2.401  1.00  0.00     0.034 A 
HETATM    3  C11 UNL     1      -3.363  -1.624   2.565  1.00  0.00     0.035 A 
HETATM    4  C12 UNL     1      -4.464  -1.660   1.743  1.00  0.00     0.072 A 
HETATM    5  N3  UNL     1      -5.417  -2.603   1.876  1.00  0.00    -0.241 NA
HETATM    6  C13 UNL     1      -6.474  -2.634   1.048  1.00  0.00     0.234 A 
HETATM    7  N4  UNL     1      -6.597  -1.723   0.073  1.00  0.00    -0.243 NA
HETATM    8  C14 UNL     1      -5.705  -0.725  -0.158  1.00  0.00     0.079 A 
HETATM    9  C16 UNL     1      -4.654  -0.759   0.724  1.00  0.00     0.049 A 
HETATM   10  C17 UNL     1      -3.700   0.199   0.539  1.00  0.00     0.069 A 
ENDROOT
BRANCH   1  11
HETATM   11  N2  UNL     1      -1.488   1.141   1.334  1.00  0.00    -0.325 N 
HETATM   12  C8  UNL     1      -0.547   0.534   0.479  1.00  0.00     0.231 C 
HETATM   13  O1  UNL     1      -0.558  -0.553  -0.196  1.00  0.00    -0.272 OA
HETATM   14  H17 UNL     1      -1.032   2.013   1.636  1.00  0.00     0.169 HD
BRANCH  12  15
HETATM   15  C7  UNL     1       0.827   0.778  -0.061  1.00  0.00     0.178 C 
BRANCH  15  16
HETATM   16  S1  UNL     1       1.249  -0.530  -1.198  1.00  0.00    -0.140 SA
BRANCH  16  17
HETATM   17  C6  UNL     1       2.925  -0.430  -1.772  1.00  0.00     0.191 C 
BRANCH  17  18
HETATM   18  N1  UNL     1       3.952  -0.786  -0.861  1.00  0.00    -0.408 N 
HETATM   19  C5  UNL     1       4.105  -2.222  -0.698  1.00  0.00     0.144 C 
BRANCH  18  20
HETATM   20  C4  UNL     1       4.075  -0.074   0.362  1.00  0.00     0.117 C 
BRANCH  20  21
HETATM   21  C3  UNL     1       5.518  -0.157   0.843  1.00  0.00     0.019 C 
BRANCH  21  22
HETATM   22  C2  UNL     1       6.489   0.433  -0.125  1.00  0.00    -0.003 C 
HETATM   23  C1  UNL     1       6.267   1.889  -0.377  1.00  0.00     0.005 C 
ENDBRANCH  21  22
ENDBRANCH  20  21
ENDBRANCH  18  20
ENDBRANCH  17  18
ENDBRANCH  16  17
ENDBRANCH  15  16
ENDBRANCH  12  15
ENDBRANCH   1  11
BRANCH  10  24
HETATM   24  N5  UNL     1      -3.579   1.231  -0.418  1.00  0.00    -0.392 N 
HETATM   25  C18 UNL     1      -3.824   2.607  -0.774  1.00  0.00     0.146 C 
HETATM   26  H23 UNL     1      -3.050   0.732  -1.204  1.00  0.00     0.159 HD
ENDBRANCH  10  24
BRANCH   8  27
HETATM   27  C15 UNL     1      -5.952   0.263  -1.203  1.00  0.00     0.282 C 
HETATM   28  F1  UNL     1      -6.566   1.409  -0.721  1.00  0.00    -0.249 F 
ENDBRANCH   8  27
TORSDOF 10
