REMARK  6 active torsions:
REMARK  status: ('A' for Active; 'I' for Inactive)
REMARK    1  A    between atoms: C1_2  and  C2_3 
REMARK       I    between atoms: C1_2  and  N2_11 
REMARK    2  A    between atoms: C3_4  and  C4_5 
REMARK    3  A    between atoms: C4_5  and  N1_6 
REMARK    4  A    between atoms: N2_11  and  C8_12 
REMARK    5  A    between atoms: C13_19  and  N5_20 
REMARK    6  A    between atoms: N5_20  and  C14_21 
ROOT
HETATM    1  C8  UNL     1       0.323  -1.232  -0.009  1.00  0.00     0.036 A 
HETATM    2  C9  UNL     1       0.011  -2.363   0.756  1.00  0.00     0.032 A 
HETATM    3  C10 UNL     1       0.976  -3.293   1.092  1.00  0.00     0.035 A 
HETATM    4  C11 UNL     1       2.286  -3.117   0.670  1.00  0.00     0.072 A 
HETATM    5  N3  UNL     1       3.264  -3.989   0.966  1.00  0.00    -0.241 NA
HETATM    6  C12 UNL     1       4.521  -3.772   0.529  1.00  0.00     0.236 A 
HETATM    7  N4  UNL     1       4.771  -2.671  -0.203  1.00  0.00    -0.224 NA
HETATM    8  C13 UNL     1       3.828  -1.785  -0.515  1.00  0.00     0.142 A 
HETATM    9  C20 UNL     1       2.543  -1.997  -0.075  1.00  0.00     0.041 A 
HETATM   10  C21 UNL     1       1.618  -1.044  -0.435  1.00  0.00     0.047 A 
ENDROOT
BRANCH   1  11
HETATM   11  N2  UNL     1      -0.842  -0.444  -0.208  1.00  0.00    -0.316 N 
HETATM   12  C1  UNL     1      -1.464   0.650   0.462  1.00  0.00     0.301 C 
HETATM   13  O1  UNL     1      -0.985   1.164   1.507  1.00  0.00    -0.258 OA
HETATM   14  H9  UNL     1      -1.258  -0.852  -1.075  1.00  0.00     0.170 HD
BRANCH  12  15
HETATM   15  C2  UNL     1      -2.689   1.157  -0.112  1.00  0.00    -0.004 C 
HETATM   16  C3  UNL     1      -3.739   1.571  -0.591  1.00  0.00    -0.066 C 
BRANCH  16  17
HETATM   17  C4  UNL     1      -4.990   2.041  -1.175  1.00  0.00     0.369 C 
BRANCH  17  18
HETATM   18  N1  UNL     1      -6.148   1.544  -0.497  1.00  0.00     0.124 N 
HETATM   19  C5  UNL     1      -6.344   0.110  -0.661  1.00  0.00     0.302 C 
HETATM   20  C6  UNL     1      -7.389  -0.103   0.443  1.00  0.00     0.200 C 
HETATM   21  O2  UNL     1      -6.816   0.627   1.476  1.00  0.00    -0.361 OA
HETATM   22  C7  UNL     1      -6.132   1.690   0.924  1.00  0.00     0.441 C 
ENDBRANCH  17  18
ENDBRANCH  16  17
ENDBRANCH  12  15
ENDBRANCH   1  11
BRANCH   8  23
HETATM   23  N5  UNL     1       4.234  -0.671  -1.295  1.00  0.00    -0.340 N 
HETATM   24  H13 UNL     1       4.128  -0.778  -2.321  1.00  0.00     0.167 HD
BRANCH  23  25
HETATM   25  C14 UNL     1       4.760   0.532  -0.729  1.00  0.00     0.035 A 
HETATM   26  C15 UNL     1       5.148   1.560  -1.584  1.00  0.00     0.032 A 
HETATM   27  C16 UNL     1       5.662   2.731  -1.038  1.00  0.00     0.046 A 
HETATM   28  C17 UNL     1       5.776   2.851   0.338  1.00  0.00     0.138 A 
HETATM   29  F1  UNL     1       6.280   3.992   0.897  1.00  0.00    -0.204 F 
HETATM   30  C18 UNL     1       5.394   1.836   1.200  1.00  0.00     0.074 A 
HETATM   31 CL1  UNL     1       5.548   2.008   2.934  1.00  0.00    -0.081 Cl
HETATM   32  C19 UNL     1       4.879   0.665   0.633  1.00  0.00     0.056 A 
ENDBRANCH  23  25
ENDBRANCH   8  23
TORSDOF 6
