REMARK  6 active torsions:
REMARK  status: ('A' for Active; 'I' for Inactive)
REMARK    1  A    between atoms: C2_2  and  N1_4 
REMARK    2  A    between atoms: N1_4  and  C4_5 
REMARK    3  A    between atoms: N1_4  and  C15_21 
REMARK    4  A    between atoms: C4_5  and  C5_6 
REMARK    5  A    between atoms: C6_7  and  C7_8 
REMARK       I    between atoms: C7_8  and  N2_10 
REMARK    6  A    between atoms: N2_10  and  C8_11 
ROOT
HETATM    1  C7  UNL     1       1.283  -0.605  -0.764  1.00  0.00     0.297 C 
HETATM    2  O1  UNL     1       1.355  -1.545  -1.599  1.00  0.00    -0.258 OA
HETATM    3  N2  UNL     1       2.443   0.042  -0.286  1.00  0.00    -0.342 N 
HETATM    4  H10 UNL     1       2.385   0.837   0.416  1.00  0.00     0.164 HD
ENDROOT
BRANCH   3   5
HETATM    5  C8  UNL     1       3.817  -0.187  -0.594  1.00  0.00     0.117 A 
HETATM    6  C9  UNL     1       4.412   1.114  -1.226  1.00  0.00     0.041 A 
HETATM    7  C10 UNL     1       5.344   1.239  -0.225  1.00  0.00     0.024 A 
HETATM    8  C11 UNL     1       6.759   0.870  -0.700  1.00  0.00     0.014 C 
HETATM    9  C14 UNL     1       4.752   1.393   1.164  1.00  0.00    -0.006 A 
HETATM   10  P1  UNL     1       4.861  -0.389   0.852  1.00  0.00    -0.073 P 
HETATM   11  C12 UNL     1       7.463   0.626   0.399  1.00  0.00     0.047 C 
HETATM   12 CL1  UNL     1       8.907   1.527   0.842  1.00  0.00    -0.086 Cl
HETATM   13  C13 UNL     1       6.575  -0.569   0.848  1.00  0.00     0.237 C 
HETATM   14  F1  UNL     1       6.978  -0.627   2.227  1.00  0.00    -0.239 F 
HETATM   15  H15 UNL     1       4.294  -0.963   1.884  1.00  0.00     0.059 HD
ENDBRANCH   3   5
BRANCH   1  16
HETATM   16  C6  UNL     1       0.023  -0.131  -0.242  1.00  0.00    -0.004 C 
HETATM   17  C5  UNL     1      -1.058   0.273   0.182  1.00  0.00    -0.066 C 
BRANCH  17  18
HETATM   18  C4  UNL     1      -2.303   0.754   0.695  1.00  0.00     0.367 C 
BRANCH  18  19
HETATM   19  N1  UNL     1      -3.443   0.077   0.035  1.00  0.00     0.107 N 
BRANCH  19  20
HETATM   20  C2  UNL     1      -4.663   0.728   0.563  1.00  0.00     0.216 C 
HETATM   21  C1  UNL     1      -5.786   0.382  -0.382  1.00  0.00     0.042 C 
HETATM   22  C3  UNL     1      -4.529   2.235   0.579  1.00  0.00     0.042 C 
ENDBRANCH  19  20
BRANCH  19  23
HETATM   23  C15 UNL     1      -3.394  -1.303   0.505  1.00  0.00     0.216 C 
HETATM   24  C16 UNL     1      -2.418  -2.057  -0.366  1.00  0.00     0.042 C 
HETATM   25  C17 UNL     1      -4.669  -2.036   0.570  1.00  0.00     0.042 C 
ENDBRANCH  19  23
ENDBRANCH  18  19
ENDBRANCH  17  18
ENDBRANCH   1  16
TORSDOF 6
