REMARK  10 active torsions:
REMARK  status: ('A' for Active; 'I' for Inactive)
REMARK    1  A    between atoms: C2_2  and  C3_3 
REMARK    2  A    between atoms: C3_3  and  C4_4 
REMARK    3  A    between atoms: C5_5  and  C6_6 
REMARK    4  A    between atoms: C6_6  and  N1_8 
REMARK    5  A    between atoms: C8_9  and  C9_10 
REMARK    6  A    between atoms: C10_11  and  C11_12 
REMARK    7  A    between atoms: C13_17  and  N5_18 
REMARK    8  A    between atoms: N5_18  and  C14_19 
REMARK    9  A    between atoms: C14_19  and  C15_20 
REMARK   10  A    between atoms: C16_21  and  C17_23 
ROOT
HETATM    1  C9  UNL     1      -1.641  -1.493  -0.399  1.00  0.00     0.057 A 
HETATM    2  C10 UNL     1      -2.523  -2.534  -0.711  1.00  0.00     0.090 A 
HETATM    3  N3  UNL     1      -3.837  -2.403  -0.492  1.00  0.00    -0.240 NA
HETATM    4  C12 UNL     1      -4.313  -1.262   0.032  1.00  0.00     0.236 A 
HETATM    5  N4  UNL     1      -3.465  -0.268   0.330  1.00  0.00    -0.224 NA
HETATM    6  C13 UNL     1      -2.144  -0.327   0.139  1.00  0.00     0.139 A 
ENDROOT
BRANCH   1   7
HETATM    7  C8  UNL     1      -0.188  -1.638  -0.641  1.00  0.00     0.129 C 
HETATM    8  N1  UNL     1       0.792  -0.872  -0.453  1.00  0.00    -0.283 NA
BRANCH   8   9
HETATM    9  C6  UNL     1       2.143  -1.202  -0.757  1.00  0.00     0.182 C 
HETATM   10  C7  UNL     1       2.292  -2.710  -0.776  1.00  0.00     0.048 C 
BRANCH   9  11
HETATM   11  C5  UNL     1       3.078  -0.592   0.192  1.00  0.00    -0.080 C 
HETATM   12  C4  UNL     1       3.860  -0.107   0.971  1.00  0.00    -0.104 C 
BRANCH  12  13
HETATM   13  C3  UNL     1       4.807   0.499   1.907  1.00  0.00     0.093 C 
BRANCH  13  14
HETATM   14  C2  UNL     1       5.794   1.398   1.172  1.00  0.00     0.007 C 
HETATM   15  C1  UNL     1       5.061   2.508   0.453  1.00  0.00     0.006 C 
ENDBRANCH  13  14
ENDBRANCH  12  13
ENDBRANCH   9  11
ENDBRANCH   8   9
ENDBRANCH   1   7
BRANCH   2  16
HETATM   16  C11 UNL     1      -2.037  -3.777  -1.278  1.00  0.00     0.139 C 
HETATM   17  N2  UNL     1      -1.387  -4.273  -2.276  1.00  0.00    -0.310 NA
HETATM   18  H14 UNL     1      -1.057  -3.556  -2.981  1.00  0.00     0.186 HD
ENDBRANCH   2  16
BRANCH   6  19
HETATM   19  N5  UNL     1      -1.339   0.785   0.490  1.00  0.00    -0.370 N 
HETATM   20  H16 UNL     1      -0.335   0.936   0.425  1.00  0.00     0.161 HD
BRANCH  19  21
HETATM   21  C14 UNL     1      -1.988   1.955   1.048  1.00  0.00     0.149 C 
BRANCH  21  22
HETATM   22  C15 UNL     1      -2.966   2.461   0.022  1.00  0.00     0.010 C 
HETATM   23  C16 UNL     1      -4.241   2.709  -0.184  1.00  0.00     0.015 C 
HETATM   24 BR1  UNL     1      -5.024   3.404  -1.803  1.00  0.00    -0.053 Br
BRANCH  23  25
HETATM   25  C17 UNL     1      -5.333   2.496   0.812  1.00  0.00     0.268 C 
HETATM   26  F1  UNL     1      -5.993   3.687   1.099  1.00  0.00    -0.250 F 
ENDBRANCH  23  25
ENDBRANCH  21  22
ENDBRANCH  19  21
ENDBRANCH   6  19
TORSDOF 10
