REMARK  6 active torsions:
REMARK  status: ('A' for Active; 'I' for Inactive)
REMARK    1  A    between atoms: C2_2  and  C3_3 
REMARK    2  A    between atoms: C3_3  and  C4_4 
REMARK    3  A    between atoms: C5_5  and  C6_6 
REMARK    4  A    between atoms: C6_6  and  C7_7 
REMARK    5  A    between atoms: C10_10  and  N1_11 
REMARK    6  A    between atoms: N1_11  and  C11_12 
ROOT
HETATM    1  C7  UNL     1       1.201  -2.326  -0.695  1.00  0.00     0.046 A 
HETATM    2  C8  UNL     1       0.110  -1.517  -0.464  1.00  0.00     0.046 A 
HETATM    3  C9  UNL     1      -0.949  -1.820   0.361  1.00  0.00     0.042 A 
HETATM    4  C10 UNL     1      -2.027  -0.989   0.573  1.00  0.00     0.142 A 
HETATM    5  N2  UNL     1      -2.924  -1.507   1.418  1.00  0.00    -0.224 NA
HETATM    6  C17 UNL     1      -2.840  -2.697   2.025  1.00  0.00     0.236 A 
HETATM    7  N3  UNL     1      -1.784  -3.498   1.810  1.00  0.00    -0.240 NA
HETATM    8  C18 UNL     1      -0.836  -3.050   0.972  1.00  0.00     0.089 A 
HETATM    9  C19 UNL     1       0.231  -3.892   0.774  1.00  0.00     0.149 A 
HETATM   10  N4  UNL     1       1.245  -3.525  -0.060  1.00  0.00    -0.262 NA
ENDROOT
BRANCH   4  11
HETATM   11  N1  UNL     1      -2.089   0.258  -0.086  1.00  0.00    -0.340 N 
HETATM   12  H11 UNL     1      -1.365   0.559  -0.735  1.00  0.00     0.167 HD
BRANCH  11  13
HETATM   13  C11 UNL     1      -3.100   1.242   0.029  1.00  0.00     0.035 A 
HETATM   14  C12 UNL     1      -4.129   1.161   0.937  1.00  0.00     0.032 A 
HETATM   15  C13 UNL     1      -5.128   2.100   1.067  1.00  0.00     0.046 A 
HETATM   16  C14 UNL     1      -5.134   3.212   0.253  1.00  0.00     0.138 A 
HETATM   17  F1  UNL     1      -6.076   4.183   0.311  1.00  0.00    -0.204 F 
HETATM   18  C15 UNL     1      -4.138   3.340  -0.663  1.00  0.00     0.074 A 
HETATM   19 CL1  UNL     1      -4.089   4.719  -1.718  1.00  0.00    -0.081 Cl
HETATM   20  C16 UNL     1      -3.166   2.372  -0.748  1.00  0.00     0.056 A 
ENDBRANCH  11  13
ENDBRANCH   4  11
BRANCH   1  21
HETATM   21  C6  UNL     1       2.307  -1.947  -1.592  1.00  0.00     0.153 C 
BRANCH  21  22
HETATM   22  C5  UNL     1       3.342  -1.233  -0.832  1.00  0.00    -0.101 C 
HETATM   23  C4  UNL     1       4.182  -0.642  -0.196  1.00  0.00    -0.106 C 
BRANCH  23  24
HETATM   24  C3  UNL     1       5.210   0.053   0.567  1.00  0.00     0.093 C 
BRANCH  24  25
HETATM   25  C2  UNL     1       4.702   1.458   0.866  1.00  0.00     0.007 C 
HETATM   26  C1  UNL     1       4.455   2.121  -0.477  1.00  0.00     0.006 C 
ENDBRANCH  24  25
ENDBRANCH  23  24
ENDBRANCH  21  22
ENDBRANCH   1  21
TORSDOF 6
