REMARK  10 active torsions:
REMARK  status: ('A' for Active; 'I' for Inactive)
REMARK    1  A    between atoms: C2_2  and  N1_4 
REMARK    2  A    between atoms: N1_4  and  C4_5 
REMARK    3  A    between atoms: N1_4  and  C22_30 
REMARK    4  A    between atoms: C4_5  and  C5_6 
REMARK    5  A    between atoms: C6_7  and  C7_8 
REMARK       I    between atoms: C7_8  and  N2_10 
REMARK    6  A    between atoms: N2_10  and  C8_11 
REMARK    7  A    between atoms: C11_14  and  N3_15 
REMARK    8  A    between atoms: N3_15  and  C12_16 
REMARK    9  A    between atoms: C13_18  and  N5_19 
REMARK   10  A    between atoms: N5_19  and  C14_20 
ROOT
HETATM    1  C8  UNL     1       1.028   0.683  -1.191  1.00  0.00     0.035 A 
HETATM    2  C9  UNL     1       1.318   1.294  -2.419  1.00  0.00     0.032 A 
HETATM    3  C10 UNL     1       2.617   1.623  -2.813  1.00  0.00     0.033 A 
HETATM    4  C11 UNL     1       3.614   1.308  -1.912  1.00  0.00     0.054 A 
HETATM    5  C20 UNL     1       3.371   0.704  -0.688  1.00  0.00     0.033 A 
HETATM    6  C21 UNL     1       2.076   0.406  -0.357  1.00  0.00     0.032 A 
ENDROOT
BRANCH   1   7
HETATM    7  N2  UNL     1      -0.356   0.431  -0.977  1.00  0.00    -0.316 N 
HETATM    8  C7  UNL     1      -1.429   1.155  -0.399  1.00  0.00     0.301 C 
HETATM    9  O1  UNL     1      -1.202   2.303   0.061  1.00  0.00    -0.258 OA
HETATM   10  H10 UNL     1      -0.528  -0.541  -1.372  1.00  0.00     0.170 HD
BRANCH   8  11
HETATM   11  C6  UNL     1      -2.734   0.559  -0.358  1.00  0.00    -0.004 C 
HETATM   12  C5  UNL     1      -3.860   0.055  -0.341  1.00  0.00    -0.066 C 
BRANCH  12  13
HETATM   13  C4  UNL     1      -5.171  -0.547  -0.345  1.00  0.00     0.367 C 
BRANCH  13  14
HETATM   14  N1  UNL     1      -5.848  -0.286   0.907  1.00  0.00     0.107 N 
BRANCH  14  15
HETATM   15  C2  UNL     1      -7.119  -1.049   0.814  1.00  0.00     0.216 C 
HETATM   16  C1  UNL     1      -7.937  -0.672  -0.375  1.00  0.00     0.042 C 
HETATM   17  C3  UNL     1      -6.723  -2.502   0.682  1.00  0.00     0.042 C 
ENDBRANCH  14  15
BRANCH  14  18
HETATM   18  C22 UNL     1      -6.165   1.129   0.979  1.00  0.00     0.216 C 
HETATM   19  C23 UNL     1      -7.275   1.373   1.994  1.00  0.00     0.042 C 
HETATM   20  C24 UNL     1      -4.934   1.881   1.464  1.00  0.00     0.042 C 
ENDBRANCH  14  18
ENDBRANCH  13  14
ENDBRANCH  12  13
ENDBRANCH   8  11
ENDBRANCH   1   7
BRANCH   4  21
HETATM   21  N3  UNL     1       4.943   1.645  -2.323  1.00  0.00    -0.243 NA
BRANCH  21  22
HETATM   22  C12 UNL     1       5.876   0.825  -2.027  1.00  0.00     0.263 A 
HETATM   23  N4  UNL     1       6.986   1.438  -2.555  1.00  0.00    -0.225 NA
HETATM   24  C13 UNL     1       7.137   0.279  -1.944  1.00  0.00     0.161 A 
BRANCH  24  25
HETATM   25  N5  UNL     1       7.810  -0.850  -1.429  1.00  0.00    -0.341 N 
HETATM   26  H13 UNL     1       7.749  -1.711  -1.998  1.00  0.00     0.167 HD
BRANCH  25  27
HETATM   27  C14 UNL     1       8.554  -0.890  -0.200  1.00  0.00     0.035 A 
HETATM   28  C15 UNL     1       9.168  -2.062   0.229  1.00  0.00     0.032 A 
HETATM   29  C16 UNL     1       9.889  -2.044   1.417  1.00  0.00     0.046 A 
HETATM   30  C17 UNL     1      10.021  -0.897   2.196  1.00  0.00     0.138 A 
HETATM   31  F1  UNL     1      10.738  -0.907   3.361  1.00  0.00    -0.204 F 
HETATM   32  C18 UNL     1       9.407   0.250   1.756  1.00  0.00     0.074 A 
HETATM   33 CL1  UNL     1       9.592   1.687   2.764  1.00  0.00    -0.081 Cl
HETATM   34  C19 UNL     1       8.673   0.268   0.564  1.00  0.00     0.056 A 
ENDBRANCH  25  27
ENDBRANCH  24  25
ENDBRANCH  21  22
ENDBRANCH   4  21
TORSDOF 10
