REMARK  1 active torsions:
REMARK  status: ('A' for Active; 'I' for Inactive)
REMARK    1  A    between atoms: N1_2  and  C2_3 
ROOT
HETATM    1  C2  UNL     1       2.230  -1.454  -0.583  1.00  0.00     0.333 A 
HETATM    2  C3  UNL     1       2.632  -0.223  -0.516  1.00  0.00     0.044 C 
HETATM    3  C4  UNL     1       2.170   1.126  -0.345  1.00  0.00     0.001 C 
HETATM    4  C5  UNL     1       2.082   2.422  -0.221  1.00  0.00     0.002 C 
HETATM    5  C6  UNL     1       1.271   3.574  -0.025  1.00  0.00     0.027 C 
HETATM    6  C7  UNL     1       0.063   4.036   0.166  1.00  0.00     0.072 C 
HETATM    7 CL1  UNL     1       0.300   5.812   0.267  1.00  0.00    -0.081 Cl
HETATM    8  C8  UNL     1      -1.319   3.597   0.392  1.00  0.00     0.138 C 
HETATM    9  F1  UNL     1      -2.083   4.759   0.456  1.00  0.00    -0.204 F 
HETATM   10  C9  UNL     1      -2.244   2.671   0.562  1.00  0.00     0.044 C 
HETATM   11  C10 UNL     1      -2.356   1.184   0.630  1.00  0.00    -0.001 C 
HETATM   12  C11 UNL     1      -1.909  -0.102   0.614  1.00  0.00    -0.027 C 
HETATM   13  C12 UNL     1      -2.807  -1.271   0.777  1.00  0.00     0.027 C 
HETATM   14  C13 UNL     1      -2.728  -2.191  -0.396  1.00  0.00     0.010 C 
HETATM   15  C14 UNL     1      -1.446  -2.935  -0.476  1.00  0.00     0.070 C 
HETATM   16  C15 UNL     1      -0.251  -2.086  -0.509  1.00  0.00     0.180 A 
HETATM   17  O1  UNL     1       0.650  -1.247  -0.529  1.00  0.00     0.000 OA
HETATM   18  N2  UNL     1       1.146  -2.359  -0.571  1.00  0.00     0.157 N 
HETATM   19  H16 UNL     1       1.389  -3.404  -0.611  1.00  0.00     0.327 HD
ENDROOT
BRANCH   1  20
HETATM   20  N1  UNL     1       3.512  -2.115  -0.779  1.00  0.00    -0.263 NA
HETATM   21  C1  UNL     1       4.259  -2.492   0.174  1.00  0.00     0.146 C 
ENDBRANCH   1  20
TORSDOF 1
