REMARK  7 active torsions:
REMARK  status: ('A' for Active; 'I' for Inactive)
REMARK    1  A    between atoms: C2_2  and  N1_3 
REMARK    2  A    between atoms: N1_3  and  C4_5 
REMARK    3  A    between atoms: C4_5  and  C5_6 
REMARK    4  A    between atoms: C6_7  and  C7_8 
REMARK       I    between atoms: C7_8  and  N2_10 
REMARK    5  A    between atoms: N2_10  and  C8_11 
REMARK    6  A    between atoms: C13_17  and  N4_18 
REMARK    7  A    between atoms: N4_18  and  C14_19 
ROOT
HETATM    1  C8  UNL     1      -0.842  -0.492   0.353  1.00  0.00     0.013 C 
HETATM    2  C9  UNL     1      -0.643   0.058  -0.841  1.00  0.00     0.027 C 
HETATM    3  C10 UNL     1       0.525   0.053  -1.715  1.00  0.00     0.034 C 
HETATM    4  C11 UNL     1       1.831  -0.138  -1.568  1.00  0.00     0.064 A 
HETATM    5  N3  UNL     1       2.722  -0.071  -2.669  1.00  0.00    -0.262 NA
HETATM    6  C12 UNL     1       3.953  -0.297  -2.276  1.00  0.00     0.120 A 
HETATM    7  C13 UNL     1       4.018  -0.552  -0.800  1.00  0.00     0.158 A 
HETATM    8  C20 UNL     1       2.619  -0.433  -0.393  1.00  0.00    -0.005 A 
HETATM    9  C21 UNL     1       2.364  -0.608   0.915  1.00  0.00    -0.014 C 
HETATM   10  C22 UNL     1       1.193  -0.591   1.796  1.00  0.00     0.034 C 
HETATM   11  C23 UNL     1      -0.006  -1.318   1.282  1.00  0.00     0.061 C 
ENDROOT
BRANCH   1  12
HETATM   12  N2  UNL     1      -2.138  -0.258   0.887  1.00  0.00    -0.320 N 
HETATM   13  C7  UNL     1      -2.699   0.366   2.050  1.00  0.00     0.300 C 
HETATM   14  O1  UNL     1      -2.037   0.904   2.950  1.00  0.00    -0.258 OA
HETATM   15  H11 UNL     1      -2.768  -0.695   0.161  1.00  0.00     0.169 HD
BRANCH  13  16
HETATM   16  C6  UNL     1      -4.131   0.349   2.153  1.00  0.00    -0.004 C 
HETATM   17  C5  UNL     1      -5.354   0.320   2.227  1.00  0.00    -0.066 C 
BRANCH  17  18
HETATM   18  C4  UNL     1      -6.825   0.267   2.298  1.00  0.00     0.365 C 
BRANCH  18  19
HETATM   19  N1  UNL     1      -7.393  -0.019   0.994  1.00  0.00     0.094 N 
HETATM   20  C3  UNL     1      -6.780  -1.204   0.417  1.00  0.00     0.310 C 
BRANCH  19  21
HETATM   21  C2  UNL     1      -7.177   1.116   0.088  1.00  0.00     0.268 C 
HETATM   22  C1  UNL     1      -8.000   0.825  -1.143  1.00  0.00     0.037 C 
ENDBRANCH  19  21
ENDBRANCH  18  19
ENDBRANCH  17  18
ENDBRANCH  13  16
ENDBRANCH   1  12
BRANCH   7  23
HETATM   23  N4  UNL     1       4.894   0.458  -0.246  1.00  0.00    -0.376 N 
HETATM   24  H16 UNL     1       4.527   1.165   0.427  1.00  0.00     0.160 HD
BRANCH  23  25
HETATM   25  C14 UNL     1       6.266   0.516  -0.600  1.00  0.00     0.030 A 
HETATM   26  C15 UNL     1       6.879  -0.368  -1.460  1.00  0.00     0.032 A 
HETATM   27  C16 UNL     1       8.208  -0.328  -1.822  1.00  0.00     0.046 A 
HETATM   28  C17 UNL     1       9.004   0.673  -1.288  1.00  0.00     0.138 A 
HETATM   29  F1  UNL     1      10.314   0.676  -1.673  1.00  0.00    -0.204 F 
HETATM   30  C18 UNL     1       8.432   1.579  -0.423  1.00  0.00     0.074 A 
HETATM   31 CL1  UNL     1       9.501   2.815   0.211  1.00  0.00    -0.081 Cl
HETATM   32  C19 UNL     1       7.097   1.493  -0.094  1.00  0.00     0.056 A 
ENDBRANCH  23  25
ENDBRANCH   7  23
TORSDOF 7
