REMARK  3 active torsions:
REMARK  status: ('A' for Active; 'I' for Inactive)
REMARK    1  A    between atoms: O1_2  and  C2_3 
REMARK    2  A    between atoms: C3_4  and  O2_5 
REMARK    3  A    between atoms: C7_10  and  C8_11 
ROOT
HETATM    1  C2  UNL     1       4.484   0.228  -0.123  1.00  0.00     0.128 A 
HETATM    2  C3  UNL     1       4.123   1.377   0.419  1.00  0.00     0.213 A 
HETATM    3  O3  UNL     1       2.853   1.868   0.615  1.00  0.00    -0.313 OA
HETATM    4  C4  UNL     1       1.744   1.111   0.226  1.00  0.00     0.206 A 
HETATM    5  C5  UNL     1       0.703   1.019   1.256  1.00  0.00     0.014 C 
HETATM    6  C6  UNL     1      -0.500   0.500   1.430  1.00  0.00     0.031 C 
HETATM    7  C7  UNL     1      -1.335  -0.272   0.541  1.00  0.00     0.068 C 
HETATM    8  N1  UNL     1      -1.022  -1.121  -0.410  1.00  0.00    -0.241 NA
HETATM    9  C15 UNL     1       0.201  -1.617  -0.943  1.00  0.00     0.234 C 
HETATM   10  N2  UNL     1       1.427  -1.214  -0.908  1.00  0.00    -0.243 NA
HETATM   11  C16 UNL     1       2.200  -0.144  -0.368  1.00  0.00     0.071 A 
HETATM   12  C17 UNL     1       3.411  -0.645  -0.575  1.00  0.00     0.072 A 
ENDROOT
BRANCH   7  13
HETATM   13  C8  UNL     1      -2.771  -0.098   0.711  1.00  0.00    -0.007 A 
HETATM   14  C9  UNL     1      -3.446   0.710   1.593  1.00  0.00     0.014 A 
HETATM   15  C10 UNL     1      -4.822   0.772   1.649  1.00  0.00     0.001 A 
HETATM   16  C11 UNL     1      -5.603   0.022   0.819  1.00  0.00     0.007 A 
HETATM   17  C12 UNL     1      -4.978  -0.803  -0.082  1.00  0.00    -0.061 A 
HETATM   18  C13 UNL     1      -5.825  -1.618  -0.983  1.00  0.00     0.048 C 
HETATM   19  C14 UNL     1      -3.601  -0.851  -0.124  1.00  0.00     0.020 A 
ENDBRANCH   7  13
BRANCH   2  20
HETATM   20  O2  UNL     1       5.121   2.263   0.876  1.00  0.00    -0.339 OA
HETATM   21  H4  UNL     1       6.075   2.062   0.695  1.00  0.00     0.220 HD
ENDBRANCH   2  20
BRANCH   1  22
HETATM   22  O1  UNL     1       5.805  -0.155  -0.267  1.00  0.00    -0.351 OA
HETATM   23  C1  UNL     1       6.584   0.177  -1.394  1.00  0.00     0.210 C 
ENDBRANCH   1  22
TORSDOF 3
