REMARK  11 active torsions:
REMARK  status: ('A' for Active; 'I' for Inactive)
REMARK    1  A    between atoms: C2_2  and  C3_3 
REMARK    2  A    between atoms: C3_3  and  C4_4 
REMARK    3  A    between atoms: C4_4  and  N1_5 
REMARK    4  A    between atoms: N1_5  and  C5_6 
REMARK    5  A    between atoms: N1_5  and  C15_22 
REMARK    6  A    between atoms: C5_6  and  C6_7 
REMARK    7  A    between atoms: C7_8  and  C8_9 
REMARK       I    between atoms: C8_9  and  N2_11 
REMARK    8  A    between atoms: N2_11  and  C9_12 
REMARK    9  A    between atoms: C12_16  and  O2_17 
REMARK   10  A    between atoms: C15_22  and  C16_23 
REMARK   11  A    between atoms: C16_23  and  C17_24 
ROOT
HETATM    1  C8  UNL     1       2.118  -0.875   0.036  1.00  0.00     0.302 C 
HETATM    2  O1  UNL     1       2.460   0.187   0.658  1.00  0.00    -0.258 OA
HETATM    3  N2  UNL     1       3.026  -1.953  -0.122  1.00  0.00    -0.299 N 
HETATM    4  H12 UNL     1       2.656  -2.782  -0.632  1.00  0.00     0.171 HD
ENDROOT
BRANCH   1   5
HETATM    5  C7  UNL     1       0.761  -0.835  -0.463  1.00  0.00    -0.004 C 
HETATM    6  C6  UNL     1      -0.363  -0.793  -0.897  1.00  0.00    -0.077 C 
BRANCH   6   7
HETATM    7  C5  UNL     1      -1.749  -0.723  -1.453  1.00  0.00     0.212 C 
BRANCH   7   8
HETATM    8  N1  UNL     1      -2.433   0.282  -0.684  1.00  0.00    -0.403 N 
BRANCH   8   9
HETATM    9  C4  UNL     1      -2.831  -0.002   0.604  1.00  0.00     0.117 C 
BRANCH   9  10
HETATM   10  C3  UNL     1      -4.071  -0.809   0.846  1.00  0.00     0.019 C 
BRANCH  10  11
HETATM   11  C2  UNL     1      -4.175  -2.168   0.249  1.00  0.00    -0.003 C 
HETATM   12  C1  UNL     1      -5.523  -2.774   0.704  1.00  0.00     0.005 C 
ENDBRANCH  10  11
ENDBRANCH   9  10
ENDBRANCH   8   9
BRANCH   8  13
HETATM   13  C15 UNL     1      -2.800   1.412  -1.393  1.00  0.00     0.117 C 
BRANCH  13  14
HETATM   14  C16 UNL     1      -2.228   2.727  -1.033  1.00  0.00     0.019 C 
BRANCH  14  15
HETATM   15  C17 UNL     1      -2.456   3.309   0.308  1.00  0.00    -0.003 C 
HETATM   16  C18 UNL     1      -3.902   3.484   0.651  1.00  0.00     0.005 C 
ENDBRANCH  14  15
ENDBRANCH  13  14
ENDBRANCH   8  13
ENDBRANCH   7   8
ENDBRANCH   6   7
ENDBRANCH   1   5
BRANCH   3  17
HETATM   17  C9  UNL     1       4.371  -1.871   0.399  1.00  0.00     0.148 C 
HETATM   18  C10 UNL     1       4.623  -0.703   1.014  1.00  0.00     0.067 C 
HETATM   19  S1  UNL     1       5.992  -0.154   0.395  1.00  0.00    -0.099 SA
HETATM   20  C11 UNL     1       7.203   1.192   0.375  1.00  0.00     0.104 A 
HETATM   21  C13 UNL     1       7.201  -1.522   0.158  1.00  0.00     0.113 A 
HETATM   22  C12 UNL     1       8.322   0.461   0.197  1.00  0.00     0.169 A 
HETATM   23  N3  UNL     1       8.341  -0.931   0.084  1.00  0.00    -0.216 NA
HETATM   24  C14 UNL     1       6.556  -2.871   0.105  1.00  0.00     0.158 C 
HETATM   25  N4  UNL     1       5.272  -2.931   0.224  1.00  0.00    -0.239 NA
BRANCH  22  26
HETATM   26  O2  UNL     1       9.515   1.217   0.130  1.00  0.00    -0.344 OA
HETATM   27  H14 UNL     1       9.917   1.665   0.929  1.00  0.00     0.219 HD
ENDBRANCH  22  26
ENDBRANCH   3  17
TORSDOF 11
