REMARK  6 active torsions:
REMARK  status: ('A' for Active; 'I' for Inactive)
REMARK    1  A    between atoms: C2_2  and  C3_3 
REMARK    2  A    between atoms: C3_3  and  C4_4 
REMARK    3  A    between atoms: C4_4  and  N1_5 
REMARK    4  A    between atoms: C11_13  and  N2_14 
REMARK    5  A    between atoms: N2_14  and  C12_15 
REMARK    6  A    between atoms: C21_29  and  C22_30 
ROOT
HETATM    1  N1  UNL     1       3.339  -0.870  -0.819  1.00  0.00     0.104 N 
HETATM    2  C5  UNL     1       2.569  -0.107  -1.789  1.00  0.00     0.366 C 
HETATM    3  C6  UNL     1       1.722   0.862  -1.247  1.00  0.00    -0.068 C 
HETATM    4  C7  UNL     1       1.019   1.639  -0.798  1.00  0.00    -0.020 C 
HETATM    5  C8  UNL     1       0.150   2.570  -0.234  1.00  0.00     0.253 C 
HETATM    6  O1  UNL     1       0.302   3.795  -0.114  1.00  0.00    -0.276 OA
HETATM    7  C9  UNL     1      -1.031   1.859   0.224  1.00  0.00     0.115 C 
HETATM    8  C10 UNL     1      -2.111   1.330  -0.312  1.00  0.00     0.062 C 
HETATM    9  C11 UNL     1      -2.634   0.051   0.256  1.00  0.00     0.119 C 
HETATM   10  C18 UNL     1      -2.527  -0.050   1.744  1.00  0.00     0.104 C 
HETATM   11  C19 UNL     1      -1.837   1.127   2.312  1.00  0.00     0.095 C 
HETATM   12  N3  UNL     1      -0.918   1.734   1.613  1.00  0.00    -0.261 NA
HETATM   13  N4  UNL     1      -1.772  -0.974  -0.318  1.00  0.00    -0.393 NA
HETATM   14  C20 UNL     1      -0.596  -1.193   0.091  1.00  0.00     0.439 C 
HETATM   15  N5  UNL     1       0.185  -2.211  -0.520  1.00  0.00    -0.265 NA
HETATM   16  C21 UNL     1       1.470  -2.284  -0.477  1.00  0.00     0.037 C 
HETATM   17  C24 UNL     1       2.430  -1.376   0.192  1.00  0.00     0.327 C 
ENDROOT
BRANCH   9  18
HETATM   18  N2  UNL     1      -3.998  -0.150  -0.204  1.00  0.00    -0.361 N 
HETATM   19  H13 UNL     1      -4.191  -1.052  -0.738  1.00  0.00     0.162 HD
BRANCH  18  20
HETATM   20  C12 UNL     1      -5.087   0.705  -0.023  1.00  0.00     0.031 A 
HETATM   21  C13 UNL     1      -5.052   1.920   0.624  1.00  0.00     0.032 A 
HETATM   22  C14 UNL     1      -6.110   2.779   0.821  1.00  0.00     0.046 A 
HETATM   23  C15 UNL     1      -7.343   2.383   0.315  1.00  0.00     0.138 A 
HETATM   24  F1  UNL     1      -8.444   3.145   0.450  1.00  0.00    -0.204 F 
HETATM   25  C16 UNL     1      -7.454   1.181  -0.344  1.00  0.00     0.074 A 
HETATM   26 CL1  UNL     1      -8.989   0.680  -0.977  1.00  0.00    -0.081 Cl
HETATM   27  C17 UNL     1      -6.341   0.384  -0.495  1.00  0.00     0.056 A 
ENDBRANCH  18  20
ENDBRANCH   9  18
BRANCH  16  28
HETATM   28  C22 UNL     1       2.136  -3.407  -1.165  1.00  0.00     0.051 C 
HETATM   29  C23 UNL     1       1.121  -4.319  -1.844  1.00  0.00     0.011 C 
ENDBRANCH  16  28
BRANCH   1  30
HETATM   30  C4  UNL     1       4.299   0.057  -0.263  1.00  0.00     0.274 C 
BRANCH  30  31
HETATM   31  C3  UNL     1       5.211  -0.535   0.768  1.00  0.00     0.030 C 
BRANCH  31  32
HETATM   32  C2  UNL     1       6.143   0.576   1.240  1.00  0.00    -0.003 C 
HETATM   33  C1  UNL     1       5.385   1.719   1.845  1.00  0.00     0.005 C 
ENDBRANCH  31  32
ENDBRANCH  30  31
ENDBRANCH   1  30
TORSDOF 6
