REMARK  7 active torsions:
REMARK  status: ('A' for Active; 'I' for Inactive)
REMARK    1  A    between atoms: C2_2  and  C3_3 
REMARK    2  A    between atoms: C3_3  and  O1_4 
REMARK    3  A    between atoms: O1_4  and  C4_5 
REMARK    4  A    between atoms: C4_5  and  C5_6 
REMARK       I    between atoms: C5_6  and  N1_8 
REMARK    5  A    between atoms: N1_8  and  C6_9 
REMARK    6  A    between atoms: C9_12  and  N2_13 
REMARK    7  A    between atoms: N2_13  and  C10_14 
ROOT
HETATM    1  C6  UNL     1       0.981   1.355   1.101  1.00  0.00     0.130 A 
HETATM    2  C7  UNL     1      -0.250   0.872   0.724  1.00  0.00     0.068 A 
HETATM    3  C8  UNL     1      -1.405   1.609   0.641  1.00  0.00     0.044 A 
HETATM    4  C9  UNL     1      -2.627   1.112   0.262  1.00  0.00     0.142 A 
HETATM    5  N3  UNL     1      -3.610   2.017   0.254  1.00  0.00    -0.224 NA
HETATM    6  C16 UNL     1      -3.501   3.310   0.571  1.00  0.00     0.236 A 
HETATM    7  N4  UNL     1      -2.305   3.794   0.940  1.00  0.00    -0.240 NA
HETATM    8  C17 UNL     1      -1.273   2.939   0.971  1.00  0.00     0.089 A 
HETATM    9  C18 UNL     1      -0.064   3.463   1.352  1.00  0.00     0.151 A 
HETATM   10  N5  UNL     1       0.997   2.670   1.403  1.00  0.00    -0.241 NA
ENDROOT
BRANCH   4  11
HETATM   11  N2  UNL     1      -2.760  -0.255  -0.077  1.00  0.00    -0.340 N 
HETATM   12  H12 UNL     1      -1.964  -0.887  -0.046  1.00  0.00     0.167 HD
BRANCH  11  13
HETATM   13  C10 UNL     1      -3.909  -0.980  -0.491  1.00  0.00     0.035 A 
HETATM   14  C11 UNL     1      -3.940  -2.314  -0.798  1.00  0.00     0.032 A 
HETATM   15  C12 UNL     1      -5.058  -3.001  -1.197  1.00  0.00     0.046 A 
HETATM   16  C13 UNL     1      -6.260  -2.342  -1.312  1.00  0.00     0.138 A 
HETATM   17  F1  UNL     1      -7.313  -3.093  -1.711  1.00  0.00    -0.204 F 
HETATM   18  C14 UNL     1      -6.288  -0.996  -1.015  1.00  0.00     0.074 A 
HETATM   19 CL1  UNL     1      -7.847  -0.221  -1.182  1.00  0.00    -0.081 Cl
HETATM   20  C15 UNL     1      -5.132  -0.359  -0.619  1.00  0.00     0.056 A 
ENDBRANCH  11  13
ENDBRANCH   4  11
BRANCH   1  21
HETATM   21  N1  UNL     1       2.194   0.686   1.213  1.00  0.00    -0.310 N 
HETATM   22  C5  UNL     1       2.570  -0.647   0.991  1.00  0.00     0.246 C 
HETATM   23  O2  UNL     1       1.601  -1.407   0.616  1.00  0.00    -0.271 OA
HETATM   24  H10 UNL     1       3.051   1.176   1.526  1.00  0.00     0.170 HD
BRANCH  22  25
HETATM   25  C4  UNL     1       3.738  -1.527   1.041  1.00  0.00     0.270 C 
BRANCH  25  26
HETATM   26  O1  UNL     1       4.935  -1.041   1.393  1.00  0.00    -0.382 OA
BRANCH  26  27
HETATM   27  C3  UNL     1       5.623  -0.129   0.703  1.00  0.00     0.168 C 
BRANCH  27  28
HETATM   28  C2  UNL     1       6.048  -0.445  -0.698  1.00  0.00     0.022 C 
HETATM   29  C1  UNL     1       4.988  -0.717  -1.689  1.00  0.00     0.007 C 
ENDBRANCH  27  28
ENDBRANCH  26  27
ENDBRANCH  25  26
ENDBRANCH  22  25
ENDBRANCH   1  21
TORSDOF 7
