REMARK  7 active torsions:
REMARK  status: ('A' for Active; 'I' for Inactive)
REMARK    1  A    between atoms: C7_7  and  N1_8 
REMARK    2  A    between atoms: N1_8  and  C8_9 
REMARK    3  A    between atoms: C15_19  and  O2_20 
REMARK    4  A    between atoms: O2_20  and  C16_21 
REMARK    5  A    between atoms: C16_21  and  C17_22 
REMARK    6  A    between atoms: C17_22  and  O3_23 
REMARK    7  A    between atoms: C19_25  and  O4_26 
ROOT
HETATM    1  C1  UNL     1      -8.348   2.719  -0.429  1.00  0.00     0.018 C 
HETATM    2  C2  UNL     1      -7.394   2.004  -0.245  1.00  0.00    -0.078 C 
HETATM    3  C3  UNL     1      -6.256   1.121  -0.034  1.00  0.00     0.019 A 
HETATM    4  C4  UNL     1      -6.283   0.051   0.838  1.00  0.00     0.021 A 
HETATM    5  C5  UNL     1      -5.168  -0.750   0.994  1.00  0.00     0.004 A 
HETATM    6  C6  UNL     1      -4.063  -0.412   0.239  1.00  0.00     0.029 A 
HETATM    7  C7  UNL     1      -3.937   0.628  -0.653  1.00  0.00     0.034 A 
HETATM    8  C21 UNL     1      -5.091   1.381  -0.753  1.00  0.00     0.050 A 
ENDROOT
BRANCH   7   9
HETATM    9  N1  UNL     1      -2.818   0.954  -1.411  1.00  0.00    -0.343 N 
HETATM   10  H5  UNL     1      -2.872   1.821  -2.032  1.00  0.00     0.167 HD
BRANCH   9  11
HETATM   11  C8  UNL     1      -1.589   0.193  -1.403  1.00  0.00     0.129 C 
HETATM   12  N2  UNL     1      -1.793  -1.074  -1.444  1.00  0.00    -0.226 NA
HETATM   13  C9  UNL     1      -0.941  -2.159  -1.453  1.00  0.00     0.235 C 
HETATM   14  N3  UNL     1       0.221  -2.594  -0.984  1.00  0.00    -0.239 NA
HETATM   15  C10 UNL     1       0.891  -1.620  -0.153  1.00  0.00     0.091 C 
HETATM   16  C11 UNL     1       0.133  -1.235   0.854  1.00  0.00     0.021 C 
HETATM   17  C19 UNL     1       2.154  -0.856  -0.078  1.00  0.00     0.126 C 
HETATM   18  C12 UNL     1       0.724   0.012   1.417  1.00  0.00     0.094 C 
HETATM   19  C13 UNL     1      -0.093   1.199   1.015  1.00  0.00     0.183 C 
HETATM   20  C15 UNL     1       2.115  -0.036   0.957  1.00  0.00     0.091 C 
HETATM   21  O1  UNL     1      -0.058   1.664  -0.225  1.00  0.00    -0.383 OA
HETATM   22  C14 UNL     1      -0.308   0.998  -1.341  1.00  0.00     0.246 C 
BRANCH  20  23
HETATM   23  O2  UNL     1       3.369   0.514   1.284  1.00  0.00    -0.350 OA
BRANCH  23  24
HETATM   24  C16 UNL     1       4.495  -0.285   1.592  1.00  0.00     0.201 C 
BRANCH  24  25
HETATM   25  C17 UNL     1       5.651   0.610   1.908  1.00  0.00     0.193 C 
BRANCH  25  26
HETATM   26  O3  UNL     1       5.937   1.414   0.826  1.00  0.00    -0.394 OA
HETATM   27  C18 UNL     1       6.284   0.752  -0.325  1.00  0.00     0.201 C 
ENDBRANCH  25  26
ENDBRANCH  24  25
ENDBRANCH  23  24
ENDBRANCH  20  23
BRANCH  17  28
HETATM   28  O4  UNL     1       3.076  -1.166  -1.091  1.00  0.00    -0.351 OA
HETATM   29  C20 UNL     1       3.452  -2.456  -1.455  1.00  0.00     0.210 C 
ENDBRANCH  17  28
ENDBRANCH   9  11
ENDBRANCH   7   9
TORSDOF 7
