REMARK  4 active torsions:
REMARK  status: ('A' for Active; 'I' for Inactive)
REMARK    1  A    between atoms: O1_1  and  C1_2 
REMARK    2  A    between atoms: C6_9  and  N3_10 
REMARK    3  A    between atoms: N3_10  and  C7_11 
REMARK    4  A    between atoms: C10_15  and  C11_16 
ROOT
HETATM    1  C1  UNL     1       3.275  -0.489   1.666  1.00  0.00     0.177 A 
HETATM    2  C2  UNL     1       2.954   0.031   0.503  1.00  0.00     0.077 A 
HETATM    3  C3  UNL     1       4.060   0.081  -0.348  1.00  0.00     0.092 A 
HETATM    4  N1  UNL     1       3.929   0.579  -1.576  1.00  0.00    -0.240 NA
HETATM    5  C4  UNL     1       2.764   1.051  -2.060  1.00  0.00     0.234 A 
HETATM    6  N2  UNL     1       1.681   1.008  -1.241  1.00  0.00    -0.240 NA
HETATM    7  C5  UNL     1       1.760   0.514   0.009  1.00  0.00     0.090 A 
HETATM    8  C6  UNL     1       0.633   0.530   0.703  1.00  0.00     0.121 C 
HETATM    9  C13 UNL     1       5.127  -0.497   0.478  1.00  0.00     0.152 A 
HETATM   10  N4  UNL     1       4.668  -0.830   1.656  1.00  0.00    -0.234 NA
ENDROOT
BRANCH   8  11
HETATM   11  N3  UNL     1      -0.637   1.006   0.277  1.00  0.00    -0.363 N 
HETATM   12  H4  UNL     1      -0.696   1.995   0.002  1.00  0.00     0.165 HD
BRANCH  11  13
HETATM   13  C7  UNL     1      -1.776   0.180   0.227  1.00  0.00     0.047 C 
HETATM   14  C8  UNL     1      -1.877  -1.118   0.300  1.00  0.00     0.045 C 
HETATM   15  C9  UNL     1      -3.022  -1.580  -0.179  1.00  0.00     0.137 C 
HETATM   16  F1  UNL     1      -3.414  -2.805  -0.615  1.00  0.00    -0.204 F 
HETATM   17  C10 UNL     1      -3.935  -0.433  -0.175  1.00  0.00    -0.003 C 
HETATM   18  C12 UNL     1      -3.155   0.628   0.074  1.00  0.00     0.041 C 
BRANCH  17  19
HETATM   19  C11 UNL     1      -5.399  -0.442  -0.397  1.00  0.00     0.156 C 
HETATM   20 CL1  UNL     1      -5.831  -1.089  -1.993  1.00  0.00    -0.125 Cl
ENDBRANCH  17  19
ENDBRANCH  11  13
ENDBRANCH   8  11
BRANCH   1  21
HETATM   21  O1  UNL     1       2.409  -0.684   2.744  1.00  0.00    -0.344 OA
HETATM   22  H1  UNL     1       2.263   0.070   3.402  1.00  0.00     0.219 HD
ENDBRANCH   1  21
TORSDOF 4
