REMARK  1 active torsions:
REMARK  status: ('A' for Active; 'I' for Inactive)
REMARK    1  A    between atoms: C4_5  and  C5_6 
ROOT
HETATM    1  O1  UNL     1       0.789   2.666  -0.016  1.00  0.00     0.000 OA
HETATM    2  C1  UNL     1       1.725   1.947  -0.382  1.00  0.00     0.093 A 
HETATM    3  C2  UNL     1       2.094   0.623  -0.297  1.00  0.00    -0.085 C 
HETATM    4  C3  UNL     1       2.378  -0.466  -0.236  1.00  0.00    -0.066 C 
HETATM    5  C4  UNL     1       2.704  -1.810  -0.168  1.00  0.00     0.015 C 
HETATM    6  C7  UNL     1       1.473  -1.984  -0.565  1.00  0.00     0.022 C 
HETATM    7  C8  UNL     1       0.146  -2.280  -0.995  1.00  0.00     0.019 C 
HETATM    8  C9  UNL     1      -0.651  -1.263  -1.217  1.00  0.00     0.090 C 
HETATM    9  N1  UNL     1      -1.245   0.021  -1.364  1.00  0.00    -0.350 N 
HETATM   10  C10 UNL     1      -2.185   0.678  -0.469  1.00  0.00     0.138 A 
HETATM   11  N2  UNL     1      -3.274  -0.047  -0.723  1.00  0.00    -0.224 NA
HETATM   12  C11 UNL     1      -4.482   0.126  -0.159  1.00  0.00     0.234 A 
HETATM   13  N3  UNL     1      -4.616   1.126   0.753  1.00  0.00    -0.253 NA
HETATM   14  C12 UNL     1      -3.507   1.848   0.998  1.00  0.00     0.130 A 
HETATM   15  C13 UNL     1      -2.254   1.709   0.447  1.00  0.00     0.025 A 
HETATM   16  C14 UNL     1      -1.300   2.738   1.002  1.00  0.00     0.186 C 
HETATM   17  N4  UNL     1       0.003   2.554   0.366  1.00  0.00    -0.316 N 
HETATM   18  C15 UNL     1       0.572   1.369   0.404  1.00  0.00     0.152 A 
HETATM   19  H6  UNL     1      -1.059   0.650  -2.170  1.00  0.00     0.166 HD
ENDROOT
BRANCH   5  20
HETATM   20  C5  UNL     1       3.957  -2.386   0.214  1.00  0.00     0.011 C 
HETATM   21  C6  UNL     1       4.825  -1.440   0.517  1.00  0.00     0.208 C 
HETATM   22 BR1  UNL     1       6.447  -2.317   1.007  1.00  0.00    -0.193 Br
ENDBRANCH   5  20
TORSDOF 1
