REMARK  3 active torsions:
REMARK  status: ('A' for Active; 'I' for Inactive)
REMARK       I    between atoms: C3_3  and  N1_5 
REMARK    1  A    between atoms: N1_5  and  C4_6 
REMARK    2  A    between atoms: C7_9  and  N2_10 
REMARK    3  A    between atoms: N2_10  and  S1_11 
ROOT
HETATM    1  C1  UNL     1       6.225  -1.106   2.213  1.00  0.00     0.022 C 
HETATM    2  C2  UNL     1       5.121  -0.967   1.740  1.00  0.00    -0.016 C 
HETATM    3  C3  UNL     1       3.821  -0.803   1.161  1.00  0.00     0.301 C 
HETATM    4  O1  UNL     1       2.989  -0.178   1.846  1.00  0.00    -0.258 OA
HETATM    5  N1  UNL     1       3.446  -1.300  -0.111  1.00  0.00    -0.301 N 
HETATM    6  H2  UNL     1       4.236  -1.799  -0.572  1.00  0.00     0.171 HD
ENDROOT
BRANCH   5   7
HETATM    7  C4  UNL     1       2.197  -1.190  -0.766  1.00  0.00     0.131 A 
HETATM    8  C5  UNL     1       1.057  -0.580  -0.326  1.00  0.00     0.068 A 
HETATM    9  C6  UNL     1      -0.111  -0.527  -1.039  1.00  0.00     0.044 A 
HETATM   10  C7  UNL     1      -1.210   0.109  -0.517  1.00  0.00     0.146 A 
HETATM   11  C12 UNL     1      -0.190  -1.107  -2.271  1.00  0.00     0.089 A 
HETATM   12  N3  UNL     1      -2.350   0.158  -1.218  1.00  0.00    -0.223 NA
HETATM   13  C11 UNL     1      -2.410  -0.428  -2.450  1.00  0.00     0.236 A 
HETATM   14  N4  UNL     1      -1.323  -1.062  -2.975  1.00  0.00    -0.240 NA
HETATM   15  C13 UNL     1       0.966  -1.720  -2.706  1.00  0.00     0.151 A 
HETATM   16  N5  UNL     1       2.077  -1.748  -1.982  1.00  0.00    -0.241 NA
BRANCH  10  17
HETATM   17  N2  UNL     1      -1.226   0.741   0.756  1.00  0.00    -0.327 N 
HETATM   18  H4  UNL     1      -0.508   0.852   1.484  1.00  0.00     0.174 HD
BRANCH  17  19
HETATM   19  S1  UNL     1      -2.631   1.572   1.457  1.00  0.00    -0.138 SA
HETATM   20  C8  UNL     1      -3.706   1.357   2.664  1.00  0.00     0.007 A 
HETATM   21  C9  UNL     1      -4.347   2.388   2.188  1.00  0.00     0.102 A 
HETATM   22  C10 UNL     1      -4.378   1.730   0.880  1.00  0.00     0.100 A 
ENDBRANCH  17  19
ENDBRANCH  10  17
ENDBRANCH   5   7
TORSDOF 3
