REMARK  3 active torsions:
REMARK  status: ('A' for Active; 'I' for Inactive)
REMARK       I    between atoms: C3_3  and  N1_5 
REMARK    1  A    between atoms: N1_5  and  C4_6 
REMARK    2  A    between atoms: C7_9  and  N2_10 
REMARK    3  A    between atoms: N2_10  and  C8_11 
ROOT
HETATM    1  C1  UNL     1       6.025   2.721  -1.856  1.00  0.00     0.022 C 
HETATM    2  C2  UNL     1       5.266   1.884  -1.446  1.00  0.00    -0.016 C 
HETATM    3  C3  UNL     1       4.351   0.884  -0.928  1.00  0.00     0.301 C 
HETATM    4  O1  UNL     1       3.983   0.020  -1.781  1.00  0.00    -0.258 OA
HETATM    5  N1  UNL     1       3.896   0.858   0.416  1.00  0.00    -0.301 N 
HETATM    6  H2  UNL     1       4.262   1.624   1.054  1.00  0.00     0.171 HD
ENDROOT
BRANCH   5   7
HETATM    7  C4  UNL     1       2.996  -0.244   0.651  1.00  0.00     0.131 A 
HETATM    8  C5  UNL     1       1.642  -0.127   0.481  1.00  0.00     0.068 A 
HETATM    9  C6  UNL     1       0.722  -1.127   0.684  1.00  0.00     0.044 A 
HETATM   10  C7  UNL     1      -0.637  -0.973   0.503  1.00  0.00     0.142 A 
HETATM   11  C15 UNL     1       1.301  -2.311   1.090  1.00  0.00     0.089 A 
HETATM   12  N3  UNL     1      -1.312  -2.095   0.765  1.00  0.00    -0.224 NA
HETATM   13  C14 UNL     1      -0.855  -3.262   1.154  1.00  0.00     0.236 A 
HETATM   14  N4  UNL     1       0.480  -3.372   1.320  1.00  0.00    -0.240 NA
HETATM   15  C16 UNL     1       2.656  -2.470   1.273  1.00  0.00     0.151 A 
HETATM   16  N5  UNL     1       3.496  -1.442   1.054  1.00  0.00    -0.241 NA
BRANCH  10  17
HETATM   17  N2  UNL     1      -1.164   0.270   0.089  1.00  0.00    -0.340 N 
HETATM   18  H4  UNL     1      -0.541   1.082  -0.074  1.00  0.00     0.167 HD
BRANCH  17  19
HETATM   19  C8  UNL     1      -2.492   0.605  -0.154  1.00  0.00     0.033 A 
HETATM   20  C9  UNL     1      -3.510  -0.311  -0.112  1.00  0.00     0.031 A 
HETATM   21  C10 UNL     1      -4.839  -0.034  -0.338  1.00  0.00     0.021 A 
HETATM   22  C11 UNL     1      -5.231   1.265  -0.637  1.00  0.00     0.011 A 
HETATM   23 BR1  UNL     1      -7.014   1.793  -0.969  1.00  0.00    -0.051 Br
HETATM   24  C12 UNL     1      -4.246   2.227  -0.692  1.00  0.00     0.021 A 
HETATM   25  C13 UNL     1      -2.939   1.871  -0.454  1.00  0.00     0.031 A 
ENDBRANCH  17  19
ENDBRANCH  10  17
ENDBRANCH   5   7
TORSDOF 3
