REMARK  8 active torsions:
REMARK  status: ('A' for Active; 'I' for Inactive)
REMARK    1  A    between atoms: O1_2  and  C2_3 
REMARK    2  A    between atoms: C2_3  and  C3_4 
REMARK    3  A    between atoms: C3_4  and  C4_5 
REMARK    4  A    between atoms: C9_13  and  C10_14 
REMARK    5  A    between atoms: C10_14  and  C11_15 
REMARK    6  A    between atoms: C12_16  and  C13_17 
REMARK    7  A    between atoms: C13_17  and  C14_18 
REMARK    8  A    between atoms: C16_20  and  C17_21 
ROOT
HETATM    1  C4  UNL     1      -2.399   0.620   0.619  1.00  0.00    -0.035 C 
HETATM    2  C5  UNL     1      -3.314  -0.232   0.978  1.00  0.00     0.141 C 
HETATM    3  O2  UNL     1      -2.748  -1.414   0.884  1.00  0.00    -0.358 OA
HETATM    4  C6  UNL     1      -2.779  -2.545   1.787  1.00  0.00     0.229 C 
HETATM    5  C7  UNL     1      -1.853  -3.540   1.336  1.00  0.00     0.265 C 
HETATM    6  N1  UNL     1      -0.464  -3.176   1.425  1.00  0.00    -0.260 NA
HETATM    7  C8  UNL     1       0.508  -2.758   0.876  1.00  0.00     0.354 A 
HETATM    8  N2  UNL     1       0.329  -2.413  -0.653  1.00  0.00    -0.000 N 
HETATM    9  C9  UNL     1       1.420  -1.708  -0.962  1.00  0.00     0.214 A 
HETATM   10  C18 UNL     1       0.028  -2.016  -0.614  1.00  0.00     0.226 A 
HETATM   11  C19 UNL     1      -0.029  -3.387  -0.731  1.00  0.00     0.263 A 
HETATM   12  C20 UNL     1      -1.111  -4.483  -0.553  1.00  0.00     0.207 C 
HETATM   13  O3  UNL     1      -2.141  -3.594  -0.137  1.00  0.00    -0.361 OA
HETATM   14  C21 UNL     1      -0.615  -0.730  -0.242  1.00  0.00     0.019 C 
HETATM   15  C22 UNL     1      -1.067   0.451   0.042  1.00  0.00     0.007 C 
ENDROOT
BRANCH   9  16
HETATM   16  C10 UNL     1       2.190  -0.975  -1.980  1.00  0.00     0.072 C 
BRANCH  16  17
HETATM   17  C11 UNL     1       2.028   0.511  -1.754  1.00  0.00    -0.024 C 
HETATM   18  C12 UNL     1       3.109   1.247  -1.588  1.00  0.00    -0.007 C 
BRANCH  18  19
HETATM   19  C13 UNL     1       3.935   2.423  -1.361  1.00  0.00    -0.008 C 
BRANCH  19  20
HETATM   20  C14 UNL     1       5.070   3.081  -1.230  1.00  0.00     0.032 A 
HETATM   21  C15 UNL     1       5.777   2.662  -1.318  1.00  0.00    -0.053 A 
HETATM   22  C16 UNL     1       6.241   2.373  -1.378  1.00  0.00    -0.053 A 
HETATM   23  C17 UNL     1       6.872   1.960  -1.464  1.00  0.00     0.085 A 
ENDBRANCH  19  20
ENDBRANCH  18  19
ENDBRANCH  16  17
ENDBRANCH   9  16
BRANCH   1  24
HETATM   24  C3  UNL     1      -2.837   2.038   0.667  1.00  0.00     0.066 C 
BRANCH  24  25
HETATM   25  C2  UNL     1      -1.977   2.896   1.527  1.00  0.00     0.171 C 
BRANCH  25  26
HETATM   26  O1  UNL     1      -2.387   4.205   1.523  1.00  0.00    -0.396 OA
HETATM   27  C1  UNL     1      -3.646   4.463   1.994  1.00  0.00     0.201 C 
ENDBRANCH  25  26
ENDBRANCH  24  25
ENDBRANCH   1  24
TORSDOF 8
