REMARK  4 active torsions:
REMARK  status: ('A' for Active; 'I' for Inactive)
REMARK       I    between atoms: N1_2  and  C2_3 
REMARK    1  A    between atoms: C2_3  and  C3_5 
REMARK    2  A    between atoms: C3_5  and  N2_7 
REMARK    3  A    between atoms: N2_7  and  C6_9 
REMARK    4  A    between atoms: C6_9  and  C7_10 
ROOT
HETATM    1  C7  UNL     1       0.025  -0.685  -1.566  1.00  0.00    -0.024 A 
HETATM    2  C8  UNL     1      -0.825  -0.384  -0.603  1.00  0.00     0.019 A 
HETATM    3  C9  UNL     1      -2.266  -0.415  -0.594  1.00  0.00    -0.029 A 
HETATM    4  C10 UNL     1      -3.026  -0.069   0.439  1.00  0.00     0.049 C 
HETATM    5  C11 UNL     1      -2.528   0.393   1.725  1.00  0.00     0.133 C 
HETATM    6  C12 UNL     1      -3.027   1.663   2.220  1.00  0.00     0.134 C 
HETATM    7  F1  UNL     1      -2.171   2.356   3.051  1.00  0.00    -0.207 F 
HETATM    8  C13 UNL     1      -4.164   2.320   2.040  1.00  0.00     0.135 C 
HETATM    9  F2  UNL     1      -4.296   3.523   2.678  1.00  0.00    -0.207 F 
HETATM   10  C14 UNL     1      -5.345   1.981   1.255  1.00  0.00     0.145 C 
HETATM   11  C15 UNL     1      -5.337   0.670   0.581  1.00  0.00     0.110 C 
HETATM   12 CL1  UNL     1      -6.998   0.197   0.155  1.00  0.00    -0.067 Cl
HETATM   13  N3  UNL     1      -4.413  -0.159   0.250  1.00  0.00    -0.244 NA
HETATM   14  C16 UNL     1      -2.891  -0.872  -1.850  1.00  0.00     0.068 A 
HETATM   15  C17 UNL     1      -1.888  -1.193  -2.890  1.00  0.00    -0.015 A 
HETATM   16  C18 UNL     1      -0.579  -1.131  -2.826  1.00  0.00    -0.057 A 
HETATM   17  C19 UNL     1       0.182  -1.520  -4.025  1.00  0.00     0.048 C 
ENDROOT
BRANCH   1  18
HETATM   18  C6  UNL     1       1.485  -0.638  -1.528  1.00  0.00     0.312 C 
BRANCH  18  19
HETATM   19  N2  UNL     1       2.047  -0.250  -0.238  1.00  0.00     0.101 N 
HETATM   20  C5  UNL     1       1.916  -1.459   0.599  1.00  0.00     0.311 C 
BRANCH  19  21
HETATM   21  C3  UNL     1       3.484  -0.102  -0.479  1.00  0.00     0.309 C 
HETATM   22  C4  UNL     1       3.703   1.022  -1.487  1.00  0.00     0.053 C 
BRANCH  21  23
HETATM   23  C2  UNL     1       4.268   0.107   0.740  1.00  0.00     0.250 C 
HETATM   24  N1  UNL     1       3.922   0.287   2.106  1.00  0.00    -0.364 N 
HETATM   25  C1  UNL     1       4.931   0.477   3.128  1.00  0.00     0.149 C 
HETATM   26  H4  UNL     1       2.900   0.266   2.228  1.00  0.00     0.161 HD
HETATM   27  O1  UNL     1       5.507   0.117   0.412  1.00  0.00    -0.271 OA
ENDBRANCH  21  23
ENDBRANCH  19  21
ENDBRANCH  18  19
ENDBRANCH   1  18
TORSDOF 4
