REMARK  5 active torsions:
REMARK  status: ('A' for Active; 'I' for Inactive)
REMARK    1  A    between atoms: N1_1  and  C1_2 
REMARK    2  A    between atoms: C2_3  and  C3_4 
REMARK    3  A    between atoms: C3_4  and  C4_6 
REMARK    4  A    between atoms: C7_9  and  C8_10 
REMARK    5  A    between atoms: C15_19  and  N3_20 
ROOT
HETATM    1  C4  UNL     1       2.015  -1.246  -0.165  1.00  0.00     0.116 C 
HETATM    2  C5  UNL     1       1.045  -0.313  -0.297  1.00  0.00     0.049 C 
HETATM    3  C6  UNL     1      -0.197  -1.025  -0.586  1.00  0.00     0.022 A 
HETATM    4  C7  UNL     1      -1.476  -0.810  -0.221  1.00  0.00     0.076 A 
HETATM    5  N2  UNL     1      -2.335  -1.863  -0.714  1.00  0.00    -0.260 NA
HETATM    6  C14 UNL     1      -1.587  -2.703  -1.386  1.00  0.00     0.142 A 
HETATM    7  C15 UNL     1      -0.203  -2.241  -1.392  1.00  0.00     0.252 A 
HETATM    8  C16 UNL     1       0.897  -3.133  -1.122  1.00  0.00     0.142 C 
HETATM    9  N4  UNL     1       1.934  -2.608  -0.549  1.00  0.00    -0.257 NA
ENDROOT
BRANCH   1  10
HETATM   10  C3  UNL     1       3.331  -0.740   0.155  1.00  0.00     0.255 C 
HETATM   11  O1  UNL     1       4.331  -1.483   0.309  1.00  0.00    -0.276 OA
BRANCH  10  12
HETATM   12  C2  UNL     1       3.614   0.657   0.326  1.00  0.00     0.001 C 
HETATM   13  C1  UNL     1       3.870   1.849   0.460  1.00  0.00     0.012 C 
BRANCH  13  14
HETATM   14  N1  UNL     1       4.165   3.223   0.590  1.00  0.00    -0.359 N 
HETATM   15  H1  UNL     1       3.421   3.954   0.522  1.00  0.00     0.166 HD
HETATM   16  H2  UNL     1       5.189   3.451   0.760  1.00  0.00     0.166 HD
ENDBRANCH  13  14
ENDBRANCH  10  12
ENDBRANCH   1  10
BRANCH   4  17
HETATM   17  C8  UNL     1      -1.914   0.303   0.623  1.00  0.00    -0.005 A 
HETATM   18  C9  UNL     1      -1.227   0.849   1.701  1.00  0.00     0.014 A 
HETATM   19  C10 UNL     1      -1.786   1.905   2.392  1.00  0.00     0.002 A 
HETATM   20  C11 UNL     1      -2.993   2.461   2.083  1.00  0.00     0.019 A 
HETATM   21  C12 UNL     1      -3.698   1.936   1.012  1.00  0.00     0.011 A 
HETATM   22 BR1  UNL     1      -5.400   2.649   0.499  1.00  0.00    -0.051 Br
HETATM   23  C13 UNL     1      -3.142   0.869   0.308  1.00  0.00     0.032 A 
ENDBRANCH   4  17
BRANCH   7  24
HETATM   24  N3  UNL     1       0.035  -1.670  -2.800  1.00  0.00     0.103 N 
HETATM   25  H9  UNL     1      -0.023  -2.484  -3.455  1.00  0.00     0.315 HD
HETATM   26  H10 UNL     1       1.024  -1.317  -2.699  1.00  0.00     0.315 HD
ENDBRANCH   7  24
TORSDOF 5
