REMARK  3 active torsions:
REMARK  status: ('A' for Active; 'I' for Inactive)
REMARK    1  A    between atoms: C3_4  and  C4_5 
REMARK    2  A    between atoms: C5_6  and  N1_7 
REMARK    3  A    between atoms: N1_7  and  C6_8 
ROOT
HETATM    1  C6  UNL     1       0.516   0.371   0.082  1.00  0.00     0.138 A 
HETATM    2  N2  UNL     1       1.258   0.466   1.183  1.00  0.00    -0.224 NA
HETATM    3  C7  UNL     1       0.678   0.286   2.366  1.00  0.00     0.235 A 
HETATM    4  N3  UNL     1      -0.631   0.018   2.334  1.00  0.00    -0.243 NA
HETATM    5  C8  UNL     1      -1.399  -0.084   1.243  1.00  0.00     0.073 A 
HETATM    6  C9  UNL     1      -0.814   0.100   0.020  1.00  0.00     0.026 A 
HETATM    7  C10 UNL     1      -1.401   0.080  -1.413  1.00  0.00     0.139 C 
HETATM    8  C11 UNL     1      -2.806   0.105  -1.278  1.00  0.00    -0.092 C 
HETATM    9  C12 UNL     1      -3.907   0.122  -1.150  1.00  0.00    -0.005 C 
HETATM   10  C13 UNL     1      -5.273   0.139  -0.967  1.00  0.00     0.297 C 
HETATM   11  O1  UNL     1      -6.282   0.356  -1.572  1.00  0.00    -0.258 OA
HETATM   12  N4  UNL     1      -5.237  -0.252   0.454  1.00  0.00    -0.336 N 
HETATM   13  C14 UNL     1      -5.201  -0.651   1.900  1.00  0.00     0.231 C 
HETATM   14  N5  UNL     1      -3.785  -0.873   2.240  1.00  0.00    -0.421 NA
HETATM   15  C15 UNL     1      -2.797  -0.391   1.619  1.00  0.00     0.350 C 
HETATM   16  H11 UNL     1      -6.312  -0.201   0.500  1.00  0.00     0.165 HD
ENDROOT
BRANCH   1  17
HETATM   17  N1  UNL     1       1.242   0.588  -1.131  1.00  0.00    -0.350 N 
HETATM   18  H7  UNL     1       1.097   1.601  -1.303  1.00  0.00     0.166 HD
BRANCH  17  19
HETATM   19  C5  UNL     1       1.869  -0.585  -1.652  1.00  0.00     0.090 C 
HETATM   20  C4  UNL     1       3.177  -0.688  -1.564  1.00  0.00     0.018 C 
BRANCH  20  21
HETATM   21  C3  UNL     1       4.276   0.095  -1.057  1.00  0.00     0.015 C 
HETATM   22  C2  UNL     1       5.588  -0.025  -0.978  1.00  0.00    -0.015 C 
HETATM   23  C1  UNL     1       6.348   1.081  -0.346  1.00  0.00     0.056 C 
HETATM   24 BR1  UNL     1       6.455  -1.578  -1.663  1.00  0.00    -0.056 Br
ENDBRANCH  20  21
ENDBRANCH  17  19
ENDBRANCH   1  17
TORSDOF 3
