REMARK  0 active torsions:
REMARK  status: ('A' for Active; 'I' for Inactive)
ROOT
HETATM    1  C1  UNL     1       4.054   0.779   2.242  1.00  0.00     0.018 C 
HETATM    2  C2  UNL     1       3.535  -0.131   1.647  1.00  0.00    -0.070 C 
HETATM    3  C3  UNL     1       2.928  -1.225   0.960  1.00  0.00     0.059 C 
HETATM    4  C4  UNL     1       3.341  -2.446   1.059  1.00  0.00     0.029 C 
HETATM    5  C5  UNL     1       2.685  -3.493   0.355  1.00  0.00     0.020 C 
HETATM    6  C6  UNL     1       1.646  -3.449  -0.433  1.00  0.00     0.105 C 
HETATM    7  N1  UNL     1       0.985  -2.271  -0.699  1.00  0.00    -0.299 N 
HETATM    8  C7  UNL     1      -0.235  -2.072  -1.354  1.00  0.00     0.220 C 
HETATM    9  N2  UNL     1      -0.960  -0.977  -1.302  1.00  0.00    -0.244 NA
HETATM   10  C8  UNL     1      -0.811  -0.046  -0.234  1.00  0.00     0.080 C 
HETATM   11  C9  UNL     1       0.106  -0.313   0.744  1.00  0.00     0.135 C 
HETATM   12  O1  UNL     1      -0.543  -0.195   1.972  1.00  0.00    -0.340 OA
HETATM   13  C10 UNL     1      -1.683  -0.916   2.339  1.00  0.00     0.203 C 
HETATM   14  C11 UNL     1      -2.986  -0.079   2.421  1.00  0.00     0.201 C 
HETATM   15  O2  UNL     1      -3.321   0.491   1.280  1.00  0.00    -0.361 OA
HETATM   16  C12 UNL     1      -3.691   1.087   0.207  1.00  0.00     0.138 C 
HETATM   17  C13 UNL     1      -2.637   1.377  -0.635  1.00  0.00    -0.050 C 
HETATM   18  C14 UNL     1      -2.260   1.991  -1.962  1.00  0.00     0.062 C 
HETATM   19  C15 UNL     1      -0.880   2.671  -1.932  1.00  0.00     0.172 C 
HETATM   20  O3  UNL     1       0.101   1.835  -1.727  1.00  0.00    -0.390 OA
HETATM   21  C16 UNL     1       1.372   1.768  -1.553  1.00  0.00     0.178 C 
HETATM   22  C17 UNL     1       1.962   0.383  -1.337  1.00  0.00     0.113 C 
HETATM   23  S1  UNL     1       1.596  -0.660  -0.155  1.00  0.00    -0.078 SA
HETATM   24  C18 UNL     1      -1.393   1.193   0.169  1.00  0.00     0.099 C 
ENDROOT
TORSDOF 0
