REMARK  5 active torsions:
REMARK  status: ('A' for Active; 'I' for Inactive)
REMARK    1  A    between atoms: N1_1  and  C1_2 
REMARK    2  A    between atoms: C1_2  and  O1_3 
REMARK    3  A    between atoms: O1_3  and  C2_4 
REMARK    4  A    between atoms: C2_4  and  C3_5 
REMARK    5  A    between atoms: C3_5  and  C4_6 
ROOT
HETATM    1  C4  UNL     1       0.991  -0.345  -0.156  1.00  0.00     0.016 C 
HETATM    2  C5  UNL     1       0.695   1.105  -0.306  1.00  0.00     0.172 C 
HETATM    3  O2  UNL     1       0.636   1.760   0.944  1.00  0.00    -0.387 OA
HETATM    4  C6  UNL     1      -0.088   2.966   0.788  1.00  0.00     0.194 C 
HETATM    5  C7  UNL     1      -1.562   2.621   0.706  1.00  0.00    -0.005 C 
HETATM    6  C8  UNL     1      -2.440   1.624   0.739  1.00  0.00    -0.027 C 
HETATM    7  C9  UNL     1      -3.891   1.407   0.640  1.00  0.00     0.046 C 
HETATM    8  C10 UNL     1      -4.375   0.515  -0.439  1.00  0.00     0.123 C 
HETATM    9  N2  UNL     1      -4.105  -0.872  -0.368  1.00  0.00    -0.390 N 
HETATM   10  C11 UNL     1      -2.993  -1.739  -0.354  1.00  0.00     0.028 A 
HETATM   11  C12 UNL     1      -3.034  -3.040   0.088  1.00  0.00     0.029 A 
HETATM   12  C13 UNL     1      -1.924  -3.852   0.099  1.00  0.00     0.003 A 
HETATM   13  C14 UNL     1      -0.681  -3.468  -0.318  1.00  0.00     0.007 A 
HETATM   14  C15 UNL     1      -0.531  -2.188  -0.777  1.00  0.00    -0.056 A 
HETATM   15  C16 UNL     1      -1.720  -1.422  -0.757  1.00  0.00     0.036 A 
HETATM   16  C17 UNL     1       0.477  -1.223  -1.276  1.00  0.00     0.045 C 
HETATM   17  H20 UNL     1      -4.982  -1.484  -0.308  1.00  0.00     0.159 HD
ENDROOT
BRANCH   1  18
HETATM   18  C3  UNL     1       2.201  -0.767   0.547  1.00  0.00     0.033 C 
BRANCH  18  19
HETATM   19  C2  UNL     1       3.510  -0.300  -0.035  1.00  0.00     0.170 C 
BRANCH  19  20
HETATM   20  O1  UNL     1       3.664   1.061  -0.101  1.00  0.00    -0.363 OA
BRANCH  20  21
HETATM   21  C1  UNL     1       4.887   1.446  -0.645  1.00  0.00     0.434 C 
BRANCH  21  22
HETATM   22  N1  UNL     1       6.005   0.948   0.131  1.00  0.00     0.101 N 
HETATM   23  H1  UNL     1       6.353   0.033  -0.234  1.00  0.00     0.315 HD
HETATM   24  H2  UNL     1       6.825   1.595   0.154  1.00  0.00     0.315 HD
ENDBRANCH  21  22
ENDBRANCH  20  21
ENDBRANCH  19  20
ENDBRANCH  18  19
ENDBRANCH   1  18
TORSDOF 5
