REMARK  8 active torsions:
REMARK  status: ('A' for Active; 'I' for Inactive)
REMARK    1  A    between atoms: O1_2  and  C2_3 
REMARK    2  A    between atoms: C2_3  and  C3_4 
REMARK    3  A    between atoms: C3_4  and  C4_5 
REMARK    4  A    between atoms: C4_5  and  C5_6 
REMARK    5  A    between atoms: C12_16  and  O2_17 
REMARK    6  A    between atoms: O2_17  and  C13_18 
REMARK    7  A    between atoms: C13_18  and  C14_19 
REMARK    8  A    between atoms: C14_19  and  O3_20 
ROOT
HETATM    1  C5  UNL     1      -0.793   0.538  -0.709  1.00  0.00    -0.022 A 
HETATM    2  C6  UNL     1      -1.659   1.606  -0.816  1.00  0.00     0.042 A 
HETATM    3  C7  UNL     1      -1.157   2.846  -0.480  1.00  0.00     0.072 A 
HETATM    4  N1  UNL     1      -1.903   3.989  -0.539  1.00  0.00    -0.241 NA
HETATM    5  C8  UNL     1      -1.332   5.178  -0.188  1.00  0.00     0.235 A 
HETATM    6  N2  UNL     1      -0.056   5.309   0.220  1.00  0.00    -0.229 NA
HETATM    7  C9  UNL     1       0.741   4.203   0.300  1.00  0.00     0.140 A 
HETATM    8 CL1  UNL     1       2.400   4.316   0.823  1.00  0.00    -0.061 Cl
HETATM    9  C10 UNL     1       0.147   3.010  -0.058  1.00  0.00     0.036 A 
HETATM   10  C11 UNL     1       0.997   1.901   0.038  1.00  0.00     0.054 A 
HETATM   11  C12 UNL     1       0.518   0.642  -0.294  1.00  0.00     0.076 A 
ENDROOT
BRANCH   1  12
HETATM   12  C4  UNL     1      -1.348  -0.802  -1.072  1.00  0.00     0.043 C 
BRANCH  12  13
HETATM   13  C3  UNL     1      -1.642  -1.613   0.179  1.00  0.00     0.031 C 
BRANCH  13  14
HETATM   14  C2  UNL     1      -2.644  -0.858   1.001  1.00  0.00     0.167 C 
BRANCH  14  15
HETATM   15  O1  UNL     1      -3.807  -0.654   0.293  1.00  0.00    -0.396 OA
HETATM   16  C1  UNL     1      -4.441  -1.797  -0.102  1.00  0.00     0.201 C 
ENDBRANCH  14  15
ENDBRANCH  13  14
ENDBRANCH  12  13
ENDBRANCH   1  12
BRANCH  11  17
HETATM   17  O2  UNL     1       1.265  -0.527  -0.239  1.00  0.00    -0.348 OA
BRANCH  17  18
HETATM   18  C13 UNL     1       2.613  -0.463   0.183  1.00  0.00     0.201 C 
BRANCH  18  19
HETATM   19  C14 UNL     1       3.164  -1.871   0.143  1.00  0.00     0.193 C 
BRANCH  19  20
HETATM   20  O3  UNL     1       4.492  -1.903   0.544  1.00  0.00    -0.394 OA
HETATM   21  C15 UNL     1       4.960  -3.229   0.491  1.00  0.00     0.201 C 
ENDBRANCH  19  20
ENDBRANCH  18  19
ENDBRANCH  17  18
ENDBRANCH  11  17
TORSDOF 8
