REMARK  4 active torsions:
REMARK  status: ('A' for Active; 'I' for Inactive)
REMARK    1  A    between atoms: C12_17  and  N4_18 
REMARK    2  A    between atoms: N4_18  and  C13_19 
REMARK    3  A    between atoms: C14_20  and  C15_21 
REMARK    4  A    between atoms: C16_22  and  C17_23 
ROOT
HETATM    1  O1  UNL     1      -1.026   1.438  -0.120  1.00  0.00     0.000 OA
HETATM    2  C1  UNL     1       0.092   1.786  -0.339  1.00  0.00     0.005 A 
HETATM    3  C2  UNL     1      -1.478   1.880   0.531  1.00  0.00     0.061 A 
HETATM    4  C3  UNL     1      -2.497   1.920   1.084  1.00  0.00    -0.167 C 
HETATM    5  C4  UNL     1      -3.714   1.943   1.732  1.00  0.00     0.111 C 
HETATM    6  C5  UNL     1      -4.639   0.989   0.876  1.00  0.00     0.284 C 
HETATM    7  N1  UNL     1      -3.976  -0.239   0.624  1.00  0.00     0.097 N 
HETATM    8  C6  UNL     1      -4.669  -1.452   1.018  1.00  0.00     0.299 C 
HETATM    9  C7  UNL     1      -4.700  -2.377  -0.184  1.00  0.00     0.205 C 
HETATM   10  O2  UNL     1      -3.417  -2.552  -0.751  1.00  0.00    -0.352 OA
HETATM   11  C8  UNL     1      -2.450  -1.536  -0.617  1.00  0.00     0.073 C 
HETATM   12  C9  UNL     1      -1.157  -1.670  -0.483  1.00  0.00     0.039 C 
HETATM   13  C10 UNL     1       0.237  -1.897  -0.341  1.00  0.00     0.171 C 
HETATM   14  N2  UNL     1       0.779  -3.075  -0.951  1.00  0.00    -0.269 NA
HETATM   15  C11 UNL     1       2.001  -3.375  -0.871  1.00  0.00     0.230 C 
HETATM   16  N3  UNL     1       2.880  -2.543  -0.214  1.00  0.00    -0.224 NA
HETATM   17  C12 UNL     1       2.585  -1.366   0.351  1.00  0.00     0.137 C 
HETATM   18  C18 UNL     1       1.195  -0.822  -0.094  1.00  0.00     0.013 C 
HETATM   19  C19 UNL     1       1.375   0.534  -0.249  1.00  0.00    -0.012 C 
HETATM   20  C20 UNL     1       0.376   1.377  -0.872  1.00  0.00     0.041 A 
HETATM   21  N5  UNL     1      -0.257   2.285   0.312  1.00  0.00     0.000 N 
HETATM   22  C21 UNL     1      -3.415  -0.417  -0.697  1.00  0.00     0.336 C 
HETATM   23  H22 UNL     1       0.609   2.933   0.592  1.00  0.00     0.000 HD
ENDROOT
BRANCH  17  24
HETATM   24  N4  UNL     1       3.691  -0.538   1.107  1.00  0.00    -0.354 N 
HETATM   25  H12 UNL     1       2.883  -0.109   1.541  1.00  0.00     0.166 HD
BRANCH  24  26
HETATM   26  C13 UNL     1       4.897  -1.180   0.456  1.00  0.00     0.063 C 
HETATM   27  C14 UNL     1       5.706  -0.427  -0.419  1.00  0.00     0.015 C 
BRANCH  27  28
HETATM   28  C15 UNL     1       4.937   0.756  -0.255  1.00  0.00     0.036 C 
HETATM   29  C16 UNL     1       5.215   1.927  -0.879  1.00  0.00     0.026 C 
BRANCH  29  30
HETATM   30  C17 UNL     1       4.298   3.023  -0.558  1.00  0.00     0.227 C 
HETATM   31  F1  UNL     1       4.993   4.116  -0.005  1.00  0.00    -0.255 F 
ENDBRANCH  29  30
ENDBRANCH  27  28
ENDBRANCH  24  26
ENDBRANCH  17  24
TORSDOF 4
