REMARK  6 active torsions:
REMARK  status: ('A' for Active; 'I' for Inactive)
REMARK    1  A    between atoms: C2_2  and  C3_3 
REMARK    2  A    between atoms: C6_6  and  C7_7 
REMARK    3  A    between atoms: C7_7  and  O1_8 
REMARK    4  A    between atoms: C10_12  and  C11_13 
REMARK    5  A    between atoms: C11_13  and  O3_14 
REMARK    6  A    between atoms: C19_25  and  O4_26 
ROOT
HETATM    1  C3  UNL     1       2.242  -1.705   1.660  1.00  0.00    -0.061 C 
HETATM    2  C4  UNL     1       2.513  -0.738   0.828  1.00  0.00    -0.017 C 
HETATM    3  C5  UNL     1       3.064   0.411   0.122  1.00  0.00     0.062 C 
HETATM    4  C6  UNL     1       2.119   1.536  -0.156  1.00  0.00     0.154 C 
HETATM    5  O2  UNL     1       1.228   1.313  -1.211  1.00  0.00    -0.355 OA
HETATM    6  C9  UNL     1       0.111   2.053  -1.467  1.00  0.00     0.144 C 
HETATM    7  C10 UNL     1      -1.170   1.897  -1.695  1.00  0.00    -0.012 C 
HETATM    8  C13 UNL     1      -1.898   0.663  -1.786  1.00  0.00     0.021 C 
HETATM    9  C14 UNL     1      -1.450  -0.562  -1.676  1.00  0.00    -0.016 A 
HETATM   10  N1  UNL     1      -0.366  -1.399  -1.476  1.00  0.00     0.000 N 
HETATM   11  C15 UNL     1       0.608  -1.585  -2.311  1.00  0.00     0.094 A 
HETATM   12  N2  UNL     1       0.076  -2.796  -1.709  1.00  0.00    -0.183 NA
HETATM   13  C16 UNL     1      -0.892  -2.784  -0.867  1.00  0.00     0.178 A 
HETATM   14  N3  UNL     1      -0.650  -3.490   0.341  1.00  0.00    -0.370 N 
HETATM   15  C17 UNL     1       0.320  -3.350   1.328  1.00  0.00     0.085 C 
HETATM   16  C18 UNL     1       1.349  -2.791   1.889  1.00  0.00     0.023 C 
HETATM   17  C19 UNL     1      -1.929  -1.987  -1.566  1.00  0.00     0.203 A 
HETATM   18  H23 UNL     1      -1.459  -4.046   0.085  1.00  0.00     0.161 HD
ENDROOT
BRANCH   4  19
HETATM   19  C7  UNL     1       1.511   2.039   1.111  1.00  0.00     0.199 C 
BRANCH  19  20
HETATM   20  O1  UNL     1       0.854   3.269   0.934  1.00  0.00    -0.393 OA
HETATM   21  C8  UNL     1       0.338   3.629   2.165  1.00  0.00     0.201 C 
ENDBRANCH  19  20
ENDBRANCH   4  19
BRANCH   1  22
HETATM   22  C2  UNL     1       3.278  -1.487   2.676  1.00  0.00     0.034 C 
HETATM   23  C1  UNL     1       4.191  -2.705   2.815  1.00  0.00     0.010 C 
ENDBRANCH   1  22
BRANCH   7  24
HETATM   24  C11 UNL     1      -2.196   2.936  -1.950  1.00  0.00     0.207 C 
BRANCH  24  25
HETATM   25  O3  UNL     1      -3.201   2.906  -1.003  1.00  0.00    -0.391 OA
HETATM   26  C12 UNL     1      -4.148   3.893  -1.271  1.00  0.00     0.201 C 
ENDBRANCH  24  25
ENDBRANCH   7  24
BRANCH  17  27
HETATM   27  O4  UNL     1      -3.138  -2.002  -0.832  1.00  0.00    -0.382 OA
HETATM   28  C20 UNL     1      -4.177  -2.498  -1.603  1.00  0.00     0.202 C 
ENDBRANCH  17  27
TORSDOF 6
