REMARK  10 active torsions:
REMARK  status: ('A' for Active; 'I' for Inactive)
REMARK    1  A    between atoms: C6_6  and  N1_7 
REMARK    2  A    between atoms: N1_7  and  C7_8 
REMARK    3  A    between atoms: C11_14  and  O1_15 
REMARK    4  A    between atoms: O1_15  and  C12_16 
REMARK    5  A    between atoms: C12_16  and  C13_17 
REMARK    6  A    between atoms: C13_17  and  O2_18 
REMARK    7  A    between atoms: C15_20  and  O3_21 
REMARK    8  A    between atoms: O3_21  and  C16_22 
REMARK    9  A    between atoms: C16_22  and  C17_23 
REMARK   10  A    between atoms: C17_23  and  O4_24 
ROOT
HETATM    1  C1  UNL     1       8.866   0.792  -0.008  1.00  0.00     0.018 C 
HETATM    2  C2  UNL     1       7.790   0.227  -0.002  1.00  0.00    -0.078 C 
HETATM    3  C3  UNL     1       6.513  -0.442   0.016  1.00  0.00     0.015 A 
HETATM    4  C4  UNL     1       6.243  -1.735  -0.025  1.00  0.00    -0.000 A 
HETATM    5  C5  UNL     1       4.792  -2.016   0.013  1.00  0.00     0.085 A 
HETATM    6  C6  UNL     1       4.206  -0.636   0.088  1.00  0.00     0.015 A 
HETATM    7  C21 UNL     1       5.225   0.230   0.086  1.00  0.00     0.045 A 
ENDROOT
BRANCH   6   8
HETATM    8  N1  UNL     1       2.814  -0.279   0.150  1.00  0.00    -0.343 N 
HETATM    9  H5  UNL     1       2.599   0.736   0.238  1.00  0.00     0.167 HD
BRANCH   8  10
HETATM   10  C7  UNL     1       1.884  -1.348   0.085  1.00  0.00     0.141 A 
HETATM   11  N2  UNL     1       2.307  -2.599  -0.026  1.00  0.00    -0.224 NA
HETATM   12  C8  UNL     1       1.454  -3.637  -0.090  1.00  0.00     0.236 A 
HETATM   13  N3  UNL     1       0.108  -3.472  -0.046  1.00  0.00    -0.241 NA
HETATM   14  C9  UNL     1      -0.393  -2.226   0.067  1.00  0.00     0.075 A 
HETATM   15  C10 UNL     1      -1.749  -1.982   0.118  1.00  0.00     0.072 A 
HETATM   16  C20 UNL     1       0.518  -1.192   0.129  1.00  0.00     0.042 A 
HETATM   17  C11 UNL     1      -2.260  -0.727   0.231  1.00  0.00     0.104 A 
HETATM   18  C15 UNL     1      -1.370   0.323   0.295  1.00  0.00     0.103 A 
HETATM   19  C19 UNL     1      -0.010   0.076   0.244  1.00  0.00     0.057 A 
BRANCH  17  20
HETATM   20  O1  UNL     1      -3.600  -0.457   0.284  1.00  0.00    -0.346 OA
BRANCH  20  21
HETATM   21  C12 UNL     1      -4.642  -1.382   0.233  1.00  0.00     0.201 C 
BRANCH  21  22
HETATM   22  C13 UNL     1      -5.937  -0.565   0.329  1.00  0.00     0.193 C 
BRANCH  22  23
HETATM   23  O2  UNL     1      -7.063  -1.359   0.291  1.00  0.00    -0.394 OA
HETATM   24  C14 UNL     1      -7.179  -2.102  -0.861  1.00  0.00     0.201 C 
ENDBRANCH  22  23
ENDBRANCH  21  22
ENDBRANCH  20  21
ENDBRANCH  17  20
BRANCH  18  25
HETATM   25  O3  UNL     1      -1.870   1.621   0.412  1.00  0.00    -0.346 OA
BRANCH  25  26
HETATM   26  C16 UNL     1      -0.921   2.702   0.477  1.00  0.00     0.201 C 
BRANCH  26  27
HETATM   27  C17 UNL     1      -1.618   4.015   0.600  1.00  0.00     0.193 C 
BRANCH  27  28
HETATM   28  O4  UNL     1      -0.777   5.105   0.672  1.00  0.00    -0.394 OA
HETATM   29  C18 UNL     1       0.043   5.263  -0.435  1.00  0.00     0.201 C 
ENDBRANCH  27  28
ENDBRANCH  26  27
ENDBRANCH  25  26
ENDBRANCH  18  25
ENDBRANCH   8  10
ENDBRANCH   6   8
TORSDOF 10
