REMARK  10 active torsions:
REMARK  status: ('A' for Active; 'I' for Inactive)
REMARK    1  A    between atoms: O1_2  and  C2_3 
REMARK    2  A    between atoms: C2_3  and  C3_4 
REMARK    3  A    between atoms: C5_7  and  N2_8 
REMARK    4  A    between atoms: N2_8  and  C6_9 
REMARK    5  A    between atoms: C6_9  and  C7_10 
REMARK    6  A    between atoms: C8_11  and  C9_13 
REMARK    7  A    between atoms: C13_19  and  C15_21 
REMARK    8  A    between atoms: C16_22  and  C17_23 
REMARK    9  A    between atoms: C17_23  and  C18_24 
REMARK   10  A    between atoms: C18_24  and  N4_25 
ROOT
HETATM    1  C3  UNL     1      -0.128  -0.519   1.024  1.00  0.00     0.030 C 
HETATM    2  C4  UNL     1      -0.386  -0.118  -0.207  1.00  0.00     0.075 C 
HETATM    3  N1  UNL     1      -1.807  -0.094  -0.434  1.00  0.00    -0.233 NA
HETATM    4  C5  UNL     1      -2.469   0.392  -1.462  1.00  0.00     0.123 C 
HETATM    5  C10 UNL     1      -2.104   1.068  -2.733  1.00  0.00     0.047 C 
HETATM    6  C11 UNL     1      -0.978   1.011  -3.455  1.00  0.00    -0.004 C 
HETATM    7  C12 UNL     1       0.325   0.379  -3.450  1.00  0.00     0.143 C 
HETATM    8  N3  UNL     1       0.750  -0.330  -2.338  1.00  0.00    -0.395 N 
HETATM    9  C13 UNL     1       0.816   0.205  -1.047  1.00  0.00     0.131 C 
HETATM   10  C14 UNL     1       1.087   1.715  -0.988  1.00  0.00     0.060 C 
HETATM   11  H17 UNL     1       1.535  -0.980  -2.536  1.00  0.00     0.155 HD
ENDROOT
BRANCH   9  12
HETATM   12  C15 UNL     1       1.956  -0.422  -0.356  1.00  0.00    -0.069 C 
HETATM   13  C16 UNL     1       2.917  -0.942   0.201  1.00  0.00    -0.102 C 
BRANCH  13  14
HETATM   14  C17 UNL     1       4.075  -1.570   0.845  1.00  0.00     0.111 C 
BRANCH  14  15
HETATM   15  C18 UNL     1       4.856  -0.563   1.672  1.00  0.00     0.133 C 
BRANCH  15  16
HETATM   16  N4  UNL     1       5.301   0.478   0.780  1.00  0.00    -0.194 NA
HETATM   17  C19 UNL     1       6.289   0.099  -0.184  1.00  0.00     0.149 C 
HETATM   18  C20 UNL     1       6.961   1.326   0.348  1.00  0.00     0.210 C 
HETATM   19  O2  UNL     1       6.013   1.469   1.366  1.00  0.00    -0.302 OA
ENDBRANCH  15  16
ENDBRANCH  14  15
ENDBRANCH  13  14
ENDBRANCH   9  12
BRANCH   1  20
HETATM   20  C2  UNL     1      -1.046  -0.905   2.085  1.00  0.00     0.196 C 
BRANCH  20  21
HETATM   21  O1  UNL     1      -0.787  -2.229   2.462  1.00  0.00    -0.392 OA
HETATM   22  C1  UNL     1      -0.953  -3.104   1.395  1.00  0.00     0.201 C 
ENDBRANCH  20  21
ENDBRANCH   1  20
BRANCH   4  23
HETATM   23  N2  UNL     1      -3.872   0.263  -1.387  1.00  0.00    -0.371 N 
HETATM   24  H7  UNL     1      -4.479   0.396  -2.246  1.00  0.00     0.161 HD
BRANCH  23  25
HETATM   25  C6  UNL     1      -4.423  -0.061  -0.063  1.00  0.00     0.150 C 
BRANCH  25  26
HETATM   26  C7  UNL     1      -5.888  -0.155  -0.095  1.00  0.00     0.014 C 
HETATM   27  C8  UNL     1      -6.748   0.583   0.601  1.00  0.00     0.038 C 
HETATM   28 CL1  UNL     1      -8.488   0.394   0.494  1.00  0.00    -0.087 Cl
BRANCH  27  29
HETATM   29  C9  UNL     1      -6.445   1.666   1.563  1.00  0.00     0.273 C 
HETATM   30  F1  UNL     1      -7.022   2.853   1.132  1.00  0.00    -0.250 F 
ENDBRANCH  27  29
ENDBRANCH  25  26
ENDBRANCH  23  25
ENDBRANCH   4  23
TORSDOF 10
