REMARK  10 active torsions:
REMARK  status: ('A' for Active; 'I' for Inactive)
REMARK    1  A    between atoms: O1_1  and  C1_2 
REMARK    2  A    between atoms: C2_3  and  C17_22 
REMARK    3  A    between atoms: C6_8  and  N2_9 
REMARK    4  A    between atoms: N2_9  and  C7_10 
REMARK    5  A    between atoms: C7_10  and  C8_11 
REMARK    6  A    between atoms: C8_11  and  C9_12 
REMARK    7  A    between atoms: C9_12  and  C10_13 
REMARK    8  A    between atoms: C10_13  and  C11_14 
REMARK    9  A    between atoms: C11_14  and  N3_15 
REMARK   10  A    between atoms: C16_21  and  C17_22 
ROOT
HETATM    1  N2  UNL     1       1.896   1.748  -0.031  1.00  0.00    -0.382 N 
HETATM    2  H6  UNL     1       2.134   2.478  -0.694  1.00  0.00     0.160 HD
ENDROOT
BRANCH   1   3
HETATM    3  C6  UNL     1       2.700   0.699   0.469  1.00  0.00     0.018 A 
HETATM    4  C5  UNL     1       2.450  -0.345   1.393  1.00  0.00     0.022 A 
HETATM    5  C4  UNL     1       3.705  -0.880   1.318  1.00  0.00    -0.012 A 
HETATM    6  C3  UNL     1       4.625  -0.281   0.481  1.00  0.00     0.011 A 
HETATM    7  N1  UNL     1       4.786   0.821  -0.454  1.00  0.00     0.000 N 
HETATM    8  C17 UNL     1       5.441   0.249  -0.261  1.00  0.00     0.025 A 
HETATM    9  C16 UNL     1       3.963   0.715  -0.044  1.00  0.00     0.046 A 
HETATM   10  C2  UNL     1       5.765   1.281  -1.213  1.00  0.00     0.029 A 
HETATM   11  C1  UNL     1       4.379   1.816  -1.045  1.00  0.00     0.139 A 
BRANCH  11  12
HETATM   12  O1  UNL     1       3.674   1.728  -2.237  1.00  0.00    -0.394 OA
HETATM   13  H1  UNL     1       3.428   0.777  -2.418  1.00  0.00     0.210 HD
ENDBRANCH  11  12
ENDBRANCH   1   3
BRANCH   1  14
HETATM   14  C7  UNL     1       0.626   1.627   0.567  1.00  0.00     0.214 C 
BRANCH  14  15
HETATM   15  C8  UNL     1      -0.001   0.377   0.148  1.00  0.00    -0.087 C 
BRANCH  15  16
HETATM   16  C9  UNL     1      -0.529  -0.684  -0.184  1.00  0.00    -0.103 C 
BRANCH  16  17
HETATM   17  C10 UNL     1      -1.177  -1.961  -0.560  1.00  0.00     0.113 C 
BRANCH  17  18
HETATM   18  C11 UNL     1      -2.413  -2.170   0.319  1.00  0.00     0.129 C 
BRANCH  18  19
HETATM   19  N3  UNL     1      -3.412  -1.209   0.195  1.00  0.00    -0.408 N 
HETATM   20  C12 UNL     1      -3.311   0.106   0.582  1.00  0.00     0.143 C 
HETATM   21  C13 UNL     1      -4.613   0.756   1.016  1.00  0.00     0.187 C 
HETATM   22  O2  UNL     1      -5.722   0.257   0.357  1.00  0.00    -0.388 OA
HETATM   23  C14 UNL     1      -5.394  -0.359  -0.865  1.00  0.00     0.187 C 
HETATM   24  C15 UNL     1      -4.521  -1.573  -0.584  1.00  0.00     0.143 C 
ENDBRANCH  18  19
ENDBRANCH  17  18
ENDBRANCH  16  17
ENDBRANCH  15  16
ENDBRANCH  14  15
ENDBRANCH   1  14
TORSDOF 10
