REMARK  7 active torsions:
REMARK  status: ('A' for Active; 'I' for Inactive)
REMARK    1  A    between atoms: N1_9  and  C7_10 
REMARK    2  A    between atoms: C12_17  and  N4_18 
REMARK    3  A    between atoms: N4_18  and  C13_19 
REMARK    4  A    between atoms: C13_19  and  C14_20 
REMARK    5  A    between atoms: C14_20  and  C15_21 
REMARK    6  A    between atoms: C15_21  and  C16_22 
REMARK    7  A    between atoms: C16_22  and  N5_23 
ROOT
HETATM    1  C7  UNL     1      -2.385   2.144  -0.174  1.00  0.00     0.120 C 
HETATM    2  N2  UNL     1      -2.642   3.392  -0.284  1.00  0.00    -0.228 NA
HETATM    3  C8  UNL     1      -1.827   4.497  -0.066  1.00  0.00     0.235 C 
HETATM    4  N3  UNL     1      -0.572   4.313   0.283  1.00  0.00    -0.245 NA
HETATM    5  C9  UNL     1      -0.082   2.960   0.403  1.00  0.00     0.053 A 
HETATM    6  C10 UNL     1       1.125   2.366   0.425  1.00  0.00     0.030 A 
HETATM    7  C11 UNL     1       0.862   0.915   0.561  1.00  0.00     0.028 A 
HETATM    8  C12 UNL     1      -0.466   0.700   0.615  1.00  0.00     0.022 A 
HETATM    9  C21 UNL     1      -1.162   1.991   0.582  1.00  0.00     0.156 A 
ENDROOT
BRANCH   8  10
HETATM   10  N4  UNL     1      -0.655  -0.690   0.733  1.00  0.00    -0.392 N 
HETATM   11  H12 UNL     1      -1.115  -0.839   1.669  1.00  0.00     0.159 HD
BRANCH  10  12
HETATM   12  C13 UNL     1      -0.369  -1.819  -0.084  1.00  0.00     0.119 C 
BRANCH  12  13
HETATM   13  C14 UNL     1       1.093  -2.147  -0.252  1.00  0.00     0.021 C 
BRANCH  13  14
HETATM   14  C15 UNL     1       1.819  -2.447   1.010  1.00  0.00     0.021 C 
BRANCH  14  15
HETATM   15  C16 UNL     1       3.275  -2.771   0.863  1.00  0.00     0.126 C 
BRANCH  15  16
HETATM   16  N5  UNL     1       4.086  -1.757   0.286  1.00  0.00    -0.348 N 
HETATM   17  C17 UNL     1       4.515  -1.382  -1.051  1.00  0.00     0.152 C 
HETATM   18  C18 UNL     1       5.839  -0.651  -1.018  1.00  0.00     0.188 C 
HETATM   19  O1  UNL     1       5.681   0.574  -0.417  1.00  0.00    -0.380 OA
HETATM   20  C19 UNL     1       5.528   0.370   0.954  1.00  0.00     0.270 C 
HETATM   21  C20 UNL     1       4.674  -0.818   1.210  1.00  0.00     0.243 C 
HETATM   22  O2  UNL     1       4.541  -0.866   2.480  1.00  0.00    -0.271 OA
ENDBRANCH  15  16
ENDBRANCH  14  15
ENDBRANCH  13  14
ENDBRANCH  12  13
ENDBRANCH  10  12
ENDBRANCH   8  10
BRANCH   1  23
HETATM   23  N1  UNL     1      -3.067   0.920  -0.370  1.00  0.00    -0.357 N 
HETATM   24  C2  UNL     1      -3.814   0.509   0.816  1.00  0.00     0.121 C 
HETATM   25  C1  UNL     1      -4.764   1.663   1.130  1.00  0.00     0.036 C 
HETATM   26  C3  UNL     1      -4.728  -0.680   0.517  1.00  0.00     0.236 C 
HETATM   27  F1  UNL     1      -5.633  -0.743   1.544  1.00  0.00    -0.241 F 
HETATM   28  C4  UNL     1      -5.409  -0.340  -0.785  1.00  0.00     0.045 C 
HETATM   29 CL1  UNL     1      -7.179  -0.426  -0.815  1.00  0.00    -0.086 Cl
HETATM   30  C5  UNL     1      -4.679   0.005  -1.843  1.00  0.00     0.015 C 
HETATM   31  C6  UNL     1      -3.233  -0.034  -1.444  1.00  0.00     0.153 C 
ENDBRANCH   1  23
TORSDOF 7
