REMARK  8 active torsions:
REMARK  status: ('A' for Active; 'I' for Inactive)
REMARK    1  A    between atoms: C1_2  and  C2_3 
REMARK       I    between atoms: C1_2  and  N2_13 
REMARK    2  A    between atoms: C3_4  and  C4_5 
REMARK    3  A    between atoms: C4_5  and  C5_6 
REMARK    4  A    between atoms: C5_6  and  N1_7 
REMARK    5  A    between atoms: C14_20  and  N5_21 
REMARK    6  A    between atoms: N5_21  and  C15_22 
REMARK    7  A    between atoms: C16_23  and  C17_24 
REMARK    8  A    between atoms: C18_25  and  C19_27 
ROOT
HETATM    1  O1  UNL     1      -0.741  -1.872   2.328  1.00  0.00    -0.258 OA
HETATM    2  C1  UNL     1      -0.956  -1.609   1.115  1.00  0.00     0.299 C 
HETATM    3  N2  UNL     1      -0.064  -1.958   0.037  1.00  0.00    -0.334 N 
HETATM    4  C10 UNL     1      -0.185  -1.718  -1.397  1.00  0.00     0.156 C 
HETATM    5  C11 UNL     1       0.948  -0.847  -1.872  1.00  0.00     0.025 C 
HETATM    6  C12 UNL     1       2.107  -0.949  -1.233  1.00  0.00     0.064 A 
HETATM    7  N3  UNL     1       3.045  -0.048  -1.830  1.00  0.00    -0.242 NA
HETATM    8  C13 UNL     1       4.282   0.158  -1.509  1.00  0.00     0.235 A 
HETATM    9  N4  UNL     1       5.045  -0.455  -0.477  1.00  0.00    -0.225 NA
HETATM   10  C14 UNL     1       4.742  -1.351   0.401  1.00  0.00     0.129 A 
HETATM   11  C20 UNL     1       3.464  -2.029   0.599  1.00  0.00     0.061 A 
HETATM   12  C21 UNL     1       2.358  -1.842  -0.107  1.00  0.00    -0.008 A 
HETATM   13  C22 UNL     1       1.190  -2.664   0.303  1.00  0.00     0.168 C 
ENDROOT
BRANCH   2  14
HETATM   14  C2  UNL     1      -2.157  -0.911   0.683  1.00  0.00    -0.005 C 
HETATM   15  C3  UNL     1      -3.153  -0.307   0.323  1.00  0.00    -0.095 C 
BRANCH  15  16
HETATM   16  C4  UNL     1      -4.327   0.434  -0.103  1.00  0.00     0.124 C 
BRANCH  16  17
HETATM   17  C5  UNL     1      -5.589  -0.063   0.562  1.00  0.00     0.284 C 
BRANCH  17  18
HETATM   18  N1  UNL     1      -6.750   0.687   0.126  1.00  0.00     0.093 N 
HETATM   19  C6  UNL     1      -7.897   0.131   0.821  1.00  0.00     0.298 C 
HETATM   20  C7  UNL     1      -9.131   0.861   0.323  1.00  0.00     0.198 C 
HETATM   21  O2  UNL     1      -9.014   2.170   0.829  1.00  0.00    -0.388 OA
HETATM   22  C8  UNL     1      -7.915   2.766   0.262  1.00  0.00     0.198 C 
HETATM   23  C9  UNL     1      -6.605   2.063   0.564  1.00  0.00     0.298 C 
ENDBRANCH  17  18
ENDBRANCH  16  17
ENDBRANCH  15  16
ENDBRANCH   2  14
BRANCH  10  24
HETATM   24  N5  UNL     1       5.782  -1.752   1.318  1.00  0.00    -0.351 N 
HETATM   25  H17 UNL     1       5.469  -2.262   2.190  1.00  0.00     0.166 HD
BRANCH  24  26
HETATM   26  C15 UNL     1       7.106  -1.382   0.881  1.00  0.00     0.090 C 
HETATM   27  C16 UNL     1       7.348  -0.097   0.744  1.00  0.00     0.020 C 
BRANCH  27  28
HETATM   28  C17 UNL     1       8.675   0.379   0.302  1.00  0.00     0.041 C 
HETATM   29  C18 UNL     1       9.043   1.631   0.127  1.00  0.00     0.122 C 
HETATM   30  F1  UNL     1      10.268   2.020  -0.279  1.00  0.00    -0.208 F 
BRANCH  29  31
HETATM   31  C19 UNL     1       8.210   2.820   0.334  1.00  0.00     0.292 C 
HETATM   32  F2  UNL     1       8.132   3.498  -0.880  1.00  0.00    -0.248 F 
ENDBRANCH  29  31
ENDBRANCH  27  28
ENDBRANCH  24  26
ENDBRANCH  10  24
TORSDOF 8
