REMARK  0 active torsions:
REMARK  status: ('A' for Active; 'I' for Inactive)
ROOT
HETATM    1  F1  UNL     1       4.475   1.740  -0.443  1.00  0.00    -0.204 F 
HETATM    2  C1  UNL     1       4.101   0.458  -0.602  1.00  0.00     0.148 A 
HETATM    3  C2  UNL     1       2.887   0.084  -0.175  1.00  0.00     0.030 A 
HETATM    4  C3  UNL     1       2.176   1.251   0.419  1.00  0.00     0.211 C 
HETATM    5  O1  UNL     1       2.405   2.425  -0.244  1.00  0.00    -0.384 OA
HETATM    6  C4  UNL     1       1.759   3.512   0.292  1.00  0.00     0.197 C 
HETATM    7  C5  UNL     1       0.304   3.337   0.282  1.00  0.00     0.316 C 
HETATM    8  N1  UNL     1      -0.926   3.232  -0.001  1.00  0.00    -0.430 NA
HETATM    9  C6  UNL     1      -1.919   2.951   1.022  1.00  0.00     0.198 C 
HETATM   10  C7  UNL     1      -2.908   2.041   0.565  1.00  0.00    -0.087 C 
HETATM   11  C8  UNL     1      -3.727   1.302   0.208  1.00  0.00    -0.086 C 
HETATM   12  C9  UNL     1      -4.738   0.420  -0.235  1.00  0.00     0.209 C 
HETATM   13  N2  UNL     1      -4.870  -0.764   0.624  1.00  0.00    -0.403 N 
HETATM   14  C10 UNL     1      -3.481  -1.267   0.498  1.00  0.00     0.035 A 
HETATM   15  C11 UNL     1      -2.753  -0.933   1.717  1.00  0.00     0.116 A 
HETATM   16  C12 UNL     1      -1.515  -1.508   1.295  1.00  0.00    -0.010 A 
HETATM   17  C13 UNL     1      -1.007  -2.191   0.146  1.00  0.00    -0.042 A 
HETATM   18  C14 UNL     1      -1.944  -2.360  -0.854  1.00  0.00     0.006 A 
HETATM   19  C15 UNL     1      -3.253  -1.924  -0.783  1.00  0.00    -0.001 A 
HETATM   20  C16 UNL     1       0.406  -2.577   0.228  1.00  0.00     0.187 C 
HETATM   21  N3  UNL     1       1.228  -1.397   0.169  1.00  0.00    -0.289 NA
HETATM   22  C17 UNL     1       2.395  -1.282  -0.304  1.00  0.00     0.044 A 
HETATM   23  C18 UNL     1       3.272  -2.290  -0.932  1.00  0.00     0.088 A 
HETATM   24  C19 UNL     1       4.575  -1.715  -1.346  1.00  0.00     0.006 A 
HETATM   25  C20 UNL     1       5.030  -0.476  -1.232  1.00  0.00     0.070 A 
HETATM   26 CL1  UNL     1       6.616  -0.032  -1.801  1.00  0.00    -0.081 Cl
HETATM   27  H10 UNL     1      -5.618  -1.228   1.198  1.00  0.00     0.154 HD
ENDROOT
TORSDOF 0
