REMARK  0 active torsions:
REMARK  status: ('A' for Active; 'I' for Inactive)
ROOT
HETATM    1  O1  UNL     1       1.885   1.595  -0.307  1.00  0.00     0.000 OA
HETATM    2  C1  UNL     1       2.260   2.817  -0.190  1.00  0.00     0.286 A 
HETATM    3  C2  UNL     1       0.821   2.755  -0.263  1.00  0.00     0.045 A 
HETATM    4  C3  UNL     1      -0.318   2.683  -0.323  1.00  0.00    -0.143 C 
HETATM    5  C4  UNL     1      -1.726   2.568  -0.399  1.00  0.00     0.105 C 
HETATM    6  C5  UNL     1      -2.120   1.132  -0.810  1.00  0.00     0.129 C 
HETATM    7  N1  UNL     1      -1.758   0.112   0.048  1.00  0.00    -0.404 N 
HETATM    8  C6  UNL     1      -2.580  -0.289   1.088  1.00  0.00     0.144 C 
HETATM    9  C7  UNL     1      -1.916  -0.950   2.280  1.00  0.00     0.195 C 
HETATM   10  O2  UNL     1      -1.235  -2.097   1.735  1.00  0.00    -0.350 OA
HETATM   11  C8  UNL     1      -0.828  -1.984   0.385  1.00  0.00     0.095 C 
HETATM   12  C9  UNL     1      -0.357  -3.186   0.080  1.00  0.00     0.119 C 
HETATM   13  N2  UNL     1       0.763  -3.227  -0.497  1.00  0.00    -0.244 NA
HETATM   14  C10 UNL     1       1.544  -2.045  -0.479  1.00  0.00     0.057 A 
HETATM   15  C11 UNL     1       1.909  -1.544  -1.710  1.00  0.00     0.034 A 
HETATM   16  C12 UNL     1       2.592  -0.342  -1.693  1.00  0.00     0.042 A 
HETATM   17  C13 UNL     1       2.780   0.145  -0.382  1.00  0.00     0.168 A 
HETATM   18  C14 UNL     1       2.393  -0.422   0.849  1.00  0.00     0.042 A 
HETATM   19  C15 UNL     1       1.716  -1.616   0.816  1.00  0.00     0.034 A 
HETATM   20  N3  UNL     1       3.161   1.606  -0.245  1.00  0.00     0.140 N 
HETATM   21  C16 UNL     1      -0.858  -0.901  -0.556  1.00  0.00     0.184 C 
HETATM   22  H13 UNL     1       4.142   2.018  -0.164  1.00  0.00     0.325 HD
ENDROOT
TORSDOF 0
