REMARK  6 active torsions:
REMARK  status: ('A' for Active; 'I' for Inactive)
REMARK    1  A    between atoms: C5_7  and  C6_8 
REMARK    2  A    between atoms: C7_9  and  N1_10 
REMARK    3  A    between atoms: C8_11  and  N2_12 
REMARK    4  A    between atoms: N2_12  and  C9_13 
REMARK    5  A    between atoms: C11_15  and  N3_16 
REMARK    6  A    between atoms: N3_16  and  C12_17 
ROOT
HETATM    1  N2  UNL     1       0.457  -2.947  -1.428  1.00  0.00    -0.352 N 
HETATM    2  H9  UNL     1       0.404  -3.856  -1.941  1.00  0.00     0.166 HD
ENDROOT
BRANCH   1   3
HETATM    3  C8  UNL     1      -0.650  -2.070  -1.223  1.00  0.00     0.218 C 
HETATM    4  N1  UNL     1      -0.508  -0.874  -0.751  1.00  0.00    -0.193 NA
BRANCH   4   5
HETATM    5  C7  UNL     1      -1.668  -0.076  -0.583  1.00  0.00     0.036 C 
HETATM    6  C6  UNL     1      -2.656   0.609  -0.460  1.00  0.00    -0.069 C 
BRANCH   6   7
HETATM    7  C5  UNL     1      -3.872   1.424  -0.311  1.00  0.00     0.140 C 
HETATM    8  C1  UNL     1      -5.035   0.797  -0.992  1.00  0.00     0.166 C 
HETATM    9  O1  UNL     1      -5.593   1.254  -1.986  1.00  0.00    -0.294 OA
HETATM   10  C2  UNL     1      -5.530  -0.472  -0.400  1.00  0.00     0.247 C 
HETATM   11  O2  UNL     1      -5.715  -0.333   0.979  1.00  0.00    -0.384 OA
HETATM   12  C3  UNL     1      -5.667   1.011   1.293  1.00  0.00     0.169 C 
HETATM   13  C4  UNL     1      -4.206   1.435   1.168  1.00  0.00     0.051 C 
ENDBRANCH   6   7
ENDBRANCH   4   5
ENDBRANCH   1   3
BRANCH   1  14
HETATM   14  C9  UNL     1       1.719  -2.533  -0.883  1.00  0.00     0.035 A 
HETATM   15  C10 UNL     1       2.621  -2.989   0.044  1.00  0.00     0.032 A 
HETATM   16  C11 UNL     1       2.854  -1.724  -0.704  1.00  0.00     0.156 A 
BRANCH  16  17
HETATM   17  N3  UNL     1       2.909  -0.582   0.206  1.00  0.00    -0.377 N 
HETATM   18  H12 UNL     1       2.016  -0.428   0.713  1.00  0.00     0.160 HD
BRANCH  17  19
HETATM   19  C12 UNL     1       4.010   0.289   0.450  1.00  0.00     0.028 A 
HETATM   20  C13 UNL     1       3.880   1.339   1.365  1.00  0.00     0.029 A 
HETATM   21  C14 UNL     1       5.005   2.123   1.526  1.00  0.00     0.002 A 
HETATM   22  C15 UNL     1       6.197   1.965   0.889  1.00  0.00     0.000 A 
HETATM   23  C16 UNL     1       6.302   0.924  -0.008  1.00  0.00     0.002 A 
HETATM   24  C17 UNL     1       5.206   0.108  -0.208  1.00  0.00     0.029 A 
ENDBRANCH  17  19
ENDBRANCH  16  17
ENDBRANCH   1  14
TORSDOF 6
