REMARK  1 active torsions:
REMARK  status: ('A' for Active; 'I' for Inactive)
REMARK    1  A    between atoms: N3_12  and  C10_13 
ROOT
HETATM    1  C1  UNL     1      -3.066   0.556  -2.603  1.00  0.00     0.057 C 
HETATM    2  C2  UNL     1      -2.540   0.953  -1.216  1.00  0.00     0.198 C 
HETATM    3  N1  UNL     1      -1.222   0.320  -1.174  1.00  0.00    -0.278 NA
HETATM    4  C3  UNL     1      -0.251   0.709  -0.486  1.00  0.00     0.117 C 
HETATM    5  C4  UNL     1       0.908  -0.227  -0.732  1.00  0.00     0.170 C 
HETATM    6  C5  UNL     1       0.341  -1.591  -0.377  1.00  0.00     0.123 C 
HETATM    7  N2  UNL     1      -0.416  -1.952   0.659  1.00  0.00    -0.245 NA
HETATM    8  C6  UNL     1      -0.880  -1.138   1.781  1.00  0.00     0.122 C 
HETATM    9  C7  UNL     1      -0.077  -0.543   2.684  1.00  0.00     0.051 C 
HETATM   10  C8  UNL     1       1.306   0.004   2.614  1.00  0.00     0.021 C 
HETATM   11  C9  UNL     1       2.157   0.170   1.581  1.00  0.00     0.092 C 
HETATM   12  N3  UNL     1       2.027   0.069   0.145  1.00  0.00    -0.343 N 
HETATM   13  N5  UNL     1      -2.202  -0.772   2.140  1.00  0.00    -0.373 N 
HETATM   14  C15 UNL     1      -3.411  -1.313   1.521  1.00  0.00     0.141 C 
HETATM   15  C16 UNL     1      -3.460  -0.891   0.061  1.00  0.00     0.138 C 
HETATM   16  N6  UNL     1      -3.348   0.473  -0.168  1.00  0.00    -0.394 N 
HETATM   17  C17 UNL     1      -4.424   1.268   0.217  1.00  0.00     0.145 C 
HETATM   18  H15 UNL     1      -2.271  -0.080   2.888  1.00  0.00     0.161 HD
ENDROOT
BRANCH  12  19
HETATM   19  C10 UNL     1       3.355   0.336  -0.352  1.00  0.00     0.050 A 
HETATM   20  C11 UNL     1       3.767   1.538  -0.721  1.00  0.00     0.105 A 
HETATM   21 BR1  UNL     1       2.640   3.057  -0.635  1.00  0.00    -0.029 Br
HETATM   22  N4  UNL     1       5.113   1.578  -1.179  1.00  0.00    -0.326 N 
HETATM   23  C12 UNL     1       5.850   0.374  -1.194  1.00  0.00     0.185 A 
HETATM   24  H11 UNL     1       5.517   2.465  -1.484  1.00  0.00     0.169 HD
HETATM   25  F1  UNL     1       7.145   0.382  -1.628  1.00  0.00    -0.186 F 
HETATM   26  C13 UNL     1       5.413  -0.814  -0.819  1.00  0.00     0.041 A 
HETATM   27  C14 UNL     1       4.026  -0.984  -0.321  1.00  0.00     0.092 A 
ENDBRANCH  12  19
TORSDOF 1
