REMARK  6 active torsions:
REMARK  status: ('A' for Active; 'I' for Inactive)
REMARK    1  A    between atoms: N1_4  and  C3_5 
REMARK    2  A    between atoms: C8_12  and  C9_13 
REMARK    3  A    between atoms: C9_13  and  C10_14 
REMARK    4  A    between atoms: C11_15  and  C12_16 
REMARK    5  A    between atoms: C12_16  and  C13_17 
REMARK    6  A    between atoms: C13_17  and  N4_18 
ROOT
HETATM    1  C3  UNL     1       4.415  -0.524   1.035  1.00  0.00     0.144 A 
HETATM    2  N2  UNL     1       5.447  -1.028   1.751  1.00  0.00    -0.223 NA
HETATM    3  C4  UNL     1       5.440  -0.967   3.114  1.00  0.00     0.236 A 
HETATM    4  N3  UNL     1       4.404  -0.402   3.801  1.00  0.00    -0.241 NA
HETATM    5  C5  UNL     1       3.365   0.107   3.115  1.00  0.00     0.072 A 
HETATM    6  C6  UNL     1       2.256   0.711   3.676  1.00  0.00     0.033 A 
HETATM    7  C7  UNL     1       1.229   1.216   2.906  1.00  0.00     0.010 A 
HETATM    8  C8  UNL     1       1.274   1.135   1.510  1.00  0.00    -0.046 A 
HETATM    9  C18 UNL     1       2.368   0.539   0.938  1.00  0.00     0.025 A 
HETATM   10  C19 UNL     1       3.375   0.044   1.738  1.00  0.00     0.039 A 
ENDROOT
BRANCH   8  11
HETATM   11  C9  UNL     1       0.158   1.685   0.695  1.00  0.00     0.132 C 
BRANCH  11  12
HETATM   12  C10 UNL     1      -0.880   0.668   0.451  1.00  0.00    -0.102 C 
HETATM   13  C11 UNL     1      -1.742  -0.180   0.271  1.00  0.00    -0.105 C 
BRANCH  13  14
HETATM   14  C12 UNL     1      -2.780  -1.195   0.079  1.00  0.00     0.124 C 
BRANCH  14  15
HETATM   15  C13 UNL     1      -4.137  -0.682   0.482  1.00  0.00     0.284 C 
BRANCH  15  16
HETATM   16  N4  UNL     1      -4.552   0.478  -0.277  1.00  0.00     0.093 N 
HETATM   17  C14 UNL     1      -5.865   0.863   0.212  1.00  0.00     0.298 C 
HETATM   18  C15 UNL     1      -6.753   1.360  -0.917  1.00  0.00     0.198 C 
HETATM   19  O1  UNL     1      -7.021   0.361  -1.848  1.00  0.00    -0.388 OA
HETATM   20  C16 UNL     1      -5.982  -0.596  -1.869  1.00  0.00     0.198 C 
HETATM   21  C17 UNL     1      -4.702   0.181  -1.686  1.00  0.00     0.298 C 
ENDBRANCH  15  16
ENDBRANCH  14  15
ENDBRANCH  13  14
ENDBRANCH  11  12
ENDBRANCH   8  11
BRANCH   1  22
HETATM   22  N1  UNL     1       4.601  -0.706  -0.349  1.00  0.00    -0.335 N 
HETATM   23  C2  UNL     1       5.687   0.134  -0.787  1.00  0.00     0.137 A 
HETATM   24  C1  UNL     1       6.129   0.239  -2.051  1.00  0.00     0.153 A 
HETATM   25  F1  UNL     1       7.146   1.019  -2.500  1.00  0.00    -0.203 F 
HETATM   26  C22 UNL     1       5.481  -0.561  -3.098  1.00  0.00     0.071 A 
HETATM   27  C21 UNL     1       4.497  -1.326  -2.657  1.00  0.00     0.020 A 
HETATM   28 CL1  UNL     1       5.919  -0.554  -4.793  1.00  0.00    -0.081 Cl
HETATM   29  C20 UNL     1       3.928  -1.527  -1.312  1.00  0.00     0.159 A 
ENDBRANCH   1  22
TORSDOF 6
