REMARK  4 active torsions:
REMARK  status: ('A' for Active; 'I' for Inactive)
REMARK    1  A    between atoms: N1_3  and  C3_4 
REMARK    2  A    between atoms: C3_4  and  C4_5 
REMARK    3  A    between atoms: C6_9  and  C7_10 
REMARK    4  A    between atoms: C9_12  and  N4_13 
ROOT
HETATM    1  C4  UNL     1      -1.177  -0.321   0.467  1.00  0.00     0.093 A 
HETATM    2  N2  UNL     1      -2.123   0.177   1.280  1.00  0.00    -0.242 NA
HETATM    3  C5  UNL     1      -1.959   1.316   1.940  1.00  0.00     0.233 A 
HETATM    4  N3  UNL     1      -0.845   2.025   1.828  1.00  0.00    -0.244 NA
HETATM    5  C6  UNL     1       0.162   1.646   1.060  1.00  0.00     0.073 A 
HETATM    6  C9  UNL     1       0.001   0.438   0.357  1.00  0.00     0.203 A 
ENDROOT
BRANCH   6   7
HETATM    7  N4  UNL     1       1.142  -0.096  -0.537  1.00  0.00     0.079 N 
HETATM    8  C10 UNL     1       1.903  -0.870   0.597  1.00  0.00     0.263 A 
HETATM    9  C11 UNL     1       3.184  -1.483   0.286  1.00  0.00     0.041 A 
HETATM   10  C12 UNL     1       3.935  -1.539  -1.181  1.00  0.00     0.089 A 
HETATM   11  C13 UNL     1       2.825  -0.804  -1.586  1.00  0.00    -0.112 A 
HETATM   12  C14 UNL     1       2.005  -0.268  -1.859  1.00  0.00     0.269 A 
HETATM   13  C15 UNL     1       0.990   0.387  -2.168  1.00  0.00     0.397 A 
HETATM   14  O1  UNL     1      -0.091   0.972  -2.032  1.00  0.00    -0.256 OA
ENDBRANCH   6   7
BRANCH   1  15
HETATM   15  C3  UNL     1      -1.396  -1.563  -0.284  1.00  0.00     0.209 C 
BRANCH  15  16
HETATM   16  N1  UNL     1      -2.731  -2.056   0.047  1.00  0.00    -0.300 NA
HETATM   17  C2  UNL     1      -3.724  -1.342  -0.330  1.00  0.00     0.079 C 
HETATM   18  C1  UNL     1      -5.062  -1.869   0.020  1.00  0.00     0.056 C 
ENDBRANCH  15  16
ENDBRANCH   1  15
BRANCH   5  19
HETATM   19  C7  UNL     1       1.348   2.520   0.951  1.00  0.00     0.057 C 
HETATM   20  C8  UNL     1       1.203   3.334  -0.325  1.00  0.00     0.011 C 
ENDBRANCH   5  19
TORSDOF 4
