REMARK  4 active torsions:
REMARK  status: ('A' for Active; 'I' for Inactive)
REMARK    1  A    between atoms: C5_7  and  O2_8 
REMARK    2  A    between atoms: C7_10  and  N2_11 
REMARK    3  A    between atoms: N2_11  and  C8_12 
REMARK    4  A    between atoms: C16_22  and  C17_23 
ROOT
HETATM    1  C1  UNL     1      -3.353   2.663  -1.148  1.00  0.00     0.053 C 
HETATM    2  C2  UNL     1      -3.540   1.156  -1.359  1.00  0.00     0.310 C 
HETATM    3  C3  UNL     1      -2.373   0.706  -2.111  1.00  0.00     0.254 C 
HETATM    4  O1  UNL     1      -1.950   0.671  -3.291  1.00  0.00    -0.271 OA
HETATM    5  N1  UNL     1      -1.161   0.102  -1.913  1.00  0.00    -0.333 N 
HETATM    6  C4  UNL     1       0.059  -0.506  -1.718  1.00  0.00     0.128 C 
HETATM    7  C5  UNL     1       1.129  -1.062  -1.337  1.00  0.00     0.092 C 
HETATM    8  C6  UNL     1       1.702  -1.491  -0.085  1.00  0.00     0.035 A 
HETATM    9  C7  UNL     1       2.778  -1.063   0.601  1.00  0.00     0.133 A 
HETATM   10  N3  UNL     1       2.965  -1.826   1.812  1.00  0.00    -0.246 NA
HETATM   11  C13 UNL     1       1.999  -2.672   1.825  1.00  0.00     0.105 A 
HETATM   12  C14 UNL     1       1.045  -2.608   0.694  1.00  0.00     0.090 A 
HETATM   13  C15 UNL     1      -0.258  -2.084   1.246  1.00  0.00     0.008 C 
HETATM   14  C16 UNL     1      -1.562  -1.734   1.346  1.00  0.00     0.016 C 
HETATM   15  S1  UNL     1      -2.617  -1.923  -0.073  1.00  0.00    -0.099 SA
HETATM   16  C18 UNL     1      -4.031  -0.832  -0.038  1.00  0.00     0.352 C 
HETATM   17  N5  UNL     1      -3.715   0.590  -0.045  1.00  0.00     0.106 N 
HETATM   18  C19 UNL     1      -5.001   1.209   0.401  1.00  0.00     0.312 C 
HETATM   19  H5  UNL     1      -1.085   0.127  -0.850  1.00  0.00     0.168 HD
ENDROOT
BRANCH   9  20
HETATM   20  N2  UNL     1       3.512   0.024  -0.004  1.00  0.00    -0.363 N 
HETATM   21  H8  UNL     1       2.905   0.827  -0.320  1.00  0.00     0.162 HD
BRANCH  20  22
HETATM   22  C8  UNL     1       4.905   0.253  -0.227  1.00  0.00     0.131 A 
HETATM   23  C9  UNL     1       5.572   0.444   1.090  1.00  0.00     0.004 A 
HETATM   24  C10 UNL     1       6.068   1.680   1.179  1.00  0.00     0.022 A 
HETATM   25  C11 UNL     1       5.771   2.396  -0.076  1.00  0.00     0.032 A 
HETATM   26 CL1  UNL     1       6.040   3.987  -0.765  1.00  0.00    -0.085 Cl
HETATM   27  C12 UNL     1       5.101   1.570  -0.879  1.00  0.00     0.026 A 
ENDBRANCH  20  22
ENDBRANCH   9  20
BRANCH   7  28
HETATM   28  O2  UNL     1       2.094  -1.405  -2.303  1.00  0.00    -0.359 OA
HETATM   29  H7  UNL     1       1.862  -1.629  -3.237  1.00  0.00     0.217 HD
ENDBRANCH   7  28
BRANCH  14  30
HETATM   30  C17 UNL     1      -1.882  -1.146   2.670  1.00  0.00     0.125 C 
HETATM   31  N4  UNL     1      -2.977  -0.709   3.144  1.00  0.00    -0.311 NA
HETATM   32  H17 UNL     1      -3.903  -0.625   2.814  1.00  0.00     0.186 HD
ENDBRANCH  14  30
TORSDOF 4
