REMARK  6 active torsions:
REMARK  status: ('A' for Active; 'I' for Inactive)
REMARK    1  A    between atoms: C2_2  and  C3_3 
REMARK    2  A    between atoms: C7_7  and  C8_8 
REMARK    3  A    between atoms: C7_7  and  N2_10 
REMARK    4  A    between atoms: C8_8  and  N1_9 
REMARK    5  A    between atoms: N3_18  and  C14_19 
REMARK    6  A    between atoms: C14_19  and  C16_21 
REMARK       I    between atoms: C16_21  and  N4_23 
ROOT
HETATM    1  C3  UNL     1       2.458  -1.087   0.221  1.00  0.00    -0.082 C 
HETATM    2  C4  UNL     1       1.448  -1.908  -0.026  1.00  0.00    -0.018 C 
HETATM    3  C5  UNL     1       0.317  -1.635  -0.915  1.00  0.00     0.086 C 
HETATM    4  C6  UNL     1      -0.322  -0.298  -0.614  1.00  0.00     0.036 C 
HETATM    5  C7  UNL     1      -1.559  -0.023  -0.177  1.00  0.00     0.054 C 
HETATM    6  N3  UNL     1       0.595   0.807  -0.824  1.00  0.00    -0.369 N 
HETATM    7  C18 UNL     1       2.002   0.835  -1.259  1.00  0.00     0.128 C 
HETATM    8  C19 UNL     1       2.895   0.289  -0.195  1.00  0.00     0.053 C 
ENDROOT
BRANCH   5   9
HETATM    9  C8  UNL     1      -2.781   0.682   0.280  1.00  0.00     0.170 C 
BRANCH   9  10
HETATM   10  N1  UNL     1      -3.202   0.335   1.600  1.00  0.00    -0.425 N 
HETATM   11  H11 UNL     1      -4.218   0.341   1.690  1.00  0.00     0.150 HD
HETATM   12  H12 UNL     1      -2.640   0.681   2.378  1.00  0.00     0.150 HD
ENDBRANCH   9  10
ENDBRANCH   5   9
BRANCH   5  13
HETATM   13  N2  UNL     1      -2.063  -1.382  -0.053  1.00  0.00    -0.319 N 
HETATM   14  C9  UNL     1      -1.978  -2.299   1.084  1.00  0.00     0.158 A 
HETATM   15  C10 UNL     1      -2.586  -3.609   0.736  1.00  0.00    -0.005 A 
HETATM   16  C11 UNL     1      -3.163  -3.983  -0.390  1.00  0.00     0.026 A 
HETATM   17  C12 UNL     1      -3.219  -2.991  -1.455  1.00  0.00     0.090 A 
HETATM   18 CL1  UNL     1      -4.000  -3.526  -2.927  1.00  0.00    -0.079 Cl
HETATM   19  C13 UNL     1      -2.700  -1.781  -1.275  1.00  0.00     0.213 A 
HETATM   20  F1  UNL     1      -2.855  -1.004  -2.373  1.00  0.00    -0.184 F 
ENDBRANCH   5  13
BRANCH   6  21
HETATM   21  C14 UNL     1       0.083   2.120  -0.606  1.00  0.00     0.172 C 
HETATM   22  C15 UNL     1      -0.800   2.633  -1.690  1.00  0.00     0.042 C 
BRANCH  21  23
HETATM   23  C16 UNL     1       1.167   3.108  -0.369  1.00  0.00     0.239 C 
HETATM   24  O1  UNL     1       2.387   3.377  -0.214  1.00  0.00    -0.271 OA
HETATM   25  N4  UNL     1       0.582   4.431  -0.250  1.00  0.00    -0.364 N 
HETATM   26  C17 UNL     1       1.526   5.537  -0.010  1.00  0.00     0.149 C 
HETATM   27  H21 UNL     1      -0.430   4.723  -0.310  1.00  0.00     0.161 HD
ENDBRANCH  21  23
ENDBRANCH   6  21
BRANCH   1  28
HETATM   28  C2  UNL     1       3.501  -1.556   1.152  1.00  0.00     0.029 C 
HETATM   29  C1  UNL     1       3.247  -2.942   1.695  1.00  0.00     0.010 C 
ENDBRANCH   1  28
TORSDOF 6
