REMARK  8 active torsions:
REMARK  status: ('A' for Active; 'I' for Inactive)
REMARK    1  A    between atoms: C2_2  and  N1_3 
REMARK    2  A    between atoms: N1_3  and  C3_4 
REMARK    3  A    between atoms: N1_3  and  C4_6 
REMARK    4  A    between atoms: C4_6  and  C5_7 
REMARK    5  A    between atoms: C6_8  and  C7_9 
REMARK    6  A    between atoms: C7_9  and  C8_10 
REMARK    7  A    between atoms: C11_13  and  N2_14 
REMARK    8  A    between atoms: N2_14  and  C12_15 
ROOT
HETATM    1  C8  UNL     1       0.509   0.966  -0.968  1.00  0.00     0.046 C 
HETATM    2  C9  UNL     1      -0.321   0.313  -0.217  1.00  0.00     0.033 C 
HETATM    3  C10 UNL     1      -1.541  -0.340   0.173  1.00  0.00     0.066 C 
HETATM    4  C11 UNL     1      -2.622  -0.443  -0.509  1.00  0.00     0.180 C 
HETATM    5  N3  UNL     1      -3.420  -0.219  -1.550  1.00  0.00    -0.388 NA
HETATM    6  C18 UNL     1      -3.828  -0.184  -2.665  1.00  0.00     0.258 C 
HETATM    7  N4  UNL     1      -3.408  -0.555  -3.968  1.00  0.00    -0.203 NA
HETATM    8  C19 UNL     1      -2.241   0.091  -3.751  1.00  0.00    -0.007 C 
HETATM    9  C20 UNL     1      -1.245   0.634  -3.545  1.00  0.00    -0.042 C 
HETATM   10  C21 UNL     1      -0.058   1.302  -3.287  1.00  0.00     0.182 C 
HETATM   11  N5  UNL     1      -0.271   0.826  -2.126  1.00  0.00    -0.256 NA
HETATM   12  H18 UNL     1      -2.973  -0.737  -4.858  1.00  0.00     0.145 HD
ENDROOT
BRANCH   4  13
HETATM   13  N2  UNL     1      -3.711  -1.136   0.056  1.00  0.00    -0.331 N 
HETATM   14  H13 UNL     1      -3.783  -2.173  -0.209  1.00  0.00     0.168 HD
BRANCH  13  15
HETATM   15  C12 UNL     1      -4.749  -0.720   0.976  1.00  0.00     0.036 A 
HETATM   16  C13 UNL     1      -5.972  -1.497   1.270  1.00  0.00     0.032 A 
HETATM   17  C14 UNL     1      -6.266  -0.533   2.102  1.00  0.00     0.046 A 
HETATM   18  C15 UNL     1      -6.578   0.452   2.960  1.00  0.00     0.138 A 
HETATM   19  F1  UNL     1      -7.595   0.663   3.778  1.00  0.00    -0.204 F 
HETATM   20  C16 UNL     1      -5.355   1.068   2.556  1.00  0.00     0.074 A 
HETATM   21 CL1  UNL     1      -5.067   2.606   3.400  1.00  0.00    -0.081 Cl
HETATM   22  C17 UNL     1      -4.438   0.545   1.605  1.00  0.00     0.056 A 
ENDBRANCH  13  15
ENDBRANCH   4  13
BRANCH   1  23
HETATM   23  C7  UNL     1       1.774   1.615  -1.294  1.00  0.00     0.153 C 
BRANCH  23  24
HETATM   24  C6  UNL     1       2.751   1.324  -0.248  1.00  0.00    -0.099 C 
HETATM   25  C5  UNL     1       3.544   1.077   0.580  1.00  0.00    -0.086 C 
BRANCH  25  26
HETATM   26  C4  UNL     1       4.571   0.785   1.626  1.00  0.00     0.219 C 
BRANCH  26  27
HETATM   27  N1  UNL     1       5.370  -0.340   1.113  1.00  0.00    -0.349 N 
BRANCH  27  28
HETATM   28  C2  UNL     1       6.366   0.035   0.185  1.00  0.00     0.121 C 
HETATM   29  C1  UNL     1       7.705   0.351   0.798  1.00  0.00     0.026 C 
ENDBRANCH  27  28
BRANCH  27  30
HETATM   30  C3  UNL     1       5.139  -1.696   1.441  1.00  0.00     0.351 C 
HETATM   31  O1  UNL     1       4.398  -2.397   2.170  1.00  0.00    -0.284 OA
ENDBRANCH  27  30
ENDBRANCH  26  27
ENDBRANCH  25  26
ENDBRANCH  23  24
ENDBRANCH   1  23
TORSDOF 8
