REMARK  6 active torsions:
REMARK  status: ('A' for Active; 'I' for Inactive)
REMARK    1  A    between atoms: N2_5  and  C4_6 
REMARK    2  A    between atoms: C4_6  and  C5_7 
REMARK    3  A    between atoms: C5_7  and  C6_8 
REMARK    4  A    between atoms: C7_9  and  C8_10 
REMARK       I    between atoms: C8_10  and  N3_12 
REMARK    5  A    between atoms: N3_12  and  C9_13 
REMARK    6  A    between atoms: C12_16  and  N4_17 
ROOT
HETATM    1  C8  UNL     1       1.649   0.409   1.424  1.00  0.00     0.302 C 
HETATM    2  O1  UNL     1       2.062  -0.266   2.420  1.00  0.00    -0.258 OA
HETATM    3  N3  UNL     1       2.579   0.701   0.389  1.00  0.00    -0.301 N 
HETATM    4  H12 UNL     1       2.197   1.262  -0.415  1.00  0.00     0.171 HD
ENDROOT
BRANCH   3   5
HETATM    5  C9  UNL     1       3.938   0.296   0.383  1.00  0.00     0.131 A 
HETATM    6  C10 UNL     1       4.794   0.612  -0.662  1.00  0.00     0.068 A 
HETATM    7  C11 UNL     1       6.098   0.167  -0.565  1.00  0.00     0.046 A 
HETATM    8  C12 UNL     1       6.993   0.455  -1.583  1.00  0.00     0.165 A 
HETATM    9  C14 UNL     1       6.579  -0.563   0.501  1.00  0.00     0.089 A 
HETATM   10  N5  UNL     1       8.286   0.061  -1.574  1.00  0.00    -0.222 NA
HETATM   11  C13 UNL     1       8.703  -0.649  -0.508  1.00  0.00     0.236 A 
HETATM   12  N6  UNL     1       7.862  -0.940   0.484  1.00  0.00    -0.240 NA
HETATM   13  C15 UNL     1       5.669  -0.841   1.508  1.00  0.00     0.151 A 
HETATM   14  N7  UNL     1       4.410  -0.412   1.416  1.00  0.00    -0.241 NA
BRANCH   8  15
HETATM   15  N4  UNL     1       6.542   1.205  -2.706  1.00  0.00    -0.205 N 
HETATM   16  F1  UNL     1       6.081   0.359  -3.666  1.00  0.00    -0.100 F 
HETATM   17  H14 UNL     1       6.391   2.133  -3.161  1.00  0.00     0.201 HD
ENDBRANCH   8  15
ENDBRANCH   3   5
BRANCH   1  18
HETATM   18  C7  UNL     1       0.282   0.848   1.374  1.00  0.00    -0.005 C 
HETATM   19  C6  UNL     1      -0.887   1.226   1.353  1.00  0.00    -0.095 C 
BRANCH  19  20
HETATM   20  C5  UNL     1      -2.275   1.698   1.326  1.00  0.00     0.124 C 
BRANCH  20  21
HETATM   21  C4  UNL     1      -3.240   0.568   1.394  1.00  0.00     0.284 C 
BRANCH  21  22
HETATM   22  N2  UNL     1      -3.246  -0.414   0.414  1.00  0.00     0.092 N 
HETATM   23  C3  UNL     1      -3.643  -0.183  -0.906  1.00  0.00     0.302 C 
HETATM   24  C2  UNL     1      -5.145  -0.427  -1.111  1.00  0.00     0.302 C 
HETATM   25  N1  UNL     1      -5.723  -0.266   0.207  1.00  0.00     0.087 N 
HETATM   26  C1  UNL     1      -7.102   0.081   0.119  1.00  0.00     0.310 C 
HETATM   27  C17 UNL     1      -5.407  -1.419   0.987  1.00  0.00     0.302 C 
HETATM   28  C16 UNL     1      -3.889  -1.622   0.895  1.00  0.00     0.302 C 
ENDBRANCH  21  22
ENDBRANCH  20  21
ENDBRANCH  19  20
ENDBRANCH   1  18
TORSDOF 6
