REMARK  8 active torsions:
REMARK  status: ('A' for Active; 'I' for Inactive)
REMARK    1  A    between atoms: C2_2  and  C3_3 
REMARK    2  A    between atoms: C3_3  and  C4_4 
REMARK    3  A    between atoms: C3_3  and  N6_29 
REMARK    4  A    between atoms: C4_4  and  C5_5 
REMARK    5  A    between atoms: C6_6  and  C7_7 
REMARK       I    between atoms: C7_7  and  N1_9 
REMARK    6  A    between atoms: N1_9  and  C8_10 
REMARK    7  A    between atoms: C11_13  and  N2_14 
REMARK    8  A    between atoms: N2_14  and  C12_15 
ROOT
HETATM    1  C8  UNL     1       0.339  -1.077   2.288  1.00  0.00     0.131 A 
HETATM    2  C9  UNL     1       1.428  -0.770   1.518  1.00  0.00     0.068 A 
HETATM    3  C10 UNL     1       2.725  -0.671   1.968  1.00  0.00     0.044 A 
HETATM    4  C11 UNL     1       3.820  -0.361   1.194  1.00  0.00     0.142 A 
HETATM    5  N3  UNL     1       4.984  -0.314   1.820  1.00  0.00    -0.224 NA
HETATM    6  C18 UNL     1       5.136  -0.547   3.126  1.00  0.00     0.236 A 
HETATM    7  N4  UNL     1       4.068  -0.849   3.880  1.00  0.00    -0.240 NA
HETATM    8  C19 UNL     1       2.850  -0.915   3.310  1.00  0.00     0.089 A 
HETATM    9  C20 UNL     1       1.811  -1.225   4.131  1.00  0.00     0.151 A 
HETATM   10  N5  UNL     1       0.557  -1.305   3.617  1.00  0.00    -0.241 NA
ENDROOT
BRANCH   1  11
HETATM   11  N1  UNL     1      -0.986  -1.157   1.721  1.00  0.00    -0.301 N 
HETATM   12  C7  UNL     1      -1.591   0.138   1.803  1.00  0.00     0.302 C 
HETATM   13  O1  UNL     1      -0.826   0.988   2.336  1.00  0.00    -0.258 OA
HETATM   14  H9  UNL     1      -1.550  -1.942   1.287  1.00  0.00     0.171 HD
BRANCH  12  15
HETATM   15  C6  UNL     1      -2.913   0.432   1.332  1.00  0.00    -0.005 C 
HETATM   16  C5  UNL     1      -4.034   0.671   0.954  1.00  0.00    -0.094 C 
BRANCH  16  17
HETATM   17  C4  UNL     1      -5.389   0.985   0.504  1.00  0.00     0.130 C 
BRANCH  17  18
HETATM   18  C3  UNL     1      -5.589   0.331  -0.845  1.00  0.00     0.230 C 
BRANCH  18  19
HETATM   19  C2  UNL     1      -5.400  -1.173  -0.645  1.00  0.00     0.032 C 
HETATM   20  C1  UNL     1      -5.591  -1.873  -1.968  1.00  0.00     0.007 C 
ENDBRANCH  18  19
BRANCH  18  21
HETATM   21  N6  UNL     1      -4.590   0.846  -1.760  1.00  0.00     0.084 N 
HETATM   22  C21 UNL     1      -4.798   2.262  -1.922  1.00  0.00     0.307 C 
HETATM   23  H17 UNL     1      -3.637   0.603  -1.394  1.00  0.00     0.315 HD
ENDBRANCH  18  21
ENDBRANCH  17  18
ENDBRANCH  16  17
ENDBRANCH  12  15
ENDBRANCH   1  11
BRANCH   4  24
HETATM   24  N2  UNL     1       3.623  -0.126  -0.191  1.00  0.00    -0.340 N 
HETATM   25  H11 UNL     1       2.704  -0.200  -0.631  1.00  0.00     0.167 HD
BRANCH  24  26
HETATM   26  C12 UNL     1       4.570   0.232  -1.188  1.00  0.00     0.035 A 
HETATM   27  C13 UNL     1       4.311   0.328  -2.550  1.00  0.00     0.032 A 
HETATM   28  C14 UNL     1       5.243   0.679  -3.480  1.00  0.00     0.046 A 
HETATM   29  C15 UNL     1       6.530   0.968  -3.109  1.00  0.00     0.138 A 
HETATM   30  F1  UNL     1       7.373   1.305  -4.113  1.00  0.00    -0.204 F 
HETATM   31  C16 UNL     1       6.840   0.889  -1.777  1.00  0.00     0.074 A 
HETATM   32 CL1  UNL     1       8.497   1.268  -1.354  1.00  0.00    -0.081 Cl
HETATM   33  C17 UNL     1       5.868   0.530  -0.875  1.00  0.00     0.056 A 
ENDBRANCH  24  26
ENDBRANCH   4  24
TORSDOF 8
