REMARK  4 active torsions:
REMARK  status: ('A' for Active; 'I' for Inactive)
REMARK    1  A    between atoms: C2_2  and  N1_3 
REMARK    2  A    between atoms: N1_3  and  C3_4 
REMARK    3  A    between atoms: N1_3  and  C5_6 
REMARK    4  A    between atoms: N2_8  and  C7_9 
ROOT
HETATM    1  C5  UNL     1      -1.009   0.007   0.043  1.00  0.00     0.361 C 
HETATM    2  C6  UNL     1       0.310  -0.463   0.564  1.00  0.00     0.184 C 
HETATM    3  N2  UNL     1       1.516   0.104  -0.104  1.00  0.00    -0.359 N 
HETATM    4  C13 UNL     1       1.546   1.459   0.130  1.00  0.00     0.274 C 
HETATM    5  N3  UNL     1       2.482   2.472  -0.011  1.00  0.00    -0.263 NA
HETATM    6  C14 UNL     1       1.890   3.677   0.089  1.00  0.00     0.228 C 
HETATM    7  N4  UNL     1       0.585   3.203   0.286  1.00  0.00    -0.253 NA
HETATM    8  C15 UNL     1      -0.516   3.637   0.607  1.00  0.00     0.136 C 
HETATM    9  C16 UNL     1      -1.431   2.450   0.583  1.00  0.00     0.132 C 
HETATM   10  N5  UNL     1      -1.530   1.236   0.380  1.00  0.00    -0.263 NA
ENDROOT
BRANCH   3  11
HETATM   11  C7  UNL     1       2.446  -0.662  -0.857  1.00  0.00     0.033 A 
HETATM   12  C8  UNL     1       2.304  -1.982  -1.202  1.00  0.00     0.032 A 
HETATM   13  C9  UNL     1       3.201  -2.734  -1.929  1.00  0.00     0.046 A 
HETATM   14  C10 UNL     1       4.357  -2.074  -2.343  1.00  0.00     0.138 A 
HETATM   15  F1  UNL     1       5.251  -2.804  -3.061  1.00  0.00    -0.204 F 
HETATM   16  C11 UNL     1       4.541  -0.760  -2.022  1.00  0.00     0.074 A 
HETATM   17 CL1  UNL     1       6.013  -0.035  -2.587  1.00  0.00    -0.081 Cl
HETATM   18  C12 UNL     1       3.592  -0.064  -1.287  1.00  0.00     0.056 A 
ENDBRANCH   3  11
BRANCH   1  19
HETATM   19  N1  UNL     1      -1.975  -0.944   0.709  1.00  0.00     0.114 N 
BRANCH  19  20
HETATM   20  C2  UNL     1      -3.286  -0.678   0.083  1.00  0.00     0.270 C 
HETATM   21  C1  UNL     1      -3.178  -1.116  -1.347  1.00  0.00     0.037 C 
ENDBRANCH  19  20
BRANCH  19  22
HETATM   22  C3  UNL     1      -2.134  -0.508   2.085  1.00  0.00     0.270 C 
HETATM   23  C4  UNL     1      -3.127  -1.434   2.787  1.00  0.00     0.037 C 
ENDBRANCH  19  22
ENDBRANCH   1  19
TORSDOF 4
