REMARK  7 active torsions:
REMARK  status: ('A' for Active; 'I' for Inactive)
REMARK    1  A    between atoms: C2_2  and  N1_3 
REMARK    2  A    between atoms: N1_3  and  C3_4 
REMARK    3  A    between atoms: N1_3  and  C5_6 
REMARK    4  A    between atoms: C5_6  and  C6_7 
REMARK    5  A    between atoms: C7_8  and  C8_9 
REMARK       I    between atoms: C8_9  and  N2_11 
REMARK    6  A    between atoms: N2_11  and  C9_12 
REMARK    7  A    between atoms: C16_24  and  C17_25 
ROOT
HETATM    1  C9  UNL     1      -1.464  -0.673   0.675  1.00  0.00     0.112 C 
HETATM    2  C10 UNL     1      -1.017  -1.520   1.876  1.00  0.00     0.043 C 
HETATM    3  C11 UNL     1      -1.348  -1.607   3.194  1.00  0.00     0.074 C 
HETATM    4 CL1  UNL     1      -0.761  -2.342   4.643  1.00  0.00    -0.081 Cl
HETATM    5  C12 UNL     1      -2.589  -0.880   3.689  1.00  0.00     0.171 C 
HETATM    6  F1  UNL     1      -3.510  -0.518   4.597  1.00  0.00    -0.201 F 
HETATM    7  C13 UNL     1      -3.165  -0.228   2.647  1.00  0.00     0.115 C 
HETATM    8  N3  UNL     1      -4.534  -0.369   2.212  1.00  0.00    -0.332 N 
HETATM    9  C14 UNL     1      -4.876  -0.526   0.799  1.00  0.00     0.138 A 
HETATM   10  N4  UNL     1      -6.178  -0.236   0.772  1.00  0.00    -0.224 NA
HETATM   11  C15 UNL     1      -6.660  -0.331  -0.514  1.00  0.00     0.236 A 
HETATM   12  N5  UNL     1      -5.860  -0.676  -1.554  1.00  0.00    -0.240 NA
HETATM   13  C16 UNL     1      -4.553  -0.953  -1.430  1.00  0.00     0.085 A 
HETATM   14  C19 UNL     1      -3.914  -0.901  -0.183  1.00  0.00     0.022 A 
HETATM   15  C20 UNL     1      -2.485  -1.264  -0.161  1.00  0.00     0.092 C 
HETATM   16  S1  UNL     1      -1.989   0.854   1.623  1.00  0.00    -0.073 SA
HETATM   17  H15 UNL     1      -5.082  -0.344   3.081  1.00  0.00     0.168 HD
ENDROOT
BRANCH   1  18
HETATM   18  N2  UNL     1      -0.302  -0.257  -0.050  1.00  0.00    -0.328 N 
HETATM   19  C8  UNL     1       0.670   0.534   0.634  1.00  0.00     0.298 C 
HETATM   20  O1  UNL     1       0.543   0.882   1.858  1.00  0.00    -0.258 OA
HETATM   21  H13 UNL     1      -0.116  -0.494  -1.049  1.00  0.00     0.165 HD
BRANCH  19  22
HETATM   22  C7  UNL     1       1.880   1.009   0.005  1.00  0.00    -0.004 C 
HETATM   23  C6  UNL     1       2.901   1.388  -0.519  1.00  0.00    -0.066 C 
BRANCH  23  24
HETATM   24  C5  UNL     1       4.168   1.836  -1.148  1.00  0.00     0.366 C 
BRANCH  24  25
HETATM   25  N1  UNL     1       5.281   1.101  -0.545  1.00  0.00     0.098 N 
BRANCH  25  26
HETATM   26  C2  UNL     1       5.174  -0.310  -0.949  1.00  0.00     0.269 C 
HETATM   27  C1  UNL     1       6.412  -1.041  -0.460  1.00  0.00     0.037 C 
ENDBRANCH  25  26
BRANCH  25  28
HETATM   28  C3  UNL     1       5.170   1.125   0.908  1.00  0.00     0.269 C 
HETATM   29  C4  UNL     1       5.275   2.533   1.461  1.00  0.00     0.037 C 
ENDBRANCH  25  28
ENDBRANCH  24  25
ENDBRANCH  23  24
ENDBRANCH  19  22
ENDBRANCH   1  18
BRANCH  13  30
HETATM   30  C17 UNL     1      -3.727  -1.320  -2.567  1.00  0.00     0.142 C 
HETATM   31  N6  UNL     1      -3.678  -0.337  -3.422  1.00  0.00    -0.304 NA
HETATM   32  C18 UNL     1      -4.361   0.908  -3.222  1.00  0.00     0.177 C 
ENDBRANCH  13  30
TORSDOF 7
