REMARK  4 active torsions:
REMARK  status: ('A' for Active; 'I' for Inactive)
REMARK    1  A    between atoms: C2_2  and  C3_4 
REMARK    2  A    between atoms: C4_6  and  C5_7 
REMARK    3  A    between atoms: C5_7  and  N1_8 
REMARK    4  A    between atoms: N1_8  and  C6_9 
ROOT
HETATM    1  C6  UNL     1       2.047  -1.020  -2.344  1.00  0.00     0.132 A 
HETATM    2  N2  UNL     1       2.008  -1.912  -3.368  1.00  0.00    -0.225 NA
HETATM    3  C7  UNL     1       0.783  -2.327  -3.733  1.00  0.00     0.235 A 
HETATM    4  N3  UNL     1      -0.323  -1.906  -3.146  1.00  0.00    -0.243 NA
HETATM    5  C8  UNL     1      -0.377  -1.035  -2.139  1.00  0.00     0.076 A 
HETATM    6  C9  UNL     1       0.877  -0.606  -1.762  1.00  0.00     0.037 A 
HETATM    7  C10 UNL     1       1.046   0.360  -0.707  1.00  0.00     0.034 C 
HETATM    8  C11 UNL     1       1.185   1.189   0.319  1.00  0.00     0.084 C 
HETATM    9  N4  UNL     1       1.111   1.141   1.769  1.00  0.00    -0.395 N 
HETATM   10  C12 UNL     1      -0.000   1.954   2.283  1.00  0.00     0.076 C 
HETATM   11  C13 UNL     1       0.341   3.382   1.921  1.00  0.00     0.032 C 
HETATM   12  C14 UNL     1      -1.195   1.467   1.453  1.00  0.00     0.026 C 
HETATM   13  C15 UNL     1      -2.478   2.144   1.803  1.00  0.00     0.032 C 
HETATM   14  C16 UNL     1      -3.543   1.611   0.865  1.00  0.00     0.275 C 
HETATM   15  N5  UNL     1      -3.740   0.201   0.927  1.00  0.00     0.114 N 
HETATM   16  C17 UNL     1      -4.796  -0.201   1.797  1.00  0.00     0.301 C 
HETATM   17  C18 UNL     1      -6.039  -0.695   1.145  1.00  0.00     0.198 C 
HETATM   18  O1  UNL     1      -5.861  -1.300  -0.066  1.00  0.00    -0.386 OA
HETATM   19  C19 UNL     1      -4.572  -1.723  -0.271  1.00  0.00     0.223 C 
HETATM   20  C20 UNL     1      -3.703  -0.460  -0.339  1.00  0.00     0.332 C 
HETATM   21  N6  UNL     1      -2.359  -0.965  -0.578  1.00  0.00    -0.406 NA
HETATM   22  C21 UNL     1      -1.682  -0.707  -1.615  1.00  0.00     0.352 C 
HETATM   23  H8  UNL     1       1.925   0.524   1.704  1.00  0.00     0.159 HD
ENDROOT
BRANCH   1  24
HETATM   24  N1  UNL     1       3.175  -0.417  -1.726  1.00  0.00    -0.371 NA
BRANCH  24  25
HETATM   25  C5  UNL     1       4.295  -0.964  -1.564  1.00  0.00     0.289 C 
BRANCH  25  26
HETATM   26  C4  UNL     1       5.505  -1.715  -1.453  1.00  0.00     0.062 C 
HETATM   27  C3  UNL     1       6.734  -1.961  -1.135  1.00  0.00     0.134 C 
HETATM   28  F1  UNL     1       7.149  -3.196  -1.490  1.00  0.00    -0.205 F 
BRANCH  27  29
HETATM   29  C2  UNL     1       7.531  -0.956  -0.466  1.00  0.00     0.040 C 
HETATM   30  C1  UNL     1       8.796  -1.147  -0.117  1.00  0.00     0.035 C 
HETATM   31 BR1  UNL     1       6.742   0.735  -0.044  1.00  0.00    -0.049 Br
ENDBRANCH  27  29
ENDBRANCH  25  26
ENDBRANCH  24  25
ENDBRANCH   1  24
TORSDOF 4
