REMARK  7 active torsions:
REMARK  status: ('A' for Active; 'I' for Inactive)
REMARK    1  A    between atoms: C2_2  and  C3_3 
REMARK    2  A    between atoms: C2_2  and  N2_11 
REMARK    3  A    between atoms: C3_3  and  C4_4 
REMARK    4  A    between atoms: C4_4  and  N1_5 
REMARK    5  A    between atoms: N2_11  and  C9_12 
REMARK    6  A    between atoms: C12_15  and  N3_16 
REMARK    7  A    between atoms: N3_16  and  C13_17 
ROOT
HETATM    1  C9  UNL     1      -0.270  -0.352   0.365  1.00  0.00     0.124 A 
HETATM    2  C10 UNL     1      -1.646  -0.225   0.334  1.00  0.00     0.068 A 
HETATM    3  C11 UNL     1      -2.507  -1.078  -0.322  1.00  0.00     0.044 A 
HETATM    4  C12 UNL     1      -3.865  -0.936  -0.340  1.00  0.00     0.142 A 
HETATM    5  N4  UNL     1      -4.462  -1.890  -1.041  1.00  0.00    -0.224 NA
HETATM    6  C19 UNL     1      -3.892  -2.909  -1.689  1.00  0.00     0.236 A 
HETATM    7  N5  UNL     1      -2.554  -3.025  -1.655  1.00  0.00    -0.240 NA
HETATM    8  C20 UNL     1      -1.850  -2.102  -0.966  1.00  0.00     0.089 A 
HETATM    9  C21 UNL     1      -0.490  -2.283  -0.973  1.00  0.00     0.151 A 
HETATM   10  N6  UNL     1       0.256  -1.393  -0.301  1.00  0.00    -0.241 NA
ENDROOT
BRANCH   1  11
HETATM   11  N2  UNL     1       0.546   0.577   1.076  1.00  0.00    -0.370 N 
HETATM   12  H17 UNL     1       0.063   1.355   1.586  1.00  0.00     0.161 HD
BRANCH  11  13
HETATM   13  C2  UNL     1       2.014   0.425   1.075  1.00  0.00     0.080 C 
HETATM   14  C1  UNL     1       2.406  -0.915   1.613  1.00  0.00     0.032 C 
BRANCH  13  15
HETATM   15  C3  UNL     1       2.496   0.745  -0.268  1.00  0.00     0.055 C 
BRANCH  15  16
HETATM   16  C4  UNL     1       3.942   0.868  -0.566  1.00  0.00     0.274 C 
BRANCH  16  17
HETATM   17  N1  UNL     1       4.801  -0.219  -0.274  1.00  0.00     0.092 N 
HETATM   18  C5  UNL     1       5.936  -0.227  -1.250  1.00  0.00     0.298 C 
HETATM   19  C6  UNL     1       6.553   1.115  -1.344  1.00  0.00     0.198 C 
HETATM   20  O1  UNL     1       6.617   1.855  -0.203  1.00  0.00    -0.388 OA
HETATM   21  C7  UNL     1       6.293   1.279   0.975  1.00  0.00     0.198 C 
HETATM   22  C8  UNL     1       5.577  -0.018   0.982  1.00  0.00     0.298 C 
ENDBRANCH  16  17
ENDBRANCH  15  16
ENDBRANCH  13  15
ENDBRANCH  11  13
ENDBRANCH   1  11
BRANCH   4  23
HETATM   23  N3  UNL     1      -4.471   0.130   0.330  1.00  0.00    -0.340 N 
HETATM   24  H19 UNL     1      -3.929   0.834   0.831  1.00  0.00     0.167 HD
BRANCH  23  25
HETATM   25  C13 UNL     1      -5.852   0.424   0.441  1.00  0.00     0.035 A 
HETATM   26  C14 UNL     1      -6.831  -0.420  -0.025  1.00  0.00     0.032 A 
HETATM   27  C15 UNL     1      -8.181  -0.186   0.049  1.00  0.00     0.046 A 
HETATM   28  C16 UNL     1      -8.638   0.978   0.630  1.00  0.00     0.133 A 
HETATM   29  F1  UNL     1      -9.931   1.332   0.767  1.00  0.00    -0.205 F 
HETATM   30  C17 UNL     1      -7.705   1.866   1.116  1.00  0.00     0.051 A 
HETATM   31 BR1  UNL     1      -8.240   3.500   1.934  1.00  0.00    -0.048 Br
HETATM   32  C18 UNL     1      -6.368   1.566   1.008  1.00  0.00     0.051 A 
ENDBRANCH  23  25
ENDBRANCH   4  23
TORSDOF 7
