REMARK  4 active torsions:
REMARK  status: ('A' for Active; 'I' for Inactive)
REMARK    1  A    between atoms: C2_2  and  N1_3 
REMARK    2  A    between atoms: N2_8  and  C6_9 
REMARK    3  A    between atoms: C8_13  and  N5_14 
REMARK    4  A    between atoms: N5_14  and  C9_15 
ROOT
HETATM    1  N1  UNL     1      -2.845  -0.047   0.936  1.00  0.00    -0.264 NA
HETATM    2  C3  UNL     1      -2.749  -0.908   0.111  1.00  0.00     0.121 A 
HETATM    3  C4  UNL     1      -2.649  -1.653  -0.619  1.00  0.00     0.038 A 
HETATM    4  C5  UNL     1      -2.507  -2.541  -1.514  1.00  0.00     0.231 A 
HETATM    5  O1  UNL     1      -2.588  -3.484  -2.208  1.00  0.00    -0.283 OA
HETATM    6  N2  UNL     1      -1.862  -1.199  -1.115  1.00  0.00     0.000 N 
HETATM    7  C6  UNL     1      -1.832  -0.021  -0.158  1.00  0.00     0.144 A 
HETATM    8  N3  UNL     1      -1.974   1.131  -1.005  1.00  0.00    -0.357 N 
HETATM    9  C7  UNL     1      -1.007   2.116  -1.335  1.00  0.00     0.207 A 
HETATM   10  N4  UNL     1       0.187   2.018  -0.819  1.00  0.00    -0.226 NA
HETATM   11  C8  UNL     1       0.461   0.908   0.061  1.00  0.00     0.135 A 
HETATM   12  C15 UNL     1      -0.444  -0.031   0.375  1.00  0.00     0.008 A 
HETATM   13  C16 UNL     1       0.085  -1.063   1.310  1.00  0.00     0.052 C 
HETATM   14  H6  UNL     1      -1.046  -1.013  -1.904  1.00  0.00     0.000 HD
HETATM   15  H7  UNL     1      -2.926   1.225  -1.413  1.00  0.00     0.162 HD
ENDROOT
BRANCH  11  16
HETATM   16  N5  UNL     1       1.820   0.953   0.521  1.00  0.00    -0.341 N 
HETATM   17  H9  UNL     1       2.300   1.377   1.349  1.00  0.00     0.167 HD
BRANCH  16  18
HETATM   18  C9  UNL     1       2.755   0.273  -0.337  1.00  0.00     0.035 A 
HETATM   19  C10 UNL     1       2.287  -0.330  -1.515  1.00  0.00     0.032 A 
HETATM   20  C11 UNL     1       3.063  -1.030  -2.441  1.00  0.00     0.046 A 
HETATM   21  C12 UNL     1       4.406  -1.093  -2.103  1.00  0.00     0.138 A 
HETATM   22  F1  UNL     1       5.180  -1.772  -2.986  1.00  0.00    -0.204 F 
HETATM   23  C13 UNL     1       4.975  -0.542  -0.978  1.00  0.00     0.074 A 
HETATM   24 CL1  UNL     1       6.689  -0.650  -0.615  1.00  0.00    -0.081 Cl
HETATM   25  C14 UNL     1       4.107   0.120  -0.138  1.00  0.00     0.056 A 
ENDBRANCH  16  18
ENDBRANCH  11  16
BRANCH   1  26
HETATM   26  C2  UNL     1      -2.529   1.185   1.620  1.00  0.00     0.089 C 
HETATM   27  C1  UNL     1      -3.531   1.270   2.786  1.00  0.00     0.021 C 
ENDBRANCH   1  26
TORSDOF 4
