REMARK  8 active torsions:
REMARK  status: ('A' for Active; 'I' for Inactive)
REMARK    1  A    between atoms: C3_4  and  C4_5 
REMARK    2  A    between atoms: C5_6  and  N1_7 
REMARK    3  A    between atoms: N1_7  and  C6_8 
REMARK    4  A    between atoms: C10_15  and  N5_16 
REMARK       I    between atoms: N5_16  and  C11_17 
REMARK    5  A    between atoms: C11_17  and  C12_19 
REMARK    6  A    between atoms: C13_20  and  C14_21 
REMARK    7  A    between atoms: C14_21  and  C15_22 
REMARK    8  A    between atoms: C15_22  and  N6_23 
ROOT
HETATM    1  C6  UNL     1       3.816   0.980  -1.948  1.00  0.00     0.141 A 
HETATM    2  N2  UNL     1       4.783   1.804  -2.374  1.00  0.00    -0.224 NA
HETATM    3  C7  UNL     1       4.988   3.024  -1.821  1.00  0.00     0.236 A 
HETATM    4  N3  UNL     1       4.217   3.482  -0.796  1.00  0.00    -0.240 NA
HETATM    5  C8  UNL     1       3.237   2.688  -0.340  1.00  0.00     0.089 A 
HETATM    6  C9  UNL     1       2.460   3.156   0.697  1.00  0.00     0.151 A 
HETATM    7  N4  UNL     1       1.487   2.325   1.123  1.00  0.00    -0.241 NA
HETATM    8  C10 UNL     1       1.259   1.102   0.590  1.00  0.00     0.131 A 
HETATM    9  C20 UNL     1       2.039   0.640  -0.445  1.00  0.00     0.068 A 
HETATM   10  C21 UNL     1       3.044   1.451  -0.914  1.00  0.00     0.044 A 
ENDROOT
BRANCH   8  11
HETATM   11  N5  UNL     1       0.178   0.425   1.216  1.00  0.00    -0.301 N 
HETATM   12  C11 UNL     1      -0.064  -0.487   2.295  1.00  0.00     0.302 C 
HETATM   13  O1  UNL     1       0.857  -0.941   3.020  1.00  0.00    -0.258 OA
HETATM   14  H10 UNL     1      -0.613   0.795   0.608  1.00  0.00     0.171 HD
BRANCH  12  15
HETATM   15  C12 UNL     1      -1.454  -0.847   2.484  1.00  0.00    -0.005 C 
HETATM   16  C13 UNL     1      -2.626  -1.141   2.633  1.00  0.00    -0.095 C 
BRANCH  16  17
HETATM   17  C14 UNL     1      -4.048  -1.472   2.818  1.00  0.00     0.124 C 
BRANCH  17  18
HETATM   18  C15 UNL     1      -4.735  -1.037   1.543  1.00  0.00     0.284 C 
BRANCH  18  19
HETATM   19  N6  UNL     1      -6.159  -1.290   1.542  1.00  0.00     0.093 N 
HETATM   20  C16 UNL     1      -6.659  -0.821   0.238  1.00  0.00     0.298 C 
HETATM   21  C17 UNL     1      -7.147   0.608   0.344  1.00  0.00     0.198 C 
HETATM   22  O2  UNL     1      -8.315   0.603   1.082  1.00  0.00    -0.388 OA
HETATM   23  C18 UNL     1      -8.286  -0.343   2.103  1.00  0.00     0.198 C 
HETATM   24  C19 UNL     1      -6.845  -0.524   2.565  1.00  0.00     0.298 C 
ENDBRANCH  18  19
ENDBRANCH  17  18
ENDBRANCH  16  17
ENDBRANCH  12  15
ENDBRANCH   8  11
BRANCH   1  25
HETATM   25  N1  UNL     1       3.653  -0.306  -2.571  1.00  0.00    -0.350 N 
HETATM   26  H7  UNL     1       2.958  -1.035  -2.349  1.00  0.00     0.166 HD
BRANCH  25  27
HETATM   27  C5  UNL     1       4.606  -0.546  -3.627  1.00  0.00     0.090 C 
HETATM   28  C4  UNL     1       5.839  -0.848  -3.187  1.00  0.00     0.020 C 
BRANCH  28  29
HETATM   29  C3  UNL     1       6.100  -0.910  -1.758  1.00  0.00     0.038 C 
HETATM   30  C2  UNL     1       7.294  -1.201  -1.285  1.00  0.00     0.090 C 
HETATM   31  C1  UNL     1       8.599  -1.522  -1.873  1.00  0.00     0.082 C 
HETATM   32  F1  UNL     1       7.511  -1.252   0.063  1.00  0.00    -0.211 F 
ENDBRANCH  28  29
ENDBRANCH  25  27
ENDBRANCH   1  25
TORSDOF 8
