REMARK  7 active torsions:
REMARK  status: ('A' for Active; 'I' for Inactive)
REMARK    1  A    between atoms: C2_2  and  C3_3 
REMARK    2  A    between atoms: C3_3  and  C4_4 
REMARK    3  A    between atoms: C4_4  and  C5_5 
REMARK    4  A    between atoms: C7_8  and  N2_9 
REMARK    5  A    between atoms: C15_19  and  N3_20 
REMARK    6  A    between atoms: N3_20  and  C17_22 
REMARK    7  A    between atoms: C17_22  and  C19_24 
REMARK       I    between atoms: C19_24  and  N4_25 
ROOT
HETATM    1  C5  UNL     1       0.015   0.596   0.515  1.00  0.00     0.077 C 
HETATM    2  N1  UNL     1       1.067   0.732   1.248  1.00  0.00    -0.282 NA
HETATM    3  C6  UNL     1       2.277   0.002   1.396  1.00  0.00     0.207 C 
HETATM    4  C7  UNL     1       2.872  -0.457   0.112  1.00  0.00     0.038 C 
HETATM    5  C13 UNL     1       2.243  -0.963  -0.964  1.00  0.00     0.029 C 
HETATM    6  C14 UNL     1       0.782  -1.169  -1.085  1.00  0.00     0.034 C 
HETATM    7  C15 UNL     1      -0.156  -0.489  -0.441  1.00  0.00     0.059 C 
ENDROOT
BRANCH   7   8
HETATM    8  N3  UNL     1      -1.421  -0.948  -0.797  1.00  0.00    -0.371 N 
HETATM    9  C16 UNL     1      -1.967  -0.402  -2.052  1.00  0.00     0.150 C 
BRANCH   8  10
HETATM   10  C17 UNL     1      -2.242  -1.901  -0.094  1.00  0.00     0.166 C 
HETATM   11  C18 UNL     1      -2.484  -1.361   1.297  1.00  0.00     0.042 C 
BRANCH  10  12
HETATM   12  C19 UNL     1      -3.558  -2.106  -0.768  1.00  0.00     0.217 C 
HETATM   13  N4  UNL     1      -4.371  -3.051  -0.066  1.00  0.00    -0.271 NA
HETATM   14  H21 UNL     1      -4.753  -4.008   0.162  1.00  0.00     0.127 HD
HETATM   15  H22 UNL     1      -4.771  -3.981   0.187  1.00  0.00     0.127 HD
HETATM   16  O1  UNL     1      -4.569  -2.078  -1.541  1.00  0.00    -0.278 OA
ENDBRANCH  10  12
ENDBRANCH   8  10
ENDBRANCH   7   8
BRANCH   1  17
HETATM   17  C4  UNL     1      -1.093   1.518   0.577  1.00  0.00     0.029 C 
BRANCH  17  18
HETATM   18  C3  UNL     1      -2.208   2.173   0.426  1.00  0.00    -0.025 C 
BRANCH  18  19
HETATM   19  C2  UNL     1      -3.041   3.334   0.840  1.00  0.00     0.022 C 
HETATM   20  C1  UNL     1      -3.298   4.198  -0.371  1.00  0.00     0.009 C 
ENDBRANCH  18  19
ENDBRANCH  17  18
ENDBRANCH   1  17
BRANCH   4  21
HETATM   21  N2  UNL     1       4.293  -0.351  -0.006  1.00  0.00    -0.299 N 
HETATM   22  C8  UNL     1       4.931   0.039  -1.233  1.00  0.00     0.112 C 
HETATM   23  C9  UNL     1       6.224  -0.172  -1.341  1.00  0.00    -0.007 C 
HETATM   24  C10 UNL     1       6.957  -0.146  -0.240  1.00  0.00     0.042 C 
HETATM   25  C11 UNL     1       6.425  -0.554   1.066  1.00  0.00     0.091 C 
HETATM   26 CL1  UNL     1       7.517  -0.885   2.398  1.00  0.00    -0.079 Cl
HETATM   27  C12 UNL     1       5.089  -0.645   1.142  1.00  0.00     0.216 C 
HETATM   28  F1  UNL     1       4.570  -1.022   2.343  1.00  0.00    -0.184 F 
ENDBRANCH   4  21
TORSDOF 7
