REMARK  6 active torsions:
REMARK  status: ('A' for Active; 'I' for Inactive)
REMARK    1  A    between atoms: C1_2  and  C2_3 
REMARK       I    between atoms: C1_2  and  N2_13 
REMARK    2  A    between atoms: C3_4  and  C4_5 
REMARK    3  A    between atoms: C4_5  and  C5_6 
REMARK    4  A    between atoms: C5_6  and  N1_7 
REMARK    5  A    between atoms: N2_13  and  C10_14 
REMARK    6  A    between atoms: C13_17  and  C14_18 
ROOT
HETATM    1  C10 UNL     1      -1.916  -1.287   0.920  1.00  0.00     0.130 C 
HETATM    2  C11 UNL     1      -2.890  -0.434   1.201  1.00  0.00     0.062 C 
HETATM    3  C12 UNL     1      -4.128  -1.216   1.103  1.00  0.00     0.000 C 
HETATM    4  C13 UNL     1      -5.431  -1.129   0.778  1.00  0.00     0.048 C 
HETATM    5  N3  UNL     1      -5.466  -2.562   0.883  1.00  0.00    -0.375 N 
HETATM    6  C20 UNL     1      -4.249  -2.623   1.551  1.00  0.00     0.158 C 
HETATM    7  C21 UNL     1      -3.068  -3.389   1.155  1.00  0.00     0.122 C 
HETATM    8  N4  UNL     1      -1.976  -2.724   0.875  1.00  0.00    -0.245 NA
HETATM    9  H18 UNL     1      -6.098  -3.367   0.607  1.00  0.00     0.160 HD
ENDROOT
BRANCH   1  10
HETATM   10  N2  UNL     1      -0.518  -0.981   0.864  1.00  0.00    -0.301 N 
HETATM   11  C1  UNL     1       0.301  -1.149  -0.285  1.00  0.00     0.302 C 
HETATM   12  O1  UNL     1      -0.244  -1.603  -1.349  1.00  0.00    -0.258 OA
HETATM   13  H13 UNL     1       0.010  -0.599   1.696  1.00  0.00     0.171 HD
BRANCH  11  14
HETATM   14  C2  UNL     1       1.702  -0.838  -0.322  1.00  0.00    -0.005 C 
HETATM   15  C3  UNL     1       2.883  -0.594  -0.361  1.00  0.00    -0.095 C 
BRANCH  15  16
HETATM   16  C4  UNL     1       4.341  -0.317  -0.417  1.00  0.00     0.114 C 
BRANCH  16  17
HETATM   17  C5  UNL     1       4.472   1.113  -0.849  1.00  0.00     0.129 C 
BRANCH  17  18
HETATM   18  N1  UNL     1       5.850   1.460  -0.938  1.00  0.00    -0.408 N 
HETATM   19  C6  UNL     1       6.610   0.857  -1.964  1.00  0.00     0.143 C 
HETATM   20  C7  UNL     1       7.874   0.267  -1.428  1.00  0.00     0.187 C 
HETATM   21  O2  UNL     1       7.627  -0.252  -0.143  1.00  0.00    -0.388 OA
HETATM   22  C8  UNL     1       7.379   0.749   0.769  1.00  0.00     0.187 C 
HETATM   23  C9  UNL     1       6.504   1.863   0.248  1.00  0.00     0.143 C 
ENDBRANCH  17  18
ENDBRANCH  16  17
ENDBRANCH  15  16
ENDBRANCH  11  14
ENDBRANCH   1  10
BRANCH   4  24
HETATM   24  C14 UNL     1      -6.443  -0.187   0.329  1.00  0.00    -0.008 A 
HETATM   25  C15 UNL     1      -6.539   1.106   0.788  1.00  0.00     0.017 A 
HETATM   26  C16 UNL     1      -7.471   2.029   0.397  1.00  0.00     0.044 A 
HETATM   27  C17 UNL     1      -8.418   1.651  -0.551  1.00  0.00     0.133 A 
HETATM   28  F1  UNL     1      -9.368   2.513  -0.982  1.00  0.00    -0.205 F 
HETATM   29  C18 UNL     1      -8.356   0.360  -1.038  1.00  0.00     0.050 A 
HETATM   30 BR1  UNL     1      -9.655  -0.165  -2.344  1.00  0.00    -0.048 Br
HETATM   31  C19 UNL     1      -7.391  -0.529  -0.605  1.00  0.00     0.036 A 
ENDBRANCH   4  24
TORSDOF 6
