REMARK  11 active torsions:
REMARK  status: ('A' for Active; 'I' for Inactive)
REMARK    1  A    between atoms: C2_2  and  N1_3 
REMARK    2  A    between atoms: N1_3  and  C3_4 
REMARK    3  A    between atoms: N1_3  and  C5_6 
REMARK    4  A    between atoms: C5_6  and  C6_7 
REMARK    5  A    between atoms: C7_8  and  C8_9 
REMARK    6  A    between atoms: C8_9  and  N2_10 
REMARK    7  A    between atoms: C8_9  and  C9_11 
REMARK    8  A    between atoms: C9_11  and  N3_12 
REMARK    9  A    between atoms: C10_13  and  C11_14 
REMARK   10  A    between atoms: C11_14  and  C12_15 
REMARK   11  A    between atoms: C13_16  and  C14_18 
ROOT
HETATM    1  C9  UNL     1      -0.078  -1.235   0.750  1.00  0.00     0.196 C 
ENDROOT
BRANCH   1   2
HETATM    2  C8  UNL     1      -0.803  -0.688  -0.486  1.00  0.00     0.316 C 
BRANCH   2   3
HETATM    3  C7  UNL     1      -2.013   0.035  -0.072  1.00  0.00    -0.068 C 
HETATM    4  C6  UNL     1      -2.999   0.627   0.289  1.00  0.00    -0.074 C 
BRANCH   4   5
HETATM    5  C5  UNL     1      -4.187   1.349   0.750  1.00  0.00     0.365 C 
BRANCH   5   6
HETATM    6  N1  UNL     1      -5.258   0.387   0.863  1.00  0.00     0.098 N 
BRANCH   6   7
HETATM    7  C2  UNL     1      -5.632  -0.059  -0.429  1.00  0.00     0.269 C 
HETATM    8  C1  UNL     1      -6.306  -1.409  -0.449  1.00  0.00     0.037 C 
ENDBRANCH   6   7
BRANCH   6   9
HETATM    9  C3  UNL     1      -6.288   0.718   1.776  1.00  0.00     0.269 C 
HETATM   10  C4  UNL     1      -7.046   1.937   1.379  1.00  0.00     0.037 C 
ENDBRANCH   6   9
ENDBRANCH   5   6
ENDBRANCH   4   5
ENDBRANCH   2   3
BRANCH   2  11
HETATM   11  N2  UNL     1      -1.084  -1.803  -1.360  1.00  0.00     0.096 N 
HETATM   12  H14 UNL     1      -0.763  -2.718  -0.931  1.00  0.00     0.314 HD
HETATM   13  H15 UNL     1      -0.530  -1.722  -2.265  1.00  0.00     0.314 HD
ENDBRANCH   2  11
ENDBRANCH   1   2
BRANCH   1  14
HETATM   14  N3  UNL     1       1.102  -1.946   0.435  1.00  0.00    -0.302 NA
HETATM   15  C10 UNL     1       2.050  -1.337  -0.174  1.00  0.00     0.087 C 
BRANCH  15  16
HETATM   16  C11 UNL     1       2.599  -0.106  -0.790  1.00  0.00     0.075 C 
BRANCH  16  17
HETATM   17  C12 UNL     1       4.080  -0.223  -0.702  1.00  0.00     0.003 C 
HETATM   18  C13 UNL     1       4.799   0.652  -0.019  1.00  0.00     0.040 C 
HETATM   19 CL1  UNL     1       3.925   1.940   0.769  1.00  0.00    -0.084 Cl
BRANCH  18  20
HETATM   20  C14 UNL     1       6.245   0.521   0.064  1.00  0.00    -0.015 A 
HETATM   21  C15 UNL     1       6.908  -0.503  -0.574  1.00  0.00     0.016 A 
HETATM   22  C16 UNL     1       8.297  -0.654  -0.501  1.00  0.00     0.043 A 
HETATM   23  C17 UNL     1       9.048   0.241   0.229  1.00  0.00     0.116 A 
HETATM   24  F1  UNL     1      10.380   0.074   0.284  1.00  0.00    -0.206 F 
HETATM   25  C18 UNL     1       8.401   1.288   0.884  1.00  0.00     0.043 A 
HETATM   26  C19 UNL     1       7.026   1.395   0.782  1.00  0.00     0.016 A 
ENDBRANCH  18  20
ENDBRANCH  16  17
ENDBRANCH  15  16
ENDBRANCH   1  14
TORSDOF 11
