REMARK  9 active torsions:
REMARK  status: ('A' for Active; 'I' for Inactive)
REMARK    1  A    between atoms: C4_7  and  N4_8 
REMARK    2  A    between atoms: N4_8  and  C5_9 
REMARK    3  A    between atoms: C11_17  and  C12_18 
REMARK    4  A    between atoms: C12_18  and  C13_19 
REMARK    5  A    between atoms: C13_19  and  N5_20 
REMARK       I    between atoms: N5_20  and  C14_21 
REMARK    6  A    between atoms: C14_21  and  C15_23 
REMARK    7  A    between atoms: C16_24  and  C17_25 
REMARK    8  A    between atoms: C17_25  and  C18_26 
REMARK    9  A    between atoms: C18_26  and  N6_27 
ROOT
HETATM    1  N1  UNL     1      -4.712  -3.784  -3.630  1.00  0.00    -0.190 NA
HETATM    2  C1  UNL     1      -5.133  -3.474  -2.605  1.00  0.00     0.120 C 
HETATM    3  C2  UNL     1      -5.648  -3.077  -1.328  1.00  0.00     0.152 A 
HETATM    4  N2  UNL     1      -6.860  -3.414  -0.887  1.00  0.00    -0.230 NA
HETATM    5  C3  UNL     1      -7.322  -3.035   0.309  1.00  0.00     0.236 A 
HETATM    6  N3  UNL     1      -6.579  -2.286   1.135  1.00  0.00    -0.223 NA
HETATM    7  C4  UNL     1      -5.331  -1.876   0.809  1.00  0.00     0.142 A 
HETATM    8  C11 UNL     1      -4.944  -2.311  -0.429  1.00  0.00     0.051 A 
ENDROOT
BRANCH   8   9
HETATM    9  C12 UNL     1      -3.619  -1.965  -0.899  1.00  0.00     0.035 C 
BRANCH   9  10
HETATM   10  C13 UNL     1      -2.490  -1.383  -0.726  1.00  0.00     0.093 C 
BRANCH  10  11
HETATM   11  N5  UNL     1      -1.200  -0.880  -0.851  1.00  0.00    -0.326 N 
HETATM   12  C14 UNL     1      -0.272  -1.349   0.119  1.00  0.00     0.300 C 
HETATM   13  O1  UNL     1      -0.766  -2.145   0.932  1.00  0.00    -0.258 OA
HETATM   14  H8  UNL     1      -0.961  -0.211  -1.611  1.00  0.00     0.169 HD
BRANCH  12  15
HETATM   15  C15 UNL     1       1.085  -0.903   0.100  1.00  0.00    -0.005 C 
HETATM   16  C16 UNL     1       2.221  -0.538   0.102  1.00  0.00    -0.095 C 
BRANCH  16  17
HETATM   17  C17 UNL     1       3.610  -0.083   0.128  1.00  0.00     0.124 C 
BRANCH  17  18
HETATM   18  C18 UNL     1       4.061   0.459  -1.209  1.00  0.00     0.284 C 
BRANCH  18  19
HETATM   19  N6  UNL     1       5.404   0.905  -1.242  1.00  0.00     0.089 N 
HETATM   20  C19 UNL     1       6.309  -0.199  -1.113  1.00  0.00     0.272 C 
HETATM   21  C20 UNL     1       7.550   0.168  -0.324  1.00  0.00     0.030 C 
HETATM   22  C21 UNL     1       8.051   1.554  -0.629  1.00  0.00     0.003 C 
HETATM   23  C22 UNL     1       6.971   2.607  -0.450  1.00  0.00     0.030 C 
HETATM   24  C23 UNL     1       5.617   1.932  -0.260  1.00  0.00     0.272 C 
ENDBRANCH  18  19
ENDBRANCH  17  18
ENDBRANCH  16  17
ENDBRANCH  12  15
ENDBRANCH  10  11
ENDBRANCH   9  10
ENDBRANCH   8   9
BRANCH   7  25
HETATM   25  N4  UNL     1      -4.619  -1.092   1.739  1.00  0.00    -0.340 N 
HETATM   26  H2  UNL     1      -3.909  -1.433   2.436  1.00  0.00     0.167 HD
BRANCH  25  27
HETATM   27  C5  UNL     1      -4.898   0.324   1.727  1.00  0.00     0.035 A 
HETATM   28  C6  UNL     1      -5.749   0.843   0.772  1.00  0.00     0.032 A 
HETATM   29  C7  UNL     1      -6.085   2.198   0.689  1.00  0.00     0.046 A 
HETATM   30  C8  UNL     1      -5.514   3.051   1.639  1.00  0.00     0.138 A 
HETATM   31  F1  UNL     1      -5.797   4.379   1.618  1.00  0.00    -0.204 F 
HETATM   32  C9  UNL     1      -4.669   2.507   2.581  1.00  0.00     0.074 A 
HETATM   33 CL1  UNL     1      -3.924   3.520   3.801  1.00  0.00    -0.081 Cl
HETATM   34  C10 UNL     1      -4.338   1.186   2.666  1.00  0.00     0.056 A 
ENDBRANCH  25  27
ENDBRANCH   7  25
TORSDOF 9
