REMARK  3 active torsions:
REMARK  status: ('A' for Active; 'I' for Inactive)
REMARK    1  A    between atoms: C7_7  and  C8_8 
REMARK    2  A    between atoms: C9_9  and  C10_10 
REMARK    3  A    between atoms: C16_17  and  O1_18 
ROOT
HETATM    1  C10 UNL     1       0.261  -0.199   0.748  1.00  0.00     0.081 C 
HETATM    2  C11 UNL     1       0.638  -1.430   0.232  1.00  0.00     0.029 C 
HETATM    3  C12 UNL     1       2.126  -1.801   0.299  1.00  0.00     0.082 C 
HETATM    4  C13 UNL     1       2.246  -2.798   1.404  1.00  0.00     0.028 C 
HETATM    5  C14 UNL     1       2.686  -0.514   0.586  1.00  0.00     0.451 A 
HETATM    6  N1  UNL     1       3.559   0.412   0.602  1.00  0.00     0.249 N 
HETATM    7  C15 UNL     1       3.710   1.619   1.089  1.00  0.00     0.444 A 
HETATM    8  C16 UNL     1       4.952   1.439   0.416  1.00  0.00     0.258 A 
HETATM    9  C17 UNL     1       4.694   0.178  -0.049  1.00  0.00     0.482 A 
HETATM   10  N2  UNL     1       3.555   0.452   0.623  1.00  0.00     0.249 N 
HETATM   11  N3  UNL     1       5.538  -0.625  -0.841  1.00  0.00    -0.337 N 
HETATM   12  C18 UNL     1       5.102  -1.843  -1.444  1.00  0.00     0.086 C 
HETATM   13  C19 UNL     1       3.912  -2.501  -1.399  1.00  0.00     0.028 C 
HETATM   14  C20 UNL     1       2.472  -2.406  -1.008  1.00  0.00     0.211 C 
HETATM   15  F1  UNL     1       2.024  -3.736  -0.952  1.00  0.00    -0.244 F 
HETATM   16  C21 UNL     1       3.555   2.876   1.737  1.00  0.00     0.164 C 
HETATM   17  N4  UNL     1       2.309   3.005   1.524  1.00  0.00    -0.282 NA
HETATM   18  C22 UNL     1       1.333   2.222   0.871  1.00  0.00     0.270 C 
HETATM   19  N5  UNL     1       1.012   0.912   1.373  1.00  0.00    -0.365 N 
HETATM   20  H19 UNL     1       6.336   0.011  -0.729  1.00  0.00     0.163 HD
HETATM   21  H26 UNL     1       1.069   0.258   2.151  1.00  0.00     0.162 HD
ENDROOT
BRANCH   1  22
HETATM   22  C9  UNL     1      -1.140   0.199   0.712  1.00  0.00    -0.049 C 
HETATM   23  C8  UNL     1      -2.302   0.511   0.672  1.00  0.00    -0.094 C 
BRANCH  23  24
HETATM   24  C7  UNL     1      -3.716   0.916   0.621  1.00  0.00     0.069 C 
HETATM   25  C2  UNL     1      -4.019   1.286  -0.793  1.00  0.00    -0.003 C 
HETATM   26  C1  UNL     1      -3.478   0.187  -1.694  1.00  0.00     0.011 C 
HETATM   27  C3  UNL     1      -5.488   1.493  -1.025  1.00  0.00     0.005 C 
HETATM   28  C4  UNL     1      -6.320   0.340  -0.550  1.00  0.00     0.000 C 
HETATM   29  C5  UNL     1      -6.023  -0.018   0.873  1.00  0.00     0.001 C 
HETATM   30  C6  UNL     1      -4.552  -0.208   1.148  1.00  0.00     0.017 C 
ENDBRANCH  23  24
ENDBRANCH   1  22
BRANCH   8  31
HETATM   31  O1  UNL     1       6.204   1.869   0.022  1.00  0.00    -0.376 OA
HETATM   32  H18 UNL     1       6.943   2.212   0.588  1.00  0.00     0.211 HD
ENDBRANCH   8  31
TORSDOF 3
