REMARK  9 active torsions:
REMARK  status: ('A' for Active; 'I' for Inactive)
REMARK    1  A    between atoms: C2_2  and  N1_3 
REMARK    2  A    between atoms: C2_2  and  N5_19 
REMARK    3  A    between atoms: C3_4  and  C4_5 
REMARK    4  A    between atoms: C6_9  and  N4_10 
REMARK    5  A    between atoms: N4_10  and  C7_11 
REMARK       I    between atoms: N5_19  and  C13_20 
REMARK    6  A    between atoms: C13_20  and  C14_22 
REMARK    7  A    between atoms: C15_23  and  C16_24 
REMARK    8  A    between atoms: C16_24  and  C17_25 
REMARK    9  A    between atoms: C17_25  and  N6_26 
ROOT
HETATM    1  N1  UNL     1      -2.176  -1.480   3.076  1.00  0.00    -0.242 NA
HETATM    2  C3  UNL     1      -3.212  -0.847   2.663  1.00  0.00     0.150 C 
ENDROOT
BRANCH   1   3
HETATM    3  C2  UNL     1      -1.032  -1.535   2.251  1.00  0.00     0.120 C 
HETATM    4  C1  UNL     1      -0.967  -2.814   1.923  1.00  0.00     0.065 C 
BRANCH   3   5
HETATM    5  N5  UNL     1      -0.092  -0.569   1.797  1.00  0.00    -0.301 N 
HETATM    6  C13 UNL     1       0.922  -1.091   0.961  1.00  0.00     0.302 C 
HETATM    7  O1  UNL     1       0.982  -2.307   0.651  1.00  0.00    -0.258 OA
HETATM    8  H10 UNL     1      -0.230   0.414   2.113  1.00  0.00     0.171 HD
BRANCH   6   9
HETATM    9  C14 UNL     1       1.903  -0.132   0.475  1.00  0.00    -0.005 C 
HETATM   10  C15 UNL     1       2.730   0.650   0.074  1.00  0.00    -0.095 C 
BRANCH  10  11
HETATM   11  C16 UNL     1       3.742   1.586  -0.434  1.00  0.00     0.124 C 
BRANCH  11  12
HETATM   12  C17 UNL     1       4.514   0.964  -1.570  1.00  0.00     0.284 C 
BRANCH  12  13
HETATM   13  N6  UNL     1       5.190  -0.230  -1.168  1.00  0.00     0.089 N 
HETATM   14  C18 UNL     1       5.916  -0.797  -2.290  1.00  0.00     0.272 C 
HETATM   15  C19 UNL     1       7.391  -0.954  -2.018  1.00  0.00     0.030 C 
HETATM   16  C20 UNL     1       8.025   0.279  -1.431  1.00  0.00     0.003 C 
HETATM   17  C21 UNL     1       7.211   0.869  -0.316  1.00  0.00     0.030 C 
HETATM   18  C22 UNL     1       6.064  -0.080  -0.045  1.00  0.00     0.272 C 
ENDBRANCH  12  13
ENDBRANCH  11  12
ENDBRANCH  10  11
ENDBRANCH   6   9
ENDBRANCH   3   5
ENDBRANCH   1   3
BRANCH   2  19
HETATM   19  C4  UNL     1      -3.328  -0.159   1.394  1.00  0.00     0.097 A 
HETATM   20  N2  UNL     1      -2.448  -0.056   0.471  1.00  0.00    -0.241 NA
HETATM   21  C5  UNL     1      -2.985   0.716  -0.622  1.00  0.00     0.230 A 
HETATM   22  N3  UNL     1      -4.203   1.082  -0.355  1.00  0.00    -0.251 NA
HETATM   23  C6  UNL     1      -4.549   0.564   0.954  1.00  0.00     0.261 A 
BRANCH  23  24
HETATM   24  N4  UNL     1      -5.604  -0.436   0.875  1.00  0.00    -0.362 N 
HETATM   25  H6  UNL     1      -5.474  -1.444   1.096  1.00  0.00     0.162 HD
BRANCH  24  26
HETATM   26  C7  UNL     1      -6.892   0.009   0.467  1.00  0.00     0.031 A 
HETATM   27  C8  UNL     1      -7.131   1.335   0.159  1.00  0.00     0.032 A 
HETATM   28  C9  UNL     1      -8.400   1.763  -0.242  1.00  0.00     0.046 A 
HETATM   29  C10 UNL     1      -9.452   0.861  -0.339  1.00  0.00     0.138 A 
HETATM   30  F1  UNL     1     -10.703   1.235  -0.726  1.00  0.00    -0.204 F 
HETATM   31  C11 UNL     1      -9.236  -0.483  -0.034  1.00  0.00     0.074 A 
HETATM   32 CL1  UNL     1     -10.500  -1.702  -0.125  1.00  0.00    -0.081 Cl
HETATM   33  C12 UNL     1      -7.961  -0.875   0.362  1.00  0.00     0.056 A 
ENDBRANCH  24  26
ENDBRANCH  23  24
ENDBRANCH   2  19
TORSDOF 9
