REMARK  5 active torsions:
REMARK  status: ('A' for Active; 'I' for Inactive)
REMARK    1  A    between atoms: C2_2  and  C3_3 
REMARK    2  A    between atoms: C2_2  and  N2_7 
REMARK       I    between atoms: N2_7  and  C6_8 
REMARK    3  A    between atoms: C6_8  and  C7_10 
REMARK    4  A    between atoms: C7_10  and  C8_11 
REMARK    5  A    between atoms: C11_16  and  C12_17 
ROOT
HETATM    1  C3  UNL     1       4.129  -0.436   0.694  1.00  0.00    -0.066 C 
HETATM    2  C4  UNL     1       4.830  -0.423   1.676  1.00  0.00     0.015 C 
HETATM    3  C5  UNL     1       5.642  -0.388   2.835  1.00  0.00     0.152 C 
HETATM    4  N1  UNL     1       6.302  -0.339   3.779  1.00  0.00    -0.182 NA
ENDROOT
BRANCH   1   5
HETATM    5  C2  UNL     1       3.258  -0.428  -0.508  1.00  0.00     0.161 C 
HETATM    6  C1  UNL     1       3.742  -1.543  -1.436  1.00  0.00     0.046 C 
BRANCH   5   7
HETATM    7  N2  UNL     1       1.901  -0.620  -0.114  1.00  0.00    -0.343 N 
HETATM    8  C6  UNL     1       0.849   0.298  -0.399  1.00  0.00     0.242 C 
HETATM    9  O1  UNL     1       1.367   1.269  -1.045  1.00  0.00    -0.269 OA
HETATM   10  H5  UNL     1       1.612  -1.476   0.420  1.00  0.00     0.164 HD
BRANCH   8  11
HETATM   11  C7  UNL     1      -0.549   0.220  -0.060  1.00  0.00     0.085 C 
BRANCH  11  12
HETATM   12  C8  UNL     1      -1.556   1.023  -0.291  1.00  0.00    -0.003 A 
HETATM   13  C9  UNL     1      -1.103   2.211  -1.046  1.00  0.00     0.191 A 
HETATM   14  N3  UNL     1      -2.200   3.128  -1.302  1.00  0.00    -0.278 NA
HETATM   15  C10 UNL     1      -3.366   2.815  -0.873  1.00  0.00     0.227 A 
HETATM   16  N4  UNL     1      -3.706   1.641  -0.158  1.00  0.00    -0.241 NA
HETATM   17  C11 UNL     1      -2.884   0.708   0.171  1.00  0.00     0.079 A 
BRANCH  17  18
HETATM   18  C12 UNL     1      -3.274  -0.471   0.897  1.00  0.00     0.032 A 
HETATM   19  C13 UNL     1      -4.553  -0.643   1.272  1.00  0.00     0.020 A 
HETATM   20  C14 UNL     1      -4.272  -1.900   1.893  1.00  0.00     0.044 A 
HETATM   21  C15 UNL     1      -3.021  -1.732   1.528  1.00  0.00     0.129 A 
HETATM   22  F1  UNL     1      -1.897  -2.450   1.670  1.00  0.00    -0.205 F 
ENDBRANCH  17  18
ENDBRANCH  11  12
ENDBRANCH   8  11
ENDBRANCH   5   7
ENDBRANCH   1   5
TORSDOF 5
