REMARK  9 active torsions:
REMARK  status: ('A' for Active; 'I' for Inactive)
REMARK    1  A    between atoms: C2_2  and  C3_3 
REMARK    2  A    between atoms: C3_3  and  N1_4 
REMARK    3  A    between atoms: N1_4  and  C4_5 
REMARK    4  A    between atoms: N1_4  and  C6_7 
REMARK    5  A    between atoms: C6_7  and  C7_8 
REMARK    6  A    between atoms: C7_8  and  C8_9 
REMARK    7  A    between atoms: C8_9  and  C9_10 
REMARK    8  A    between atoms: C9_10  and  N2_12 
REMARK    9  A    between atoms: N2_12  and  C11_13 
ROOT
HETATM    1  C9  UNL     1       1.273   1.391  -0.523  1.00  0.00     0.077 C 
HETATM    2  C10 UNL     1       1.322   1.574   0.961  1.00  0.00     0.032 C 
ENDROOT
BRANCH   1   3
HETATM    3  C8  UNL     1       0.479   0.268  -1.055  1.00  0.00     0.026 C 
BRANCH   3   4
HETATM    4  C7  UNL     1      -0.986   0.213  -0.808  1.00  0.00     0.021 C 
BRANCH   4   5
HETATM    5  C6  UNL     1      -1.436   0.162   0.618  1.00  0.00     0.117 C 
BRANCH   5   6
HETATM    6  N1  UNL     1      -2.862   0.055   0.746  1.00  0.00    -0.413 N 
BRANCH   6   7
HETATM    7  C3  UNL     1      -3.463  -1.121   0.338  1.00  0.00     0.116 C 
BRANCH   7   8
HETATM    8  C2  UNL     1      -4.445  -1.078  -0.791  1.00  0.00     0.015 C 
HETATM    9  C1  UNL     1      -5.648  -0.232  -0.564  1.00  0.00     0.006 C 
ENDBRANCH   7   8
ENDBRANCH   6   7
BRANCH   6  10
HETATM   10  C4  UNL     1      -3.526   1.093   1.376  1.00  0.00     0.112 C 
HETATM   11  C5  UNL     1      -3.974   0.653   2.770  1.00  0.00     0.026 C 
ENDBRANCH   6  10
ENDBRANCH   5   6
ENDBRANCH   4   5
ENDBRANCH   3   4
ENDBRANCH   1   3
BRANCH   1  12
HETATM   12  N2  UNL     1       2.633   1.383  -1.076  1.00  0.00    -0.385 N 
HETATM   13  H23 UNL     1       2.992   2.191  -1.668  1.00  0.00     0.160 HD
BRANCH  12  14
HETATM   14  C11 UNL     1       3.760   0.523  -1.068  1.00  0.00     0.046 C 
HETATM   15  C12 UNL     1       4.888   1.074  -0.578  1.00  0.00     0.032 C 
HETATM   16  C13 UNL     1       6.297   0.703  -0.327  1.00  0.00     0.022 C 
HETATM   17  C14 UNL     1       6.850  -0.504  -0.129  1.00  0.00     0.118 C 
HETATM   18  N3  UNL     1       6.364  -1.862  -0.076  1.00  0.00    -0.254 NA
HETATM   19  C15 UNL     1       5.311  -2.411  -0.585  1.00  0.00     0.232 C 
HETATM   20  N4  UNL     1       4.206  -1.981  -1.382  1.00  0.00    -0.252 NA
HETATM   21  C16 UNL     1       3.594  -0.855  -1.582  1.00  0.00     0.147 C 
ENDBRANCH  12  14
ENDBRANCH   1  12
TORSDOF 9
