REMARK  5 active torsions:
REMARK  status: ('A' for Active; 'I' for Inactive)
REMARK    1  A    between atoms: C6_6  and  N1_7 
REMARK    2  A    between atoms: N1_7  and  C7_8 
REMARK    3  A    between atoms: P1_15  and  C13_17 
REMARK    4  A    between atoms: C13_17  and  C15_19 
REMARK       I    between atoms: C15_19  and  N4_21 
REMARK    5  A    between atoms: C20_26  and  N5_27 
ROOT
HETATM    1  C7  UNL     1       1.534  -1.278  -0.400  1.00  0.00     0.138 A 
HETATM    2  N2  UNL     1       2.477  -2.218  -0.705  1.00  0.00    -0.224 NA
HETATM    3  C8  UNL     1       2.251  -3.502  -0.382  1.00  0.00     0.235 A 
HETATM    4  N3  UNL     1       1.120  -3.895   0.237  1.00  0.00    -0.241 NA
HETATM    5  C9  UNL     1       0.152  -2.989   0.560  1.00  0.00     0.068 A 
HETATM    6  C10 UNL     1       0.374  -1.672   0.232  1.00  0.00     0.021 A 
HETATM    7  C11 UNL     1      -0.483  -0.479   0.444  1.00  0.00     0.079 C 
HETATM    8  P1  UNL     1      -2.110  -0.850  -0.309  1.00  0.00    -0.105 P 
HETATM    9  C12 UNL     1      -1.869  -1.795  -1.861  1.00  0.00     0.044 C 
HETATM   10  C17 UNL     1      -2.861  -1.866   0.699  1.00  0.00     0.003 C 
HETATM   11  C18 UNL     1      -2.253  -3.064   1.265  1.00  0.00     0.003 C 
HETATM   12  C19 UNL     1      -1.010  -3.562   1.229  1.00  0.00     0.032 C 
ENDROOT
BRANCH   1  13
HETATM   13  N1  UNL     1       1.900   0.033  -0.804  1.00  0.00    -0.339 N 
HETATM   14  H7  UNL     1       1.480   0.407  -1.685  1.00  0.00     0.167 HD
BRANCH  13  15
HETATM   15  C6  UNL     1       2.709   1.118  -0.399  1.00  0.00     0.060 A 
HETATM   16  C5  UNL     1       2.342   2.400  -0.074  1.00  0.00     0.032 A 
HETATM   17  C4  UNL     1       3.324   3.292   0.277  1.00  0.00     0.003 A 
HETATM   18  C3  UNL     1       4.661   2.974   0.321  1.00  0.00     0.009 A 
HETATM   19  C2  UNL     1       5.037   1.677  -0.007  1.00  0.00    -0.034 A 
HETATM   20  C1  UNL     1       6.500   1.368   0.051  1.00  0.00     0.050 C 
HETATM   21  C20 UNL     1       4.063   0.766  -0.362  1.00  0.00     0.058 A 
BRANCH  21  22
HETATM   22  N5  UNL     1       4.630  -0.519  -0.671  1.00  0.00    -0.397 N 
HETATM   23  H25 UNL     1       4.897  -1.084  -1.507  1.00  0.00     0.156 HD
HETATM   24  H26 UNL     1       4.828  -1.017   0.214  1.00  0.00     0.156 HD
ENDBRANCH  21  22
ENDBRANCH  13  15
ENDBRANCH   1  13
BRANCH   8  25
HETATM   25  C13 UNL     1      -2.962   0.656  -0.651  1.00  0.00     0.102 C 
HETATM   26  C14 UNL     1      -3.474   0.634  -2.096  1.00  0.00     0.025 C 
BRANCH  25  27
HETATM   27  C15 UNL     1      -4.141   0.937   0.205  1.00  0.00     0.225 C 
HETATM   28  O1  UNL     1      -4.737   0.348   1.171  1.00  0.00    -0.273 OA
HETATM   29  N4  UNL     1      -4.860   2.139  -0.024  1.00  0.00    -0.365 N 
HETATM   30  C16 UNL     1      -6.016   2.550   0.711  1.00  0.00     0.149 C 
HETATM   31  H18 UNL     1      -4.615   2.860  -0.769  1.00  0.00     0.161 HD
ENDBRANCH  25  27
ENDBRANCH   8  25
TORSDOF 5
