REMARK  5 active torsions:
REMARK  status: ('A' for Active; 'I' for Inactive)
REMARK    1  A    between atoms: C1_2  and  O2_3 
REMARK    2  A    between atoms: O2_3  and  N1_4 
REMARK    3  A    between atoms: N1_4  and  C2_5 
REMARK    4  A    between atoms: C9_14  and  N4_15 
REMARK    5  A    between atoms: N4_15  and  C10_16 
ROOT
HETATM    1  C2  UNL     1       2.869  -0.839  -0.244  1.00  0.00     0.057 C 
HETATM    2  C3  UNL     1       3.142  -2.185  -0.356  1.00  0.00     0.033 C 
HETATM    3  C4  UNL     1       2.415  -2.804  -1.324  1.00  0.00     0.022 C 
HETATM    4  C5  UNL     1       1.075  -2.581  -1.540  1.00  0.00     0.118 C 
HETATM    5  N2  UNL     1       0.604  -1.691  -2.445  1.00  0.00    -0.256 NA
HETATM    6  C6  UNL     1      -0.427  -0.877  -2.224  1.00  0.00     0.211 C 
HETATM    7  N3  UNL     1      -0.374   0.170  -1.366  1.00  0.00    -0.314 N 
HETATM    8  C7  UNL     1       0.831   0.480  -0.874  1.00  0.00     0.060 A 
HETATM    9  C8  UNL     1       2.073  -0.045  -1.050  1.00  0.00     0.060 C 
HETATM   10  C9  UNL     1      -0.278   1.301  -0.432  1.00  0.00     0.241 A 
ENDROOT
BRANCH  10  11
HETATM   11  N4  UNL     1      -0.884   1.138   0.869  1.00  0.00    -0.363 N 
HETATM   12  H9  UNL     1      -0.363   1.197   1.764  1.00  0.00     0.162 HD
BRANCH  11  13
HETATM   13  C10 UNL     1      -2.291   0.878   0.934  1.00  0.00     0.031 A 
HETATM   14  C11 UNL     1      -3.064   0.783  -0.204  1.00  0.00     0.032 A 
HETATM   15  C12 UNL     1      -4.409   0.538  -0.213  1.00  0.00     0.046 A 
HETATM   16  C13 UNL     1      -5.059   0.370   1.004  1.00  0.00     0.138 A 
HETATM   17  F1  UNL     1      -6.392   0.126   1.009  1.00  0.00    -0.204 F 
HETATM   18  C14 UNL     1      -4.299   0.461   2.176  1.00  0.00     0.074 A 
HETATM   19 CL1  UNL     1      -5.162   0.241   3.703  1.00  0.00    -0.081 Cl
HETATM   20  C15 UNL     1      -2.941   0.710   2.139  1.00  0.00     0.056 A 
ENDBRANCH  11  13
ENDBRANCH  10  11
BRANCH   1  21
HETATM   21  N1  UNL     1       3.357   0.057   0.749  1.00  0.00    -0.259 N 
HETATM   22  H2  UNL     1       3.994  -0.404   1.456  1.00  0.00     0.195 HD
BRANCH  21  23
HETATM   23  O2  UNL     1       3.233   1.389   1.058  1.00  0.00    -0.209 OA
BRANCH  23  24
HETATM   24  C1  UNL     1       4.288   2.269   0.883  1.00  0.00     0.425 C 
HETATM   25  O1  UNL     1       5.416   1.909   0.435  1.00  0.00    -0.274 OA
ENDBRANCH  23  24
ENDBRANCH  21  23
ENDBRANCH   1  21
TORSDOF 5
