REMARK  7 active torsions:
REMARK  status: ('A' for Active; 'I' for Inactive)
REMARK       I    between atoms: C2_2  and  N1_4 
REMARK    1  A    between atoms: C8_11  and  N3_12 
REMARK    2  A    between atoms: N3_12  and  C9_13 
REMARK    3  A    between atoms: C15_21  and  O2_22 
REMARK    4  A    between atoms: O2_22  and  C16_23 
REMARK    5  A    between atoms: C16_23  and  C17_24 
REMARK    6  A    between atoms: C17_24  and  C18_25 
REMARK    7  A    between atoms: C18_25  and  N4_26 
ROOT
HETATM    1  C1  UNL     1       0.247  -4.087  -0.400  1.00  0.00     0.117 C 
HETATM    2  C2  UNL     1       0.451  -2.878   0.390  1.00  0.00     0.221 C 
HETATM    3  O1  UNL     1       1.426  -3.090   1.146  1.00  0.00    -0.273 OA
HETATM    4  N1  UNL     1      -0.243  -1.638   0.398  1.00  0.00    -0.300 N 
HETATM    5  C3  UNL     1      -1.328  -1.698  -0.569  1.00  0.00     0.103 C 
HETATM    6  C4  UNL     1      -2.265  -0.896  -0.085  1.00  0.00    -0.020 C 
HETATM    7  C5  UNL     1      -2.410  -0.889   1.434  1.00  0.00     0.053 C 
HETATM    8  C6  UNL     1      -1.291   0.168   1.715  1.00  0.00     0.079 C 
HETATM    9  C7  UNL     1      -1.738   1.306   0.809  1.00  0.00     0.095 C 
HETATM   10  N2  UNL     1      -2.746   1.339  -0.009  1.00  0.00    -0.275 NA
HETATM   11  C8  UNL     1      -3.202   0.096  -0.679  1.00  0.00     0.236 C 
HETATM   12  C15 UNL     1      -0.006  -0.446   1.170  1.00  0.00     0.239 C 
ENDROOT
BRANCH  12  13
HETATM   13  O2  UNL     1       0.901  -0.711   2.161  1.00  0.00    -0.365 OA
BRANCH  13  14
HETATM   14  C16 UNL     1       2.053   0.024   2.152  1.00  0.00     0.172 C 
BRANCH  14  15
HETATM   15  C17 UNL     1       2.906  -0.096   0.922  1.00  0.00     0.046 C 
BRANCH  15  16
HETATM   16  C18 UNL     1       4.140   0.793   1.081  1.00  0.00     0.126 C 
BRANCH  16  17
HETATM   17  N4  UNL     1       4.990   0.696  -0.093  1.00  0.00    -0.366 N 
HETATM   18  C19 UNL     1       5.710  -0.537  -0.408  1.00  0.00     0.150 C 
HETATM   19  C20 UNL     1       7.042  -0.093  -1.024  1.00  0.00     0.188 C 
HETATM   20  O3  UNL     1       6.717   0.362  -2.300  1.00  0.00    -0.382 OA
HETATM   21  C21 UNL     1       6.030   1.554  -2.247  1.00  0.00     0.245 C 
HETATM   22  C22 UNL     1       5.213   1.741  -1.038  1.00  0.00     0.118 C 
HETATM   23  N5  UNL     1       4.666   2.884  -0.805  1.00  0.00    -0.286 NA
HETATM   24  H27 UNL     1       4.805   3.669  -1.470  1.00  0.00     0.188 HD
ENDBRANCH  16  17
ENDBRANCH  15  16
ENDBRANCH  14  15
ENDBRANCH  13  14
ENDBRANCH  12  13
BRANCH  11  25
HETATM   25  N3  UNL     1      -4.545  -0.237  -0.275  1.00  0.00    -0.364 N 
HETATM   26  H10 UNL     1      -4.722  -1.074   0.355  1.00  0.00     0.162 HD
BRANCH  25  27
HETATM   27  C9  UNL     1      -5.773   0.433  -0.616  1.00  0.00     0.031 A 
HETATM   28  C10 UNL     1      -7.045   0.045  -0.179  1.00  0.00     0.032 A 
HETATM   29  C11 UNL     1      -8.123   0.792  -0.597  1.00  0.00     0.046 A 
HETATM   30  C12 UNL     1      -8.048   1.883  -1.405  1.00  0.00     0.138 A 
HETATM   31  F1  UNL     1      -9.187   2.531  -1.745  1.00  0.00    -0.204 F 
HETATM   32  C13 UNL     1      -6.799   2.296  -1.858  1.00  0.00     0.074 A 
HETATM   33 CL1  UNL     1      -6.652   3.686  -2.892  1.00  0.00    -0.081 Cl
HETATM   34  C14 UNL     1      -5.707   1.543  -1.437  1.00  0.00     0.056 A 
ENDBRANCH  25  27
ENDBRANCH  11  25
TORSDOF 7
