REMARK  9 active torsions:
REMARK  status: ('A' for Active; 'I' for Inactive)
REMARK    1  A    between atoms: C2_2  and  N1_3 
REMARK    2  A    between atoms: N1_3  and  C3_4 
REMARK    3  A    between atoms: N1_3  and  C5_6 
REMARK    4  A    between atoms: C5_6  and  C6_7 
REMARK    5  A    between atoms: C6_7  and  C7_8 
REMARK    6  A    between atoms: C8_9  and  C9_10 
REMARK       I    between atoms: C9_10  and  N2_12 
REMARK    7  A    between atoms: N2_12  and  C10_13 
REMARK    8  A    between atoms: C15_20  and  N5_21 
REMARK    9  A    between atoms: N5_21  and  C16_22 
ROOT
HETATM    1  C10 UNL     1      -1.309  -2.007   0.231  1.00  0.00     0.036 A 
HETATM    2  C11 UNL     1      -0.956  -2.505   1.493  1.00  0.00     0.032 A 
HETATM    3  C12 UNL     1      -1.955  -2.716   2.438  1.00  0.00     0.035 A 
HETATM    4  C13 UNL     1      -3.272  -2.449   2.162  1.00  0.00     0.072 A 
HETATM    5  N3  UNL     1      -4.274  -2.632   3.032  1.00  0.00    -0.241 NA
HETATM    6  C14 UNL     1      -5.577  -2.359   2.731  1.00  0.00     0.236 A 
HETATM    7  N4  UNL     1      -5.797  -1.884   1.483  1.00  0.00    -0.224 NA
HETATM    8  C15 UNL     1      -4.828  -1.690   0.595  1.00  0.00     0.142 A 
HETATM    9  C22 UNL     1      -3.502  -1.967   0.900  1.00  0.00     0.041 A 
HETATM   10  C23 UNL     1      -2.613  -1.716  -0.116  1.00  0.00     0.047 A 
ENDROOT
BRANCH   1  11
HETATM   11  N2  UNL     1      -0.191  -1.837  -0.623  1.00  0.00    -0.316 N 
HETATM   12  C9  UNL     1       0.316  -0.522  -0.432  1.00  0.00     0.300 C 
HETATM   13  O1  UNL     1      -0.342   0.154   0.425  1.00  0.00    -0.258 OA
HETATM   14  H15 UNL     1       0.311  -2.426  -1.318  1.00  0.00     0.170 HD
BRANCH  12  15
HETATM   15  C8  UNL     1       1.468   0.032  -1.126  1.00  0.00    -0.005 C 
HETATM   16  C7  UNL     1       2.436   0.474  -1.698  1.00  0.00    -0.095 C 
BRANCH  16  17
HETATM   17  C6  UNL     1       3.592   1.020  -2.406  1.00  0.00     0.114 C 
BRANCH  17  18
HETATM   18  C5  UNL     1       4.608   1.619  -1.476  1.00  0.00     0.129 C 
BRANCH  18  19
HETATM   19  N1  UNL     1       5.168   0.744  -0.520  1.00  0.00    -0.412 N 
BRANCH  19  20
HETATM   20  C2  UNL     1       6.026  -0.284  -0.964  1.00  0.00     0.112 C 
HETATM   21  C1  UNL     1       7.468   0.086  -1.162  1.00  0.00     0.026 C 
ENDBRANCH  19  20
BRANCH  19  22
HETATM   22  C3  UNL     1       5.349   1.244   0.793  1.00  0.00     0.112 C 
HETATM   23  C4  UNL     1       6.603   2.016   1.044  1.00  0.00     0.026 C 
ENDBRANCH  19  22
ENDBRANCH  18  19
ENDBRANCH  17  18
ENDBRANCH  16  17
ENDBRANCH  12  15
ENDBRANCH   1  11
BRANCH   8  24
HETATM   24  N5  UNL     1      -5.379  -1.207  -0.619  1.00  0.00    -0.340 N 
HETATM   25  H19 UNL     1      -5.446  -1.909  -1.374  1.00  0.00     0.167 HD
BRANCH  24  26
HETATM   26  C16 UNL     1      -5.784   0.146  -0.715  1.00  0.00     0.035 A 
HETATM   27  C17 UNL     1      -5.493   1.006   0.330  1.00  0.00     0.032 A 
HETATM   28  C18 UNL     1      -5.975   2.282   0.108  1.00  0.00     0.046 A 
HETATM   29  C19 UNL     1      -6.668   2.702  -1.003  1.00  0.00     0.138 A 
HETATM   30  F1  UNL     1      -7.099   3.974  -1.123  1.00  0.00    -0.204 F 
HETATM   31  C20 UNL     1      -6.905   1.785  -1.979  1.00  0.00     0.074 A 
HETATM   32 CL1  UNL     1      -7.786   2.281  -3.411  1.00  0.00    -0.081 Cl
HETATM   33  C21 UNL     1      -6.462   0.500  -1.838  1.00  0.00     0.056 A 
ENDBRANCH  24  26
ENDBRANCH   8  24
TORSDOF 9
