REMARK  9 active torsions:
REMARK  status: ('A' for Active; 'I' for Inactive)
REMARK    1  A    between atoms: C2_2  and  N1_3 
REMARK    2  A    between atoms: N1_3  and  C3_4 
REMARK    3  A    between atoms: N1_3  and  C5_6 
REMARK    4  A    between atoms: C5_6  and  C6_7 
REMARK    5  A    between atoms: C6_7  and  C7_8 
REMARK    6  A    between atoms: C8_9  and  C9_10 
REMARK       I    between atoms: C9_10  and  N2_12 
REMARK    7  A    between atoms: N2_12  and  C10_13 
REMARK    8  A    between atoms: N3_19  and  C16_20 
REMARK    9  A    between atoms: C17_21  and  C18_22 
ROOT
HETATM    1  C10 UNL     1      -2.171  -1.322   0.498  1.00  0.00     0.037 A 
HETATM    2  C11 UNL     1      -2.608  -2.116   1.561  1.00  0.00     0.030 A 
HETATM    3  C12 UNL     1      -3.969  -2.278   1.832  1.00  0.00     0.013 A 
HETATM    4  C13 UNL     1      -4.899  -1.644   1.038  1.00  0.00    -0.011 A 
HETATM    5  C14 UNL     1      -4.459  -0.862  -0.006  1.00  0.00     0.050 A 
HETATM    6  C15 UNL     1      -3.127  -0.703  -0.273  1.00  0.00     0.060 A 
HETATM    7  N3  UNL     1      -5.400  -0.203  -0.834  1.00  0.00    -0.316 N 
HETATM    8  C20 UNL     1      -6.771  -0.415  -0.500  1.00  0.00     0.208 A 
HETATM    9  N4  UNL     1      -7.205  -1.135   0.465  1.00  0.00    -0.280 NA
HETATM   10  C21 UNL     1      -6.329  -1.850   1.367  1.00  0.00     0.191 A 
ENDROOT
BRANCH   1  11
HETATM   11  N2  UNL     1      -0.757  -1.304   0.415  1.00  0.00    -0.316 N 
HETATM   12  C9  UNL     1       0.214  -2.100  -0.255  1.00  0.00     0.300 C 
HETATM   13  O1  UNL     1      -0.073  -3.080  -0.980  1.00  0.00    -0.258 OA
HETATM   14  H15 UNL     1      -0.439  -0.486   1.013  1.00  0.00     0.170 HD
BRANCH  12  15
HETATM   15  C8  UNL     1       1.608  -1.791  -0.112  1.00  0.00    -0.005 C 
HETATM   16  C7  UNL     1       2.795  -1.533   0.030  1.00  0.00    -0.095 C 
BRANCH  16  17
HETATM   17  C6  UNL     1       4.251  -1.242   0.211  1.00  0.00     0.114 C 
BRANCH  17  18
HETATM   18  C5  UNL     1       4.469   0.111  -0.410  1.00  0.00     0.129 C 
BRANCH  18  19
HETATM   19  N1  UNL     1       5.819   0.481  -0.335  1.00  0.00    -0.412 N 
BRANCH  19  20
HETATM   20  C2  UNL     1       6.189   1.763  -0.816  1.00  0.00     0.112 C 
HETATM   21  C1  UNL     1       5.218   2.427  -1.739  1.00  0.00     0.026 C 
ENDBRANCH  19  20
BRANCH  19  22
HETATM   22  C3  UNL     1       6.708  -0.159   0.528  1.00  0.00     0.112 C 
HETATM   23  C4  UNL     1       8.023  -0.569  -0.124  1.00  0.00     0.026 C 
ENDBRANCH  19  22
ENDBRANCH  18  19
ENDBRANCH  17  18
ENDBRANCH  16  17
ENDBRANCH  12  15
ENDBRANCH   1  11
BRANCH   7  24
HETATM   24  C16 UNL     1      -4.985   0.616  -1.926  1.00  0.00     0.098 C 
HETATM   25  C17 UNL     1      -5.290   1.902  -1.866  1.00  0.00     0.020 C 
BRANCH  25  26
HETATM   26  C18 UNL     1      -6.017   2.435  -0.730  1.00  0.00     0.031 C 
HETATM   27  C19 UNL     1      -6.314   3.720  -0.690  1.00  0.00     0.188 C 
HETATM   28  F1  UNL     1      -6.254   4.927  -1.281  1.00  0.00    -0.219 F 
ENDBRANCH  25  26
ENDBRANCH   7  24
TORSDOF 9
