REMARK  5 active torsions:
REMARK  status: ('A' for Active; 'I' for Inactive)
REMARK    1  A    between atoms: N1_1  and  S1_2 
REMARK    2  A    between atoms: S1_2  and  C1_3 
REMARK    3  A    between atoms: C2_4  and  O1_5 
REMARK    4  A    between atoms: C2_4  and  C3_6 
REMARK    5  A    between atoms: C8_11  and  C9_12 
ROOT
HETATM    1  C3  UNL     1      -1.950  -0.977   0.136  1.00  0.00     0.008 A 
HETATM    2  C4  UNL     1      -2.795  -1.957   0.652  1.00  0.00     0.015 A 
HETATM    3  C5  UNL     1      -2.446  -3.291   0.626  1.00  0.00     0.001 A 
HETATM    4  C6  UNL     1      -1.237  -3.673   0.080  1.00  0.00     0.001 A 
HETATM    5  C7  UNL     1      -0.438  -2.668  -0.416  1.00  0.00     0.012 A 
HETATM    6  C8  UNL     1      -0.769  -1.346  -0.399  1.00  0.00    -0.023 A 
ENDROOT
BRANCH   6   7
HETATM    7  C9  UNL     1       0.068  -0.305  -0.964  1.00  0.00     0.022 C 
HETATM    8  C10 UNL     1       1.308  -0.382  -0.506  1.00  0.00    -0.023 C 
HETATM    9  C11 UNL     1       2.027  -1.270   0.434  1.00  0.00     0.210 C 
HETATM   10  C15 UNL     1       2.359   0.563  -0.910  1.00  0.00     0.003 C 
HETATM   11  O2  UNL     1       3.022  -0.496   1.022  1.00  0.00    -0.352 OA
HETATM   12  C12 UNL     1       3.178   0.675   0.359  1.00  0.00     0.295 C 
HETATM   13  O3  UNL     1       4.411   0.972  -0.162  1.00  0.00    -0.353 OA
HETATM   14  C13 UNL     1       4.113   1.956  -1.149  1.00  0.00     0.199 C 
HETATM   15  C14 UNL     1       2.915   1.364  -1.840  1.00  0.00     0.012 C 
ENDBRANCH   6   7
BRANCH   1  16
HETATM   16  C2  UNL     1      -2.523   0.338   0.302  1.00  0.00     0.084 C 
HETATM   17  C1  UNL     1      -1.903   1.423  -0.060  1.00  0.00     0.214 C 
BRANCH  17  18
HETATM   18  S1  UNL     1      -1.892   3.174  -0.191  1.00  0.00    -0.152 SA
BRANCH  18  19
HETATM   19  N1  UNL     1      -2.917   3.978   1.000  1.00  0.00    -0.290 NA
HETATM   20  H1  UNL     1      -2.418   4.235   1.872  1.00  0.00     0.130 HD
HETATM   21  H2  UNL     1      -3.770   3.413   1.228  1.00  0.00     0.130 HD
ENDBRANCH  18  19
ENDBRANCH  17  18
BRANCH  16  22
HETATM   22  O1  UNL     1      -3.744   0.687   0.835  1.00  0.00    -0.359 OA
HETATM   23  H4  UNL     1      -3.928   0.467   1.813  1.00  0.00     0.217 HD
ENDBRANCH  16  22
ENDBRANCH   1  16
TORSDOF 5
