REMARK  4 active torsions:
REMARK  status: ('A' for Active; 'I' for Inactive)
REMARK    1  A    between atoms: O1_1  and  C1_2 
REMARK    2  A    between atoms: C5_6  and  C6_7 
REMARK    3  A    between atoms: C9_11  and  O2_12 
REMARK    4  A    between atoms: C9_11  and  C10_13 
ROOT
HETATM    1  C6  UNL     1       0.322  -0.022  -0.751  1.00  0.00     0.087 A 
HETATM    2  C7  UNL     1      -0.266  -0.193   0.170  1.00  0.00     0.230 A 
HETATM    3  N1  UNL     1      -0.932  -0.389   1.239  1.00  0.00     0.016 N 
HETATM    4  C8  UNL     1      -1.192  -0.570   2.466  1.00  0.00     0.299 A 
HETATM    5  C9  UNL     1      -1.955  -0.490   1.302  1.00  0.00     0.302 A 
HETATM    6  C10 UNL     1      -0.917  -0.262   0.251  1.00  0.00     0.231 A 
HETATM    7  C11 UNL     1      -2.279  -0.147  -0.674  1.00  0.00    -0.029 A 
HETATM    8  C12 UNL     1      -3.423  -0.004  -1.175  1.00  0.00     0.006 A 
HETATM    9  C13 UNL     1      -3.708  -0.177  -2.599  1.00  0.00    -0.003 A 
HETATM   10  C14 UNL     1      -2.482  -0.512  -2.974  1.00  0.00    -0.017 A 
HETATM   11  C15 UNL     1      -1.516  -0.611  -2.012  1.00  0.00     0.051 A 
HETATM   12  O3  UNL     1      -0.402   0.020  -1.530  1.00  0.00     0.000 OA
ENDROOT
BRANCH   1  13
HETATM   13  C5  UNL     1       1.721   0.145  -0.052  1.00  0.00    -0.040 A 
HETATM   14  C4  UNL     1       2.623  -0.937   0.199  1.00  0.00     0.008 A 
HETATM   15  C3  UNL     1       3.824  -0.932   0.756  1.00  0.00     0.003 A 
HETATM   16  C2  UNL     1       4.222   0.323   1.135  1.00  0.00     0.036 A 
HETATM   17  C1  UNL     1       3.548   1.473   1.000  1.00  0.00     0.066 A 
HETATM   18  C16 UNL     1       2.339   1.360   0.421  1.00  0.00     0.044 A 
BRANCH  17  19
HETATM   19  O1  UNL     1       3.903   2.745   1.362  1.00  0.00    -0.361 OA
HETATM   20  H1  UNL     1       3.439   3.575   1.063  1.00  0.00     0.217 HD
ENDBRANCH  17  19
ENDBRANCH   1  13
BRANCH   5  21
HETATM   21  O2  UNL     1      -3.319  -0.662   1.714  1.00  0.00    -0.361 OA
HETATM   22  H6  UNL     1      -3.916   0.137   1.897  1.00  0.00     0.212 HD
ENDBRANCH   5  21
TORSDOF 4
