REMARK  3 active torsions:
REMARK  status: ('A' for Active; 'I' for Inactive)
REMARK    1  A    between atoms: C5_6  and  C6_7 
REMARK    2  A    between atoms: C5_6  and  C7_10 
REMARK    3  A    between atoms: C6_7  and  O3_9 
ROOT
HETATM    1  O1  UNL     1       0.926   2.407   0.918  1.00  0.00     0.000 OA
HETATM    2  C1  UNL     1       1.448   2.851   1.946  1.00  0.00     0.066 A 
HETATM    3  C2  UNL     1       0.990   3.222   0.590  1.00  0.00     0.060 A 
HETATM    4  C3  UNL     1       0.536   2.063   0.144  1.00  0.00     0.039 A 
HETATM    5  C4  UNL     1       0.260   0.645   0.297  1.00  0.00    -0.037 C 
HETATM    6  C5  UNL     1      -0.270   0.153  -0.772  1.00  0.00     0.068 C 
HETATM    7  C11 UNL     1       0.599  -0.081   1.533  1.00  0.00    -0.007 C 
HETATM    8  C12 UNL     1       1.118   0.539   2.553  1.00  0.00     0.064 C 
HETATM    9  C13 UNL     1       1.689   0.993   3.790  1.00  0.00     0.028 C 
HETATM   10 BR1  UNL     1       1.619   0.666   5.618  1.00  0.00    -0.052 Br
HETATM   11  C14 UNL     1       2.557   1.995   3.719  1.00  0.00     0.101 C 
HETATM   12  N2  UNL     1       2.024   3.083   3.233  1.00  0.00    -0.247 NA
ENDROOT
BRANCH   6  13
HETATM   13  C6  UNL     1      -0.462   1.129  -1.883  1.00  0.00     0.178 C 
HETATM   14  O2  UNL     1      -0.992   0.703  -2.973  1.00  0.00    -0.646 OA
BRANCH  13  15
HETATM   15  O3  UNL     1      -0.556   2.161  -2.776  1.00  0.00    -0.773 OA
HETATM   16  H3  UNL     1       0.288   2.672  -3.047  1.00  0.00     0.167 HD
ENDBRANCH  13  15
ENDBRANCH   6  13
BRANCH   6  17
HETATM   17  C7  UNL     1      -0.745  -1.221  -1.080  1.00  0.00     0.046 C 
HETATM   18  N1  UNL     1      -1.238  -1.417  -2.283  1.00  0.00    -0.293 NA
HETATM   19  C8  UNL     1      -1.662  -2.767  -2.472  1.00  0.00     0.149 C 
HETATM   20  C9  UNL     1      -1.610  -3.426  -1.130  1.00  0.00     0.028 C 
HETATM   21  C10 UNL     1      -0.797  -2.470  -0.301  1.00  0.00     0.061 C 
ENDBRANCH   6  17
TORSDOF 3
