REMARK  1 active torsions:
REMARK  status: ('A' for Active; 'I' for Inactive)
REMARK    1  A    between atoms: O1_1  and  C1_2 
ROOT
HETATM    1  C1  UNL     1      -1.015  -0.565   0.545  1.00  0.00     0.077 C 
HETATM    2  C2  UNL     1      -1.459  -0.947   1.754  1.00  0.00     0.151 C 
HETATM    3  N1  UNL     1      -1.488  -2.370   1.936  1.00  0.00    -0.252 NA
HETATM    4  C3  UNL     1      -0.411  -3.001   2.308  1.00  0.00     0.229 C 
HETATM    5  N2  UNL     1       0.825  -2.313   2.547  1.00  0.00    -0.260 N 
HETATM    6  O2  UNL     1       1.796  -1.725   1.816  1.00  0.00    -0.270 OA
HETATM    7  C4  UNL     1       2.051  -0.432   1.517  1.00  0.00     0.243 C 
HETATM    8  C5  UNL     1       1.548   0.621   0.764  1.00  0.00     0.028 A 
HETATM    9  C6  UNL     1       2.624   1.590   1.175  1.00  0.00     0.010 A 
HETATM   10  C7  UNL     1       2.754   2.885   0.801  1.00  0.00     0.138 A 
HETATM   11  O3  UNL     1       1.751   3.301  -0.056  1.00  0.00    -0.335 OA
HETATM   12  C8  UNL     1       0.753   2.451  -0.455  1.00  0.00     0.146 A 
HETATM   13  C9  UNL     1       0.519   1.207  -0.172  1.00  0.00    -0.027 A 
HETATM   14  C10 UNL     1      -0.596   0.309  -0.615  1.00  0.00     0.057 A 
HETATM   15  C11 UNL     1      -1.739   1.154  -1.032  1.00  0.00    -0.005 A 
HETATM   16  C12 UNL     1      -2.319   1.170  -2.202  1.00  0.00    -0.003 A 
HETATM   17  C13 UNL     1      -1.916   0.328  -3.325  1.00  0.00    -0.004 A 
HETATM   18  C14 UNL     1      -0.889  -0.436  -2.988  1.00  0.00    -0.025 A 
HETATM   19  C15 UNL     1      -0.135  -0.556  -1.727  1.00  0.00     0.052 A 
HETATM   20  H4  UNL     1       1.006  -2.275   3.581  1.00  0.00     0.195 HD
ENDROOT
BRANCH   1  21
HETATM   21  O1  UNL     1      -0.972  -1.973   0.496  1.00  0.00    -0.362 OA
HETATM   22  H1  UNL     1      -1.503  -2.460  -0.238  1.00  0.00     0.217 HD
ENDBRANCH   1  21
TORSDOF 1
