REMARK  2 active torsions:
REMARK  status: ('A' for Active; 'I' for Inactive)
REMARK    1  A    between atoms: C7_10  and  O2_11 
REMARK    2  A    between atoms: C8_12  and  C9_13 
ROOT
HETATM    1  N1  UNL     1       5.470  -2.367   0.626  1.00  0.00    -0.192 NA
HETATM    2  C1  UNL     1       4.316  -2.153   0.681  1.00  0.00     0.090 C 
HETATM    3  C2  UNL     1       2.907  -1.881   0.733  1.00  0.00     0.128 C 
HETATM    4  C3  UNL     1       2.446  -0.799   0.116  1.00  0.00     0.088 C 
HETATM    5  C4  UNL     1       3.433   0.059  -0.591  1.00  0.00     0.243 C 
HETATM    6  O1  UNL     1       2.931   1.316  -0.919  1.00  0.00    -0.326 OA
HETATM    7  C5  UNL     1       1.567   1.567  -0.867  1.00  0.00     0.200 A 
HETATM    8  N2  UNL     1       1.192   2.765  -1.372  1.00  0.00    -0.232 NA
HETATM    9  C6  UNL     1      -0.121   3.110  -1.370  1.00  0.00     0.157 A 
HETATM   10  C7  UNL     1      -1.092   2.266  -0.862  1.00  0.00     0.097 A 
HETATM   11  C8  UNL     1      -0.709   1.043  -0.346  1.00  0.00     0.047 A 
HETATM   12  C15 UNL     1       0.628   0.699  -0.351  1.00  0.00     0.142 A 
HETATM   13  O3  UNL     1       1.081  -0.513   0.151  1.00  0.00    -0.307 OA
ENDROOT
BRANCH  11  14
HETATM   14  C9  UNL     1      -1.611   0.040   0.227  1.00  0.00    -0.020 A 
HETATM   15  C10 UNL     1      -2.123  -0.885  -0.627  1.00  0.00     0.012 A 
HETATM   16  C11 UNL     1      -2.979  -1.858  -0.155  1.00  0.00     0.001 A 
HETATM   17  C12 UNL     1      -3.308  -1.884   1.187  1.00  0.00     0.000 A 
HETATM   18  C13 UNL     1      -2.779  -0.937   2.038  1.00  0.00     0.001 A 
HETATM   19  C14 UNL     1      -1.912   0.054   1.576  1.00  0.00     0.012 A 
ENDBRANCH  11  14
BRANCH  10  20
HETATM   20  O2  UNL     1      -2.445   2.558  -0.831  1.00  0.00    -0.358 OA
HETATM   21  H5  UNL     1      -2.960   2.979  -1.592  1.00  0.00     0.217 HD
ENDBRANCH  10  20
TORSDOF 2
