REMARK  2 active torsions:
REMARK  status: ('A' for Active; 'I' for Inactive)
REMARK    1  A    between atoms: O1_1  and  C1_2 
REMARK    2  A    between atoms: C8_9  and  C9_10 
ROOT
HETATM    1  C1  UNL     1       2.761   1.527   0.158  1.00  0.00     0.066 A 
HETATM    2  C2  UNL     1       3.914   0.758  -0.050  1.00  0.00     0.039 A 
HETATM    3  C3  UNL     1       3.793  -0.593  -0.283  1.00  0.00     0.043 A 
HETATM    4  C4  UNL     1       2.567  -1.218  -0.318  1.00  0.00     0.112 A 
HETATM    5  C5  UNL     1       1.458  -0.437  -0.109  1.00  0.00     0.035 A 
HETATM    6  C6  UNL     1       1.534   0.907   0.125  1.00  0.00     0.053 A 
HETATM    7  C7  UNL     1       0.315  -1.287  -0.191  1.00  0.00     0.110 A 
HETATM    8  C8  UNL     1      -0.968  -1.049  -0.061  1.00  0.00     0.115 A 
HETATM    9  O2  UNL     1      -1.827  -2.135  -0.202  1.00  0.00    -0.318 OA
HETATM   10  C15 UNL     1      -1.385  -3.406  -0.461  1.00  0.00     0.162 A 
HETATM   11  C16 UNL     1      -0.098  -3.677  -0.594  1.00  0.00     0.148 A 
HETATM   12  N1  UNL     1       0.804  -2.593  -0.458  1.00  0.00    -0.222 N 
HETATM   13  O3  UNL     1       2.171  -2.529  -0.530  1.00  0.00    -0.230 OA
ENDROOT
BRANCH   8  14
HETATM   14  C9  UNL     1      -1.692   0.173   0.216  1.00  0.00     0.000 A 
HETATM   15  C10 UNL     1      -1.620   1.137   1.216  1.00  0.00     0.014 A 
HETATM   16  C11 UNL     1      -2.411   2.253   1.290  1.00  0.00     0.001 A 
HETATM   17  C12 UNL     1      -3.365   2.476   0.318  1.00  0.00     0.000 A 
HETATM   18  C13 UNL     1      -3.524   1.594  -0.714  1.00  0.00     0.001 A 
HETATM   19  C14 UNL     1      -2.689   0.486  -0.725  1.00  0.00     0.014 A 
ENDBRANCH   8  14
BRANCH   1  20
HETATM   20  O1  UNL     1       3.072   2.875   0.378  1.00  0.00    -0.361 OA
HETATM   21  H1  UNL     1       2.597   3.423   1.084  1.00  0.00     0.217 HD
ENDBRANCH   1  20
TORSDOF 2
