REMARK  2 active torsions:
REMARK  status: ('A' for Active; 'I' for Inactive)
REMARK    1  A    between atoms: O1_1  and  C1_2 
REMARK    2  A    between atoms: C15_18  and  O3_19 
ROOT
HETATM    1  C1  UNL     1       4.024   0.400   0.658  1.00  0.00     0.064 A 
HETATM    2  C2  UNL     1       3.045   1.262   0.861  1.00  0.00     0.046 A 
HETATM    3  C3  UNL     1       1.596   1.257   0.562  1.00  0.00     0.189 A 
HETATM    4  O2  UNL     1       1.308   2.392  -0.215  1.00  0.00    -0.331 OA
HETATM    5  C4  UNL     1       0.097   3.045  -0.538  1.00  0.00     0.252 C 
HETATM    6  N1  UNL     1      -1.100   2.528  -0.689  1.00  0.00    -0.241 NA
HETATM    7  C5  UNL     1      -1.615   1.187  -0.854  1.00  0.00     0.043 C 
HETATM    8  C6  UNL     1      -0.932   0.101  -1.249  1.00  0.00     0.035 C 
HETATM    9  C7  UNL     1       0.174  -0.671  -0.618  1.00  0.00    -0.047 C 
HETATM   10  C8  UNL     1       1.255  -0.017  -0.093  1.00  0.00    -0.019 A 
HETATM   11  C9  UNL     1       2.341  -0.995  -0.332  1.00  0.00     0.013 A 
HETATM   12  C10 UNL     1       3.606  -0.829   0.000  1.00  0.00     0.037 A 
HETATM   13  C11 UNL     1       0.477  -2.084  -0.374  1.00  0.00     0.045 C 
HETATM   14  C12 UNL     1      -0.889  -2.600   0.052  1.00  0.00     0.003 C 
HETATM   15  C13 UNL     1      -1.802  -1.601  -0.003  1.00  0.00     0.023 C 
HETATM   16  C14 UNL     1      -3.238  -1.292   0.232  1.00  0.00     0.011 C 
HETATM   17  C15 UNL     1      -3.577  -0.033  -0.027  1.00  0.00     0.045 C 
HETATM   18  C16 UNL     1      -3.056   1.279  -0.496  1.00  0.00     0.123 C 
ENDROOT
BRANCH   1  19
HETATM   19  O1  UNL     1       5.338   0.578   1.010  1.00  0.00    -0.361 OA
HETATM   20  H1  UNL     1       6.082   0.268   0.390  1.00  0.00     0.217 HD
ENDBRANCH   1  19
BRANCH  17  21
HETATM   21  O3  UNL     1      -4.924   0.346   0.174  1.00  0.00    -0.365 OA
HETATM   22  H13 UNL     1      -5.219   0.697   1.091  1.00  0.00     0.217 HD
ENDBRANCH  17  21
TORSDOF 2
