REMARK  1 active torsions:
REMARK  status: ('A' for Active; 'I' for Inactive)
REMARK    1  A    between atoms: C2_2  and  C3_3 
ROOT
HETATM    1  C3  UNL     1      -2.842   0.390   0.295  1.00  0.00     0.040 A 
HETATM    2  C4  UNL     1      -3.288   1.163  -0.859  1.00  0.00    -0.001 A 
HETATM    3  C5  UNL     1      -2.648   1.878  -1.751  1.00  0.00     0.084 A 
HETATM    4  N1  UNL     1      -1.246   1.781  -1.392  1.00  0.00    -0.369 N 
HETATM    5  C6  UNL     1      -0.574   1.067  -0.306  1.00  0.00     0.017 A 
HETATM    6  C7  UNL     1      -1.394   0.370   0.516  1.00  0.00    -0.049 A 
HETATM    7  C8  UNL     1      -0.713  -0.423   1.525  1.00  0.00     0.046 C 
HETATM    8  C9  UNL     1      -0.515  -1.884   1.210  1.00  0.00     0.116 C 
HETATM    9  C10 UNL     1       0.206  -2.072  -0.103  1.00  0.00     0.267 C 
HETATM   10  O1  UNL     1       0.098  -2.410  -1.300  1.00  0.00    -0.265 OA
HETATM   11  O2  UNL     1       1.495  -1.717   0.138  1.00  0.00    -0.227 OA
HETATM   12  C11 UNL     1       2.507  -1.706  -0.803  1.00  0.00     0.371 C 
HETATM   13  O3  UNL     1       2.450  -2.016  -1.974  1.00  0.00    -0.238 OA
HETATM   14  N2  UNL     1       3.868  -1.329  -0.673  1.00  0.00    -0.316 N 
HETATM   15  C12 UNL     1       5.223  -0.955  -0.545  1.00  0.00     0.067 C 
HETATM   16  C13 UNL     1       5.269   0.353  -0.187  1.00  0.00     0.015 C 
HETATM   17  C14 UNL     1       3.851   0.816  -0.103  1.00  0.00     0.034 C 
HETATM   18  C15 UNL     1       3.272   1.993   0.231  1.00  0.00    -0.004 C 
HETATM   19  C16 UNL     1       1.792   2.228   0.227  1.00  0.00    -0.012 C 
HETATM   20  C17 UNL     1       0.911   1.229  -0.168  1.00  0.00     0.074 C 
HETATM   21  H9  UNL     1      -0.562   2.317  -2.020  1.00  0.00     0.165 HD
HETATM   22  H14 UNL     1       3.784  -1.197   0.387  1.00  0.00     0.170 HD
ENDROOT
BRANCH   1  23
HETATM   23  C2  UNL     1      -3.408  -0.997   0.284  1.00  0.00     0.008 C 
HETATM   24  C1  UNL     1      -4.938  -0.844   0.255  1.00  0.00     0.006 C 
ENDBRANCH   1  23
TORSDOF 1
