REMARK  10 active torsions:
REMARK  status: ('A' for Active; 'I' for Inactive)
REMARK    1  A    between atoms: C3_3  and  O1_4 
REMARK    2  A    between atoms: O1_4  and  S1_5 
REMARK    3  A    between atoms: S1_5  and  N1_6 
REMARK    4  A    between atoms: C7_12  and  C8_13 
REMARK    5  A    between atoms: C8_13  and  C9_14 
REMARK    6  A    between atoms: C9_14  and  C10_15 
REMARK    7  A    between atoms: C10_15  and  O4_17 
REMARK    8  A    between atoms: C11_18  and  O5_19 
REMARK    9  A    between atoms: O5_19  and  N3_20 
REMARK   10  A    between atoms: N3_20  and  C12_21 
ROOT
HETATM    1  C1  UNL     1      -2.133   0.041   1.620  1.00  0.00     0.049 C 
HETATM    2  C2  UNL     1      -1.903   0.123   0.318  1.00  0.00     0.015 C 
HETATM    3  C3  UNL     1      -2.707  -0.775  -0.539  1.00  0.00     0.097 C 
HETATM    4  C4  UNL     1      -2.797  -1.003  -1.843  1.00  0.00     0.041 C 
HETATM    5  C5  UNL     1      -2.051  -0.367  -2.925  1.00  0.00     0.037 C 
HETATM    6  C6  UNL     1      -1.052   0.407  -3.143  1.00  0.00     0.086 C 
HETATM    7  N2  UNL     1      -0.730   1.422  -2.453  1.00  0.00    -0.248 NA
HETATM    8  C7  UNL     1      -0.323   1.700  -1.125  1.00  0.00     0.072 C 
HETATM    9  C11 UNL     1      -0.880   1.102  -0.053  1.00  0.00     0.132 C 
ENDROOT
BRANCH   9  10
HETATM   10  O5  UNL     1      -0.295   1.558   1.119  1.00  0.00    -0.235 OA
BRANCH  10  11
HETATM   11  N3  UNL     1       0.402   0.767   2.000  1.00  0.00    -0.265 N 
HETATM   12  H12 UNL     1       0.108   0.952   2.995  1.00  0.00     0.194 HD
BRANCH  11  13
HETATM   13  C12 UNL     1       1.412  -0.242   2.020  1.00  0.00     0.029 C 
HETATM   14  C13 UNL     1       1.097  -1.527   2.062  1.00  0.00     0.000 C 
HETATM   15  C14 UNL     1       2.063  -2.657   2.087  1.00  0.00     0.029 C 
HETATM   16  C15 UNL     1       3.422  -2.316   1.585  1.00  0.00     0.004 C 
HETATM   17  C16 UNL     1       3.440  -0.935   0.964  1.00  0.00     0.006 C 
HETATM   18  C17 UNL     1       2.876   0.049   1.996  1.00  0.00     0.059 C 
ENDBRANCH  11  13
ENDBRANCH  10  11
ENDBRANCH   9  10
BRANCH   8  19
HETATM   19  C8  UNL     1       0.736   2.661  -0.731  1.00  0.00     0.072 C 
BRANCH  19  20
HETATM   20  C9  UNL     1       2.080   2.296  -1.311  1.00  0.00     0.116 C 
BRANCH  20  21
HETATM   21  C10 UNL     1       2.111   2.287  -2.794  1.00  0.00     0.139 C 
HETATM   22  O3  UNL     1       1.298   2.536  -3.751  1.00  0.00    -0.650 OA
BRANCH  21  23
HETATM   23  O4  UNL     1       3.399   1.896  -3.202  1.00  0.00    -0.776 OA
HETATM   24  H11 UNL     1       3.578   1.805  -4.206  1.00  0.00     0.167 HD
ENDBRANCH  21  23
ENDBRANCH  20  21
ENDBRANCH  19  20
ENDBRANCH   8  19
BRANCH   3  25
HETATM   25  O1  UNL     1      -3.570  -1.561   0.241  1.00  0.00    -0.240 OA
BRANCH  25  26
HETATM   26  S1  UNL     1      -5.258  -1.313   0.011  1.00  0.00     0.238 S 
HETATM   27  O2  UNL     1      -5.553  -0.211  -1.006  1.00  0.00    -0.210 OA
BRANCH  26  28
HETATM   28  N1  UNL     1      -6.059  -0.826   1.493  1.00  0.00    -0.228 NA
HETATM   29  H3  UNL     1      -7.016  -0.506   1.196  1.00  0.00     0.136 HD
HETATM   30  H4  UNL     1      -5.591   0.059   1.833  1.00  0.00     0.136 HD
ENDBRANCH  26  28
ENDBRANCH  25  26
ENDBRANCH   3  25
TORSDOF 10
