REMARK  5 active torsions:
REMARK  status: ('A' for Active; 'I' for Inactive)
REMARK    1  A    between atoms: C1_2  and  C2_4 
REMARK    2  A    between atoms: C2_4  and  C3_5 
REMARK    3  A    between atoms: C3_5  and  C4_6 
REMARK    4  A    between atoms: C4_6  and  C15_20 
REMARK    5  A    between atoms: C5_7  and  C6_8 
ROOT
HETATM    1  C6  UNL     1       0.818  -0.611  -0.087  1.00  0.00    -0.002 C 
HETATM    2  C7  UNL     1       1.769   0.284   0.239  1.00  0.00     0.041 A 
HETATM    3  C8  UNL     1       1.570   1.664   0.662  1.00  0.00     0.256 A 
HETATM    4  O3  UNL     1       0.547   2.361   0.833  1.00  0.00    -0.267 OA
HETATM    5  N1  UNL     1       2.790   2.327   0.927  1.00  0.00    -0.322 N 
HETATM    6  C9  UNL     1       3.827   1.384   0.681  1.00  0.00     0.046 A 
HETATM    7  C10 UNL     1       5.205   1.378   0.743  1.00  0.00     0.032 A 
HETATM    8  C11 UNL     1       5.961   0.272   0.431  1.00  0.00     0.021 A 
HETATM    9  C12 UNL     1       5.353  -0.901   0.035  1.00  0.00     0.011 A 
HETATM   10 BR1  UNL     1       6.393  -2.442  -0.400  1.00  0.00    -0.051 Br
HETATM   11  C13 UNL     1       3.986  -0.905  -0.030  1.00  0.00     0.033 A 
HETATM   12  C14 UNL     1       3.227   0.225   0.289  1.00  0.00     0.007 A 
HETATM   13  H8  UNL     1       3.062   3.281   1.239  1.00  0.00     0.169 HD
ENDROOT
BRANCH   1  14
HETATM   14  C5  UNL     1      -0.566  -0.043   0.026  1.00  0.00     0.069 C 
HETATM   15  C4  UNL     1      -1.766  -0.525  -0.182  1.00  0.00    -0.002 C 
BRANCH  15  16
HETATM   16  C3  UNL     1      -2.920   0.376   0.046  1.00  0.00     0.018 C 
BRANCH  16  17
HETATM   17  C2  UNL     1      -2.555   1.762   0.511  1.00  0.00     0.071 C 
BRANCH  17  18
HETATM   18  C1  UNL     1      -3.826   2.530   0.690  1.00  0.00     0.117 A 
HETATM   19  O1  UNL     1      -4.775   1.776   0.389  1.00  0.00    -0.194 OA
HETATM   20  O2  UNL     1      -5.027   3.181   0.836  1.00  0.00     0.000 OA
HETATM   21  H1  UNL     1      -5.037   4.209   0.741  1.00  0.00     0.000 HD
ENDBRANCH  17  18
ENDBRANCH  16  17
ENDBRANCH  15  16
BRANCH  15  22
HETATM   22  C15 UNL     1      -2.543  -1.748  -0.595  1.00  0.00     0.013 A 
HETATM   23  N2  UNL     1      -1.647  -2.603  -0.810  1.00  0.00    -0.298 NA
HETATM   24  C16 UNL     1      -2.558  -3.620  -1.167  1.00  0.00     0.154 A 
HETATM   25  C17 UNL     1      -3.619  -2.619  -0.919  1.00  0.00     0.076 A 
ENDBRANCH  15  22
ENDBRANCH   1  14
TORSDOF 5
