REMARK  6 active torsions:
REMARK  status: ('A' for Active; 'I' for Inactive)
REMARK    1  A    between atoms: C1_2  and  O2_3 
REMARK    2  A    between atoms: C1_2  and  C2_4 
REMARK    3  A    between atoms: C2_4  and  C3_5 
REMARK    4  A    between atoms: C3_5  and  C4_6 
REMARK    5  A    between atoms: C4_6  and  C5_7 
REMARK    6  A    between atoms: C6_8  and  C7_9 
ROOT
HETATM    1  C4  UNL     1      -0.850   0.691  -0.421  1.00  0.00     0.074 A 
HETATM    2  N1  UNL     1      -1.997   1.230   0.267  1.00  0.00    -0.376 N 
HETATM    3  C13 UNL     1      -2.784   0.040   0.235  1.00  0.00     0.011 A 
HETATM    4  C14 UNL     1      -1.760  -0.508  -0.399  1.00  0.00    -0.026 A 
HETATM    5  C15 UNL     1      -1.906  -1.953  -0.794  1.00  0.00     0.039 C 
HETATM    6  C16 UNL     1      -2.706  -2.612   0.319  1.00  0.00     0.005 C 
HETATM    7  C17 UNL     1      -4.108  -2.084   0.181  1.00  0.00     0.006 C 
HETATM    8  C18 UNL     1      -4.066  -0.631   0.584  1.00  0.00     0.057 C 
HETATM    9  H11 UNL     1      -2.325   2.142   0.712  1.00  0.00     0.160 HD
ENDROOT
BRANCH   1  10
HETATM   10  C3  UNL     1      -0.735   1.265  -1.802  1.00  0.00     0.050 C 
BRANCH  10  11
HETATM   11  C2  UNL     1      -0.083   2.611  -1.750  1.00  0.00     0.113 C 
BRANCH  11  12
HETATM   12  C1  UNL     1      -0.828   3.554  -0.899  1.00  0.00     0.139 C 
HETATM   13  O1  UNL     1      -0.445   3.965   0.239  1.00  0.00    -0.650 OA
BRANCH  12  14
HETATM   14  O2  UNL     1      -2.068   4.082  -1.321  1.00  0.00    -0.776 OA
HETATM   15  H1  UNL     1      -2.817   4.237  -0.657  1.00  0.00     0.167 HD
ENDBRANCH  12  14
ENDBRANCH  11  12
ENDBRANCH  10  11
ENDBRANCH   1  10
BRANCH   1  16
HETATM   16  C5  UNL     1       0.392   0.530   0.291  1.00  0.00     0.009 C 
HETATM   17  C6  UNL     1       1.406  -0.173  -0.090  1.00  0.00    -0.002 C 
BRANCH  17  18
HETATM   18  C7  UNL     1       2.596  -0.239   0.740  1.00  0.00    -0.004 C 
HETATM   19  C8  UNL     1       3.799  -0.603   1.079  1.00  0.00    -0.083 C 
HETATM   20  B1  UNL     1       4.928  -0.323   2.455  1.00  0.00     0.225 B 
HETATM   21  C12 UNL     1       4.403  -1.479   0.067  1.00  0.00     0.006 C 
HETATM   22  C9  UNL     1       6.634   0.277   1.427  1.00  0.00    -0.105 C 
HETATM   23  C10 UNL     1       6.461  -0.318   0.286  1.00  0.00    -0.005 C 
HETATM   24  C11 UNL     1       5.679  -1.376  -0.342  1.00  0.00     0.018 C 
HETATM   25 BR1  UNL     1       3.445  -2.900  -0.824  1.00  0.00    -0.052 Br
ENDBRANCH  17  18
ENDBRANCH   1  16
TORSDOF 6
