REMARK  4 active torsions:
REMARK  status: ('A' for Active; 'I' for Inactive)
REMARK    1  A    between atoms: C2_2  and  C3_3 
REMARK    2  A    between atoms: C2_2  and  C16_19 
REMARK    3  A    between atoms: C3_3  and  C4_4 
REMARK    4  A    between atoms: C4_4  and  C5_5 
ROOT
HETATM    1  C5  UNL     1       0.024   0.302   0.273  1.00  0.00    -0.062 C 
HETATM    2  C6  UNL     1       1.253   0.484   0.735  1.00  0.00    -0.018 A 
HETATM    3  C7  UNL     1       1.718   1.005   2.054  1.00  0.00     0.010 A 
HETATM    4  C8  UNL     1       2.929   0.881   1.471  1.00  0.00     0.016 A 
HETATM    5  C9  UNL     1       2.487   0.288   0.096  1.00  0.00     0.119 A 
HETATM    6  C10 UNL     1       3.297  -1.023   0.142  1.00  0.00     0.026 C 
HETATM    7 BR1  UNL     1       3.273  -2.664   1.047  1.00  0.00    -0.052 Br
HETATM    8  C11 UNL     1       4.309  -0.894  -0.763  1.00  0.00     0.019 C 
HETATM    9  C12 UNL     1       4.731   0.131  -1.763  1.00  0.00     0.018 C 
HETATM   10  C13 UNL     1       3.891   1.207  -1.913  1.00  0.00     0.096 C 
HETATM   11  N1  UNL     1       2.780   0.937  -1.073  1.00  0.00    -0.305 N 
HETATM   12  C14 UNL     1       1.384   1.174  -1.547  1.00  0.00     0.229 C 
HETATM   13  O1  UNL     1       1.243   2.270  -2.226  1.00  0.00    -0.273 OA
HETATM   14  C15 UNL     1       0.253   0.140  -1.213  1.00  0.00     0.138 C 
ENDROOT
BRANCH   1  15
HETATM   15  C4  UNL     1      -1.386   0.423   0.632  1.00  0.00     0.036 C 
BRANCH  15  16
HETATM   16  C3  UNL     1      -2.097  -0.923   0.555  1.00  0.00     0.015 C 
BRANCH  16  17
HETATM   17  C2  UNL     1      -3.544  -0.663   0.948  1.00  0.00     0.044 C 
HETATM   18  C1  UNL     1      -4.314  -1.952   0.895  1.00  0.00     0.017 C 
BRANCH  17  19
HETATM   19  C16 UNL     1      -4.123   0.411   0.106  1.00  0.00     0.121 A 
HETATM   20  O2  UNL     1      -5.166   0.108  -0.532  1.00  0.00    -0.194 OA
HETATM   21  O3  UNL     1      -4.613   1.456  -0.660  1.00  0.00     0.000 OA
HETATM   22  H16 UNL     1      -4.029   2.291  -0.767  1.00  0.00     0.000 HD
ENDBRANCH  17  19
ENDBRANCH  16  17
ENDBRANCH  15  16
ENDBRANCH   1  15
TORSDOF 4
