REMARK  2 active torsions:
REMARK  status: ('A' for Active; 'I' for Inactive)
REMARK    1  A    between atoms: C2_2  and  N1_3 
REMARK    2  A    between atoms: N1_3  and  C3_4 
ROOT
HETATM    1  C3  UNL     1       3.014   0.261   0.189  1.00  0.00     0.724 A 
HETATM    2  N2  UNL     1       2.613   1.477  -0.201  1.00  0.00    -0.074 NA
HETATM    3  C4  UNL     1       1.296   1.742  -0.427  1.00  0.00     0.151 A 
HETATM    4  C5  UNL     1       0.372   0.713  -0.241  1.00  0.00     0.029 A 
HETATM    5  C6  UNL     1       0.862  -0.505   0.156  1.00  0.00     0.156 A 
HETATM    6  N3  UNL     1       2.159  -0.751   0.376  1.00  0.00    -0.044 NA
HETATM    7  N4  UNL     1      -0.113  -1.516   0.254  1.00  0.00    -0.365 N 
HETATM    8  C7  UNL     1       0.326  -2.924   0.259  1.00  0.00     0.151 C 
HETATM    9  C8  UNL     1      -1.560  -1.313   0.335  1.00  0.00     0.163 C 
HETATM   10  C9  UNL     1      -2.020  -0.004  -0.115  1.00  0.00    -0.026 C 
HETATM   11  C10 UNL     1      -3.433   0.232  -0.315  1.00  0.00     0.015 A 
HETATM   12  C11 UNL     1      -3.976   1.311  -0.997  1.00  0.00     0.046 A 
HETATM   13 CL1  UNL     1      -3.048   2.508  -1.840  1.00  0.00    -0.083 Cl
HETATM   14  C12 UNL     1      -5.349   1.517  -1.091  1.00  0.00     0.025 A 
HETATM   15  C13 UNL     1      -6.220   0.657  -0.512  1.00  0.00     0.003 A 
HETATM   16  C14 UNL     1      -5.727  -0.449   0.187  1.00  0.00     0.025 A 
HETATM   17  C15 UNL     1      -4.359  -0.610   0.252  1.00  0.00     0.046 A 
HETATM   18 CL2  UNL     1      -4.041  -2.045   1.212  1.00  0.00    -0.083 Cl
HETATM   19  C16 UNL     1      -1.054   0.847  -0.345  1.00  0.00     0.026 C 
ENDROOT
BRANCH   1  20
HETATM   20  N1  UNL     1       4.433   0.402   0.337  1.00  0.00    -0.223 N 
HETATM   21  H6  UNL     1       4.504   0.384   1.381  1.00  0.00     0.177 HD
BRANCH  20  22
HETATM   22  C2  UNL     1       5.352   0.522  -0.786  1.00  0.00     0.134 C 
HETATM   23  C1  UNL     1       6.783   0.709  -0.360  1.00  0.00     0.027 C 
ENDBRANCH  20  22
ENDBRANCH   1  20
TORSDOF 2
