REMARK  5 active torsions:
REMARK  status: ('A' for Active; 'I' for Inactive)
REMARK    1  A    between atoms: N1_1  and  B1_2 
REMARK    2  A    between atoms: C12_16  and  C13_17 
REMARK    3  A    between atoms: C13_17  and  C14_18 
REMARK    4  A    between atoms: C14_18  and  C15_19 
REMARK    5  A    between atoms: C15_19  and  O3_21 
ROOT
HETATM    1  B1  UNL     1      -3.105   0.420  -0.632  1.00  0.00     0.517 B 
HETATM    2  N2  UNL     1      -3.919   0.052   0.585  1.00  0.00    -0.324 NA
HETATM    3  C1  UNL     1      -4.390  -1.369   0.624  1.00  0.00     0.114 C 
HETATM    4  C2  UNL     1      -3.193  -2.281   0.446  1.00  0.00    -0.045 A 
HETATM    5  C3  UNL     1      -3.335  -3.206  -0.537  1.00  0.00     0.009 A 
HETATM    6  C4  UNL     1      -2.027  -3.409  -1.071  1.00  0.00     0.017 A 
HETATM    7  C5  UNL     1      -1.066  -2.637  -0.465  1.00  0.00     0.025 A 
HETATM    8  C6  UNL     1      -1.297  -1.786   0.538  1.00  0.00    -0.021 A 
HETATM    9  C7  UNL     1      -2.441  -1.447   1.200  1.00  0.00     0.020 A 
HETATM   10  C8  UNL     1      -0.418  -0.789   1.022  1.00  0.00     0.028 A 
HETATM   11  C9  UNL     1       0.455  -1.118   0.117  1.00  0.00     0.026 A 
HETATM   12  C10 UNL     1       0.325  -2.183  -0.859  1.00  0.00     0.194 A 
HETATM   13  O1  UNL     1       1.084  -2.592  -1.724  1.00  0.00    -0.287 OA
HETATM   14  C11 UNL     1       1.413   0.018  -0.011  1.00  0.00    -0.017 C 
HETATM   15  C12 UNL     1       2.649  -0.090  -0.237  1.00  0.00    -0.013 C 
HETATM   16  C16 UNL     1       0.585   1.255   0.114  1.00  0.00    -0.020 C 
HETATM   17  C17 UNL     1      -0.711   1.407  -0.264  1.00  0.00     0.036 C 
HETATM   18  C18 UNL     1      -1.411   2.679  -0.085  1.00  0.00     0.063 C 
HETATM   19  C19 UNL     1      -0.587   3.852   0.342  1.00  0.00     0.007 C 
HETATM   20  C20 UNL     1       0.884   3.696   0.124  1.00  0.00     0.005 C 
HETATM   21  C21 UNL     1       1.281   2.385   0.758  1.00  0.00     0.042 C 
HETATM   22  O4  UNL     1      -1.711   0.702  -0.817  1.00  0.00    -0.388 OA
HETATM   23  H3  UNL     1      -4.805   0.601   0.558  1.00  0.00     0.107 HD
ENDROOT
BRANCH  15  24
HETATM   24  C13 UNL     1       3.813  -0.911  -0.476  1.00  0.00     0.038 C 
BRANCH  24  25
HETATM   25  C14 UNL     1       4.906  -0.754   0.579  1.00  0.00     0.113 C 
BRANCH  25  26
HETATM   26  C15 UNL     1       6.047  -1.610   0.230  1.00  0.00     0.139 C 
HETATM   27  O2  UNL     1       6.442  -1.357  -0.960  1.00  0.00    -0.650 OA
BRANCH  26  28
HETATM   28  O3  UNL     1       6.770  -2.610   0.912  1.00  0.00    -0.776 OA
HETATM   29  H15 UNL     1       7.792  -2.662   0.778  1.00  0.00     0.167 HD
ENDBRANCH  26  28
ENDBRANCH  25  26
ENDBRANCH  24  25
ENDBRANCH  15  24
BRANCH   1  30
HETATM   30  N1  UNL     1      -3.975   0.588  -1.935  1.00  0.00    -0.336 NA
HETATM   31  H1  UNL     1      -4.678   1.331  -1.723  1.00  0.00     0.104 HD
HETATM   32  H2  UNL     1      -3.374   0.840  -2.741  1.00  0.00     0.104 HD
ENDBRANCH   1  30
TORSDOF 5
