REMARK  8 active torsions:
REMARK  status: ('A' for Active; 'I' for Inactive)
REMARK    1  A    between atoms: N1_1  and  S1_2 
REMARK    2  A    between atoms: S1_2  and  C1_5 
REMARK    3  A    between atoms: C8_12  and  C9_13 
REMARK    4  A    between atoms: C9_13  and  N2_14 
REMARK    5  A    between atoms: C12_18  and  C13_19 
REMARK    6  A    between atoms: C13_19  and  C14_20 
REMARK    7  A    between atoms: C14_20  and  C15_21 
REMARK    8  A    between atoms: C15_21  and  O5_23 
ROOT
HETATM    1  C1  UNL     1       4.651   0.195  -0.568  1.00  0.00     0.075 A 
HETATM    2  C2  UNL     1       5.022  -0.776   0.339  1.00  0.00     0.027 A 
HETATM    3  C3  UNL     1       4.062  -1.510   1.001  1.00  0.00     0.031 A 
HETATM    4  C4  UNL     1       2.716  -1.306   0.788  1.00  0.00     0.039 A 
HETATM    5  C5  UNL     1       2.370  -0.336  -0.118  1.00  0.00    -0.001 A 
HETATM    6  C6  UNL     1       3.308   0.413  -0.795  1.00  0.00     0.039 A 
HETATM    7  C7  UNL     1       0.891  -0.373  -0.108  1.00  0.00    -0.030 C 
HETATM    8  C8  UNL     1       0.113   0.592  -0.636  1.00  0.00     0.002 C 
HETATM    9  C16 UNL     1       0.415  -1.608   0.573  1.00  0.00     0.159 C 
HETATM   10  N3  UNL     1       1.602  -1.959   1.372  1.00  0.00    -0.385 N 
HETATM   11  H19 UNL     1       1.583  -2.577   2.206  1.00  0.00     0.160 HD
ENDROOT
BRANCH   8  12
HETATM   12  C9  UNL     1      -1.318   0.866  -0.796  1.00  0.00     0.153 C 
BRANCH  12  13
HETATM   13  N2  UNL     1      -2.205  -0.151  -0.286  1.00  0.00    -0.358 N 
HETATM   14  C10 UNL     1      -2.335  -1.450  -0.891  1.00  0.00     0.112 A 
HETATM   15  C11 UNL     1      -3.278  -2.062  -0.202  1.00  0.00     0.154 A 
HETATM   16  O3  UNL     1      -3.779  -1.241   0.825  1.00  0.00    -0.336 OA
HETATM   17  C12 UNL     1      -3.074  -0.026   0.882  1.00  0.00     0.228 A 
BRANCH  17  18
HETATM   18  C13 UNL     1      -3.938   1.187   0.814  1.00  0.00     0.064 C 
BRANCH  18  19
HETATM   19  C14 UNL     1      -4.864   1.275  -0.341  1.00  0.00     0.114 C 
BRANCH  19  20
HETATM   20  C15 UNL     1      -5.871   0.218  -0.462  1.00  0.00     0.139 C 
HETATM   21  O4  UNL     1      -6.252  -0.825   0.159  1.00  0.00    -0.650 OA
BRANCH  20  22
HETATM   22  O5  UNL     1      -6.643   0.436  -1.616  1.00  0.00    -0.776 OA
HETATM   23  H16 UNL     1      -7.233  -0.296  -1.993  1.00  0.00     0.167 HD
ENDBRANCH  20  22
ENDBRANCH  19  20
ENDBRANCH  18  19
ENDBRANCH  17  18
ENDBRANCH  12  13
ENDBRANCH   8  12
BRANCH   1  24
HETATM   24  S1  UNL     1       5.912   1.096  -1.381  1.00  0.00     0.239 S 
HETATM   25  O1  UNL     1       7.135   0.259  -1.534  1.00  0.00    -0.206 OA
HETATM   26  O2  UNL     1       5.475   1.509  -2.769  1.00  0.00    -0.206 OA
BRANCH  24  27
HETATM   27  N1  UNL     1       6.319   2.527  -0.482  1.00  0.00    -0.225 NA
HETATM   28  H1  UNL     1       6.787   3.161  -1.184  1.00  0.00     0.136 HD
HETATM   29  H2  UNL     1       7.028   2.285   0.253  1.00  0.00     0.136 HD
ENDBRANCH  24  27
ENDBRANCH   1  24
TORSDOF 8
