REMARK  10 active torsions:
REMARK  status: ('A' for Active; 'I' for Inactive)
REMARK    1  A    between atoms: C2_2  and  C3_3 
REMARK    2  A    between atoms: C3_3  and  C4_4 
REMARK    3  A    between atoms: C4_4  and  C5_5 
REMARK    4  A    between atoms: C6_6  and  C7_7 
REMARK    5  A    between atoms: C7_7  and  C8_8 
REMARK    6  A    between atoms: C8_8  and  C9_9 
REMARK    7  A    between atoms: C9_9  and  O2_11 
REMARK    8  A    between atoms: C12_14  and  C13_15 
REMARK    9  A    between atoms: C18_23  and  S1_24 
REMARK   10  A    between atoms: S1_24  and  N3_25 
ROOT
HETATM    1  C5  UNL     1      -1.877  -0.014   0.349  1.00  0.00     0.008 A 
HETATM    2  C6  UNL     1      -1.890   1.161  -0.076  1.00  0.00    -0.079 A 
HETATM    3  C10 UNL     1      -0.537   0.996   0.269  1.00  0.00     0.012 A 
HETATM    4  C11 UNL     1       0.751   1.781   0.255  1.00  0.00     0.022 A 
HETATM    5  C12 UNL     1       0.758   0.406   0.752  1.00  0.00     0.022 A 
HETATM    6  C13 UNL     1      -0.592  -0.363   0.760  1.00  0.00     0.056 A 
HETATM    7  N1  UNL     1       0.489   0.265   0.749  1.00  0.00     0.000 N 
HETATM    8  C14 UNL     1       0.563  -1.053   1.886  1.00  0.00     0.234 A 
HETATM    9  O3  UNL     1      -0.140  -1.438   3.004  1.00  0.00    -0.198 OA
HETATM   10  N2  UNL     1       1.578  -2.042   1.715  1.00  0.00    -0.351 N 
HETATM   11  C15 UNL     1       2.693  -1.352   1.052  1.00  0.00     0.037 A 
HETATM   12  C16 UNL     1       3.928  -1.923   0.824  1.00  0.00     0.031 A 
HETATM   13  C17 UNL     1       4.714  -0.998   0.085  1.00  0.00     0.027 A 
HETATM   14  C18 UNL     1       4.351   0.200  -0.325  1.00  0.00     0.075 A 
HETATM   15  C19 UNL     1       3.193   0.812  -0.151  1.00  0.00     0.035 A 
HETATM   16  C20 UNL     1       2.330  -0.003   0.571  1.00  0.00    -0.019 A 
HETATM   17  H16 UNL     1       1.774  -3.076   1.833  1.00  0.00     0.163 HD
ENDROOT
BRANCH   2  18
HETATM   18  C7  UNL     1      -2.368   2.396  -0.602  1.00  0.00     0.042 C 
BRANCH  18  19
HETATM   19  C8  UNL     1      -3.044   3.338   0.365  1.00  0.00     0.114 C 
BRANCH  19  20
HETATM   20  C9  UNL     1      -3.405   4.573  -0.439  1.00  0.00     0.139 C 
HETATM   21  O1  UNL     1      -3.155   4.580  -1.694  1.00  0.00    -0.650 OA
BRANCH  20  22
HETATM   22  O2  UNL     1      -3.900   5.815  -0.566  1.00  0.00    -0.776 OA
HETATM   23  H14 UNL     1      -4.911   5.957  -0.615  1.00  0.00     0.167 HD
ENDBRANCH  20  22
ENDBRANCH  19  20
ENDBRANCH  18  19
ENDBRANCH   2  18
BRANCH   1  24
HETATM   24  C4  UNL     1      -2.836  -1.051   0.204  1.00  0.00     0.016 C 
BRANCH  24  25
HETATM   25  C3  UNL     1      -2.419  -2.277  -0.620  1.00  0.00     0.001 C 
BRANCH  25  26
HETATM   26  C2  UNL     1      -3.632  -3.202  -0.598  1.00  0.00    -0.005 C 
HETATM   27  C1  UNL     1      -3.297  -4.526  -1.267  1.00  0.00     0.005 C 
ENDBRANCH  25  26
ENDBRANCH  24  25
ENDBRANCH   1  24
BRANCH  14  28
HETATM   28  S1  UNL     1       5.448   1.196  -1.230  1.00  0.00     0.239 S 
HETATM   29  O4  UNL     1       5.189   1.084  -2.683  1.00  0.00    -0.206 OA
HETATM   30  O5  UNL     1       5.199   2.661  -0.876  1.00  0.00    -0.206 OA
BRANCH  28  31
HETATM   31  N3  UNL     1       7.080   0.898  -0.733  1.00  0.00    -0.225 NA
HETATM   32  H19 UNL     1       7.128   1.017   0.316  1.00  0.00     0.136 HD
HETATM   33  H20 UNL     1       7.237  -0.125  -0.957  1.00  0.00     0.136 HD
ENDBRANCH  28  31
ENDBRANCH  14  28
TORSDOF 10
