REMARK  8 active torsions:
REMARK  status: ('A' for Active; 'I' for Inactive)
REMARK    1  A    between atoms: O1_2  and  C2_3 
REMARK    2  A    between atoms: C5_6  and  C6_7 
REMARK    3  A    between atoms: C6_7  and  O2_8 
REMARK    4  A    between atoms: C6_7  and  C7_9 
REMARK    5  A    between atoms: C7_9  and  C8_10 
REMARK    6  A    between atoms: C8_10  and  C9_11 
REMARK    7  A    between atoms: C10_12  and  C11_13 
REMARK    8  A    between atoms: C11_13  and  C12_14 
ROOT
HETATM    1  C9  UNL     1       1.887  -0.509  -0.347  1.00  0.00    -0.027 C 
HETATM    2  C10 UNL     1       2.387   0.676  -0.704  1.00  0.00     0.018 C 
HETATM    3  N2  UNL     1       3.816   0.572  -0.926  1.00  0.00    -0.384 N 
HETATM    4  C14 UNL     1       4.071  -0.837  -1.164  1.00  0.00     0.116 C 
HETATM    5  C15 UNL     1       5.320  -1.351  -0.493  1.00  0.00     0.034 C 
HETATM    6  C16 UNL     1       4.914  -2.838  -0.388  1.00  0.00     0.037 C 
HETATM    7  C17 UNL     1       3.519  -2.656   0.136  1.00  0.00    -0.075 C 
HETATM    8  C18 UNL     1       2.755  -3.578   1.003  1.00  0.00     0.044 C 
HETATM    9  C19 UNL     1       3.007  -1.491  -0.295  1.00  0.00    -0.025 C 
HETATM   10  H16 UNL     1       4.596   1.260  -0.939  1.00  0.00     0.160 HD
ENDROOT
BRANCH   1  11
HETATM   11  C8  UNL     1       0.570  -1.072   0.013  1.00  0.00     0.044 C 
BRANCH  11  12
HETATM   12  C7  UNL     1      -0.571  -0.088  -0.004  1.00  0.00     0.041 C 
BRANCH  12  13
HETATM   13  C6  UNL     1      -1.827  -0.886   0.397  1.00  0.00     0.151 C 
BRANCH  13  14
HETATM   14  C5  UNL     1      -3.016  -0.029   0.417  1.00  0.00    -0.029 A 
HETATM   15  C4  UNL     1      -4.207  -0.752   0.498  1.00  0.00     0.012 A 
HETATM   16  C3  UNL     1      -5.425  -0.077   0.526  1.00  0.00     0.037 A 
HETATM   17  C2  UNL     1      -5.402   1.299   0.471  1.00  0.00     0.068 A 
HETATM   18  C21 UNL     1      -4.223   2.012   0.391  1.00  0.00     0.037 A 
HETATM   19  C20 UNL     1      -2.998   1.341   0.362  1.00  0.00     0.012 A 
BRANCH  17  20
HETATM   20  O1  UNL     1      -6.510   2.134   0.488  1.00  0.00    -0.356 OA
HETATM   21  C1  UNL     1      -7.827   1.630   0.566  1.00  0.00     0.210 C 
ENDBRANCH  17  20
ENDBRANCH  13  14
BRANCH  13  22
HETATM   22  O2  UNL     1      -2.011  -1.955  -0.478  1.00  0.00    -0.391 OA
HETATM   23  H7  UNL     1      -1.799  -1.707  -1.411  1.00  0.00     0.210 HD
ENDBRANCH  13  22
ENDBRANCH  12  13
ENDBRANCH  11  12
ENDBRANCH   1  11
BRANCH   2  24
HETATM   24  C11 UNL     1       1.845   2.039  -0.917  1.00  0.00     0.113 C 
BRANCH  24  25
HETATM   25  C12 UNL     1       2.532   3.002  -0.002  1.00  0.00     0.032 A 
HETATM   26  N1  UNL     1       3.446   3.193   0.954  1.00  0.00    -0.291 NA
HETATM   27  C13 UNL     1       2.814   4.335   0.599  1.00  0.00     0.203 A 
ENDBRANCH  24  25
ENDBRANCH   2  24
TORSDOF 8
