REMARK  8 active torsions:
REMARK  status: ('A' for Active; 'I' for Inactive)
REMARK    1  A    between atoms: O1_2  and  C2_3 
REMARK    2  A    between atoms: N1_9  and  C7_10 
REMARK    3  A    between atoms: C7_10  and  C8_11 
REMARK    4  A    between atoms: C8_11  and  C9_12 
REMARK    5  A    between atoms: C9_12  and  N2_13 
REMARK    6  A    between atoms: N2_13  and  C11_15 
REMARK    7  A    between atoms: C11_15  and  C12_16 
REMARK    8  A    between atoms: C12_16  and  C13_17 
REMARK       I    between atoms: C13_17  and  N3_18 
ROOT
HETATM    1  C8  UNL     1       0.055  -0.951   1.032  1.00  0.00     0.115 C 
HETATM    2  C14 UNL     1       0.633  -0.877   2.401  1.00  0.00     0.011 C 
HETATM    3  C15 UNL     1       0.464  -1.546   3.535  1.00  0.00     0.018 C 
HETATM    4  C16 UNL     1      -0.498  -2.667   3.628  1.00  0.00     0.117 C 
HETATM    5  N4  UNL     1      -0.908  -3.465   2.679  1.00  0.00    -0.255 NA
HETATM    6  C17 UNL     1      -0.482  -3.402   1.302  1.00  0.00     0.227 C 
HETATM    7  N5  UNL     1      -0.091  -2.370   0.640  1.00  0.00    -0.265 NA
ENDROOT
BRANCH   1   8
HETATM    8  C7  UNL     1      -1.294  -0.361   0.935  1.00  0.00     0.167 C 
BRANCH   8   9
HETATM    9  N1  UNL     1      -1.514   1.011   1.152  1.00  0.00    -0.326 N 
HETATM   10  C2  UNL     1      -2.934   1.333   0.895  1.00  0.00     0.308 A 
HETATM   11  F1  UNL     1      -3.722   0.569   1.772  1.00  0.00    -0.183 F 
HETATM   12  C3  UNL     1      -3.162   2.753   1.102  1.00  0.00     0.071 A 
HETATM   13  C4  UNL     1      -2.410   3.766   1.475  1.00  0.00     0.005 A 
HETATM   14  C5  UNL     1      -1.035   3.368   1.734  1.00  0.00     0.017 A 
HETATM   15  C6  UNL     1      -0.712   2.103   1.568  1.00  0.00     0.091 A 
BRANCH  10  16
HETATM   16  O1  UNL     1      -3.231   0.875  -0.363  1.00  0.00    -0.336 OA
HETATM   17  C1  UNL     1      -2.592   1.482  -1.407  1.00  0.00     0.208 C 
ENDBRANCH  10  16
ENDBRANCH   8   9
ENDBRANCH   1   8
BRANCH   1  18
HETATM   18  C9  UNL     1       0.986  -0.365   0.012  1.00  0.00     0.310 C 
BRANCH  18  19
HETATM   19  N2  UNL     1       0.569  -0.563  -1.363  1.00  0.00     0.087 N 
HETATM   20  C10 UNL     1       0.609  -1.903  -1.832  1.00  0.00     0.310 C 
BRANCH  19  21
HETATM   21  C11 UNL     1       1.115   0.430  -2.245  1.00  0.00     0.281 C 
BRANCH  21  22
HETATM   22  C12 UNL     1       2.598   0.380  -2.425  1.00  0.00     0.132 C 
BRANCH  22  23
HETATM   23  C13 UNL     1       3.125  -0.878  -2.977  1.00  0.00     0.216 C 
HETATM   24  N3  UNL     1       4.559  -0.715  -3.066  1.00  0.00    -0.370 N 
HETATM   25  H19 UNL     1       5.513  -0.418  -3.428  1.00  0.00     0.159 HD
HETATM   26  H20 UNL     1       5.616  -0.658  -3.027  1.00  0.00     0.159 HD
HETATM   27  O2  UNL     1       3.478  -1.999  -3.456  1.00  0.00    -0.274 OA
ENDBRANCH  22  23
ENDBRANCH  21  22
ENDBRANCH  19  21
ENDBRANCH  18  19
ENDBRANCH   1  18
TORSDOF 8
