REMARK  5 active torsions:
REMARK  status: ('A' for Active; 'I' for Inactive)
REMARK    1  A    between atoms: C1_2  and  N1_3 
REMARK    2  A    between atoms: C8_10  and  C9_11 
REMARK    3  A    between atoms: C16_19  and  C17_20 
REMARK    4  A    between atoms: C17_20  and  C18_21 
REMARK    5  A    between atoms: C18_21  and  O3_23 
ROOT
HETATM    1  C9  UNL     1       0.155  -0.695  -0.173  1.00  0.00    -0.020 A 
HETATM    2  C10 UNL     1      -0.164  -1.756   0.542  1.00  0.00     0.039 A 
HETATM    3  C11 UNL     1      -1.630  -1.788   0.683  1.00  0.00     0.031 A 
HETATM    4  C12 UNL     1      -2.149  -0.724   0.040  1.00  0.00    -0.044 A 
HETATM    5  C13 UNL     1      -3.631  -0.775   0.183  1.00  0.00     0.039 C 
HETATM    6  C14 UNL     1      -4.059  -0.871   1.631  1.00  0.00     0.024 C 
HETATM    7  C15 UNL     1      -3.628  -2.205   2.217  1.00  0.00     0.120 C 
HETATM    8  N2  UNL     1      -2.516  -2.708   1.370  1.00  0.00    -0.390 N 
HETATM    9  C16 UNL     1      -1.005   0.102  -0.542  1.00  0.00     0.062 A 
HETATM   10  H16 UNL     1      -2.316  -3.727   1.226  1.00  0.00     0.159 HD
ENDROOT
BRANCH   1  11
HETATM   11  C8  UNL     1       1.558  -0.393  -0.484  1.00  0.00     0.043 C 
HETATM   12  N1  UNL     1       1.802   0.745  -1.292  1.00  0.00    -0.324 N 
HETATM   13  C2  UNL     1       2.735   1.844  -1.286  1.00  0.00     0.090 C 
HETATM   14  C3  UNL     1       3.986   1.788  -0.860  1.00  0.00    -0.006 C 
HETATM   15  C4  UNL     1       5.081   1.015  -0.288  1.00  0.00     0.055 C 
HETATM   16  C5  UNL     1       4.892  -0.419  -0.127  1.00  0.00    -0.023 C 
HETATM   17  C6  UNL     1       3.985  -1.409  -0.008  1.00  0.00    -0.001 C 
HETATM   18  C7  UNL     1       2.523  -1.204  -0.015  1.00  0.00     0.030 C 
BRANCH  12  19
HETATM   19  C1  UNL     1       0.902   0.789  -2.384  1.00  0.00     0.523 C 
HETATM   20  O1  UNL     1       0.543   1.398  -3.407  1.00  0.00    -0.412 OA
ENDBRANCH  12  19
ENDBRANCH   1  11
BRANCH   9  21
HETATM   21  C17 UNL     1      -1.001   1.464   0.129  1.00  0.00     0.123 C 
BRANCH  21  22
HETATM   22  C18 UNL     1      -2.154   2.284  -0.300  1.00  0.00     0.140 C 
HETATM   23  O2  UNL     1      -3.180   2.351  -1.059  1.00  0.00    -0.650 OA
BRANCH  22  24
HETATM   24  O3  UNL     1      -2.137   3.483   0.396  1.00  0.00    -0.776 OA
HETATM   25  H20 UNL     1      -2.673   4.300   0.224  1.00  0.00     0.167 HD
ENDBRANCH  22  24
ENDBRANCH  21  22
ENDBRANCH   9  21
TORSDOF 5
