REMARK  5 active torsions:
REMARK  status: ('A' for Active; 'I' for Inactive)
REMARK    1  A    between atoms: O1_2  and  C2_3 
REMARK    2  A    between atoms: C12_15  and  C13_16 
REMARK    3  A    between atoms: C13_16  and  C14_17 
REMARK    4  A    between atoms: C14_17  and  C15_18 
REMARK    5  A    between atoms: C15_18  and  O4_20 
ROOT
HETATM    1  C2  UNL     1       5.207  -0.299   0.044  1.00  0.00     0.070 A 
HETATM    2  C3  UNL     1       4.449  -1.275  -0.565  1.00  0.00     0.038 A 
HETATM    3  C4  UNL     1       3.092  -1.080  -0.679  1.00  0.00     0.017 A 
HETATM    4  C5  UNL     1       2.439   0.025  -0.227  1.00  0.00     0.009 A 
HETATM    5  C6  UNL     1       3.221   0.979   0.378  1.00  0.00     0.049 A 
HETATM    6  C7  UNL     1       4.593   0.836   0.520  1.00  0.00     0.067 A 
HETATM    7  N1  UNL     1       2.299   2.013   0.780  1.00  0.00    -0.322 N 
HETATM    8  C8  UNL     1       0.984   1.630   0.394  1.00  0.00     0.259 A 
HETATM    9  O2  UNL     1       0.150   2.498   0.726  1.00  0.00    -0.267 OA
HETATM   10  C9  UNL     1       1.036   0.341  -0.267  1.00  0.00     0.071 A 
HETATM   11  C10 UNL     1      -0.023  -0.223  -0.773  1.00  0.00     0.045 C 
HETATM   12  C11 UNL     1      -1.304   0.468  -0.560  1.00  0.00     0.033 C 
HETATM   13  C12 UNL     1      -2.570   0.067  -0.311  1.00  0.00    -0.073 C 
HETATM   14  C16 UNL     1      -3.066  -1.363  -0.169  1.00  0.00     0.010 C 
HETATM   15  C17 UNL     1      -4.308  -1.384   0.691  1.00  0.00     0.015 C 
HETATM   16  C18 UNL     1      -2.034  -2.227   0.442  1.00  0.00     0.010 C 
HETATM   17  C19 UNL     1      -1.252  -3.152  -0.371  1.00  0.00     0.020 C 
HETATM   18  C20 UNL     1      -0.556  -2.706  -1.587  1.00  0.00     0.120 C 
HETATM   19  N2  UNL     1       0.111  -1.422  -1.524  1.00  0.00    -0.389 N 
HETATM   20  H7  UNL     1       2.705   2.864   1.278  1.00  0.00     0.169 HD
HETATM   21  H24 UNL     1       0.902  -1.321  -2.227  1.00  0.00     0.159 HD
ENDROOT
BRANCH  13  22
HETATM   22  C13 UNL     1      -3.611   1.070  -0.155  1.00  0.00     0.045 C 
BRANCH  22  23
HETATM   23  C14 UNL     1      -3.203   2.495  -0.283  1.00  0.00     0.114 C 
BRANCH  23  24
HETATM   24  C15 UNL     1      -4.422   3.373  -0.101  1.00  0.00     0.139 C 
HETATM   25  O3  UNL     1      -5.556   2.863   0.121  1.00  0.00    -0.650 OA
BRANCH  24  26
HETATM   26  O4  UNL     1      -4.312   4.749  -0.174  1.00  0.00    -0.776 OA
HETATM   27  H13 UNL     1      -5.040   5.291   0.314  1.00  0.00     0.167 HD
ENDBRANCH  24  26
ENDBRANCH  23  24
ENDBRANCH  22  23
ENDBRANCH  13  22
BRANCH   1  28
HETATM   28  O1  UNL     1       6.569  -0.402   0.205  1.00  0.00    -0.356 OA
HETATM   29  C1  UNL     1       7.357   0.603   0.833  1.00  0.00     0.210 C 
ENDBRANCH   1  28
TORSDOF 5
