REMARK  11 active torsions:
REMARK  status: ('A' for Active; 'I' for Inactive)
REMARK    1  A    between atoms: C2_2  and  C3_3 
REMARK    2  A    between atoms: C9_10  and  C10_11 
REMARK    3  A    between atoms: C10_11  and  C20_22 
REMARK    4  A    between atoms: C11_12  and  C12_13 
REMARK    5  A    between atoms: C12_13  and  C13_14 
REMARK    6  A    between atoms: C17_18  and  O1_19 
REMARK    7  A    between atoms: C20_22  and  N2_23 
REMARK    8  A    between atoms: C23_26  and  C24_27 
REMARK    9  A    between atoms: C24_27  and  C25_28 
REMARK   10  A    between atoms: C25_28  and  C26_29 
REMARK   11  A    between atoms: C26_29  and  O3_31 
ROOT
HETATM    1  C3  UNL     1      -1.557  -2.621   0.771  1.00  0.00    -0.035 C 
HETATM    2  C4  UNL     1      -2.649  -3.093   1.653  1.00  0.00     0.041 C 
HETATM    3  C5  UNL     1      -3.958  -2.682   0.981  1.00  0.00     0.009 C 
HETATM    4  C6  UNL     1      -4.083  -1.182   1.108  1.00  0.00     0.042 C 
HETATM    5  C7  UNL     1      -2.893  -0.548   0.559  1.00  0.00    -0.024 C 
HETATM    6  C8  UNL     1      -1.746  -1.239   0.417  1.00  0.00     0.045 C 
HETATM    7  N1  UNL     1      -0.545  -0.637  -0.116  1.00  0.00    -0.354 N 
HETATM    8  C9  UNL     1      -0.358   0.558  -0.860  1.00  0.00     0.052 C 
HETATM    9  C21 UNL     1      -1.307   1.441  -0.952  1.00  0.00     0.016 C 
HETATM   10  C22 UNL     1      -2.169   1.699  -0.060  1.00  0.00    -0.004 C 
HETATM   11  C23 UNL     1      -3.165   0.865   0.218  1.00  0.00    -0.037 C 
HETATM   12  H11 UNL     1       0.291  -1.187   0.099  1.00  0.00     0.166 HD
ENDROOT
BRANCH   8  13
HETATM   13  C10 UNL     1       0.902   0.824  -1.539  1.00  0.00    -0.017 C 
HETATM   14  C11 UNL     1       1.922   0.020  -1.528  1.00  0.00    -0.011 C 
BRANCH  14  15
HETATM   15  C12 UNL     1       3.282  -0.119  -2.026  1.00  0.00     0.066 C 
BRANCH  15  16
HETATM   16  C13 UNL     1       4.275  -0.251  -0.909  1.00  0.00    -0.052 A 
HETATM   17  C14 UNL     1       4.554  -1.549  -0.468  1.00  0.00     0.007 A 
HETATM   18  C15 UNL     1       5.460  -1.704   0.556  1.00  0.00     0.003 A 
HETATM   19  C16 UNL     1       6.058  -0.606   1.110  1.00  0.00     0.037 A 
HETATM   20  C17 UNL     1       5.813   0.693   0.707  1.00  0.00     0.068 A 
HETATM   21  C19 UNL     1       4.908   0.820  -0.313  1.00  0.00     0.044 A 
BRANCH  20  22
HETATM   22  O1  UNL     1       6.436   1.788   1.290  1.00  0.00    -0.356 OA
HETATM   23  C18 UNL     1       6.140   3.100   0.828  1.00  0.00     0.210 C 
ENDBRANCH  20  22
ENDBRANCH  15  16
ENDBRANCH  14  15
BRANCH  13  24
HETATM   24  C20 UNL     1       0.885   2.130  -2.250  1.00  0.00     0.152 C 
BRANCH  24  25
HETATM   25  N2  UNL     1       2.078   2.464  -2.938  1.00  0.00    -0.426 N 
HETATM   26  H24 UNL     1       2.608   3.181  -2.435  1.00  0.00     0.150 HD
HETATM   27  H25 UNL     1       2.046   2.512  -3.959  1.00  0.00     0.150 HD
ENDBRANCH  24  25
ENDBRANCH  13  24
ENDBRANCH   8  13
BRANCH   1  28
HETATM   28  C2  UNL     1      -0.531  -3.330   0.341  1.00  0.00    -0.022 C 
HETATM   29  C1  UNL     1      -0.646  -4.704   0.893  1.00  0.00     0.036 C 
ENDBRANCH   1  28
BRANCH  11  30
HETATM   30  C24 UNL     1      -4.606   1.238   0.218  1.00  0.00     0.050 C 
BRANCH  30  31
HETATM   31  C25 UNL     1      -4.763   2.699  -0.135  1.00  0.00     0.114 C 
BRANCH  31  32
HETATM   32  C26 UNL     1      -6.229   3.041  -0.126  1.00  0.00     0.139 C 
HETATM   33  O2  UNL     1      -7.059   2.111   0.158  1.00  0.00    -0.650 OA
BRANCH  32  34
HETATM   34  O3  UNL     1      -6.656   4.327  -0.418  1.00  0.00    -0.776 OA
HETATM   35  H30 UNL     1      -7.662   4.557  -0.410  1.00  0.00     0.167 HD
ENDBRANCH  32  34
ENDBRANCH  31  32
ENDBRANCH  30  31
ENDBRANCH  11  30
TORSDOF 11
