REMARK  9 active torsions:
REMARK  status: ('A' for Active; 'I' for Inactive)
REMARK    1  A    between atoms: C1_2  and  O2_3 
REMARK    2  A    between atoms: C1_2  and  C2_4 
REMARK    3  A    between atoms: C2_4  and  C3_5 
REMARK    4  A    between atoms: C3_5  and  C4_6 
REMARK    5  A    between atoms: C4_6  and  C5_7 
REMARK    6  A    between atoms: C6_8  and  N1_9 
REMARK    7  A    between atoms: N1_9  and  C7_10 
REMARK    8  A    between atoms: C7_10  and  C8_11 
REMARK    9  A    between atoms: C13_18  and  C14_19 
ROOT
HETATM    1  C8  UNL     1       0.395  -0.168   0.621  1.00  0.00     0.010 C 
HETATM    2  C9  UNL     1       1.579   0.313   0.902  1.00  0.00     0.042 A 
HETATM    3  C10 UNL     1       1.954   1.330   1.846  1.00  0.00     0.256 A 
HETATM    4  O3  UNL     1       1.211   1.983   2.614  1.00  0.00    -0.267 OA
HETATM    5  N2  UNL     1       3.358   1.536   1.819  1.00  0.00    -0.322 N 
HETATM    6  C11 UNL     1       3.866   0.622   0.831  1.00  0.00     0.047 A 
HETATM    7  C12 UNL     1       5.201   0.482   0.473  1.00  0.00     0.042 A 
HETATM    8  C13 UNL     1       5.503  -0.451  -0.500  1.00  0.00    -0.024 A 
HETATM    9  C20 UNL     1       4.514  -1.217  -1.094  1.00  0.00     0.013 A 
HETATM   10  C21 UNL     1       3.196  -1.025  -0.687  1.00  0.00     0.015 A 
HETATM   11  C22 UNL     1       2.827  -0.106   0.283  1.00  0.00     0.006 A 
HETATM   12  H12 UNL     1       3.909   2.226   2.410  1.00  0.00     0.169 HD
ENDROOT
BRANCH   1  13
HETATM   13  C7  UNL     1      -0.876   0.235   1.226  1.00  0.00     0.148 C 
BRANCH  13  14
HETATM   14  N1  UNL     1      -1.811   0.759   0.223  1.00  0.00    -0.389 N 
HETATM   15  H8  UNL     1      -1.684   0.866  -0.809  1.00  0.00     0.159 HD
BRANCH  14  16
HETATM   16  C6  UNL     1      -3.071   1.182   0.737  1.00  0.00     0.007 C 
HETATM   17  C5  UNL     1      -4.135   0.420   0.936  1.00  0.00    -0.058 C 
HETATM   18  C26 UNL     1      -5.324   1.122   1.488  1.00  0.00     0.036 C 
HETATM   19  C25 UNL     1      -5.648   2.319   0.620  1.00  0.00     0.005 C 
HETATM   20  C24 UNL     1      -4.432   3.114   0.272  1.00  0.00     0.006 C 
HETATM   21  C23 UNL     1      -3.227   2.638   1.095  1.00  0.00     0.057 C 
BRANCH  17  22
HETATM   22  C4  UNL     1      -4.254  -1.036   0.669  1.00  0.00     0.036 C 
BRANCH  22  23
HETATM   23  C3  UNL     1      -5.362  -1.209  -0.350  1.00  0.00     0.015 C 
BRANCH  23  24
HETATM   24  C2  UNL     1      -5.569  -2.668  -0.695  1.00  0.00     0.110 C 
BRANCH  24  25
HETATM   25  C1  UNL     1      -6.673  -2.814  -1.710  1.00  0.00     0.139 C 
HETATM   26  O1  UNL     1      -7.244  -1.758  -2.111  1.00  0.00    -0.650 OA
BRANCH  25  27
HETATM   27  O2  UNL     1      -6.973  -4.109  -2.121  1.00  0.00    -0.776 OA
HETATM   28  H1  UNL     1      -7.915  -4.228  -2.521  1.00  0.00     0.167 HD
ENDBRANCH  25  27
ENDBRANCH  24  25
ENDBRANCH  23  24
ENDBRANCH  22  23
ENDBRANCH  17  22
ENDBRANCH  14  16
ENDBRANCH  13  14
ENDBRANCH   1  13
BRANCH   8  29
HETATM   29  C14 UNL     1       6.907  -0.611  -0.892  1.00  0.00    -0.026 A 
HETATM   30  C15 UNL     1       7.661   0.542  -0.817  1.00  0.00     0.012 A 
HETATM   31  C16 UNL     1       9.010   0.564  -1.153  1.00  0.00     0.001 A 
HETATM   32  C17 UNL     1       9.634  -0.612  -1.580  1.00  0.00     0.000 A 
HETATM   33  C18 UNL     1       8.855  -1.757  -1.646  1.00  0.00     0.001 A 
HETATM   34  C19 UNL     1       7.514  -1.768  -1.311  1.00  0.00     0.012 A 
ENDBRANCH   8  29
TORSDOF 9
