REMARK  7 active torsions:
REMARK  status: ('A' for Active; 'I' for Inactive)
REMARK    1  A    between atoms: C1_2  and  O2_3 
REMARK    2  A    between atoms: O2_3  and  C2_4 
REMARK    3  A    between atoms: C4_6  and  C5_7 
REMARK    4  A    between atoms: C6_8  and  C7_9 
REMARK    5  A    between atoms: C7_9  and  C8_10 
REMARK    6  A    between atoms: C8_10  and  C9_11 
REMARK    7  A    between atoms: C9_11  and  O4_13 
ROOT
HETATM    1  C5  UNL     1      -0.026  -0.030  -0.118  1.00  0.00     0.053 A 
HETATM    2  C6  UNL     1      -1.265   0.418  -0.275  1.00  0.00    -0.029 A 
HETATM    3  C10 UNL     1      -1.796  -0.869   0.152  1.00  0.00     0.116 A 
HETATM    4  C11 UNL     1      -2.370  -1.778  -0.915  1.00  0.00     0.030 C 
HETATM    5  C12 UNL     1      -2.618  -3.091  -0.204  1.00  0.00     0.004 C 
HETATM    6  C13 UNL     1      -1.525  -3.492   0.711  1.00  0.00     0.020 C 
HETATM    7  C14 UNL     1      -0.293  -2.683   0.734  1.00  0.00     0.124 C 
HETATM    8  N1  UNL     1      -0.411  -1.328   0.300  1.00  0.00    -0.371 N 
ENDROOT
BRANCH   1   9
HETATM    9  C4  UNL     1       1.294   0.566  -0.303  1.00  0.00     0.041 C 
HETATM   10  C3  UNL     1       2.426  -0.078  -0.082  1.00  0.00     0.028 C 
HETATM   11  C2  UNL     1       3.806   0.488  -0.257  1.00  0.00     0.169 C 
HETATM   12  C15 UNL     1       3.776   1.901   0.258  1.00  0.00     0.136 C 
HETATM   13  N2  UNL     1       3.163   2.726  -0.781  1.00  0.00    -0.261 NA
HETATM   14  S1  UNL     1       1.469   2.252  -0.858  1.00  0.00    -0.043 SA
HETATM   15  H18 UNL     1       3.620   2.427  -1.677  1.00  0.00     0.135 HD
BRANCH  11  16
HETATM   16  O2  UNL     1       4.756  -0.306   0.430  1.00  0.00    -0.318 OA
BRANCH  16  17
HETATM   17  C1  UNL     1       5.731  -0.946  -0.349  1.00  0.00     0.398 C 
HETATM   18  O1  UNL     1       6.004  -1.007  -1.573  1.00  0.00    -0.276 OA
ENDBRANCH  16  17
ENDBRANCH  11  16
ENDBRANCH   1   9
BRANCH   2  19
HETATM   19  C7  UNL     1      -1.918   1.681  -0.696  1.00  0.00     0.049 C 
BRANCH  19  20
HETATM   20  C8  UNL     1      -2.789   2.195   0.423  1.00  0.00     0.114 C 
BRANCH  20  21
HETATM   21  C9  UNL     1      -3.472   3.462   0.062  1.00  0.00     0.139 C 
HETATM   22  O3  UNL     1      -2.677   4.430   0.091  1.00  0.00    -0.650 OA
BRANCH  21  23
HETATM   23  O4  UNL     1      -4.780   3.727  -0.284  1.00  0.00    -0.776 OA
HETATM   24  H8  UNL     1      -5.124   4.679  -0.228  1.00  0.00     0.167 HD
ENDBRANCH  21  23
ENDBRANCH  20  21
ENDBRANCH  19  20
ENDBRANCH   2  19
TORSDOF 7
