REMARK  4 active torsions:
REMARK  status: ('A' for Active; 'I' for Inactive)
REMARK    1  A    between atoms: O1_2  and  C2_3 
REMARK    2  A    between atoms: C10_11  and  C11_12 
REMARK    3  A    between atoms: C11_12  and  N1_13 
REMARK    4  A    between atoms: C11_12  and  C12_14 
ROOT
HETATM    1  C11 UNL     1       0.293  -2.106  -0.191  1.00  0.00     0.271 C 
ENDROOT
BRANCH   1   2
HETATM    2  C10 UNL     1       1.461  -1.391  -0.601  1.00  0.00    -0.034 A 
HETATM    3  C9  UNL     1       2.210  -0.316  -0.348  1.00  0.00     0.023 A 
HETATM    4  C8  UNL     1       3.050   0.733  -0.221  1.00  0.00    -0.013 A 
HETATM    5  C25 UNL     1       2.237  -0.571   1.134  1.00  0.00     0.062 A 
HETATM    6  C6  UNL     1       3.016  -0.626  -1.500  1.00  0.00     0.028 A 
HETATM    7  C7  UNL     1       3.825   0.469  -1.295  1.00  0.00    -0.011 A 
HETATM    8  C2  UNL     1       3.458  -1.489   1.336  1.00  0.00     0.101 A 
HETATM    9  C3  UNL     1       3.769  -1.471   0.045  1.00  0.00     0.056 A 
HETATM   10  C4  UNL     1       4.725  -1.959  -1.019  1.00  0.00    -0.021 A 
HETATM   11  C5  UNL     1       4.167  -1.341  -2.134  1.00  0.00    -0.011 A 
HETATM   12  C24 UNL     1       2.223  -1.690  -1.691  1.00  0.00    -0.002 A 
BRANCH   8  13
HETATM   13  O1  UNL     1       3.488  -1.764   2.684  1.00  0.00    -0.381 OA
HETATM   14  C1  UNL     1       3.607  -0.713   3.642  1.00  0.00     0.202 C 
ENDBRANCH   8  13
ENDBRANCH   1   2
BRANCH   1  15
HETATM   15  N1  UNL     1      -0.078  -3.082  -1.221  1.00  0.00     0.089 N 
HETATM   16  H10 UNL     1      -1.030  -2.928  -1.591  1.00  0.00     0.313 HD
HETATM   17  H11 UNL     1       0.071  -4.058  -0.902  1.00  0.00     0.313 HD
ENDBRANCH   1  15
BRANCH   1  18
HETATM   18  C12 UNL     1      -0.978  -1.250  -0.048  1.00  0.00     0.052 C 
HETATM   19  C13 UNL     1      -2.248  -1.777  -0.457  1.00  0.00     0.112 C 
HETATM   20  C14 UNL     1      -3.110  -0.654  -0.122  1.00  0.00    -0.016 C 
HETATM   21  C15 UNL     1      -3.263   0.569   0.435  1.00  0.00    -0.083 C 
HETATM   22  C16 UNL     1      -4.689   0.733   0.090  1.00  0.00     0.034 C 
HETATM   23  C23 UNL     1      -2.746   1.535   1.388  1.00  0.00     0.034 C 
HETATM   24  C17 UNL     1      -4.669   1.840  -0.996  1.00  0.00     0.012 C 
HETATM   25  C18 UNL     1      -3.605   1.369  -1.991  1.00  0.00     0.081 C 
HETATM   26  C19 UNL     1      -2.264   1.499  -1.395  1.00  0.00     0.149 C 
HETATM   27  O2  UNL     1      -1.869   2.563  -1.966  1.00  0.00    -0.296 OA
HETATM   28  C20 UNL     1      -1.053   1.305  -0.628  1.00  0.00     0.147 C 
HETATM   29  C21 UNL     1      -0.797   2.554   0.263  1.00  0.00     0.033 C 
HETATM   30  N2  UNL     1      -0.914   0.223   0.336  1.00  0.00    -0.403 N 
HETATM   31  C22 UNL     1      -2.146   2.816   0.959  1.00  0.00     0.007 C 
HETATM   32  H27 UNL     1      -0.789  -0.350   1.190  1.00  0.00     0.154 HD
ENDBRANCH   1  18
TORSDOF 4
