REMARK  5 active torsions:
REMARK  status: ('A' for Active; 'I' for Inactive)
REMARK    1  A    between atoms: O1_2  and  C2_3 
REMARK    2  A    between atoms: C6_7  and  C7_8 
REMARK    3  A    between atoms: C12_13  and  C13_14 
REMARK    4  A    between atoms: C13_14  and  O2_15 
REMARK    5  A    between atoms: C17_21  and  C18_22 
ROOT
HETATM    1  C7  UNL     1       2.337   0.251   0.567  1.00  0.00    -0.015 A 
HETATM    2  C8  UNL     1       1.862   1.471   1.036  1.00  0.00     0.013 A 
HETATM    3  C9  UNL     1       0.520   1.677   1.311  1.00  0.00     0.010 A 
HETATM    4  C10 UNL     1      -0.352   0.635   1.110  1.00  0.00    -0.029 A 
HETATM    5  C11 UNL     1       0.173  -0.554   0.646  1.00  0.00     0.050 A 
HETATM    6  C12 UNL     1       1.492  -0.818   0.356  1.00  0.00     0.004 A 
HETATM    7  N1  UNL     1      -0.493  -1.787   0.383  1.00  0.00    -0.321 N 
HETATM    8  C14 UNL     1      -1.824  -2.139  -0.038  1.00  0.00     0.272 C 
HETATM    9  O3  UNL     1      -1.893  -3.237  -0.606  1.00  0.00    -0.266 OA
HETATM   10  C15 UNL     1      -3.083  -1.373   0.119  1.00  0.00     0.097 C 
HETATM   11  C16 UNL     1      -4.153  -2.134   0.062  1.00  0.00     0.022 C 
HETATM   12  C17 UNL     1      -5.377  -1.350   0.221  1.00  0.00     0.095 C 
HETATM   13  C19 UNL     1      -4.918   0.024   0.563  1.00  0.00     0.099 C 
HETATM   14  C20 UNL     1      -5.450   1.084  -0.377  1.00  0.00     0.026 C 
HETATM   15  C21 UNL     1      -4.892   2.384   0.162  1.00  0.00     0.004 C 
HETATM   16  C22 UNL     1      -3.410   2.452   0.133  1.00  0.00     0.026 C 
HETATM   17  C23 UNL     1      -2.650   1.202   0.300  1.00  0.00     0.089 C 
HETATM   18  C24 UNL     1      -1.712   1.165   1.489  1.00  0.00     0.066 C 
HETATM   19  N2  UNL     1      -3.467   0.001   0.318  1.00  0.00    -0.366 N 
HETATM   20  H12 UNL     1       0.129  -2.610   0.536  1.00  0.00     0.169 HD
ENDROOT
BRANCH   1  21
HETATM   21  C6  UNL     1       3.766   0.246   0.301  1.00  0.00    -0.023 A 
HETATM   22  C5  UNL     1       4.497   0.535   1.460  1.00  0.00     0.012 A 
HETATM   23  C4  UNL     1       5.874   0.611   1.480  1.00  0.00     0.004 A 
HETATM   24  C3  UNL     1       6.605   0.398   0.325  1.00  0.00     0.037 A 
HETATM   25  C2  UNL     1       5.867   0.116  -0.802  1.00  0.00     0.069 A 
HETATM   26  C25 UNL     1       4.509   0.039  -0.836  1.00  0.00     0.049 A 
BRANCH  25  27
HETATM   27  O1  UNL     1       6.521  -0.116  -2.028  1.00  0.00    -0.356 OA
HETATM   28  C1  UNL     1       7.953  -0.036  -1.989  1.00  0.00     0.210 C 
ENDBRANCH  25  27
ENDBRANCH   1  21
BRANCH   6  29
HETATM   29  C13 UNL     1       1.902  -2.131  -0.097  1.00  0.00     0.206 C 
BRANCH  29  30
HETATM   30  O2  UNL     1       2.448  -2.982   0.872  1.00  0.00    -0.396 OA
HETATM   31  H11 UNL     1       2.415  -3.874   0.483  1.00  0.00     0.209 HD
ENDBRANCH  29  30
ENDBRANCH   6  29
BRANCH  12  32
HETATM   32  C18 UNL     1      -6.343  -1.448  -0.880  1.00  0.00     0.241 C 
HETATM   33  O4  UNL     1      -7.455  -1.738  -1.287  1.00  0.00    -0.306 OA
ENDBRANCH  12  32
TORSDOF 5
