REMARK  10 active torsions:
REMARK  status: ('A' for Active; 'I' for Inactive)
REMARK    1  A    between atoms: C1_2  and  C2_3 
REMARK    2  A    between atoms: C4_5  and  C5_6 
REMARK    3  A    between atoms: C10_11  and  O2_12 
REMARK    4  A    between atoms: C13_15  and  C14_16 
REMARK    5  A    between atoms: C14_16  and  C15_17 
REMARK    6  A    between atoms: C15_17  and  C16_18 
REMARK    7  A    between atoms: C17_19  and  C18_20 
REMARK    8  A    between atoms: C18_20  and  C19_21 
REMARK    9  A    between atoms: C19_21  and  C20_22 
REMARK   10  A    between atoms: C20_22  and  O4_24 
ROOT
HETATM    1  C14 UNL     1      -0.094   0.476  -0.326  1.00  0.00     0.014 C 
ENDROOT
BRANCH   1   2
HETATM    2  C13 UNL     1       1.352   0.457  -0.197  1.00  0.00    -0.023 A 
HETATM    3  C2  UNL     1       1.973   1.635   0.105  1.00  0.00     0.013 A 
HETATM    4  C3  UNL     1       3.324   1.527   0.209  1.00  0.00     0.027 A 
HETATM    5  C4  UNL     1       3.998   0.340   0.027  1.00  0.00    -0.022 A 
HETATM    6  C11 UNL     1       3.329  -0.824  -0.276  1.00  0.00     0.013 A 
HETATM    7  C12 UNL     1       1.958  -0.744  -0.388  1.00  0.00     0.013 A 
BRANCH   3   8
HETATM    8  C1  UNL     1       1.326   2.921   0.309  1.00  0.00     0.271 C 
HETATM    9  O1  UNL     1       2.006   3.942   0.584  1.00  0.00    -0.301 OA
ENDBRANCH   3   8
BRANCH   5  10
HETATM   10  C5  UNL     1       5.449   0.331   0.162  1.00  0.00     0.007 A 
HETATM   11  C6  UNL     1       6.163   0.942   1.171  1.00  0.00     0.015 A 
HETATM   12  C7  UNL     1       7.537   0.878   1.213  1.00  0.00     0.001 A 
HETATM   13  C8  UNL     1       8.260   0.191   0.235  1.00  0.00     0.003 A 
HETATM   14  C9  UNL     1       7.565  -0.429  -0.785  1.00  0.00     0.037 A 
HETATM   15  C10 UNL     1       6.193  -0.337  -0.785  1.00  0.00     0.076 A 
BRANCH  15  16
HETATM   16  O2  UNL     1       5.582  -0.997  -1.859  1.00  0.00    -0.360 OA
HETATM   17  H7  UNL     1       5.922  -0.984  -2.804  1.00  0.00     0.217 HD
ENDBRANCH  15  16
ENDBRANCH   5  10
ENDBRANCH   1   2
BRANCH   1  18
HETATM   18  C15 UNL     1      -1.104  -0.310  -0.583  1.00  0.00     0.030 C 
BRANCH  18  19
HETATM   19  C16 UNL     1      -2.514  -0.638  -0.783  1.00  0.00     0.035 C 
HETATM   20  C17 UNL     1      -3.572   0.277  -0.707  1.00  0.00    -0.025 C 
HETATM   21  C21 UNL     1      -4.796  -0.619  -0.561  1.00  0.00    -0.053 C 
HETATM   22  C22 UNL     1      -5.220  -1.053   0.661  1.00  0.00    -0.017 C 
HETATM   23  C26 UNL     1      -5.606  -1.311  -1.687  1.00  0.00     0.041 C 
HETATM   24  C23 UNL     1      -4.501  -2.373   0.612  1.00  0.00     0.053 C 
HETATM   25  C24 UNL     1      -3.909  -2.822  -0.665  1.00  0.00     0.085 C 
HETATM   26  C25 UNL     1      -4.935  -2.708  -1.776  1.00  0.00     0.030 C 
HETATM   27  N1  UNL     1      -2.649  -2.109  -1.031  1.00  0.00    -0.385 N 
HETATM   28  H25 UNL     1      -1.775  -2.562  -1.469  1.00  0.00     0.160 HD
BRANCH  20  29
HETATM   29  C18 UNL     1      -3.299   1.748  -0.793  1.00  0.00     0.052 C 
BRANCH  29  30
HETATM   30  C19 UNL     1      -3.605   2.458   0.476  1.00  0.00     0.115 C 
BRANCH  30  31
HETATM   31  C20 UNL     1      -2.818   1.956   1.608  1.00  0.00     0.139 C 
HETATM   32  O3  UNL     1      -3.125   2.619   2.651  1.00  0.00    -0.650 OA
BRANCH  31  33
HETATM   33  O4  UNL     1      -1.901   1.169   2.280  1.00  0.00    -0.776 OA
HETATM   34  H16 UNL     1      -0.946   1.503   2.304  1.00  0.00     0.167 HD
ENDBRANCH  31  33
ENDBRANCH  30  31
ENDBRANCH  29  30
ENDBRANCH  20  29
ENDBRANCH  18  19
ENDBRANCH   1  18
TORSDOF 10
