REMARK  7 active torsions:
REMARK  status: ('A' for Active; 'I' for Inactive)
REMARK    1  A    between atoms: C3_3  and  C4_4 
REMARK    2  A    between atoms: C4_4  and  N1_5 
REMARK    3  A    between atoms: N1_5  and  C5_6 
REMARK    4  A    between atoms: C10_12  and  C11_13 
REMARK    5  A    between atoms: C14_16  and  C15_17 
REMARK    6  A    between atoms: C15_17  and  C16_18 
REMARK    7  A    between atoms: C16_18  and  O3_20 
ROOT
HETATM    1  C1  UNL     1       2.137  -1.972  -1.821  1.00  0.00     0.013 C 
HETATM    2  C2  UNL     1       2.489  -1.278  -0.923  1.00  0.00    -0.101 C 
HETATM    3  C3  UNL     1       2.931  -0.417   0.177  1.00  0.00     0.066 A 
HETATM    4  C6  UNL     1       4.061  -1.067   0.916  1.00  0.00    -0.002 A 
HETATM    5  C7  UNL     1       4.317  -1.519   2.127  1.00  0.00    -0.002 A 
HETATM    6  C8  UNL     1       3.203  -1.356   3.040  1.00  0.00    -0.004 A 
HETATM    7  C9  UNL     1       2.167  -0.785   2.459  1.00  0.00    -0.016 A 
HETATM    8  C10 UNL     1       1.789  -0.252   1.141  1.00  0.00     0.059 A 
ENDROOT
BRANCH   3   9
HETATM    9  C4  UNL     1       3.417   0.920  -0.355  1.00  0.00     0.149 C 
BRANCH   9  10
HETATM   10  N1  UNL     1       4.531   0.624  -1.259  1.00  0.00    -0.366 N 
HETATM   11  H4  UNL     1       5.068  -0.215  -1.631  1.00  0.00     0.161 HD
BRANCH  10  12
HETATM   12  C5  UNL     1       5.136   1.764  -1.869  1.00  0.00     0.348 C 
HETATM   13  O1  UNL     1       4.727   2.950  -1.635  1.00  0.00    -0.284 OA
ENDBRANCH  10  12
ENDBRANCH   9  10
ENDBRANCH   3   9
BRANCH   8  14
HETATM   14  C11 UNL     1       0.566  -0.926   0.604  1.00  0.00     0.013 C 
HETATM   15  C12 UNL     1      -0.685  -0.549   0.275  1.00  0.00     0.026 C 
HETATM   16  C13 UNL     1      -1.065   0.885   0.445  1.00  0.00     0.032 C 
HETATM   17  N2  UNL     1      -1.329  -1.711  -0.371  1.00  0.00    -0.385 N 
HETATM   18  C14 UNL     1      -2.256   1.481   0.230  1.00  0.00    -0.068 C 
HETATM   19  C17 UNL     1      -3.578   0.849   0.171  1.00  0.00     0.034 C 
HETATM   20  C18 UNL     1      -4.097   0.636  -1.308  1.00  0.00     0.004 C 
HETATM   21  C19 UNL     1      -3.067  -0.327  -1.635  1.00  0.00     0.002 C 
HETATM   22  C20 UNL     1      -2.593  -1.307  -2.522  1.00  0.00     0.020 C 
HETATM   23  C21 UNL     1      -1.205  -1.585  -1.829  1.00  0.00     0.122 C 
HETATM   24  C22 UNL     1      -1.863  -2.598   0.631  1.00  0.00     0.149 C 
BRANCH  18  25
HETATM   25  C15 UNL     1      -2.356   2.948   0.438  1.00  0.00     0.144 C 
BRANCH  25  26
HETATM   26  C16 UNL     1      -3.359   3.220   1.483  1.00  0.00     0.143 C 
HETATM   27  O2  UNL     1      -4.596   3.537   1.364  1.00  0.00    -0.650 OA
BRANCH  26  28
HETATM   28  O3  UNL     1      -2.905   3.122   2.788  1.00  0.00    -0.776 OA
HETATM   29  H15 UNL     1      -3.505   3.388   3.554  1.00  0.00     0.167 HD
ENDBRANCH  26  28
ENDBRANCH  25  26
ENDBRANCH  18  25
ENDBRANCH   8  14
TORSDOF 7
