REMARK  9 active torsions:
REMARK  status: ('A' for Active; 'I' for Inactive)
REMARK    1  A    between atoms: O1_2  and  C2_3 
REMARK    2  A    between atoms: C6_7  and  C7_8 
REMARK    3  A    between atoms: C15_18  and  C16_19 
REMARK    4  A    between atoms: C16_19  and  C17_20 
REMARK    5  A    between atoms: C17_20  and  C18_21 
REMARK    6  A    between atoms: C17_20  and  C21_26 
REMARK    7  A    between atoms: C18_21  and  C19_22 
REMARK    8  A    between atoms: C19_22  and  C20_23 
REMARK    9  A    between atoms: C20_23  and  O4_25 
ROOT
HETATM    1  C7  UNL     1       4.072   0.607   0.142  1.00  0.00    -0.024 A 
HETATM    2  C8  UNL     1       3.419  -0.608   0.193  1.00  0.00     0.013 A 
HETATM    3  C9  UNL     1       2.048  -0.594  -0.004  1.00  0.00     0.015 A 
HETATM    4  C10 UNL     1       1.342   0.570  -0.241  1.00  0.00     0.006 A 
HETATM    5  C11 UNL     1       1.989   1.782  -0.292  1.00  0.00     0.047 A 
HETATM    6  C12 UNL     1       3.357   1.759  -0.095  1.00  0.00     0.042 A 
HETATM    7  N1  UNL     1       1.122   2.881  -0.544  1.00  0.00    -0.322 N 
HETATM    8  C13 UNL     1      -0.175   2.322  -0.662  1.00  0.00     0.257 A 
HETATM    9  O2  UNL     1      -1.144   3.094  -0.891  1.00  0.00    -0.267 OA
HETATM   10  C14 UNL     1      -0.049   0.895  -0.477  1.00  0.00     0.044 A 
HETATM   11  C15 UNL     1      -1.061   0.059  -0.524  1.00  0.00     0.018 C 
HETATM   12  H10 UNL     1       1.443   3.879  -0.616  1.00  0.00     0.169 HD
ENDROOT
BRANCH  11  13
HETATM   13  C16 UNL     1      -2.473   0.259  -0.748  1.00  0.00     0.008 C 
BRANCH  13  14
HETATM   14  C17 UNL     1      -3.481  -0.593  -0.793  1.00  0.00    -0.051 C 
BRANCH  14  15
HETATM   15  C18 UNL     1      -3.366  -2.061  -0.607  1.00  0.00     0.049 C 
BRANCH  15  16
HETATM   16  C19 UNL     1      -4.190  -2.536   0.574  1.00  0.00     0.114 C 
BRANCH  16  17
HETATM   17  C20 UNL     1      -4.043  -3.999   0.717  1.00  0.00     0.139 C 
HETATM   18  O3  UNL     1      -4.606  -4.689   1.604  1.00  0.00    -0.650 OA
BRANCH  17  19
HETATM   19  O4  UNL     1      -3.250  -4.762  -0.138  1.00  0.00    -0.776 OA
HETATM   20  H17 UNL     1      -3.537  -5.699  -0.396  1.00  0.00     0.167 HD
ENDBRANCH  17  19
ENDBRANCH  16  17
ENDBRANCH  15  16
ENDBRANCH  14  15
BRANCH  14  21
HETATM   21  C21 UNL     1      -4.818   0.015  -1.059  1.00  0.00    -0.021 A 
HETATM   22  C22 UNL     1      -6.084   0.210  -1.265  1.00  0.00     0.074 A 
HETATM   23  C23 UNL     1      -7.325  -0.019  -0.388  1.00  0.00     0.038 A 
HETATM   24  N2  UNL     1      -5.763   0.761  -2.515  1.00  0.00    -0.398 N 
HETATM   25  C26 UNL     1      -5.254   1.428  -1.332  1.00  0.00     0.117 A 
HETATM   26  C24 UNL     1      -7.305   1.409   0.230  1.00  0.00     0.005 A 
HETATM   27  C25 UNL     1      -6.104   2.104  -0.372  1.00  0.00     0.030 A 
HETATM   28  H25 UNL     1      -5.953   0.548  -3.496  1.00  0.00     0.155 HD
ENDBRANCH  14  21
ENDBRANCH  13  14
ENDBRANCH  11  13
BRANCH   1  29
HETATM   29  C6  UNL     1       5.514   0.564   0.352  1.00  0.00    -0.023 A 
HETATM   30  C5  UNL     1       6.345   1.495  -0.273  1.00  0.00     0.012 A 
HETATM   31  C4  UNL     1       7.712   1.448  -0.070  1.00  0.00     0.004 A 
HETATM   32  C3  UNL     1       8.293   0.500   0.738  1.00  0.00     0.037 A 
HETATM   33  C2  UNL     1       7.490  -0.443   1.375  1.00  0.00     0.069 A 
HETATM   34  C27 UNL     1       6.131  -0.367   1.151  1.00  0.00     0.049 A 
BRANCH  33  35
HETATM   35  O1  UNL     1       8.075  -1.403   2.194  1.00  0.00    -0.356 OA
HETATM   36  C1  UNL     1       9.493  -1.344   2.319  1.00  0.00     0.210 C 
ENDBRANCH  33  35
ENDBRANCH   1  29
TORSDOF 9
