REMARK  6 active torsions:
REMARK  status: ('A' for Active; 'I' for Inactive)
REMARK    1  A    between atoms: C2_2  and  C3_3 
REMARK    2  A    between atoms: C3_3  and  C4_4 
REMARK    3  A    between atoms: C3_3  and  O3_27 
REMARK    4  A    between atoms: C4_4  and  C5_5 
REMARK    5  A    between atoms: C6_6  and  C7_7 
REMARK    6  A    between atoms: C16_17  and  C17_18 
ROOT
HETATM    1  C7  UNL     1       0.417  -0.198   1.784  1.00  0.00    -0.035 A 
HETATM    2  C8  UNL     1       0.121  -1.155   2.685  1.00  0.00     0.009 A 
HETATM    3  C9  UNL     1      -1.247  -1.018   3.178  1.00  0.00    -0.003 A 
HETATM    4  C10 UNL     1      -1.843   0.016   2.592  1.00  0.00    -0.013 A 
HETATM    5  C11 UNL     1      -1.612   1.095   1.598  1.00  0.00     0.085 A 
HETATM    6  C12 UNL     1      -2.535   0.803   0.401  1.00  0.00     0.015 C 
HETATM    7  C13 UNL     1      -2.405   0.524  -0.902  1.00  0.00     0.006 C 
HETATM    8  C14 UNL     1      -2.268  -0.978  -1.132  1.00  0.00     0.043 C 
HETATM    9  C15 UNL     1      -3.550  -1.473  -1.594  1.00  0.00     0.184 C 
HETATM   10  O1  UNL     1      -4.575  -1.573  -0.676  1.00  0.00    -0.351 OA
HETATM   11  C16 UNL     1      -5.271  -0.934   0.340  1.00  0.00     0.090 C 
HETATM   12  C18 UNL     1      -4.878  -0.006   1.236  1.00  0.00     0.122 C 
HETATM   13  N1  UNL     1      -3.709   0.876   1.252  1.00  0.00    -0.366 N 
HETATM   14  C19 UNL     1      -1.020  -1.039  -1.847  1.00  0.00     0.113 C 
HETATM   15  C20 UNL     1      -0.094   0.062  -1.420  1.00  0.00     0.218 C 
HETATM   16  O2  UNL     1       0.806   0.260  -2.275  1.00  0.00    -0.274 OA
HETATM   17  N2  UNL     1      -0.021   0.907  -0.280  1.00  0.00    -0.351 N 
HETATM   18  C21 UNL     1      -0.178   0.976   1.154  1.00  0.00     0.131 A 
HETATM   19  H20 UNL     1      -3.551   1.684   1.885  1.00  0.00     0.165 HD
HETATM   20  H23 UNL     1       0.257   1.889  -0.618  1.00  0.00     0.163 HD
ENDROOT
BRANCH   1  21
HETATM   21  C6  UNL     1       1.764  -0.544   1.456  1.00  0.00     0.009 C 
HETATM   22  C5  UNL     1       2.430   0.171   0.590  1.00  0.00     0.003 C 
BRANCH  22  23
HETATM   23  C4  UNL     1       3.712   0.225  -0.028  1.00  0.00     0.032 C 
BRANCH  23  24
HETATM   24  C3  UNL     1       4.829   0.361  -0.637  1.00  0.00     0.045 C 
BRANCH  24  25
HETATM   25  C2  UNL     1       6.184  -0.180  -0.815  1.00  0.00     0.060 C 
HETATM   26  C1  UNL     1       6.366  -0.526  -2.277  1.00  0.00     0.012 C 
ENDBRANCH  24  25
BRANCH  24  27
HETATM   27  O3  UNL     1       4.394   1.470  -1.324  1.00  0.00    -0.360 OA
HETATM   28  C22 UNL     1       4.521   2.787  -0.836  1.00  0.00     0.209 C 
ENDBRANCH  24  27
ENDBRANCH  23  24
ENDBRANCH  22  23
ENDBRANCH   1  21
BRANCH  11  29
HETATM   29  C17 UNL     1      -6.681  -1.208   0.608  1.00  0.00     0.288 C 
HETATM   30  F1  UNL     1      -7.147  -0.452   1.657  1.00  0.00    -0.248 F 
ENDBRANCH  11  29
TORSDOF 6
