REMARK  9 active torsions:
REMARK  status: ('A' for Active; 'I' for Inactive)
REMARK    1  A    between atoms: C2_2  and  N1_3 
REMARK    2  A    between atoms: C2_2  and  C18_24 
REMARK    3  A    between atoms: N1_3  and  C3_4 
REMARK    4  A    between atoms: C3_4  and  C4_5 
REMARK    5  A    between atoms: C4_5  and  C5_6 
REMARK    6  A    between atoms: C5_6  and  C6_7 
REMARK    7  A    between atoms: C5_6  and  C14_18 
REMARK    8  A    between atoms: C7_8  and  N2_9 
REMARK    9  A    between atoms: N2_9  and  C8_10 
REMARK       I    between atoms: C18_24  and  N5_25 
ROOT
HETATM    1  C5  UNL     1       0.091  -1.365  -0.787  1.00  0.00     0.036 C 
ENDROOT
BRANCH   1   2
HETATM    2  C4  UNL     1       0.918  -0.219  -0.404  1.00  0.00     0.041 C 
BRANCH   2   3
HETATM    3  C3  UNL     1       2.418  -0.511  -0.374  1.00  0.00     0.271 C 
BRANCH   3   4
HETATM    4  N1  UNL     1       3.045   0.719   0.012  1.00  0.00     0.096 N 
HETATM    5  H5  UNL     1       2.706   1.590  -0.404  1.00  0.00     0.316 HD
BRANCH   4   6
HETATM    6  C2  UNL     1       4.457   0.585   0.020  1.00  0.00     0.307 C 
HETATM    7  C1  UNL     1       5.033   0.342  -1.370  1.00  0.00     0.053 C 
BRANCH   6   8
HETATM    8  C18 UNL     1       5.018   1.865   0.584  1.00  0.00     0.248 C 
HETATM    9  N5  UNL     1       6.419   2.120   0.720  1.00  0.00    -0.368 N 
HETATM   10  H22 UNL     1       6.870   3.033   0.443  1.00  0.00     0.159 HD
HETATM   11  H23 UNL     1       7.415   2.067   0.927  1.00  0.00     0.159 HD
HETATM   12  O1  UNL     1       4.312   2.835   0.996  1.00  0.00    -0.271 OA
ENDBRANCH   6   8
ENDBRANCH   4   6
ENDBRANCH   3   4
ENDBRANCH   2   3
ENDBRANCH   1   2
BRANCH   1  13
HETATM   13  C6  UNL     1      -1.342  -1.074  -0.849  1.00  0.00    -0.003 C 
HETATM   14  C7  UNL     1      -1.707   0.101  -0.383  1.00  0.00     0.085 C 
BRANCH  14  15
HETATM   15  N2  UNL     1      -2.924   0.743  -0.271  1.00  0.00    -0.364 N 
HETATM   16  H13 UNL     1      -3.030   0.705  -1.324  1.00  0.00     0.165 HD
BRANCH  15  17
HETATM   17  C8  UNL     1      -4.155   1.391  -0.164  1.00  0.00     0.072 A 
HETATM   18  C9  UNL     1      -5.407   0.807  -0.211  1.00  0.00     0.033 A 
HETATM   19  C10 UNL     1      -6.511   1.620  -0.038  1.00  0.00     0.004 A 
HETATM   20  C11 UNL     1      -6.295   2.944   0.168  1.00  0.00     0.027 A 
HETATM   21  C12 UNL     1      -5.085   3.596   0.229  1.00  0.00     0.074 A 
HETATM   22 CL1  UNL     1      -4.863   5.309   0.512  1.00  0.00    -0.081 Cl
HETATM   23  C13 UNL     1      -3.982   2.765   0.048  1.00  0.00     0.164 A 
HETATM   24  F1  UNL     1      -2.779   3.400   0.111  1.00  0.00    -0.202 F 
ENDBRANCH  15  17
ENDBRANCH  14  15
ENDBRANCH   1  13
BRANCH   1  25
HETATM   25  C14 UNL     1       0.290  -2.602   0.058  1.00  0.00     0.122 A 
HETATM   26  C15 UNL     1       0.022  -2.504   1.495  1.00  0.00     0.075 A 
HETATM   27  C16 UNL     1      -0.937  -3.478   2.078  1.00  0.00     0.093 A 
HETATM   28  N3  UNL     1      -1.540  -4.363   1.388  1.00  0.00    -0.259 NA
HETATM   29  C17 UNL     1      -1.270  -4.418  -0.001  1.00  0.00     0.226 A 
HETATM   30  N4  UNL     1      -0.462  -3.634  -0.578  1.00  0.00    -0.277 NA
ENDBRANCH   1  25
TORSDOF 9
