REMARK  8 active torsions:
REMARK  status: ('A' for Active; 'I' for Inactive)
REMARK    1  A    between atoms: N1_2  and  C2_3 
REMARK    2  A    between atoms: C9_10  and  O1_11 
REMARK    3  A    between atoms: C18_20  and  C19_21 
REMARK    4  A    between atoms: C19_21  and  C20_22 
REMARK    5  A    between atoms: C20_22  and  C21_23 
REMARK    6  A    between atoms: C21_23  and  O2_24 
REMARK    7  A    between atoms: O2_24  and  C22_25 
REMARK    8  A    between atoms: N2_31  and  O3_32 
ROOT
HETATM    1  C2  UNL     1      -2.956  -0.452   0.711  1.00  0.00     0.225 A 
HETATM    2  C3  UNL     1      -2.860   0.294   1.984  1.00  0.00    -0.003 A 
HETATM    3  C4  UNL     1      -3.189   1.115   2.958  1.00  0.00     0.011 C 
HETATM    4  C5  UNL     1      -4.477   1.583   2.346  1.00  0.00     0.008 C 
HETATM    5  C6  UNL     1      -4.840   1.095   1.123  1.00  0.00    -0.047 C 
HETATM    6  C7  UNL     1      -6.111   1.833   0.985  1.00  0.00     0.011 C 
HETATM    7  C8  UNL     1      -7.215   1.993   0.230  1.00  0.00     0.037 C 
HETATM    8  C9  UNL     1      -7.554   1.269  -1.021  1.00  0.00     0.068 C 
HETATM    9  C11 UNL     1      -7.224   0.038  -1.481  1.00  0.00     0.036 C 
HETATM   10  C12 UNL     1      -6.382  -0.998  -0.831  1.00  0.00    -0.001 C 
HETATM   11  C13 UNL     1      -5.213  -0.842  -0.240  1.00  0.00    -0.014 C 
HETATM   12  C14 UNL     1      -4.185   0.171   0.102  1.00  0.00     0.089 C 
HETATM   13  C15 UNL     1      -1.679  -0.139   1.085  1.00  0.00     0.024 A 
HETATM   14  C16 UNL     1      -0.401  -0.249   0.712  1.00  0.00     0.074 A 
HETATM   15  C17 UNL     1       0.255  -0.840  -0.422  1.00  0.00     0.060 A 
HETATM   16  C18 UNL     1       1.451  -0.492   0.022  1.00  0.00     0.043 A 
HETATM   17  N2  UNL     1       0.910   0.120   1.178  1.00  0.00    -0.228 N 
ENDROOT
BRANCH   1  18
HETATM   18  N1  UNL     1      -3.219  -1.950   0.868  1.00  0.00     0.099 N 
HETATM   19  C1  UNL     1      -2.888  -2.495  -0.443  1.00  0.00     0.308 C 
HETATM   20  H4  UNL     1      -2.547  -2.347   1.546  1.00  0.00     0.317 HD
ENDBRANCH   1  18
BRANCH  17  21
HETATM   21  O3  UNL     1       1.230   0.788   2.310  1.00  0.00    -0.282 OA
HETATM   22  H32 UNL     1       1.937   1.474   2.179  1.00  0.00     0.245 HD
ENDBRANCH  17  21
BRANCH  16  23
HETATM   23  C19 UNL     1       2.878  -0.600  -0.369  1.00  0.00     0.062 C 
BRANCH  23  24
HETATM   24  C20 UNL     1       3.677  -1.344   0.654  1.00  0.00     0.033 C 
BRANCH  24  25
HETATM   25  C21 UNL     1       5.137  -1.489   0.319  1.00  0.00     0.175 C 
BRANCH  25  26
HETATM   26  O2  UNL     1       5.721  -0.221   0.191  1.00  0.00    -0.356 OA
BRANCH  26  27
HETATM   27  C22 UNL     1       7.051   0.001  -0.110  1.00  0.00     0.042 C 
HETATM   28  C23 UNL     1       8.010  -0.915  -0.066  1.00  0.00     0.005 C 
HETATM   29  C24 UNL     1       9.405  -0.537  -0.417  1.00  0.00     0.029 C 
HETATM   30  C25 UNL     1       9.373   0.245  -1.694  1.00  0.00     0.004 C 
HETATM   31  C26 UNL     1       8.373   1.358  -1.706  1.00  0.00     0.007 C 
HETATM   32  C27 UNL     1       7.451   1.371  -0.517  1.00  0.00     0.064 C 
ENDBRANCH  26  27
ENDBRANCH  25  26
ENDBRANCH  24  25
ENDBRANCH  23  24
ENDBRANCH  16  23
BRANCH   8  33
HETATM   33  O1  UNL     1      -8.362   2.000  -1.874  1.00  0.00    -0.356 OA
HETATM   34  C10 UNL     1      -9.743   1.640  -1.993  1.00  0.00     0.210 C 
ENDBRANCH   8  33
TORSDOF 8
