REMARK  3 active torsions:
REMARK  status: ('A' for Active; 'I' for Inactive)
REMARK    1  A    between atoms: C8_8  and  C9_9 
REMARK       I    between atoms: C9_9  and  N1_11 
REMARK    2  A    between atoms: N1_11  and  C10_12 
REMARK    3  A    between atoms: C16_18  and  S1_19 
ROOT
HETATM    1  C1  UNL     1      -3.283   2.949  -0.792  1.00  0.00     0.048 C 
HETATM    2  C2  UNL     1      -3.082   1.503  -0.447  1.00  0.00    -0.061 A 
HETATM    3  C3  UNL     1      -4.191   0.695  -0.342  1.00  0.00     0.009 A 
HETATM    4  C4  UNL     1      -3.989  -0.618  -0.028  1.00  0.00     0.031 A 
HETATM    5  C5  UNL     1      -2.724  -1.121   0.178  1.00  0.00     0.046 A 
HETATM    6  C6  UNL     1      -1.613  -0.313   0.072  1.00  0.00     0.010 A 
HETATM    7  C7  UNL     1      -1.820   1.007  -0.244  1.00  0.00     0.021 A 
HETATM    8  C8  UNL     1      -0.425  -0.963   0.310  1.00  0.00     0.078 A 
HETATM    9  C16 UNL     1      -0.878  -2.263   0.579  1.00  0.00     0.086 A 
HETATM   10  N2  UNL     1      -2.196  -2.305   0.492  1.00  0.00    -0.344 N 
HETATM   11  C17 UNL     1      -3.069  -3.469   0.698  1.00  0.00     0.157 C 
ENDROOT
BRANCH   8  12
HETATM   12  C9  UNL     1       0.965  -0.639   0.308  1.00  0.00     0.259 C 
HETATM   13  O1  UNL     1       1.783  -1.521   0.744  1.00  0.00    -0.267 OA
HETATM   14  N1  UNL     1       1.720   0.473  -0.077  1.00  0.00    -0.323 N 
HETATM   15  H7  UNL     1       1.120   1.230  -0.459  1.00  0.00     0.169 HD
BRANCH  14  16
HETATM   16  C10 UNL     1       3.103   0.752  -0.059  1.00  0.00     0.035 A 
HETATM   17  C11 UNL     1       4.127  -0.055   0.373  1.00  0.00     0.029 A 
HETATM   18  C12 UNL     1       5.462   0.273   0.366  1.00  0.00     0.002 A 
HETATM   19  C13 UNL     1       5.808   1.512  -0.111  1.00  0.00     0.000 A 
HETATM   20  C14 UNL     1       4.842   2.377  -0.561  1.00  0.00     0.002 A 
HETATM   21  C15 UNL     1       3.542   1.984  -0.524  1.00  0.00     0.029 A 
ENDBRANCH  14  16
ENDBRANCH   8  12
BRANCH   9  22
HETATM   22  S1  UNL     1       0.078  -3.741   0.993  1.00  0.00    -0.124 SA
HETATM   23  H13 UNL     1       0.497  -4.321  -0.215  1.00  0.00     0.108 HD
ENDBRANCH   9  22
TORSDOF 3
