REMARK  5 active torsions:
REMARK  status: ('A' for Active; 'I' for Inactive)
REMARK    1  A    between atoms: C2_2  and  N1_3 
REMARK    2  A    between atoms: N1_3  and  C3_4 
REMARK    3  A    between atoms: C3_4  and  C4_5 
REMARK    4  A    between atoms: C9_10  and  C10_11 
REMARK    5  A    between atoms: C13_14  and  O1_15 
ROOT
HETATM    1  C4  UNL     1      -2.405  -1.050   0.306  1.00  0.00     0.012 C 
HETATM    2  C5  UNL     1      -2.482  -0.089   1.219  1.00  0.00    -0.011 C 
HETATM    3  C6  UNL     1      -1.722   1.031   0.744  1.00  0.00     0.055 C 
HETATM    4  C7  UNL     1      -0.629   1.494   1.581  1.00  0.00    -0.022 C 
HETATM    5  C8  UNL     1       0.532   1.310   0.951  1.00  0.00     0.008 C 
HETATM    6  C9  UNL     1       0.886   0.737  -0.321  1.00  0.00    -0.030 C 
HETATM    7  C17 UNL     1       0.405   0.121  -1.388  1.00  0.00    -0.007 C 
HETATM    8  C18 UNL     1      -0.838  -0.406  -1.979  1.00  0.00     0.111 C 
HETATM    9  C19 UNL     1      -1.710  -1.076  -0.956  1.00  0.00     0.160 C 
HETATM   10  O2  UNL     1      -1.968  -2.253  -1.432  1.00  0.00    -0.292 OA
ENDROOT
BRANCH   6  11
HETATM   11  C10 UNL     1       2.350   0.945  -0.533  1.00  0.00    -0.026 A 
HETATM   12  C11 UNL     1       3.030   0.921  -1.758  1.00  0.00     0.015 A 
HETATM   13  C12 UNL     1       4.380   1.001  -1.907  1.00  0.00     0.037 A 
HETATM   14  C13 UNL     1       5.222   1.120  -0.788  1.00  0.00     0.068 A 
HETATM   15  C15 UNL     1       4.617   1.148   0.424  1.00  0.00     0.037 A 
HETATM   16  C16 UNL     1       3.260   1.063   0.507  1.00  0.00     0.015 A 
BRANCH  14  17
HETATM   17  O1  UNL     1       6.538   1.182  -1.175  1.00  0.00    -0.356 OA
HETATM   18  C14 UNL     1       7.591   1.290  -0.281  1.00  0.00     0.210 C 
ENDBRANCH  14  17
ENDBRANCH   6  11
BRANCH   1  19
HETATM   19  C3  UNL     1      -3.184  -2.262   0.738  1.00  0.00     0.311 C 
BRANCH  19  20
HETATM   20  N1  UNL     1      -4.286  -2.464  -0.247  1.00  0.00     0.087 N 
HETATM   21  H6  UNL     1      -4.758  -3.333   0.137  1.00  0.00     0.316 HD
BRANCH  20  22
HETATM   22  C2  UNL     1      -5.211  -1.331  -0.055  1.00  0.00     0.265 C 
HETATM   23  C1  UNL     1      -5.916  -1.429   1.276  1.00  0.00     0.037 C 
ENDBRANCH  20  22
ENDBRANCH  19  20
ENDBRANCH   1  19
TORSDOF 5
