REMARK  4 active torsions:
REMARK  status: ('A' for Active; 'I' for Inactive)
REMARK    1  A    between atoms: O1_2  and  C2_3 
REMARK    2  A    between atoms: C5_6  and  C6_7 
REMARK    3  A    between atoms: C14_17  and  C15_18 
REMARK    4  A    between atoms: C16_19  and  C17_20 
ROOT
HETATM    1  C17 UNL     1      -3.742  -2.087  -0.340  1.00  0.00     0.165 C 
HETATM    2  C18 UNL     1      -4.667  -2.645  -1.321  1.00  0.00     0.063 C 
HETATM    3  N2  UNL     1      -5.401  -3.082  -2.083  1.00  0.00    -0.197 NA
ENDROOT
BRANCH   1   4
HETATM    4  C16 UNL     1      -4.088  -0.722   0.104  1.00  0.00    -0.013 C 
HETATM    5  C15 UNL     1      -3.238   0.324  -0.111  1.00  0.00     0.037 C 
HETATM    6  N3  UNL     1      -4.143   1.424  -0.485  1.00  0.00    -0.382 N 
HETATM    7  C21 UNL     1      -5.577   1.490  -0.059  1.00  0.00     0.105 C 
HETATM    8  H21 UNL     1      -3.726   2.186  -1.083  1.00  0.00     0.160 HD
HETATM    9  C20 UNL     1      -5.491   0.946   1.324  1.00  0.00     0.006 C 
HETATM   10  C22 UNL     1      -6.431   0.565  -0.867  1.00  0.00     0.029 C 
HETATM   11  C19 UNL     1      -5.265  -0.276   0.868  1.00  0.00    -0.051 C 
HETATM   12  C24 UNL     1      -6.426  -1.223   0.892  1.00  0.00     0.039 C 
HETATM   13  C23 UNL     1      -7.336  -0.381  -0.086  1.00  0.00     0.007 C 
BRANCH   5  14
HETATM   14  C14 UNL     1      -1.835   0.248  -0.038  1.00  0.00     0.047 C 
HETATM   15  C13 UNL     1      -0.690   0.879  -0.136  1.00  0.00     0.047 A 
HETATM   16  C9  UNL     1       0.698   0.469   0.009  1.00  0.00     0.006 A 
HETATM   17  C12 UNL     1      -0.665   2.304  -0.433  1.00  0.00     0.257 A 
HETATM   18  C8  UNL     1       1.170  -0.792   0.293  1.00  0.00     0.015 A 
HETATM   19  C10 UNL     1       1.480   1.574  -0.188  1.00  0.00     0.047 A 
HETATM   20  C7  UNL     1       2.517  -1.012   0.397  1.00  0.00     0.013 A 
HETATM   21  C6  UNL     1       3.374   0.050   0.212  1.00  0.00    -0.024 A 
HETATM   22  C11 UNL     1       2.829   1.275  -0.067  1.00  0.00     0.042 A 
HETATM   23  N1  UNL     1       0.693   2.722  -0.462  1.00  0.00    -0.322 N 
HETATM   24  H9  UNL     1       1.220   3.608  -0.625  1.00  0.00     0.169 HD
HETATM   25  O2  UNL     1      -1.426   3.276  -0.667  1.00  0.00    -0.267 OA
BRANCH  21  26
HETATM   26  C5  UNL     1       4.815  -0.150   0.317  1.00  0.00    -0.026 A 
HETATM   27  C4  UNL     1       5.695   0.824   0.761  1.00  0.00     0.015 A 
HETATM   28  C3  UNL     1       7.041   0.593   0.843  1.00  0.00     0.037 A 
HETATM   29  C2  UNL     1       7.560  -0.619   0.486  1.00  0.00     0.068 A 
HETATM   30  C26 UNL     1       6.690  -1.617   0.034  1.00  0.00     0.037 A 
HETATM   31  C25 UNL     1       5.318  -1.390  -0.053  1.00  0.00     0.015 A 
BRANCH  29  32
HETATM   32  O1  UNL     1       8.860  -1.056   0.491  1.00  0.00    -0.356 OA
HETATM   33  C1  UNL     1       9.872  -0.167   0.922  1.00  0.00     0.210 C 
ENDBRANCH  29  32
ENDBRANCH  21  26
ENDBRANCH   5  14
ENDBRANCH   1   4
TORSDOF 4
