REMARK  6 active torsions:
REMARK  status: ('A' for Active; 'I' for Inactive)
REMARK    1  A    between atoms: O1_2  and  C2_3 
REMARK    2  A    between atoms: C4_5  and  N1_6 
REMARK    3  A    between atoms: C12_15  and  C13_16 
REMARK    4  A    between atoms: C13_16  and  C14_17 
REMARK    5  A    between atoms: C14_17  and  C15_18 
REMARK    6  A    between atoms: C16_19  and  C17_20 
ROOT
HETATM    1  C2  UNL     1      -5.234   0.398   0.968  1.00  0.00     0.054 C 
HETATM    2  C3  UNL     1      -4.811  -0.857   1.406  1.00  0.00     0.137 C 
HETATM    3  C4  UNL     1      -3.317  -0.820   1.415  1.00  0.00     0.100 C 
HETATM    4  C5  UNL     1      -1.991  -1.082   1.523  1.00  0.00     0.014 C 
HETATM    5  C6  UNL     1      -0.975  -2.102   1.880  1.00  0.00     0.066 C 
HETATM    6  N2  UNL     1      -1.124   0.081   1.282  1.00  0.00    -0.360 N 
HETATM    7  C7  UNL     1      -1.500   1.032   0.338  1.00  0.00     0.043 A 
HETATM    8  C8  UNL     1      -2.776   1.465   0.296  1.00  0.00     0.037 A 
HETATM    9  C9  UNL     1      -3.882   2.117  -0.108  1.00  0.00    -0.053 A 
HETATM   10  C10 UNL     1      -3.250   2.742  -1.159  1.00  0.00     0.008 A 
HETATM   11  C11 UNL     1      -1.923   2.592  -1.493  1.00  0.00     0.014 A 
HETATM   12  C12 UNL     1      -1.119   1.763  -0.753  1.00  0.00    -0.009 A 
HETATM   13  C26 UNL     1      -5.202   1.894   0.440  1.00  0.00     0.071 C 
HETATM   14  H10 UNL     1      -0.287   0.625   1.479  1.00  0.00     0.165 HD
ENDROOT
BRANCH  12  15
HETATM   15  C13 UNL     1       0.254   1.480  -1.033  1.00  0.00     0.016 C 
BRANCH  15  16
HETATM   16  C14 UNL     1       1.422   0.971  -1.020  1.00  0.00     0.039 C 
BRANCH  16  17
HETATM   17  C15 UNL     1       2.681   1.138  -1.672  1.00  0.00     0.086 C 
HETATM   18  C16 UNL     1       3.704   0.378  -1.375  1.00  0.00    -0.018 C 
HETATM   19  C23 UNL     1       4.892   0.705  -2.197  1.00  0.00     0.052 C 
HETATM   20  C24 UNL     1       4.447   1.286  -3.554  1.00  0.00     0.116 C 
HETATM   21  C25 UNL     1       3.674   2.522  -3.318  1.00  0.00     0.264 C 
HETATM   22  O2  UNL     1       4.048   3.631  -3.748  1.00  0.00    -0.265 OA
HETATM   23  O3  UNL     1       2.532   2.183  -2.571  1.00  0.00    -0.278 OA
BRANCH  18  24
HETATM   24  C17 UNL     1       3.620  -0.670  -0.374  1.00  0.00    -0.053 C 
HETATM   25  C18 UNL     1       4.828  -1.277  -0.262  1.00  0.00    -0.019 C 
HETATM   26  C19 UNL     1       5.165  -2.421   0.668  1.00  0.00     0.027 C 
HETATM   27  C20 UNL     1       4.773  -1.915   2.071  1.00  0.00     0.004 C 
HETATM   28  C21 UNL     1       3.398  -1.296   2.017  1.00  0.00     0.005 C 
HETATM   29  C22 UNL     1       2.826  -1.406   0.600  1.00  0.00     0.039 C 
ENDBRANCH  18  24
ENDBRANCH  16  17
ENDBRANCH  15  16
ENDBRANCH  12  15
BRANCH   3  30
HETATM   30  N1  UNL     1      -3.555  -2.190   1.877  1.00  0.00    -0.414 N 
HETATM   31  H5  UNL     1      -3.681  -3.199   2.150  1.00  0.00     0.151 HD
HETATM   32  H6  UNL     1      -3.534  -3.251   1.959  1.00  0.00     0.151 HD
ENDBRANCH   3  30
BRANCH   1  33
HETATM   33  O1  UNL     1      -6.596   0.005   1.099  1.00  0.00    -0.389 OA
HETATM   34  C1  UNL     1      -7.443  -0.246   0.027  1.00  0.00     0.202 C 
ENDBRANCH   1  33
TORSDOF 6
