REMARK  3 active torsions:
REMARK  status: ('A' for Active; 'I' for Inactive)
REMARK    1  A    between atoms: C4_4  and  C5_5 
REMARK    2  A    between atoms: C9_10  and  C10_11 
REMARK       I    between atoms: C10_11  and  N2_13 
REMARK    3  A    between atoms: N2_13  and  C11_14 
ROOT
HETATM    1  C5  UNL     1      -4.362  -2.061   0.558  1.00  0.00     0.011 C 
HETATM    2  C6  UNL     1      -5.352  -2.953   0.411  1.00  0.00     0.093 C 
HETATM    3  C7  UNL     1      -6.673  -2.666   0.835  1.00  0.00     0.087 C 
HETATM    4  N1  UNL     1      -7.742  -2.417   1.188  1.00  0.00    -0.192 NA
ENDROOT
BRANCH   1   5
HETATM    5  C4  UNL     1      -3.035  -2.430   0.098  1.00  0.00     0.006 C 
HETATM    6  C3  UNL     1      -2.096  -1.531   0.259  1.00  0.00    -0.049 A 
HETATM    7  C2  UNL     1      -1.884  -0.263   0.742  1.00  0.00     0.026 A 
HETATM    8  C8  UNL     1      -0.700  -1.020   0.155  1.00  0.00     0.050 A 
HETATM    9  C1  UNL     1      -1.693  -0.333   2.370  1.00  0.00     0.027 C 
HETATM   10  C22 UNL     1      -1.576   1.092   0.377  1.00  0.00    -0.033 A 
HETATM   11  C16 UNL     1      -0.204   1.086   0.281  1.00  0.00    -0.014 A 
HETATM   12  C21 UNL     1      -2.429   2.170   0.344  1.00  0.00     0.011 A 
HETATM   13  C9  UNL     1       0.358  -0.271   0.141  1.00  0.00     0.036 C 
HETATM   14  C17 UNL     1       0.329   2.373   0.145  1.00  0.00     0.035 A 
HETATM   15  C18 UNL     1      -0.434   3.532   0.103  1.00  0.00     0.045 A 
HETATM   16  C19 UNL     1       0.160   4.830  -0.038  1.00  0.00     0.099 C 
HETATM   17  C20 UNL     1      -1.826   3.422   0.202  1.00  0.00     0.023 A 
HETATM   18  N3  UNL     1       0.631   5.881  -0.163  1.00  0.00    -0.191 NA
BRANCH  13  19
HETATM   19  C10 UNL     1       1.683  -0.602  -0.290  1.00  0.00     0.254 C 
HETATM   20  O1  UNL     1       1.720  -1.810  -0.724  1.00  0.00    -0.268 OA
HETATM   21  N2  UNL     1       2.939  -0.011  -0.378  1.00  0.00    -0.322 N 
HETATM   22  H7  UNL     1       2.907   0.955  -0.010  1.00  0.00     0.169 HD
BRANCH  21  23
HETATM   23  C11 UNL     1       4.073  -0.659  -0.881  1.00  0.00     0.053 C 
HETATM   24  C12 UNL     1       4.009  -1.886  -1.305  1.00  0.00     0.051 C 
HETATM   25  S1  UNL     1       5.132  -2.288  -2.386  1.00  0.00    -0.098 SA
HETATM   26  C13 UNL     1       6.478  -1.368  -2.364  1.00  0.00     0.050 C 
HETATM   27  C14 UNL     1       6.389  -0.175  -1.554  1.00  0.00     0.009 C 
HETATM   28  C15 UNL     1       5.289   0.130  -0.888  1.00  0.00     0.031 C 
ENDBRANCH  21  23
ENDBRANCH  13  19
ENDBRANCH   1   5
TORSDOF 3
