REMARK  5 active torsions:
REMARK  status: ('A' for Active; 'I' for Inactive)
REMARK    1  A    between atoms: C2_2  and  C3_3 
REMARK    2  A    between atoms: C2_2  and  C5_7 
REMARK    3  A    between atoms: C2_2  and  N2_15 
REMARK    4  A    between atoms: C10_12  and  O1_13 
REMARK    5  A    between atoms: O1_13  and  O2_14 
ROOT
HETATM    1  C3  UNL     1      -0.730   1.504  -0.719  1.00  0.00     0.017 C 
HETATM    2  C4  UNL     1      -0.138   2.581  -0.225  1.00  0.00     0.199 C 
HETATM    3  S1  UNL     1      -0.163   3.951  -1.009  1.00  0.00    -0.084 SA
HETATM    4  N1  UNL     1      -0.195   5.044  -1.655  1.00  0.00    -0.126 N 
ENDROOT
BRANCH   1   5
HETATM    5  C2  UNL     1      -0.458   0.444   0.345  1.00  0.00     0.077 C 
HETATM    6  C1  UNL     1      -1.146   0.929   1.612  1.00  0.00     0.049 C 
BRANCH   5   7
HETATM    7  C5  UNL     1       0.981   0.291   0.525  1.00  0.00     0.010 A 
HETATM    8  C6  UNL     1       1.496   0.494   1.811  1.00  0.00     0.013 A 
HETATM    9  C7  UNL     1       2.840   0.354   2.107  1.00  0.00     0.001 A 
HETATM   10  C8  UNL     1       3.739   0.001   1.120  1.00  0.00     0.003 A 
HETATM   11  C9  UNL     1       3.261  -0.208  -0.170  1.00  0.00     0.040 A 
HETATM   12  C10 UNL     1       1.912  -0.055  -0.410  1.00  0.00     0.115 A 
BRANCH  12  13
HETATM   13  O1  UNL     1       1.504  -0.268  -1.691  1.00  0.00    -0.200 OA
BRANCH  13  14
HETATM   14  O2  UNL     1       2.225  -0.605  -2.738  1.00  0.00    -0.245 OA
HETATM   15  H10 UNL     1       2.756   0.122  -3.125  1.00  0.00     0.254 HD
ENDBRANCH  13  14
ENDBRANCH  12  13
ENDBRANCH   5   7
BRANCH   5  16
HETATM   16  N2  UNL     1      -1.170  -0.745  -0.074  1.00  0.00    -0.370 N 
HETATM   17  C11 UNL     1      -2.507  -0.420  -0.453  1.00  0.00     0.087 A 
HETATM   18  C12 UNL     1      -3.427  -1.279  -0.850  1.00  0.00     0.017 A 
HETATM   19  C13 UNL     1      -3.114  -2.700  -0.932  1.00  0.00    -0.001 A 
HETATM   20  C14 UNL     1      -1.873  -2.985  -0.581  1.00  0.00    -0.007 A 
HETATM   21  C15 UNL     1      -0.767  -2.130  -0.130  1.00  0.00     0.151 A 
ENDBRANCH   5  16
ENDBRANCH   1   5
TORSDOF 5
