REMARK  4 active torsions:
REMARK  status: ('A' for Active; 'I' for Inactive)
REMARK    1  A    between atoms: O1_2  and  C2_3 
REMARK    2  A    between atoms: C6_7  and  C7_8 
REMARK       I    between atoms: C7_8  and  N1_10 
REMARK    3  A    between atoms: N1_10  and  C8_11 
REMARK    4  A    between atoms: C14_17  and  S1_18 
ROOT
HETATM    1  C2  UNL     1      -2.398   1.245   2.590  1.00  0.00     0.070 A 
HETATM    2  C3  UNL     1      -1.116   1.740   2.472  1.00  0.00     0.038 A 
HETATM    3  C4  UNL     1      -0.313   1.253   1.463  1.00  0.00     0.017 A 
HETATM    4  C5  UNL     1      -0.699   0.298   0.553  1.00  0.00     0.009 A 
HETATM    5  C6  UNL     1      -0.170  -0.377  -0.526  1.00  0.00     0.079 A 
HETATM    6  C14 UNL     1      -1.174  -1.212  -0.959  1.00  0.00     0.104 A 
HETATM    7  N2  UNL     1      -2.285  -1.098  -0.220  1.00  0.00    -0.343 N 
HETATM    8  C15 UNL     1      -3.533  -1.828  -0.394  1.00  0.00     0.157 C 
HETATM    9  C16 UNL     1      -2.008  -0.173   0.714  1.00  0.00     0.049 A 
HETATM   10  C17 UNL     1      -2.857   0.286   1.716  1.00  0.00     0.067 A 
ENDROOT
BRANCH   5  11
HETATM   11  C7  UNL     1       1.189  -0.135  -0.984  1.00  0.00     0.260 C 
HETATM   12  O2  UNL     1       1.882   0.715  -0.366  1.00  0.00    -0.267 OA
HETATM   13  N1  UNL     1       1.860  -0.744  -2.064  1.00  0.00    -0.323 N 
HETATM   14  H6  UNL     1       1.332  -1.457  -2.612  1.00  0.00     0.169 HD
BRANCH  13  15
HETATM   15  C8  UNL     1       3.184  -0.223  -2.175  1.00  0.00     0.035 A 
HETATM   16  C9  UNL     1       4.132  -0.931  -1.439  1.00  0.00     0.029 A 
HETATM   17  C10 UNL     1       5.436  -0.502  -1.485  1.00  0.00     0.002 A 
HETATM   18  C11 UNL     1       5.820   0.599  -2.234  1.00  0.00     0.000 A 
HETATM   19  C12 UNL     1       4.874   1.297  -2.961  1.00  0.00     0.002 A 
HETATM   20  C13 UNL     1       3.550   0.877  -2.927  1.00  0.00     0.029 A 
ENDBRANCH  13  15
ENDBRANCH   5  11
BRANCH   6  21
HETATM   21  S1  UNL     1      -1.021  -2.312  -2.333  1.00  0.00     0.000 SA
HETATM   22 CL1  UNL     1      -2.728  -3.424  -2.706  1.00  0.00    -0.037 Cl
ENDBRANCH   6  21
BRANCH   1  23
HETATM   23  O1  UNL     1      -3.176   1.768   3.629  1.00  0.00    -0.356 OA
HETATM   24  C1  UNL     1      -4.493   1.260   3.751  1.00  0.00     0.210 C 
ENDBRANCH   1  23
TORSDOF 4
