REMARK  11 active torsions:
REMARK  status: ('A' for Active; 'I' for Inactive)
REMARK    1  A    between atoms: O1_2  and  C2_3 
REMARK    2  A    between atoms: C2_3  and  C3_4 
REMARK    3  A    between atoms: C3_4  and  C4_5 
REMARK    4  A    between atoms: C3_4  and  C14_18 
REMARK    5  A    between atoms: C5_6  and  C6_7 
REMARK    6  A    between atoms: C6_7  and  C7_8 
REMARK    7  A    between atoms: C7_8  and  N1_9 
REMARK    8  A    between atoms: N1_9  and  C8_10 
REMARK    9  A    between atoms: C14_18  and  N2_19 
REMARK   10  A    between atoms: N2_19  and  C16_21 
REMARK   11  A    between atoms: C16_21  and  C18_23 
REMARK       I    between atoms: C18_23  and  N3_24 
ROOT
HETATM    1  C3  UNL     1      -1.306  -0.019  -1.168  1.00  0.00    -0.039 C 
ENDROOT
BRANCH   1   2
HETATM    2  C2  UNL     1      -1.778  -0.500  -2.481  1.00  0.00     0.203 C 
BRANCH   2   3
HETATM    3  O1  UNL     1      -0.767  -0.235  -3.437  1.00  0.00    -0.392 OA
HETATM    4  C1  UNL     1       0.330  -1.059  -3.264  1.00  0.00     0.201 C 
ENDBRANCH   2   3
ENDBRANCH   1   2
BRANCH   1   5
HETATM    5  C4  UNL     1      -0.148   0.599  -0.842  1.00  0.00     0.015 C 
HETATM    6  C5  UNL     1       1.156   1.185  -1.041  1.00  0.00     0.057 C 
BRANCH   6   7
HETATM    7  C6  UNL     1       2.312   0.585  -0.792  1.00  0.00    -0.111 C 
BRANCH   7   8
HETATM    8  C7  UNL     1       3.194  -0.264  -0.316  1.00  0.00     0.144 C 
BRANCH   8   9
HETATM    9  N1  UNL     1       3.528  -0.083   1.045  1.00  0.00    -0.357 N 
HETATM   10  H9  UNL     1       2.814   0.083   1.757  1.00  0.00     0.166 HD
BRANCH   9  11
HETATM   11  C8  UNL     1       4.966  -0.198   1.042  1.00  0.00     0.073 A 
HETATM   12  C9  UNL     1       5.499  -1.449   1.259  1.00  0.00     0.033 A 
HETATM   13  C10 UNL     1       6.881  -1.652   1.269  1.00  0.00     0.004 A 
HETATM   14  C11 UNL     1       7.726  -0.558   1.053  1.00  0.00     0.027 A 
HETATM   15  C12 UNL     1       7.132   0.667   0.842  1.00  0.00     0.074 A 
HETATM   16 CL1  UNL     1       8.246   2.015   0.572  1.00  0.00    -0.081 Cl
HETATM   17  C13 UNL     1       5.794   0.911   0.824  1.00  0.00     0.164 A 
HETATM   18  F1  UNL     1       5.237   2.130   0.613  1.00  0.00    -0.202 F 
ENDBRANCH   9  11
ENDBRANCH   8   9
ENDBRANCH   7   8
ENDBRANCH   6   7
ENDBRANCH   1   5
BRANCH   1  19
HETATM   19  C14 UNL     1      -2.209  -0.267  -0.005  1.00  0.00     0.153 C 
BRANCH  19  20
HETATM   20  N2  UNL     1      -3.465   0.346  -0.099  1.00  0.00    -0.401 N 
HETATM   21  C15 UNL     1      -4.424  -0.131  -1.024  1.00  0.00     0.144 C 
BRANCH  20  22
HETATM   22  C16 UNL     1      -4.033   0.773   1.163  1.00  0.00     0.167 C 
HETATM   23  C17 UNL     1      -4.291  -0.330   2.132  1.00  0.00     0.042 C 
BRANCH  22  24
HETATM   24  C18 UNL     1      -5.323   1.435   0.831  1.00  0.00     0.237 C 
HETATM   25  N3  UNL     1      -6.025   1.960   1.945  1.00  0.00    -0.368 N 
HETATM   26  H22 UNL     1      -6.717   1.996   2.739  1.00  0.00     0.159 HD
HETATM   27  H23 UNL     1      -6.078   2.825   2.551  1.00  0.00     0.159 HD
HETATM   28  O2  UNL     1      -6.290   1.881   0.167  1.00  0.00    -0.271 OA
ENDBRANCH  22  24
ENDBRANCH  20  22
ENDBRANCH  19  20
ENDBRANCH   1  19
TORSDOF 11
