REMARK  5 active torsions:
REMARK  status: ('A' for Active; 'I' for Inactive)
REMARK    1  A    between atoms: C7_7  and  N1_8 
REMARK    2  A    between atoms: N1_8  and  C9_10 
REMARK    3  A    between atoms: N2_11  and  P1_12 
REMARK    4  A    between atoms: C11_14  and  N3_16 
REMARK    5  A    between atoms: N3_16  and  C12_17 
ROOT
HETATM    1  P1  UNL     1       0.727   0.339   0.334  1.00  0.00     0.187 P 
HETATM    2  C10 UNL     1       1.736  -0.002  -0.939  1.00  0.00     0.116 A 
HETATM    3  C11 UNL     1       3.114   0.175  -0.494  1.00  0.00     0.153 A 
HETATM    4  O1  UNL     1       2.506   0.473   0.588  1.00  0.00    -0.280 OA
ENDROOT
BRANCH   1   5
HETATM    5  N2  UNL     1      -1.044   0.226   0.150  1.00  0.00    -0.223 NA
HETATM    6  C9  UNL     1      -1.722  -0.848   0.431  1.00  0.00     0.211 C 
BRANCH   6   7
HETATM    7  N1  UNL     1      -3.144  -1.057   0.323  1.00  0.00    -0.345 N 
HETATM    8  C8  UNL     1      -3.595  -2.392  -0.088  1.00  0.00     0.157 C 
BRANCH   7   9
HETATM    9  C7  UNL     1      -4.152  -0.089   0.579  1.00  0.00     0.040 A 
HETATM   10  C2  UNL     1      -5.116   0.403  -0.277  1.00  0.00    -0.035 A 
HETATM   11  C1  UNL     1      -5.082  -0.159  -1.629  1.00  0.00     0.050 C 
HETATM   12  C3  UNL     1      -6.020   1.341   0.129  1.00  0.00     0.009 A 
HETATM   13  C4  UNL     1      -5.956   1.803   1.444  1.00  0.00     0.001 A 
HETATM   14  C5  UNL     1      -4.998   1.331   2.337  1.00  0.00     0.002 A 
HETATM   15  C6  UNL     1      -4.084   0.372   1.898  1.00  0.00     0.030 A 
ENDBRANCH   7   9
ENDBRANCH   6   7
ENDBRANCH   1   5
BRANCH   3  16
HETATM   16  N3  UNL     1       4.344   0.020  -1.159  1.00  0.00    -0.337 N 
HETATM   17  H13 UNL     1       4.143  -0.273  -2.133  1.00  0.00     0.168 HD
BRANCH  16  18
HETATM   18  C12 UNL     1       5.555   0.263  -0.473  1.00  0.00     0.034 A 
HETATM   19  C13 UNL     1       6.272   1.440  -0.350  1.00  0.00     0.029 A 
HETATM   20  C14 UNL     1       7.441   1.468   0.369  1.00  0.00     0.002 A 
HETATM   21  C15 UNL     1       7.935   0.335   0.986  1.00  0.00     0.000 A 
HETATM   22  C16 UNL     1       7.232  -0.861   0.877  1.00  0.00     0.002 A 
HETATM   23  C17 UNL     1       6.057  -0.865   0.148  1.00  0.00     0.029 A 
ENDBRANCH  16  18
ENDBRANCH   3  16
TORSDOF 5
