REMARK  5 active torsions:
REMARK  status: ('A' for Active; 'I' for Inactive)
REMARK    1  A    between atoms: C9_10  and  C10_11 
REMARK    2  A    between atoms: C10_11  and  N2_12 
REMARK    3  A    between atoms: C10_11  and  C11_13 
REMARK    4  A    between atoms: C16_18  and  O1_19 
REMARK    5  A    between atoms: O1_19  and  S1_20 
ROOT
HETATM    1  C10 UNL     1      -1.077   0.628  -1.469  1.00  0.00     0.276 C 
ENDROOT
BRANCH   1   2
HETATM    2  C9  UNL     1       0.270   1.158  -1.535  1.00  0.00     0.126 C 
HETATM    3  N1  UNL     1       1.336   0.163  -1.603  1.00  0.00    -0.377 N 
HETATM    4  C1  UNL     1       2.028  -0.520  -2.680  1.00  0.00     0.150 C 
HETATM    5  C2  UNL     1       1.624  -0.056  -0.202  1.00  0.00     0.036 A 
HETATM    6  C3  UNL     1       2.139  -1.155   0.500  1.00  0.00     0.030 A 
HETATM    7  C7  UNL     1       1.295   1.100   0.519  1.00  0.00    -0.030 A 
HETATM    8  C4  UNL     1       2.328  -1.128   1.867  1.00  0.00     0.002 A 
HETATM    9  C5  UNL     1       1.977   0.049   2.495  1.00  0.00     0.001 A 
HETATM   10  C6  UNL     1       1.465   1.176   1.886  1.00  0.00     0.009 A 
HETATM   11  C8  UNL     1       0.786   2.075  -0.504  1.00  0.00     0.068 C 
ENDBRANCH   1   2
BRANCH   1  12
HETATM   12  N2  UNL     1      -2.022   1.757  -1.392  1.00  0.00     0.089 N 
HETATM   13  H12 UNL     1      -1.549   2.631  -1.697  1.00  0.00     0.313 HD
HETATM   14  H13 UNL     1      -2.850   1.620  -1.999  1.00  0.00     0.313 HD
ENDBRANCH   1  12
BRANCH   1  15
HETATM   15  C11 UNL     1      -1.442  -0.345  -0.457  1.00  0.00     0.011 A 
HETATM   16  C12 UNL     1      -0.992  -1.647  -0.713  1.00  0.00     0.012 A 
HETATM   17  C13 UNL     1      -1.219  -2.727   0.115  1.00  0.00     0.001 A 
HETATM   18  C14 UNL     1      -1.922  -2.550   1.262  1.00  0.00     0.003 A 
HETATM   19  C15 UNL     1      -2.386  -1.299   1.565  1.00  0.00     0.039 A 
HETATM   20  C16 UNL     1      -2.146  -0.236   0.720  1.00  0.00     0.092 A 
BRANCH  20  21
HETATM   21  O1  UNL     1      -2.636   1.007   1.064  1.00  0.00    -0.281 OA
BRANCH  21  22
HETATM   22  S1  UNL     1      -1.876   2.201   2.015  1.00  0.00    -0.017 SA
HETATM   23  H18 UNL     1      -2.697   2.812   2.949  1.00  0.00     0.134 HD
ENDBRANCH  21  22
ENDBRANCH  20  21
ENDBRANCH   1  15
TORSDOF 5
