REMARK  8 active torsions:
REMARK  status: ('A' for Active; 'I' for Inactive)
REMARK    1  A    between atoms: B1_1  and  C1_2 
REMARK    2  A    between atoms: C4_5  and  C5_6 
REMARK    3  A    between atoms: C5_6  and  C6_7 
REMARK    4  A    between atoms: C5_6  and  C7_9 
REMARK    5  A    between atoms: C5_6  and  C8_11 
REMARK    6  A    between atoms: C7_9  and  N1_10 
REMARK    7  A    between atoms: C8_11  and  C9_12 
REMARK    8  A    between atoms: C9_12  and  C10_14 
ROOT
HETATM    1  C5  UNL     1      -0.565  -1.370  -0.727  1.00  0.00     0.047 C 
ENDROOT
BRANCH   1   2
HETATM    2  C4  UNL     1      -1.423  -0.297  -0.163  1.00  0.00    -0.043 A 
HETATM    3  C3  UNL     1      -2.304  -0.540   0.872  1.00  0.00     0.008 A 
HETATM    4  C2  UNL     1      -3.105   0.455   1.400  1.00  0.00    -0.005 A 
HETATM    5  C1  UNL     1      -3.034   1.742   0.886  1.00  0.00    -0.109 A 
HETATM    6  C15 UNL     1      -2.167   2.022  -0.147  1.00  0.00    -0.005 A 
HETATM    7  C14 UNL     1      -1.387   0.996  -0.641  1.00  0.00     0.008 A 
BRANCH   5   8
HETATM    8  B1  UNL     1      -3.969   2.839   1.524  1.00  0.00     0.174 B 
HETATM    9  H1  UNL     1      -4.197   2.868   2.678  1.00  0.00    -0.026 HD
HETATM   10  H2  UNL     1      -4.104   3.854   0.901  1.00  0.00    -0.026 HD
ENDBRANCH   5   8
ENDBRANCH   1   2
BRANCH   1  11
HETATM   11  C6  UNL     1      -0.633  -1.257  -2.199  1.00  0.00     0.071 C 
HETATM   12  S1  UNL     1       0.499  -0.636  -2.832  1.00  0.00    -0.096 SA
ENDBRANCH   1  11
BRANCH   1  13
HETATM   13  C7  UNL     1      -1.154  -2.737  -0.349  1.00  0.00     0.286 C 
BRANCH  13  14
HETATM   14  N1  UNL     1      -2.484  -2.916  -0.854  1.00  0.00     0.079 N 
HETATM   15  H8  UNL     1      -3.080  -3.366  -0.100  1.00  0.00     0.312 HD
HETATM   16  H9  UNL     1      -2.489  -3.547  -1.690  1.00  0.00     0.312 HD
ENDBRANCH  13  14
ENDBRANCH   1  13
BRANCH   1  17
HETATM   17  C8  UNL     1       0.822  -1.366  -0.173  1.00  0.00     0.102 C 
BRANCH  17  18
HETATM   18  C9  UNL     1       1.589  -0.138  -0.399  1.00  0.00     0.154 C 
HETATM   19  O1  UNL     1       1.917   0.979  -0.754  1.00  0.00    -0.295 OA
BRANCH  18  20
HETATM   20  C10 UNL     1       2.971  -0.142   0.161  1.00  0.00     0.177 A 
HETATM   21  C11 UNL     1       3.063   0.299   1.564  1.00  0.00     0.022 A 
HETATM   22  C12 UNL     1       3.729   1.406   1.320  1.00  0.00     0.084 A 
HETATM   23  N2  UNL     1       3.707   1.087  -0.078  1.00  0.00    -0.380 N 
HETATM   24  C13 UNL     1       4.246   1.788  -1.245  1.00  0.00     0.150 C 
ENDBRANCH  18  20
ENDBRANCH  17  18
ENDBRANCH   1  17
TORSDOF 8
