REMARK  2 active torsions:
REMARK  status: ('A' for Active; 'I' for Inactive)
REMARK    1  A    between atoms: C3_5  and  C4_6 
REMARK    2  A    between atoms: C4_6  and  C5_8 
ROOT
HETATM    1  C1  UNL     1      -2.865  -2.617   0.313  1.00  0.00     0.157 C 
HETATM    2  N1  UNL     1      -1.952  -1.487   0.540  1.00  0.00    -0.344 N 
HETATM    3  C2  UNL     1      -0.581  -1.383   0.978  1.00  0.00     0.096 A 
HETATM    4  S1  UNL     1       0.134  -2.818   1.299  1.00  0.00    -0.064 SA
HETATM    5  C3  UNL     1      -0.205   0.060   1.011  1.00  0.00     0.157 A 
HETATM    6  C11 UNL     1      -1.483   0.705   0.559  1.00  0.00    -0.011 A 
HETATM    7  C12 UNL     1      -1.638   2.069   0.425  1.00  0.00     0.034 A 
HETATM    8  C13 UNL     1      -2.839   2.598   0.004  1.00  0.00     0.034 A 
HETATM    9 CL1  UNL     1      -3.128   4.314  -0.194  1.00  0.00    -0.084 Cl
HETATM   10  C14 UNL     1      -3.870   1.725  -0.277  1.00  0.00     0.026 A 
HETATM   11  C15 UNL     1      -3.671   0.384  -0.131  1.00  0.00     0.032 A 
HETATM   12  C16 UNL     1      -2.491  -0.196   0.287  1.00  0.00     0.042 A 
ENDROOT
BRANCH   5  13
HETATM   13  C4  UNL     1       0.909   0.407   0.129  1.00  0.00     0.174 C 
HETATM   14  O1  UNL     1       0.221   1.084  -0.642  1.00  0.00    -0.291 OA
BRANCH  13  15
HETATM   15  C5  UNL     1       2.320   0.096   0.117  1.00  0.00     0.011 A 
HETATM   16  C6  UNL     1       3.077  -0.655   0.991  1.00  0.00     0.015 A 
HETATM   17  C7  UNL     1       4.428  -0.821   0.777  1.00  0.00     0.001 A 
HETATM   18  C8  UNL     1       5.017  -0.229  -0.321  1.00  0.00     0.000 A 
HETATM   19  C9  UNL     1       4.293   0.530  -1.217  1.00  0.00     0.001 A 
HETATM   20  C10 UNL     1       2.944   0.684  -0.986  1.00  0.00     0.015 A 
ENDBRANCH  13  15
ENDBRANCH   5  13
TORSDOF 2
