REMARK  6 active torsions:
REMARK  status: ('A' for Active; 'I' for Inactive)
REMARK    1  A    between atoms: C1_2  and  C2_3 
REMARK       I    between atoms: C1_2  and  N2_15 
REMARK    2  A    between atoms: C2_3  and  C3_4 
REMARK    3  A    between atoms: C3_4  and  N1_5 
REMARK    4  A    between atoms: N1_5  and  C4_6 
REMARK    5  A    between atoms: C5_7  and  C6_8 
REMARK    6  A    between atoms: N2_15  and  C10_16 
ROOT
HETATM    1  C3  UNL     1      -1.065  -1.738  -0.783  1.00  0.00     0.129 C 
ENDROOT
BRANCH   1   2
HETATM    2  C2  UNL     1      -0.103  -0.943   0.036  1.00  0.00     0.122 C 
BRANCH   2   3
HETATM    3  C1  UNL     1       1.287  -1.006  -0.538  1.00  0.00     0.223 C 
HETATM    4  O1  UNL     1       1.831  -1.541  -1.518  1.00  0.00    -0.273 OA
HETATM    5  N2  UNL     1       2.128  -0.238   0.310  1.00  0.00    -0.327 N 
HETATM    6  H11 UNL     1       1.940   0.318   1.198  1.00  0.00     0.169 HD
BRANCH   5   7
HETATM    7  C10 UNL     1       3.509   0.052   0.262  1.00  0.00     0.034 A 
HETATM    8  C11 UNL     1       3.878   1.183  -0.439  1.00  0.00     0.029 A 
HETATM    9  C12 UNL     1       5.188   1.634  -0.597  1.00  0.00     0.002 A 
HETATM   10  C13 UNL     1       6.183   0.879   0.003  1.00  0.00     0.000 A 
HETATM   11  C14 UNL     1       5.840  -0.251   0.706  1.00  0.00     0.002 A 
HETATM   12  C15 UNL     1       4.527  -0.673   0.844  1.00  0.00     0.029 A 
ENDBRANCH   5   7
ENDBRANCH   2   3
ENDBRANCH   1   2
BRANCH   1  13
HETATM   13  N1  UNL     1      -2.415  -1.651  -0.199  1.00  0.00    -0.393 N 
HETATM   14  H5  UNL     1      -2.827  -2.505   0.232  1.00  0.00     0.159 HD
BRANCH  13  15
HETATM   15  C4  UNL     1      -3.146  -0.449  -0.215  1.00  0.00     0.007 A 
HETATM   16  C5  UNL     1      -3.757   0.152   0.779  1.00  0.00    -0.004 A 
HETATM   17  C7  UNL     1      -4.523   1.383   0.805  1.00  0.00     0.020 A 
HETATM   18  C8  UNL     1      -4.616   1.993  -0.364  1.00  0.00    -0.035 A 
HETATM   19 CL1  UNL     1      -5.513   3.495  -0.487  1.00  0.00    -0.103 Cl
HETATM   20  B1  UNL     1      -3.964   1.448  -1.683  1.00  0.00     0.215 B 
HETATM   21  C9  UNL     1      -3.138   0.108  -1.588  1.00  0.00     0.010 A 
HETATM   22  H8  UNL     1      -4.331   1.866  -2.733  1.00  0.00    -0.020 HD
BRANCH  16  23
HETATM   23  C6  UNL     1      -3.648  -0.531   2.052  1.00  0.00     0.094 C 
HETATM   24  S1  UNL     1      -2.984  -1.870   2.690  1.00  0.00    -0.092 SA
ENDBRANCH  16  23
ENDBRANCH  13  15
ENDBRANCH   1  13
TORSDOF 6
