REMARK  6 active torsions:
REMARK  status: ('A' for Active; 'I' for Inactive)
REMARK    1  A    between atoms: C3_4  and  C4_5 
REMARK    2  A    between atoms: C4_5  and  S1_6 
REMARK    3  A    between atoms: S1_6  and  C5_7 
REMARK    4  A    between atoms: C8_12  and  C9_13 
REMARK    5  A    between atoms: C9_13  and  C10_14 
REMARK       I    between atoms: C10_14  and  N2_16 
REMARK    6  A    between atoms: N2_16  and  C11_17 
ROOT
HETATM    1  C5  UNL     1      -1.206  -1.643  -0.224  1.00  0.00    -0.079 C 
HETATM    2  B1  UNL     1      -2.022  -2.679  -1.057  1.00  0.00     0.278 B 
HETATM    3  N1  UNL     1      -1.125  -3.090  -2.235  1.00  0.00    -0.362 NA
HETATM    4  C6  UNL     1      -1.944  -3.511  -3.349  1.00  0.00     0.092 C 
HETATM    5  C7  UNL     1      -0.489  -1.809  -2.482  1.00  0.00     0.082 C 
HETATM    6  C8  UNL     1      -0.195  -1.258  -1.081  1.00  0.00     0.030 C 
HETATM    7  H6  UNL     1      -3.241  -2.787  -0.990  1.00  0.00    -0.002 HD
ENDROOT
BRANCH   6   8
HETATM    8  C9  UNL     1       0.650  -0.075  -1.049  1.00  0.00     0.113 C 
BRANCH   8   9
HETATM    9  C10 UNL     1       1.488   0.102   0.166  1.00  0.00     0.222 C 
HETATM   10  O1  UNL     1       1.529  -0.671   1.159  1.00  0.00    -0.273 OA
HETATM   11  N2  UNL     1       2.291   1.256   0.156  1.00  0.00    -0.327 N 
HETATM   12  H15 UNL     1       2.316   1.953  -0.634  1.00  0.00     0.169 HD
BRANCH  11  13
HETATM   13  C11 UNL     1       3.155   1.579   1.242  1.00  0.00     0.034 A 
HETATM   14  C12 UNL     1       2.738   2.354   2.307  1.00  0.00     0.029 A 
HETATM   15  C13 UNL     1       3.622   2.631   3.327  1.00  0.00     0.002 A 
HETATM   16  C14 UNL     1       4.909   2.119   3.248  1.00  0.00     0.000 A 
HETATM   17  C15 UNL     1       5.336   1.348   2.194  1.00  0.00     0.002 A 
HETATM   18  C16 UNL     1       4.429   1.089   1.191  1.00  0.00     0.029 A 
ENDBRANCH  11  13
ENDBRANCH   8   9
ENDBRANCH   6   8
BRANCH   1  19
HETATM   19  S1  UNL     1      -1.767  -1.182   1.296  1.00  0.00    -0.217 SA
BRANCH  19  20
HETATM   20  C4  UNL     1      -2.906   0.034   0.847  1.00  0.00     0.191 C 
BRANCH  20  21
HETATM   21  C3  UNL     1      -2.912   0.387  -0.622  1.00  0.00     0.009 C 
HETATM   22  C2  UNL     1      -3.848   1.319  -0.689  1.00  0.00     0.005 C 
HETATM   23  C1  UNL     1      -4.421   1.561   0.663  1.00  0.00     0.061 C 
HETATM   24 CL1  UNL     1      -4.400   2.190  -2.065  1.00  0.00    -0.090 Cl
ENDBRANCH  20  21
ENDBRANCH  19  20
ENDBRANCH   1  19
TORSDOF 6
