REMARK  7 active torsions:
REMARK  status: ('A' for Active; 'I' for Inactive)
REMARK    1  A    between atoms: C2_2  and  O1_3 
REMARK    2  A    between atoms: O1_3  and  C3_4 
REMARK    3  A    between atoms: C3_4  and  N1_5 
REMARK    4  A    between atoms: C3_4  and  N2_6 
REMARK    5  A    between atoms: C8_13  and  N5_14 
REMARK    6  A    between atoms: N5_14  and  C9_15 
REMARK    7  A    between atoms: C16_24  and  O2_25 
ROOT
HETATM    1  N2  UNL     1      -1.220   0.272  -0.413  1.00  0.00     0.152 N 
HETATM    2  C4  UNL     1       0.206   0.338  -0.565  1.00  0.00     0.323 C 
HETATM    3  C5  UNL     1       0.783  -0.990  -0.884  1.00  0.00     0.045 A 
HETATM    4  C6  UNL     1       0.394  -2.322  -0.833  1.00  0.00     0.072 A 
HETATM    5  N3  UNL     1       1.243  -3.309  -1.234  1.00  0.00    -0.241 NA
HETATM    6  C7  UNL     1       2.459  -2.994  -1.680  1.00  0.00     0.235 A 
HETATM    7  N4  UNL     1       2.859  -1.720  -1.740  1.00  0.00    -0.224 NA
HETATM    8  C8  UNL     1       2.049  -0.700  -1.352  1.00  0.00     0.139 A 
HETATM    9  C15 UNL     1      -0.828  -3.015  -0.430  1.00  0.00     0.065 C 
HETATM   10  C16 UNL     1      -1.993  -2.704   0.063  1.00  0.00     0.053 C 
HETATM   11  C18 UNL     1      -2.637  -1.425   0.458  1.00  0.00     0.067 C 
HETATM   12  C19 UNL     1      -3.559  -1.691   1.632  1.00  0.00     0.018 C 
HETATM   13  C20 UNL     1      -1.548  -0.437   0.836  1.00  0.00     0.289 C 
ENDROOT
BRANCH   8  14
HETATM   14  N5  UNL     1       2.609   0.591  -1.460  1.00  0.00    -0.338 N 
HETATM   15  H12 UNL     1       2.332   1.275  -2.188  1.00  0.00     0.167 HD
BRANCH  14  16
HETATM   16  C9  UNL     1       3.615   0.984  -0.519  1.00  0.00     0.074 A 
HETATM   17  C10 UNL     1       4.052   0.111   0.461  1.00  0.00     0.033 A 
HETATM   18  C11 UNL     1       5.025   0.520   1.354  1.00  0.00     0.004 A 
HETATM   19  C12 UNL     1       5.572   1.796   1.283  1.00  0.00     0.027 A 
HETATM   20  C13 UNL     1       5.164   2.704   0.318  1.00  0.00     0.074 A 
HETATM   21 CL1  UNL     1       5.825   4.317   0.193  1.00  0.00    -0.081 Cl
HETATM   22  C14 UNL     1       4.185   2.234  -0.549  1.00  0.00     0.164 A 
HETATM   23  F1  UNL     1       3.773   3.123  -1.508  1.00  0.00    -0.202 F 
ENDBRANCH  14  16
ENDBRANCH   8  14
BRANCH   1  24
HETATM   24  C3  UNL     1      -1.874   1.529  -0.341  1.00  0.00     0.594 C 
BRANCH  24  25
HETATM   25  O1  UNL     1      -1.709   2.370  -1.419  1.00  0.00    -0.335 OA
BRANCH  25  26
HETATM   26  C2  UNL     1      -1.308   3.631  -0.964  1.00  0.00     0.168 C 
HETATM   27  C1  UNL     1      -2.349   4.237  -0.042  1.00  0.00     0.033 C 
ENDBRANCH  25  26
ENDBRANCH  24  25
BRANCH  24  28
HETATM   28  N1  UNL     1      -3.312   1.305  -0.233  1.00  0.00     0.138 N 
HETATM   29  H7  UNL     1      -3.834   1.627  -1.080  1.00  0.00     0.318 HD
HETATM   30  H8  UNL     1      -3.720   1.681   0.650  1.00  0.00     0.318 HD
ENDBRANCH  24  28
ENDBRANCH   1  24
BRANCH  10  31
HETATM   31  O2  UNL     1      -2.893  -3.702   0.305  1.00  0.00    -0.360 OA
HETATM   32  C17 UNL     1      -2.596  -4.939   0.869  1.00  0.00     0.209 C 
ENDBRANCH  10  31
TORSDOF 7
