REMARK  3 active torsions:
REMARK  status: ('A' for Active; 'I' for Inactive)
REMARK       I    between atoms: C1_2  and  N1_3 
REMARK    1  A    between atoms: C1_2  and  C8_10 
REMARK    2  A    between atoms: N1_3  and  C2_4 
REMARK    3  A    between atoms: N2_13  and  C10_14 
ROOT
HETATM    1  C8  UNL     1       0.469   1.351  -0.424  1.00  0.00     0.244 A 
HETATM    2  C9  UNL     1       1.331   1.525  -1.560  1.00  0.00     0.114 A 
HETATM    3  S1  UNL     1       1.224   2.303  -3.012  1.00  0.00    -0.062 SA
HETATM    4  N2  UNL     1       1.799   0.715  -0.373  1.00  0.00    -0.319 N 
ENDROOT
BRANCH   1   5
HETATM    5  C1  UNL     1      -0.698   0.451  -0.611  1.00  0.00     0.252 C 
HETATM    6  O1  UNL     1      -0.589  -0.481  -1.475  1.00  0.00    -0.270 OA
HETATM    7  N1  UNL     1      -1.838   0.692   0.178  1.00  0.00    -0.325 N 
HETATM    8  H1  UNL     1      -1.848   1.479   0.866  1.00  0.00     0.169 HD
BRANCH   7   9
HETATM    9  C2  UNL     1      -3.136   0.136   0.356  1.00  0.00     0.034 A 
HETATM   10  C3  UNL     1      -4.113   0.677  -0.456  1.00  0.00     0.029 A 
HETATM   11  C4  UNL     1      -5.410   0.195  -0.350  1.00  0.00     0.002 A 
HETATM   12  C5  UNL     1      -5.694  -0.808   0.558  1.00  0.00     0.000 A 
HETATM   13  C6  UNL     1      -4.727  -1.367   1.384  1.00  0.00     0.002 A 
HETATM   14  C7  UNL     1      -3.444  -0.870   1.260  1.00  0.00     0.029 A 
ENDBRANCH   7   9
ENDBRANCH   1   5
BRANCH   4  15
HETATM   15  C10 UNL     1       3.079   0.066  -0.248  1.00  0.00     0.036 A 
HETATM   16  C11 UNL     1       3.356  -1.225  -0.647  1.00  0.00     0.031 A 
HETATM   17  C12 UNL     1       4.638  -1.704  -0.458  1.00  0.00     0.026 A 
HETATM   18  C13 UNL     1       5.603  -0.894   0.119  1.00  0.00     0.034 A 
HETATM   19 CL1  UNL     1       7.244  -1.491   0.367  1.00  0.00    -0.084 Cl
HETATM   20  C14 UNL     1       5.356   0.402   0.528  1.00  0.00     0.026 A 
HETATM   21  C15 UNL     1       4.056   0.868   0.329  1.00  0.00     0.031 A 
ENDBRANCH   4  15
TORSDOF 3
