REMARK  4 active torsions:
REMARK  status: ('A' for Active; 'I' for Inactive)
REMARK    1  A    between atoms: C3_5  and  C4_6 
REMARK    2  A    between atoms: C4_6  and  N2_7 
REMARK    3  A    between atoms: N2_7  and  C5_8 
REMARK    4  A    between atoms: C7_10  and  O1_11 
ROOT
HETATM    1  C1  UNL     1      -2.868   2.593  -1.582  1.00  0.00     0.157 C 
HETATM    2  N1  UNL     1      -2.222   1.813  -0.519  1.00  0.00    -0.345 N 
HETATM    3  C2  UNL     1      -1.122   2.209   0.325  1.00  0.00     0.090 A 
HETATM    4  S1  UNL     1      -0.375   3.671   0.231  1.00  0.00    -0.064 SA
HETATM    5  C3  UNL     1      -0.806   1.095   1.254  1.00  0.00     0.100 A 
HETATM    6  C10 UNL     1      -1.778   0.065   0.887  1.00  0.00    -0.017 A 
HETATM    7  C11 UNL     1      -1.962  -1.183   1.407  1.00  0.00     0.034 A 
HETATM    8  C12 UNL     1      -2.927  -2.066   0.966  1.00  0.00     0.034 A 
HETATM    9 CL1  UNL     1      -3.119  -3.673   1.678  1.00  0.00    -0.084 Cl
HETATM   10  C13 UNL     1      -3.762  -1.662  -0.070  1.00  0.00     0.026 A 
HETATM   11  C14 UNL     1      -3.596  -0.405  -0.612  1.00  0.00     0.032 A 
HETATM   12  C15 UNL     1      -2.616   0.477  -0.155  1.00  0.00     0.042 A 
ENDROOT
BRANCH   5  13
HETATM   13  C4  UNL     1       0.624   0.640   1.161  1.00  0.00     0.136 C 
BRANCH  13  14
HETATM   14  N2  UNL     1       1.000   0.160  -0.150  1.00  0.00    -0.389 N 
HETATM   15  H7  UNL     1       0.347   0.129  -0.963  1.00  0.00     0.159 HD
BRANCH  14  16
HETATM   16  C5  UNL     1       2.339  -0.290  -0.323  1.00  0.00     0.026 A 
HETATM   17  C6  UNL     1       2.799  -1.001  -1.347  1.00  0.00     0.037 A 
HETATM   18  C7  UNL     1       4.249  -1.272  -1.158  1.00  0.00     0.166 A 
HETATM   19  C8  UNL     1       4.586  -0.618   0.127  1.00  0.00     0.011 A 
HETATM   20  C9  UNL     1       3.480  -0.078   0.562  1.00  0.00     0.027 A 
BRANCH  18  21
HETATM   21  O1  UNL     1       4.490  -2.634  -0.990  1.00  0.00    -0.388 OA
HETATM   22  H10 UNL     1       5.478  -2.725  -0.885  1.00  0.00     0.210 HD
ENDBRANCH  18  21
ENDBRANCH  14  16
ENDBRANCH  13  14
ENDBRANCH   5  13
TORSDOF 4
