REMARK  4 active torsions:
REMARK  status: ('A' for Active; 'I' for Inactive)
REMARK    1  A    between atoms: C8_9  and  C10_11 
REMARK       I    between atoms: C10_11  and  N2_13 
REMARK    2  A    between atoms: N2_13  and  C11_14 
REMARK    3  A    between atoms: C17_20  and  O2_21 
REMARK    4  A    between atoms: O2_21  and  S1_22 
ROOT
HETATM    1  C1  UNL     1      -2.596  -2.188  -1.520  1.00  0.00     0.152 C 
HETATM    2  N1  UNL     1      -2.191  -0.833  -1.125  1.00  0.00    -0.356 N 
HETATM    3  C2  UNL     1      -2.294  -0.352   0.230  1.00  0.00     0.039 A 
HETATM    4  C3  UNL     1      -3.157  -0.780   1.234  1.00  0.00     0.030 A 
HETATM    5  C4  UNL     1      -3.125  -0.206   2.496  1.00  0.00     0.002 A 
HETATM    6  C5  UNL     1      -2.211   0.787   2.686  1.00  0.00     0.001 A 
HETATM    7  C6  UNL     1      -1.347   1.225   1.704  1.00  0.00     0.011 A 
HETATM    8  C7  UNL     1      -1.360   0.669   0.442  1.00  0.00    -0.010 A 
HETATM    9  C8  UNL     1      -0.654   0.818  -0.849  1.00  0.00     0.112 C 
HETATM   10  C9  UNL     1      -0.434   2.269  -1.117  1.00  0.00     0.035 C 
HETATM   11  C17 UNL     1      -1.634   0.286  -1.899  1.00  0.00     0.260 C 
ENDROOT
BRANCH   9  12
HETATM   12  C10 UNL     1       0.556  -0.024  -0.953  1.00  0.00     0.239 C 
HETATM   13  O1  UNL     1       0.984  -0.948  -1.694  1.00  0.00    -0.272 OA
HETATM   14  N2  UNL     1       1.443   0.375   0.112  1.00  0.00    -0.326 N 
HETATM   15  H11 UNL     1       1.426   1.077   0.888  1.00  0.00     0.169 HD
BRANCH  14  16
HETATM   16  C11 UNL     1       2.749  -0.142   0.439  1.00  0.00     0.034 A 
HETATM   17  C12 UNL     1       2.935  -1.196   1.308  1.00  0.00     0.029 A 
HETATM   18  C13 UNL     1       4.229  -1.647   1.581  1.00  0.00     0.002 A 
HETATM   19  C14 UNL     1       5.299  -1.033   0.977  1.00  0.00     0.000 A 
HETATM   20  C15 UNL     1       5.153   0.013   0.111  1.00  0.00     0.002 A 
HETATM   21  C16 UNL     1       3.867   0.447  -0.148  1.00  0.00     0.029 A 
ENDBRANCH  14  16
ENDBRANCH   9  12
BRANCH  11  22
HETATM   22  O2  UNL     1      -2.618   1.214  -2.203  1.00  0.00    -0.296 OA
BRANCH  22  23
HETATM   23  S1  UNL     1      -2.797   1.441  -3.896  1.00  0.00    -0.022 SA
HETATM   24  H18 UNL     1      -4.046   0.988  -4.353  1.00  0.00     0.133 HD
ENDBRANCH  22  23
ENDBRANCH  11  22
TORSDOF 4
