REMARK  6 active torsions:
REMARK  status: ('A' for Active; 'I' for Inactive)
REMARK    1  A    between atoms: B1_1  and  N1_2 
REMARK       I    between atoms: N1_2  and  C1_3 
REMARK       I    between atoms: C1_3  and  N2_5 
REMARK    2  A    between atoms: N2_5  and  C3_7 
REMARK    3  A    between atoms: C3_7  and  B2_8 
REMARK    4  A    between atoms: B2_8  and  C4_9 
REMARK    5  A    between atoms: C6_11  and  C7_12 
REMARK    6  A    between atoms: C18_26  and  O2_27 
ROOT
HETATM    1  C4  UNL     1       1.853   0.131  -0.545  1.00  0.00    -0.071 A 
HETATM    2  C5  UNL     1       0.570   0.142  -0.209  1.00  0.00    -0.021 A 
HETATM    3  C6  UNL     1      -0.516   1.061   0.207  1.00  0.00     0.034 A 
HETATM    4  C16 UNL     1       0.055   2.461   0.252  1.00  0.00     0.042 A 
HETATM    5  C17 UNL     1       1.483   2.393  -0.130  1.00  0.00     0.010 A 
HETATM    6  C18 UNL     1       2.391   1.507  -0.491  1.00  0.00     0.059 A 
ENDROOT
BRANCH   3   7
HETATM    7  C7  UNL     1      -1.721   0.961  -0.623  1.00  0.00    -0.013 C 
HETATM    8  C8  UNL     1      -2.832   0.539  -0.026  1.00  0.00    -0.062 C 
HETATM    9  C9  UNL     1      -3.476   0.079   1.218  1.00  0.00     0.062 C 
HETATM   10  C15 UNL     1      -4.103   0.168  -0.897  1.00  0.00     0.148 C 
HETATM   11  C10 UNL     1      -4.541   0.891   1.788  1.00  0.00    -0.021 C 
HETATM   12  C11 UNL     1      -5.883   0.782   1.713  1.00  0.00     0.023 C 
HETATM   13  C12 UNL     1      -7.125   0.127   1.229  1.00  0.00     0.069 C 
HETATM   14 CL1  UNL     1      -8.709   0.616   1.708  1.00  0.00    -0.081 Cl
HETATM   15  C13 UNL     1      -6.412  -0.700   0.508  1.00  0.00     0.132 C 
HETATM   16  F1  UNL     1      -7.694  -1.117   0.184  1.00  0.00    -0.207 F 
HETATM   17  C14 UNL     1      -5.692  -1.663  -0.427  1.00  0.00     0.186 C 
HETATM   18  N3  UNL     1      -4.336  -1.160  -0.463  1.00  0.00    -0.412 N 
HETATM   19  H17 UNL     1      -3.634  -1.867  -0.630  1.00  0.00     0.153 HD
ENDBRANCH   3   7
BRANCH   1  20
HETATM   20  B2  UNL     1       2.743  -1.071  -0.951  1.00  0.00     0.218 B 
HETATM   21  H7  UNL     1       3.154  -1.081  -2.060  1.00  0.00    -0.019 HD
BRANCH  20  22
HETATM   22  C3  UNL     1       3.522  -1.968   0.092  1.00  0.00     0.075 C 
BRANCH  22  23
HETATM   23  N2  UNL     1       4.858  -2.294  -0.351  1.00  0.00    -0.347 N 
HETATM   24  C1  UNL     1       5.803  -1.321   0.080  1.00  0.00     0.321 C 
HETATM   25  N1  UNL     1       7.107  -1.677  -0.373  1.00  0.00    -0.321 NA
HETATM   26  O1  UNL     1       5.866  -0.247   0.732  1.00  0.00    -0.247 OA
HETATM   27  C2  UNL     1       5.063  -3.506  -1.143  1.00  0.00     0.153 C 
BRANCH  25  28
HETATM   28  B1  UNL     1       8.188  -0.807  -1.160  1.00  0.00     0.289 B 
HETATM   29  H1  UNL     1       9.004   0.512  -1.988  1.00  0.00    -0.007 HD
ENDBRANCH  25  28
ENDBRANCH  22  23
ENDBRANCH  20  22
ENDBRANCH   1  20
BRANCH   6  30
HETATM   30  O2  UNL     1       3.709   1.786  -0.794  1.00  0.00    -0.357 OA
HETATM   31  C19 UNL     1       4.345   2.857  -0.125  1.00  0.00     0.210 C 
ENDBRANCH   6  30
TORSDOF 6
