REMARK  3 active torsions:
REMARK  status: ('A' for Active; 'I' for Inactive)
REMARK    1  A    between atoms: C2_2  and  N1_3 
REMARK    2  A    between atoms: C2_2  and  C8_10 
REMARK    3  A    between atoms: N1_3  and  C3_4 
ROOT
HETATM    1  C8  UNL     1      -0.815  -0.386  -0.610  1.00  0.00     0.077 A 
HETATM    2  C9  UNL     1      -0.514  -0.501  -2.088  1.00  0.00     0.035 C 
HETATM    3  C10 UNL     1      -1.632  -1.606  -0.267  1.00  0.00     0.098 A 
HETATM    4  S1  UNL     1      -0.987  -3.080  -0.441  1.00  0.00    -0.064 SA
HETATM    5  N2  UNL     1      -2.936  -1.269   0.191  1.00  0.00    -0.344 N 
HETATM    6  C11 UNL     1      -3.937  -2.237   0.596  1.00  0.00     0.157 C 
HETATM    7  C12 UNL     1      -2.991   0.152   0.149  1.00  0.00     0.042 A 
HETATM    8  C13 UNL     1      -4.089   0.906   0.510  1.00  0.00     0.030 A 
HETATM    9  C14 UNL     1      -4.020   2.276   0.422  1.00  0.00     0.002 A 
HETATM   10  C15 UNL     1      -2.865   2.862  -0.023  1.00  0.00     0.001 A 
HETATM   11  C16 UNL     1      -1.802   2.055  -0.369  1.00  0.00     0.011 A 
HETATM   12  C17 UNL     1      -1.790   0.678  -0.309  1.00  0.00    -0.010 A 
ENDROOT
BRANCH   1  13
HETATM   13  C2  UNL     1       0.392  -0.380   0.216  1.00  0.00     0.003 C 
HETATM   14  C1  UNL     1       0.576  -1.300   1.149  1.00  0.00     0.059 C 
BRANCH  13  15
HETATM   15  N1  UNL     1       1.435   0.579   0.094  1.00  0.00    -0.384 N 
HETATM   16  H3  UNL     1       1.155   1.507  -0.292  1.00  0.00     0.160 HD
BRANCH  15  17
HETATM   17  C3  UNL     1       2.817   0.263   0.493  1.00  0.00     0.127 C 
HETATM   18  C4  UNL     1       3.612   1.466   0.231  1.00  0.00     0.003 C 
HETATM   19  C5  UNL     1       4.873   1.549  -0.178  1.00  0.00     0.006 C 
HETATM   20  P1  UNL     1       5.741  -0.038  -0.452  1.00  0.00    -0.083 P 
HETATM   21  C6  UNL     1       4.406  -1.292  -0.728  1.00  0.00     0.006 C 
HETATM   22  H7  UNL     1       6.572  -0.401   0.668  1.00  0.00     0.066 HD
HETATM   23  C7  UNL     1       3.210  -0.940  -0.225  1.00  0.00     0.003 C 
ENDBRANCH  15  17
ENDBRANCH  13  15
ENDBRANCH   1  13
TORSDOF 3
