REMARK  2 active torsions:
REMARK  status: ('A' for Active; 'I' for Inactive)
REMARK    1  A    between atoms: C3_5  and  C5_7 
REMARK       I    between atoms: C5_7  and  N2_9 
REMARK    2  A    between atoms: N2_9  and  C6_10 
ROOT
HETATM    1  C1  UNL     1      -1.935   2.740  -1.077  1.00  0.00     0.156 C 
HETATM    2  N1  UNL     1      -1.737   1.312  -0.879  1.00  0.00    -0.348 N 
HETATM    3  C2  UNL     1      -0.830   0.486  -1.635  1.00  0.00     0.098 C 
HETATM    4  S1  UNL     1      -0.159   0.801  -3.066  1.00  0.00    -0.064 SA
HETATM    5  C3  UNL     1      -0.613  -0.755  -0.833  1.00  0.00     0.103 C 
HETATM    6  C4  UNL     1      -1.076  -1.943  -1.617  1.00  0.00     0.034 C 
HETATM    7  C12 UNL     1      -1.468  -0.630   0.386  1.00  0.00     0.082 C 
HETATM    8  C13 UNL     1      -2.215  -1.841   0.754  1.00  0.00    -0.018 C 
HETATM    9  C14 UNL     1      -3.418  -1.761   1.357  1.00  0.00    -0.026 C 
HETATM   10  C15 UNL     1      -4.014  -0.446   1.663  1.00  0.00     0.056 C 
HETATM   11  C16 UNL     1      -3.585   0.592   0.670  1.00  0.00     0.003 C 
HETATM   12  C17 UNL     1      -2.401   0.490   0.087  1.00  0.00     0.018 C 
ENDROOT
BRANCH   5  13
HETATM   13  C5  UNL     1       0.840  -0.839  -0.543  1.00  0.00     0.238 C 
HETATM   14  O1  UNL     1       1.699  -1.734  -0.844  1.00  0.00    -0.272 OA
HETATM   15  N2  UNL     1       1.435   0.224   0.189  1.00  0.00    -0.326 N 
HETATM   16  H7  UNL     1       0.941   1.069   0.546  1.00  0.00     0.169 HD
BRANCH  15  17
HETATM   17  C6  UNL     1       2.807   0.309   0.555  1.00  0.00     0.034 A 
HETATM   18  C7  UNL     1       3.691   0.934  -0.321  1.00  0.00     0.029 A 
HETATM   19  C8  UNL     1       5.035   1.056  -0.038  1.00  0.00     0.002 A 
HETATM   20  C9  UNL     1       5.469   0.519   1.179  1.00  0.00     0.000 A 
HETATM   21  C10 UNL     1       4.600  -0.092   2.034  1.00  0.00     0.002 A 
HETATM   22  C11 UNL     1       3.260  -0.205   1.733  1.00  0.00     0.029 A 
ENDBRANCH  15  17
ENDBRANCH   5  13
TORSDOF 2
