REMARK  4 active torsions:
REMARK  status: ('A' for Active; 'I' for Inactive)
REMARK    1  A    between atoms: C2_2  and  C3_3 
REMARK    2  A    between atoms: C2_2  and  C9_11 
REMARK       I    between atoms: C3_3  and  N1_5 
REMARK    3  A    between atoms: N1_5  and  C4_6 
REMARK    4  A    between atoms: P1_16  and  N2_17 
ROOT
HETATM    1  C1  UNL     1       0.073   1.851  -1.681  1.00  0.00     0.021 C 
HETATM    2  C2  UNL     1       0.318   0.517  -1.009  1.00  0.00     0.087 C 
ENDROOT
BRANCH   2   3
HETATM    3  C3  UNL     1       1.769   0.202  -0.925  1.00  0.00     0.226 C 
HETATM    4  O1  UNL     1       2.545   1.078  -1.417  1.00  0.00    -0.273 OA
HETATM    5  N1  UNL     1       2.132  -1.024  -0.314  1.00  0.00    -0.330 N 
HETATM    6  H5  UNL     1       1.399  -1.662   0.054  1.00  0.00     0.168 HD
BRANCH   5   7
HETATM    7  C4  UNL     1       3.552  -1.275  -0.261  1.00  0.00     0.015 A 
HETATM    8  C5  UNL     1       4.235  -2.264  -0.780  1.00  0.00     0.025 A 
HETATM    9  C6  UNL     1       5.644  -2.065  -0.447  1.00  0.00    -0.002 A 
HETATM   10  C7  UNL     1       5.790  -0.962   0.266  1.00  0.00    -0.021 A 
HETATM   11  C8  UNL     1       4.466  -0.327   0.469  1.00  0.00     0.084 A 
ENDBRANCH   5   7
ENDBRANCH   2   3
BRANCH   2  12
HETATM   12  C9  UNL     1      -0.396   0.431   0.307  1.00  0.00     0.068 A 
HETATM   13  C10 UNL     1       0.017   1.464   1.274  1.00  0.00    -0.015 A 
HETATM   14  C11 UNL     1      -0.589   2.447   1.876  1.00  0.00    -0.003 A 
HETATM   15  C12 UNL     1      -1.974   2.810   1.729  1.00  0.00     0.002 A 
HETATM   16  C13 UNL     1      -2.744   2.124   0.929  1.00  0.00     0.023 A 
HETATM   17  P1  UNL     1      -2.218   0.667  -0.082  1.00  0.00    -0.010 P 
BRANCH  17  18
HETATM   18  N2  UNL     1      -3.196  -0.719   0.426  1.00  0.00    -0.280 NA
HETATM   19  C14 UNL     1      -3.139  -1.958  -0.295  1.00  0.00     0.115 A 
HETATM   20  C15 UNL     1      -4.270  -1.066  -0.508  1.00  0.00     0.072 A 
HETATM   21  C16 UNL     1      -5.614  -1.218   0.138  1.00  0.00     0.028 C 
ENDBRANCH  17  18
ENDBRANCH   2  12
TORSDOF 4
