REMARK  2 active torsions:
REMARK  status: ('A' for Active; 'I' for Inactive)
REMARK    1  A    between atoms: C8_9  and  C10_11 
REMARK       I    between atoms: C10_11  and  N2_13 
REMARK    2  A    between atoms: N2_13  and  C11_14 
ROOT
HETATM    1  C1  UNL     1      -2.116  -3.289  -1.116  1.00  0.00     0.159 C 
HETATM    2  N1  UNL     1      -2.079  -1.988  -1.697  1.00  0.00    -0.354 N 
HETATM    3  C2  UNL     1      -2.599  -1.512  -0.521  1.00  0.00    -0.060 C 
HETATM    4  C3  UNL     1      -3.063  -1.102   0.514  1.00  0.00     0.061 A 
HETATM    5  C4  UNL     1      -3.664  -0.582   1.785  1.00  0.00     0.020 A 
HETATM    6  C5  UNL     1      -2.964   0.496   1.588  1.00  0.00     0.003 A 
HETATM    7  C6  UNL     1      -2.294   0.222   0.362  1.00  0.00     0.020 A 
HETATM    8  C7  UNL     1      -1.470   0.828  -0.423  1.00  0.00     0.015 C 
HETATM    9  C8  UNL     1      -0.984   0.243  -1.632  1.00  0.00     0.045 C 
HETATM   10  C9  UNL     1      -0.661   1.225  -2.768  1.00  0.00     0.026 C 
HETATM   11  C17 UNL     1      -2.048  -0.661  -2.274  1.00  0.00     0.149 C 
ENDROOT
BRANCH   9  12
HETATM   12  C10 UNL     1       0.316  -0.566  -1.552  1.00  0.00     0.166 C 
HETATM   13  O1  UNL     1       1.171  -1.454  -1.980  1.00  0.00    -0.176 OA
HETATM   14  N2  UNL     1       0.874  -0.017  -0.241  1.00  0.00    -0.332 N 
HETATM   15  H11 UNL     1       0.212   0.439   0.474  1.00  0.00     0.168 HD
BRANCH  14  16
HETATM   16  C11 UNL     1       1.867   0.173   0.859  1.00  0.00     0.075 C 
HETATM   17  C12 UNL     1       2.138   1.441   0.468  1.00  0.00     0.037 C 
HETATM   18  C13 UNL     1       3.146   2.358   1.187  1.00  0.00     0.003 C 
HETATM   19  C14 UNL     1       4.370   2.007   1.687  1.00  0.00     0.001 C 
HETATM   20  C15 UNL     1       4.897   0.674   1.595  1.00  0.00     0.007 C 
HETATM   21  C16 UNL     1       4.502  -0.672   1.738  1.00  0.00     0.052 C 
HETATM   22  S1  UNL     1       2.688  -0.714   2.175  1.00  0.00    -0.084 SA
ENDBRANCH  14  16
ENDBRANCH   9  12
TORSDOF 2
