REMARK  4 active torsions:
REMARK  status: ('A' for Active; 'I' for Inactive)
REMARK    1  A    between atoms: C9_12  and  C11_14 
REMARK    2  A    between atoms: C11_14  and  S2_15 
REMARK    3  A    between atoms: S2_15  and  N2_16 
REMARK    4  A    between atoms: N2_16  and  C12_17 
ROOT
HETATM    1  C1  UNL     1      -0.388  -1.279  -1.872  1.00  0.00     0.042 C 
HETATM    2  C2  UNL     1      -1.326  -0.753  -1.102  1.00  0.00    -0.045 C 
HETATM    3  C3  UNL     1      -2.642  -1.354  -1.159  1.00  0.00     0.006 C 
HETATM    4  C4  UNL     1      -3.873  -1.282  -0.723  1.00  0.00     0.002 C 
HETATM    5  C5  UNL     1      -4.942  -0.727   0.025  1.00  0.00     0.026 C 
HETATM    6  C6  UNL     1      -5.238   0.293   0.850  1.00  0.00     0.221 C 
HETATM    7  N1  UNL     1      -3.839   0.658   0.631  1.00  0.00     0.055 N 
HETATM    8  C7  UNL     1      -3.892   1.451  -0.588  1.00  0.00     0.299 C 
HETATM    9  C8  UNL     1      -2.435   0.734   0.985  1.00  0.00     0.397 A 
HETATM   10  S1  UNL     1      -2.946   0.041   2.343  1.00  0.00     0.140 SA
HETATM   11  O1  UNL     1      -1.408   1.277   0.155  1.00  0.00    -0.322 OA
HETATM   12  C9  UNL     1      -0.492   0.235  -0.333  1.00  0.00     0.095 C 
HETATM   13  C10 UNL     1       0.019  -0.390   0.938  1.00  0.00     0.052 C 
ENDROOT
BRANCH  12  14
HETATM   14  C11 UNL     1       0.558   0.917  -1.101  1.00  0.00     0.140 C 
BRANCH  14  15
HETATM   15  S2  UNL     1       1.466   2.069  -0.044  1.00  0.00    -0.052 SA
BRANCH  15  16
HETATM   16  N2  UNL     1       2.406   1.180   1.148  1.00  0.00    -0.330 N 
HETATM   17  H15 UNL     1       2.235   0.997   2.182  1.00  0.00     0.174 HD
BRANCH  16  18
HETATM   18  C12 UNL     1       3.644   0.567   0.731  1.00  0.00     0.038 A 
HETATM   19  C13 UNL     1       4.492  -0.169   1.532  1.00  0.00     0.030 A 
HETATM   20  C14 UNL     1       5.663  -0.727   1.071  1.00  0.00     0.002 A 
HETATM   21  C15 UNL     1       6.033  -0.561  -0.246  1.00  0.00     0.000 A 
HETATM   22  C16 UNL     1       5.238   0.160  -1.103  1.00  0.00     0.002 A 
HETATM   23  C17 UNL     1       4.079   0.694  -0.582  1.00  0.00     0.030 A 
ENDBRANCH  16  18
ENDBRANCH  15  16
ENDBRANCH  14  15
ENDBRANCH  12  14
TORSDOF 4
