REMARK  5 active torsions:
REMARK  status: ('A' for Active; 'I' for Inactive)
REMARK    1  A    between atoms: C2_2  and  C3_3 
REMARK    2  A    between atoms: C3_3  and  N1_4 
REMARK    3  A    between atoms: N1_4  and  P1_5 
REMARK    4  A    between atoms: P1_5  and  C4_6 
REMARK    5  A    between atoms: C16_19  and  N2_20 
ROOT
HETATM    1  C1  UNL     1      -2.197  -1.402  -1.485  1.00  0.00     0.026 C 
HETATM    2  C2  UNL     1      -1.371  -0.832  -0.376  1.00  0.00     0.052 C 
HETATM    3  C10 UNL     1      -2.029   0.408   0.099  1.00  0.00    -0.011 A 
HETATM    4  C11 UNL     1      -1.894   1.732  -0.266  1.00  0.00     0.011 A 
HETATM    5  C12 UNL     1      -2.640   2.717   0.343  1.00  0.00     0.001 A 
HETATM    6  C13 UNL     1      -3.537   2.329   1.341  1.00  0.00     0.003 A 
HETATM    7  C14 UNL     1      -3.710   1.009   1.745  1.00  0.00     0.037 A 
HETATM    8  C15 UNL     1      -2.924   0.055   1.089  1.00  0.00     0.079 A 
HETATM    9  O1  UNL     1      -2.849  -1.324   1.244  1.00  0.00    -0.315 OA
HETATM   10  C16 UNL     1      -1.518  -1.687   0.863  1.00  0.00     0.373 C 
ENDROOT
BRANCH   2  11
HETATM   11  C3  UNL     1       0.069  -0.628  -0.746  1.00  0.00     0.110 C 
BRANCH  11  12
HETATM   12  N1  UNL     1       0.258   0.263  -1.844  1.00  0.00    -0.297 NA
HETATM   13  H6  UNL     1      -0.207  -0.118  -2.693  1.00  0.00     0.126 HD
BRANCH  12  14
HETATM   14  P1  UNL     1       1.990   0.486  -2.263  1.00  0.00    -0.023 P 
HETATM   15  H7  UNL     1       2.220   1.672  -3.030  1.00  0.00     0.079 HD
BRANCH  14  16
HETATM   16  C4  UNL     1       3.059   0.391  -0.783  1.00  0.00    -0.019 A 
HETATM   17  C5  UNL     1       2.724   1.103   0.369  1.00  0.00     0.013 A 
HETATM   18  C6  UNL     1       3.526   1.040   1.499  1.00  0.00     0.001 A 
HETATM   19  C7  UNL     1       4.681   0.272   1.525  1.00  0.00     0.000 A 
HETATM   20  C8  UNL     1       5.003  -0.435   0.367  1.00  0.00     0.001 A 
HETATM   21  C9  UNL     1       4.214  -0.380  -0.763  1.00  0.00     0.013 A 
ENDBRANCH  14  16
ENDBRANCH  12  14
ENDBRANCH  11  12
ENDBRANCH   2  11
BRANCH  10  22
HETATM   22  N2  UNL     1      -1.409  -3.099   0.609  1.00  0.00     0.108 N 
HETATM   23  H18 UNL     1      -0.593  -3.275   0.010  1.00  0.00     0.316 HD
HETATM   24  H19 UNL     1      -2.298  -3.508   0.249  1.00  0.00     0.316 HD
ENDBRANCH  10  22
TORSDOF 5
