REMARK  5 active torsions:
REMARK  status: ('A' for Active; 'I' for Inactive)
REMARK    1  A    between atoms: S1_2  and  C2_3 
REMARK    2  A    between atoms: C3_4  and  O1_5 
REMARK    3  A    between atoms: O1_5  and  C4_6 
REMARK    4  A    between atoms: C4_6  and  N1_8 
REMARK    5  A    between atoms: N1_8  and  C6_9 
ROOT
HETATM    1  C2  UNL     1      -1.928   0.751   0.476  1.00  0.00     0.106 A 
HETATM    2  C3  UNL     1      -1.308  -0.465   0.251  1.00  0.00     0.117 A 
HETATM    3  C12 UNL     1      -2.219  -1.141  -0.539  1.00  0.00     0.027 A 
HETATM    4  C13 UNL     1      -2.167  -2.417  -1.092  1.00  0.00     0.017 A 
HETATM    5  C14 UNL     1      -3.182  -2.963  -1.878  1.00  0.00     0.001 A 
HETATM    6  C15 UNL     1      -4.288  -2.140  -2.090  1.00  0.00     0.002 A 
HETATM    7  C16 UNL     1      -4.374  -0.861  -1.554  1.00  0.00     0.030 A 
HETATM    8  C17 UNL     1      -3.339  -0.373  -0.783  1.00  0.00     0.048 A 
HETATM    9  N2  UNL     1      -3.129   0.788  -0.144  1.00  0.00    -0.343 N 
HETATM   10  C18 UNL     1      -4.046   1.914  -0.118  1.00  0.00     0.157 C 
ENDROOT
BRANCH   2  11
HETATM   11  O1  UNL     1      -0.078  -0.879   0.715  1.00  0.00    -0.323 OA
BRANCH  11  12
HETATM   12  C4  UNL     1       1.143  -0.662  -0.013  1.00  0.00     0.223 C 
HETATM   13  C5  UNL     1       1.824  -1.994  -0.263  1.00  0.00     0.063 C 
BRANCH  12  14
HETATM   14  N1  UNL     1       2.004   0.107   0.856  1.00  0.00    -0.364 N 
HETATM   15  H8  UNL     1       1.725   0.397   1.833  1.00  0.00     0.162 HD
BRANCH  14  16
HETATM   16  C6  UNL     1       3.292   0.515   0.426  1.00  0.00     0.029 A 
HETATM   17  C7  UNL     1       3.806   0.225  -0.818  1.00  0.00     0.029 A 
HETATM   18  C8  UNL     1       5.048   0.595  -1.286  1.00  0.00     0.002 A 
HETATM   19  C9  UNL     1       5.846   1.331  -0.407  1.00  0.00     0.000 A 
HETATM   20  C10 UNL     1       5.414   1.666   0.855  1.00  0.00     0.002 A 
HETATM   21  C11 UNL     1       4.149   1.243   1.223  1.00  0.00     0.029 A 
ENDBRANCH  14  16
ENDBRANCH  12  14
ENDBRANCH  11  12
ENDBRANCH   2  11
BRANCH   1  22
HETATM   22  S1  UNL     1      -1.241   2.093   1.450  1.00  0.00    -0.114 SA
HETATM   23  C1  UNL     1      -1.779   1.843   3.165  1.00  0.00     0.097 C 
ENDBRANCH   1  22
TORSDOF 5
