REMARK  3 active torsions:
REMARK  status: ('A' for Active; 'I' for Inactive)
REMARK    1  A    between atoms: S1_2  and  C2_3 
REMARK    2  A    between atoms: C3_4  and  C4_5 
REMARK       I    between atoms: C4_5  and  N1_7 
REMARK    3  A    between atoms: N1_7  and  C5_8 
ROOT
HETATM    1  C2  UNL     1      -0.899   1.896   0.234  1.00  0.00     0.087 C 
HETATM    2  C3  UNL     1      -0.380   0.731   0.021  1.00  0.00     0.078 C 
HETATM    3  C11 UNL     1      -1.205  -0.458  -0.062  1.00  0.00     0.008 C 
HETATM    4  C12 UNL     1      -1.284  -1.741   0.181  1.00  0.00    -0.007 C 
HETATM    5  C13 UNL     1      -2.488  -2.497  -0.154  1.00  0.00     0.062 C 
HETATM    6  C14 UNL     1      -3.766  -1.915   0.271  1.00  0.00    -0.078 C 
HETATM    7  C15 UNL     1      -4.826  -2.746   0.956  1.00  0.00     0.044 C 
HETATM    8  C16 UNL     1      -4.096  -0.626   0.091  1.00  0.00     0.035 C 
HETATM    9  P1  UNL     1      -2.765   0.336  -0.749  1.00  0.00     0.044 P 
HETATM   10  N2  UNL     1      -2.359   1.855   0.220  1.00  0.00    -0.347 N 
HETATM   11  C17 UNL     1      -3.570   2.502   0.644  1.00  0.00     0.156 C 
ENDROOT
BRANCH   2  12
HETATM   12  C4  UNL     1       1.055   0.621  -0.079  1.00  0.00     0.260 C 
HETATM   13  O1  UNL     1       1.758   1.614   0.073  1.00  0.00    -0.267 OA
HETATM   14  N1  UNL     1       1.867  -0.476  -0.338  1.00  0.00    -0.323 N 
HETATM   15  H4  UNL     1       1.336  -1.358  -0.512  1.00  0.00     0.169 HD
BRANCH  14  16
HETATM   16  C5  UNL     1       3.261  -0.573  -0.426  1.00  0.00     0.035 A 
HETATM   17  C6  UNL     1       4.219   0.390  -0.277  1.00  0.00     0.029 A 
HETATM   18  C7  UNL     1       5.581   0.228  -0.378  1.00  0.00     0.002 A 
HETATM   19  C8  UNL     1       6.055  -1.033  -0.659  1.00  0.00     0.000 A 
HETATM   20  C9  UNL     1       5.164  -2.068  -0.825  1.00  0.00     0.002 A 
HETATM   21  C10 UNL     1       3.828  -1.797  -0.704  1.00  0.00     0.029 A 
ENDBRANCH  14  16
ENDBRANCH   2  12
BRANCH   1  22
HETATM   22  S1  UNL     1      -0.623   3.604   0.493  1.00  0.00    -0.116 SA
HETATM   23  C1  UNL     1       1.023   4.197   0.670  1.00  0.00     0.097 C 
ENDBRANCH   1  22
TORSDOF 3
