REMARK  4 active torsions:
REMARK  status: ('A' for Active; 'I' for Inactive)
REMARK    1  A    between atoms: C3_3  and  N1_7 
REMARK    2  A    between atoms: C4_4  and  C5_5 
REMARK       I    between atoms: N1_7  and  C7_8 
REMARK    3  A    between atoms: C7_8  and  C8_10 
REMARK    4  A    between atoms: C9_11  and  S1_12 
ROOT
HETATM    1  C1  UNL     1       2.924  -2.220   3.238  1.00  0.00     0.019 C 
HETATM    2  C2  UNL     1       2.935  -1.691   2.159  1.00  0.00    -0.060 C 
HETATM    3  C3  UNL     1       2.959  -1.072   0.863  1.00  0.00     0.088 C 
HETATM    4  C4  UNL     1       4.077  -0.718   0.250  1.00  0.00     0.035 C 
ENDROOT
BRANCH   3   5
HETATM    5  N1  UNL     1       1.716  -0.832   0.214  1.00  0.00    -0.316 N 
HETATM    6  C7  UNL     1       0.707  -0.007   0.773  1.00  0.00     0.260 C 
HETATM    7  O1  UNL     1       1.109   0.445   1.897  1.00  0.00    -0.267 OA
HETATM    8  H6  UNL     1       1.562  -1.286  -0.703  1.00  0.00     0.170 HD
BRANCH   6   9
HETATM    9  C8  UNL     1      -0.581   0.277   0.161  1.00  0.00     0.078 A 
HETATM   10  C9  UNL     1      -1.239  -0.070  -0.999  1.00  0.00     0.088 A 
HETATM   11  N2  UNL     1      -2.455   0.497  -1.061  1.00  0.00    -0.344 N 
HETATM   12  C11 UNL     1      -3.376   0.304  -2.181  1.00  0.00     0.157 C 
HETATM   13  C12 UNL     1      -2.615   1.223   0.051  1.00  0.00     0.046 A 
HETATM   14  C13 UNL     1      -3.729   1.968   0.381  1.00  0.00     0.030 A 
HETATM   15  C17 UNL     1      -1.477   1.106   0.822  1.00  0.00     0.009 A 
HETATM   16  C14 UNL     1      -3.702   2.651   1.579  1.00  0.00     0.002 A 
HETATM   17  C15 UNL     1      -2.595   2.578   2.400  1.00  0.00     0.001 A 
HETATM   18  C16 UNL     1      -1.515   1.814   2.008  1.00  0.00     0.015 A 
BRANCH  10  19
HETATM   19  S1  UNL     1      -0.457  -1.150  -2.188  1.00  0.00    -0.116 SA
HETATM   20  C10 UNL     1      -0.881  -2.859  -1.760  1.00  0.00     0.097 C 
ENDBRANCH  10  19
ENDBRANCH   6   9
ENDBRANCH   3   5
BRANCH   4  21
HETATM   21  C5  UNL     1       4.066  -0.091  -1.067  1.00  0.00    -0.024 C 
HETATM   22  C6  UNL     1       5.161   0.277  -1.712  1.00  0.00     0.031 C 
ENDBRANCH   4  21
TORSDOF 4
