REMARK  10 active torsions:
REMARK  status: ('A' for Active; 'I' for Inactive)
REMARK    1  A    between atoms: C1_2  and  S1_3 
REMARK    2  A    between atoms: S1_3  and  C2_4 
REMARK    3  A    between atoms: C2_4  and  C3_5 
REMARK    4  A    between atoms: C3_5  and  C4_6 
REMARK    5  A    between atoms: C4_6  and  N1_7 
REMARK    6  A    between atoms: N1_7  and  C5_8 
REMARK    7  A    between atoms: C10_13  and  C11_14 
REMARK    8  A    between atoms: C11_14  and  C12_15 
REMARK    9  A    between atoms: C12_15  and  N2_16 
REMARK   10  A    between atoms: N2_16  and  C13_17 
ROOT
HETATM    1  C5  UNL     1      -0.553   0.514  -0.541  1.00  0.00     0.034 A 
HETATM    2  C6  UNL     1      -1.315   1.229  -1.438  1.00  0.00     0.029 A 
HETATM    3  C7  UNL     1      -0.944   1.596  -2.715  1.00  0.00     0.002 A 
HETATM    4  C8  UNL     1       0.312   1.209  -3.133  1.00  0.00     0.001 A 
HETATM    5  C9  UNL     1       1.105   0.492  -2.265  1.00  0.00     0.009 A 
HETATM    6  C10 UNL     1       0.715   0.138  -0.996  1.00  0.00    -0.030 A 
ENDROOT
BRANCH   1   7
HETATM    7  N1  UNL     1      -1.021   0.201   0.732  1.00  0.00    -0.389 N 
HETATM    8  H8  UNL     1      -0.326  -0.345   1.316  1.00  0.00     0.159 HD
BRANCH   7   9
HETATM    9  C4  UNL     1      -2.204   0.393   1.499  1.00  0.00     0.120 C 
BRANCH   9  10
HETATM   10  C3  UNL     1      -3.358  -0.493   1.203  1.00  0.00     0.030 C 
BRANCH  10  11
HETATM   11  C2  UNL     1      -3.921  -0.472  -0.166  1.00  0.00     0.083 C 
BRANCH  11  12
HETATM   12  S1  UNL     1      -5.324  -1.660  -0.217  1.00  0.00    -0.101 SA
BRANCH  12  13
HETATM   13  C1  UNL     1      -6.603  -1.017   0.854  1.00  0.00     0.304 C 
HETATM   14  O1  UNL     1      -6.496  -1.585   1.943  1.00  0.00    -0.295 OA
ENDBRANCH  12  13
ENDBRANCH  11  12
ENDBRANCH  10  11
ENDBRANCH   9  10
ENDBRANCH   7   9
ENDBRANCH   1   7
BRANCH   6  15
HETATM   15  C11 UNL     1       1.653  -0.617  -0.124  1.00  0.00     0.060 C 
BRANCH  15  16
HETATM   16  C12 UNL     1       2.329   0.308   0.858  1.00  0.00     0.124 C 
BRANCH  16  17
HETATM   17  N2  UNL     1       3.247  -0.408   1.726  1.00  0.00    -0.390 N 
HETATM   18  H17 UNL     1       3.310  -0.666   2.748  1.00  0.00     0.159 HD
BRANCH  17  19
HETATM   19  C13 UNL     1       4.393  -0.918   1.043  1.00  0.00     0.027 A 
HETATM   20  C14 UNL     1       5.046  -1.989   0.598  1.00  0.00     0.029 A 
HETATM   21  C15 UNL     1       6.151  -1.188   0.031  1.00  0.00     0.004 A 
HETATM   22  C16 UNL     1       5.493  -0.123   0.478  1.00  0.00     0.029 A 
ENDBRANCH  17  19
ENDBRANCH  16  17
ENDBRANCH  15  16
ENDBRANCH   6  15
TORSDOF 10
