REMARK  4 active torsions:
REMARK  status: ('A' for Active; 'I' for Inactive)
REMARK    1  A    between atoms: C2_2  and  C3_3 
REMARK    2  A    between atoms: C3_3  and  S1_4 
REMARK    3  A    between atoms: S1_4  and  C4_5 
REMARK    4  A    between atoms: C14_18  and  C15_19 
ROOT
HETATM    1  C4  UNL     1       0.927  -0.871   0.132  1.00  0.00     0.025 C 
HETATM    2  C5  UNL     1       0.087  -1.708   0.746  1.00  0.00     0.016 C 
HETATM    3  C6  UNL     1       0.775  -3.049   0.772  1.00  0.00     0.069 C 
HETATM    4  N1  UNL     1      -1.212  -1.761   1.373  1.00  0.00    -0.388 N 
HETATM    5  C7  UNL     1      -1.991  -0.654   1.878  1.00  0.00     0.160 C 
HETATM    6  C8  UNL     1      -2.375   0.345   0.892  1.00  0.00    -0.025 A 
HETATM    7  C9  UNL     1      -3.650   0.198   0.706  1.00  0.00     0.010 A 
HETATM    8  C10 UNL     1      -4.544   0.924  -0.164  1.00  0.00     0.001 A 
HETATM    9  C11 UNL     1      -4.094   1.903  -0.925  1.00  0.00     0.002 A 
HETATM   10  C12 UNL     1      -2.707   2.344  -0.973  1.00  0.00     0.018 A 
HETATM   11  P1  UNL     1      -1.589   1.623  -0.052  1.00  0.00    -0.038 P 
HETATM   12  N2  UNL     1      -0.360   0.846  -1.018  1.00  0.00    -0.282 NA
HETATM   13  C13 UNL     1      -0.940  -0.303  -1.643  1.00  0.00     0.116 C 
HETATM   14  C14 UNL     1       0.772   0.575  -0.173  1.00  0.00     0.137 C 
HETATM   15  H9  UNL     1      -1.603  -2.745   1.452  1.00  0.00     0.159 HD
HETATM   16  H16 UNL     1      -1.037   2.529   0.872  1.00  0.00     0.077 HD
ENDROOT
BRANCH   1  17
HETATM   17  S1  UNL     1       2.405  -1.811  -0.320  1.00  0.00    -0.103 SA
BRANCH  17  18
HETATM   18  C3  UNL     1       3.487  -0.650  -1.135  1.00  0.00     0.046 C 
BRANCH  18  19
HETATM   19  C2  UNL     1       4.234   0.215  -1.807  1.00  0.00    -0.024 C 
HETATM   20  C1  UNL     1       5.534   0.800  -1.366  1.00  0.00     0.036 C 
ENDBRANCH  18  19
ENDBRANCH  17  18
ENDBRANCH   1  17
BRANCH  14  21
HETATM   21  C15 UNL     1       0.789   1.430   1.029  1.00  0.00     0.416 C 
HETATM   22  O1  UNL     1       1.001   2.024   2.079  1.00  0.00    -0.428 OA
ENDBRANCH  14  21
TORSDOF 4
