REMARK  8 active torsions:
REMARK  status: ('A' for Active; 'I' for Inactive)
REMARK    1  A    between atoms: O1_2  and  C2_3 
REMARK    2  A    between atoms: C6_9  and  N3_10 
REMARK    3  A    between atoms: N3_10  and  C7_11 
REMARK    4  A    between atoms: C7_11  and  C8_12 
REMARK    5  A    between atoms: C11_17  and  C12_18 
REMARK    6  A    between atoms: C12_18  and  N4_19 
REMARK    7  A    between atoms: N4_19  and  C14_21 
REMARK    8  A    between atoms: C14_21  and  C16_23 
REMARK       I    between atoms: C16_23  and  N5_24 
ROOT
HETATM    1  C2  UNL     1      -0.134  -2.021  -0.555  1.00  0.00     0.078 A 
HETATM    2  C3  UNL     1       1.055  -2.625  -0.211  1.00  0.00     0.070 A 
HETATM    3  C4  UNL     1       2.057  -1.783   0.192  1.00  0.00     0.074 A 
HETATM    4  N1  UNL     1       3.265  -2.314   0.549  1.00  0.00    -0.241 NA
HETATM    5  C5  UNL     1       4.273  -1.515   0.950  1.00  0.00     0.235 A 
HETATM    6  N2  UNL     1       4.114  -0.184   1.007  1.00  0.00    -0.224 NA
HETATM    7  C6  UNL     1       2.971   0.402   0.676  1.00  0.00     0.137 A 
HETATM    8  C9  UNL     1       1.941  -0.419   0.266  1.00  0.00     0.039 A 
HETATM    9  C10 UNL     1       0.733   0.095  -0.092  1.00  0.00     0.029 A 
HETATM   10  C11 UNL     1      -0.368  -0.662  -0.520  1.00  0.00     0.004 A 
ENDROOT
BRANCH  10  11
HETATM   11  C12 UNL     1      -1.634   0.030  -0.862  1.00  0.00     0.314 C 
BRANCH  11  12
HETATM   12  N4  UNL     1      -2.640   0.030   0.129  1.00  0.00     0.101 N 
HETATM   13  C13 UNL     1      -3.166  -1.240   0.540  1.00  0.00     0.311 C 
BRANCH  12  14
HETATM   14  C14 UNL     1      -3.732   0.941  -0.120  1.00  0.00     0.309 C 
HETATM   15  C15 UNL     1      -4.353   0.560  -1.464  1.00  0.00     0.053 C 
BRANCH  14  16
HETATM   16  C16 UNL     1      -3.395   2.360  -0.023  1.00  0.00     0.248 C 
HETATM   17  N5  UNL     1      -2.104   2.853   0.313  1.00  0.00    -0.368 N 
HETATM   18  H20 UNL     1      -1.168   3.213   0.524  1.00  0.00     0.159 HD
HETATM   19  H21 UNL     1      -2.061   2.794   1.370  1.00  0.00     0.159 HD
HETATM   20  O2  UNL     1      -4.244   3.266  -0.234  1.00  0.00    -0.271 OA
ENDBRANCH  14  16
ENDBRANCH  12  14
ENDBRANCH  11  12
ENDBRANCH  10  11
BRANCH   1  21
HETATM   21  O1  UNL     1      -1.169  -2.844  -0.970  1.00  0.00    -0.355 OA
HETATM   22  C1  UNL     1      -1.051  -4.251  -1.048  1.00  0.00     0.210 C 
ENDBRANCH   1  21
BRANCH   7  23
HETATM   23  N3  UNL     1       2.848   1.814   0.759  1.00  0.00    -0.370 N 
HETATM   24  H6  UNL     1       2.002   2.379   0.533  1.00  0.00     0.161 HD
BRANCH  23  25
HETATM   25  C7  UNL     1       3.951   2.649   1.189  1.00  0.00     0.170 C 
BRANCH  25  26
HETATM   26  C8  UNL     1       5.079   2.534   0.196  1.00  0.00     0.259 C 
HETATM   27  F1  UNL     1       4.557   2.967  -1.026  1.00  0.00    -0.236 F 
HETATM   28 BR1  UNL     1       6.551   3.705   0.659  1.00  0.00    -0.054 Br
ENDBRANCH  25  26
ENDBRANCH  23  25
ENDBRANCH   7  23
TORSDOF 8
