REMARK  5 active torsions:
REMARK  status: ('A' for Active; 'I' for Inactive)
REMARK    1  A    between atoms: C6_7  and  C7_8 
REMARK    2  A    between atoms: C8_9  and  S1_10 
REMARK    3  A    between atoms: S1_10  and  C9_11 
REMARK    4  A    between atoms: C9_11  and  C10_12 
REMARK    5  A    between atoms: N1_18  and  O2_19 
ROOT
HETATM    1  C7  UNL     1      -1.661   0.277  -0.013  1.00  0.00     0.026 A 
HETATM    2  C8  UNL     1      -0.561   0.853   0.542  1.00  0.00     0.112 A 
HETATM    3  N1  UNL     1      -0.747   2.151   0.814  1.00  0.00    -0.217 N 
HETATM    4  C16 UNL     1      -2.009   2.493   0.441  1.00  0.00     0.074 A 
HETATM    5  C17 UNL     1      -2.708   3.701   0.516  1.00  0.00     0.033 A 
HETATM    6  C18 UNL     1      -4.004   3.783   0.079  1.00  0.00     0.002 A 
HETATM    7  C19 UNL     1      -4.586   2.651  -0.427  1.00  0.00     0.001 A 
HETATM    8  C20 UNL     1      -3.853   1.491  -0.478  1.00  0.00     0.015 A 
HETATM    9  C21 UNL     1      -2.553   1.325  -0.064  1.00  0.00     0.007 A 
ENDROOT
BRANCH   2  10
HETATM   10  S1  UNL     1       1.053   0.235   0.931  1.00  0.00    -0.104 SA
BRANCH  10  11
HETATM   11  C9  UNL     1       2.172   0.454  -0.483  1.00  0.00     0.119 C 
BRANCH  11  12
HETATM   12  C10 UNL     1       3.504  -0.088  -0.077  1.00  0.00    -0.049 A 
HETATM   13  C11 UNL     1       4.343   0.860   0.519  1.00  0.00     0.008 A 
HETATM   14  C12 UNL     1       5.616   0.575   0.969  1.00  0.00     0.001 A 
HETATM   15  C13 UNL     1       6.065  -0.721   0.814  1.00  0.00     0.000 A 
HETATM   16  C14 UNL     1       5.253  -1.668   0.229  1.00  0.00     0.001 A 
HETATM   17  C15 UNL     1       3.982  -1.373  -0.217  1.00  0.00     0.008 A 
ENDBRANCH  11  12
ENDBRANCH  10  11
ENDBRANCH   2  10
BRANCH   1  18
HETATM   18  C6  UNL     1      -1.864  -1.100  -0.377  1.00  0.00     0.024 A 
HETATM   19  C1  UNL     1      -1.089  -2.189   0.201  1.00  0.00     0.163 A 
HETATM   20  O1  UNL     1      -0.155  -2.097   1.019  1.00  0.00    -0.292 OA
HETATM   21  C2  UNL     1      -1.189  -3.653  -0.008  1.00  0.00     0.111 A 
HETATM   22  C3  UNL     1      -2.304  -3.962  -0.946  1.00  0.00    -0.019 A 
HETATM   23  C4  UNL     1      -3.018  -2.990  -1.470  1.00  0.00    -0.003 A 
HETATM   24  C5  UNL     1      -2.772  -1.604  -1.171  1.00  0.00     0.016 A 
ENDBRANCH   1  18
BRANCH   3  25
HETATM   25  O2  UNL     1       0.091   3.116   1.374  1.00  0.00    -0.282 OA
HETATM   26  H13 UNL     1       0.788   3.554   0.778  1.00  0.00     0.245 HD
ENDBRANCH   3  25
TORSDOF 5
