REMARK  4 active torsions:
REMARK  status: ('A' for Active; 'I' for Inactive)
REMARK    1  A    between atoms: N1_2  and  C2_3 
REMARK    2  A    between atoms: N1_2  and  C18_24 
REMARK    3  A    between atoms: C3_4  and  C4_5 
REMARK       I    between atoms: C4_5  and  N2_7 
REMARK    4  A    between atoms: N2_7  and  C5_8 
ROOT
HETATM    1  C2  UNL     1      -1.809   0.349  -1.009  1.00  0.00     0.096 C 
HETATM    2  C3  UNL     1      -0.692   1.300  -0.957  1.00  0.00     0.058 C 
HETATM    3  C11 UNL     1      -0.745   2.914  -0.772  1.00  0.00     0.030 A 
HETATM    4  C12 UNL     1      -0.043   2.677   0.438  1.00  0.00    -0.011 A 
HETATM    5  C13 UNL     1      -0.720   3.523   1.374  1.00  0.00    -0.006 A 
HETATM    6  C14 UNL     1      -1.824   4.276   0.886  1.00  0.00    -0.015 A 
HETATM    7  C15 UNL     1      -2.043   4.073  -0.448  1.00  0.00     0.008 A 
HETATM    8  C16 UNL     1      -1.694   3.469  -1.641  1.00  0.00     0.025 A 
HETATM    9  C17 UNL     1      -3.573   4.127  -0.246  1.00  0.00     0.102 C 
HETATM   10  S1  UNL     1      -4.136   2.400   0.032  1.00  0.00    -0.090 SA
HETATM   11  S2  UNL     1      -3.529   0.966  -1.366  1.00  0.00    -0.039 SA
ENDROOT
BRANCH   2  12
HETATM   12  C4  UNL     1       0.571   0.635  -0.981  1.00  0.00     0.255 C 
HETATM   13  O1  UNL     1       0.422  -0.597  -0.958  1.00  0.00    -0.268 OA
HETATM   14  N2  UNL     1       1.937   0.885  -1.029  1.00  0.00    -0.333 N 
HETATM   15  H4  UNL     1       2.012   1.952  -1.120  1.00  0.00     0.168 HD
BRANCH  14  16
HETATM   16  C5  UNL     1       3.058   0.068  -1.035  1.00  0.00     0.097 C 
HETATM   17  C6  UNL     1       3.649  -1.105  -1.018  1.00  0.00    -0.052 C 
HETATM   18  C7  UNL     1       2.838  -2.338  -0.966  1.00  0.00     0.006 C 
HETATM   19  C10 UNL     1       5.130  -1.279  -1.039  1.00  0.00    -0.014 C 
HETATM   20  C8  UNL     1       3.028  -3.265  -0.042  1.00  0.00    -0.015 C 
HETATM   21  C9  UNL     1       4.036  -3.168   1.001  1.00  0.00    -0.087 C 
HETATM   22  B1  UNL     1       5.527  -1.940   0.617  1.00  0.00     0.174 B 
ENDBRANCH  14  16
ENDBRANCH   2  12
BRANCH   1  23
HETATM   23  N1  UNL     1      -1.626  -1.007  -0.795  1.00  0.00    -0.345 N 
HETATM   24  C1  UNL     1      -1.599  -1.980  -1.907  1.00  0.00     0.157 C 
BRANCH  23  25
HETATM   25  C18 UNL     1      -1.504  -1.452   0.582  1.00  0.00     0.034 A 
HETATM   26  C19 UNL     1      -1.527  -0.567   1.637  1.00  0.00     0.029 A 
HETATM   27  C20 UNL     1      -1.414  -0.965   2.949  1.00  0.00     0.002 A 
HETATM   28  C21 UNL     1      -1.270  -2.305   3.242  1.00  0.00     0.000 A 
HETATM   29  C22 UNL     1      -1.242  -3.229   2.221  1.00  0.00     0.002 A 
HETATM   30  C23 UNL     1      -1.359  -2.775   0.937  1.00  0.00     0.029 A 
ENDBRANCH  23  25
ENDBRANCH   1  23
TORSDOF 4
