REMARK  6 active torsions:
REMARK  status: ('A' for Active; 'I' for Inactive)
REMARK    1  A    between atoms: N1_1  and  C1_2 
REMARK    2  A    between atoms: C2_4  and  N3_5 
REMARK    3  A    between atoms: N3_5  and  C3_6 
REMARK    4  A    between atoms: C6_9  and  S1_10 
REMARK    5  A    between atoms: S1_10  and  N4_11 
REMARK    6  A    between atoms: N6_17  and  C9_18 
ROOT
HETATM    1  C1  UNL     1      -1.437  -0.988  -0.148  1.00  0.00     0.733 A 
HETATM    2  N2  UNL     1      -0.356  -0.837   0.669  1.00  0.00     0.131 NA
HETATM    3  C2  UNL     1      -0.359   0.425   1.159  1.00  0.00     0.760 A 
HETATM    4  N5  UNL     1      -1.427   1.031   0.649  1.00  0.00     0.037 NA
HETATM    5  N6  UNL     1      -2.079   0.193  -0.136  1.00  0.00    -0.069 N 
ENDROOT
BRANCH   3   6
HETATM    6  N3  UNL     1       0.792   0.549   2.025  1.00  0.00    -0.186 N 
HETATM    7  H3  UNL     1       0.770   0.659   3.062  1.00  0.00     0.184 HD
BRANCH   6   8
HETATM    8  C3  UNL     1       2.077   0.520   1.365  1.00  0.00     0.049 A 
HETATM    9  C4  UNL     1       2.070   0.529  -0.028  1.00  0.00     0.031 A 
HETATM   10  C5  UNL     1       3.300   0.461  -0.693  1.00  0.00     0.027 A 
HETATM   11  C6  UNL     1       4.482   0.387   0.029  1.00  0.00     0.074 A 
HETATM   12  C7  UNL     1       4.474   0.380   1.424  1.00  0.00     0.027 A 
HETATM   13  C8  UNL     1       3.256   0.447   2.075  1.00  0.00     0.031 A 
BRANCH  11  14
HETATM   14  S1  UNL     1       5.986   0.296  -0.811  1.00  0.00     0.239 S 
HETATM   15  O1  UNL     1       7.087   0.779   0.085  1.00  0.00    -0.206 OA
HETATM   16  O2  UNL     1       5.934   1.096  -2.070  1.00  0.00    -0.206 OA
BRANCH  14  17
HETATM   17  N4  UNL     1       6.308  -1.380  -1.166  1.00  0.00    -0.225 NA
HETATM   18  H6  UNL     1       5.390  -1.868  -1.278  1.00  0.00     0.136 HD
HETATM   19  H7  UNL     1       6.844  -1.810  -0.388  1.00  0.00     0.136 HD
ENDBRANCH  14  17
ENDBRANCH  11  14
ENDBRANCH   6   8
ENDBRANCH   3   6
BRANCH   1  20
HETATM   20  N1  UNL     1      -1.714  -2.233  -0.843  1.00  0.00    -0.231 N 
HETATM   21  H1  UNL     1      -1.597  -2.135  -1.875  1.00  0.00     0.174 HD
HETATM   22  H2  UNL     1      -2.004  -3.164  -0.434  1.00  0.00     0.174 HD
ENDBRANCH   1  20
BRANCH   5  23
HETATM   23  C9  UNL     1      -3.290   0.266  -0.939  1.00  0.00     0.229 A 
HETATM   24  C10 UNL     1      -3.983   1.552  -0.674  1.00  0.00     0.122 A 
HETATM   25  F1  UNL     1      -3.119   2.573  -0.980  1.00  0.00    -0.208 F 
HETATM   26  C11 UNL     1      -5.176   1.866  -0.239  1.00  0.00     0.040 A 
HETATM   27  C12 UNL     1      -6.009   0.709   0.052  1.00  0.00     0.002 A 
HETATM   28  C13 UNL     1      -5.472  -0.477  -0.155  1.00  0.00     0.012 A 
HETATM   29  C14 UNL     1      -4.148  -0.919  -0.643  1.00  0.00     0.225 A 
HETATM   30  F2  UNL     1      -4.277  -1.713  -1.773  1.00  0.00    -0.242 F 
ENDBRANCH   5  23
TORSDOF 6
