REMARK  5 active torsions:
REMARK  status: ('A' for Active; 'I' for Inactive)
REMARK    1  A    between atoms: C4_4  and  C5_5 
REMARK    2  A    between atoms: C7_7  and  C8_8 
REMARK    3  A    between atoms: C9_10  and  S1_11 
REMARK    4  A    between atoms: S1_11  and  S2_12 
REMARK    5  A    between atoms: S2_12  and  C10_13 
ROOT
HETATM    1  C1  UNL     1      -2.849   3.184  -0.844  1.00  0.00     0.099 C 
HETATM    2  C2  UNL     1      -2.396   2.091  -0.324  1.00  0.00    -0.125 C 
HETATM    3  C3  UNL     1      -1.987   0.958   0.164  1.00  0.00     0.088 A 
HETATM    4  C4  UNL     1      -2.699  -0.193   0.129  1.00  0.00     0.011 A 
HETATM    5  C7  UNL     1      -1.843  -1.104   0.768  1.00  0.00     0.049 A 
HETATM    6  C9  UNL     1      -0.668  -0.435   1.147  1.00  0.00     0.098 A 
HETATM    7  N1  UNL     1      -0.813   0.841   0.746  1.00  0.00    -0.338 N 
HETATM    8  C16 UNL     1       0.192   1.833   0.964  1.00  0.00     0.158 C 
ENDROOT
BRANCH   4   9
HETATM    9  C5  UNL     1      -3.903  -0.432  -0.375  1.00  0.00    -0.016 C 
HETATM   10  C6  UNL     1      -4.561  -1.759  -0.340  1.00  0.00     0.037 C 
ENDBRANCH   4   9
BRANCH   5  11
HETATM   11  C8  UNL     1      -2.164  -2.527   0.988  1.00  0.00     0.273 C 
HETATM   12  O1  UNL     1      -2.747  -2.983   2.005  1.00  0.00    -0.301 OA
ENDBRANCH   5  11
BRANCH   6  13
HETATM   13  S1  UNL     1       0.645  -1.308   1.994  1.00  0.00    -0.033 SA
BRANCH  13  14
HETATM   14  S2  UNL     1       1.941  -2.109   0.543  1.00  0.00    -0.051 SA
BRANCH  14  15
HETATM   15  C10 UNL     1       3.222  -0.924   0.188  1.00  0.00     0.011 A 
HETATM   16  C11 UNL     1       3.458   0.326   0.718  1.00  0.00     0.019 A 
HETATM   17  C12 UNL     1       4.530   1.062   0.264  1.00  0.00     0.001 A 
HETATM   18  C13 UNL     1       5.398   0.614  -0.708  1.00  0.00     0.000 A 
HETATM   19  C14 UNL     1       5.165  -0.636  -1.240  1.00  0.00     0.001 A 
HETATM   20  C15 UNL     1       4.085  -1.411  -0.803  1.00  0.00     0.019 A 
ENDBRANCH  14  15
ENDBRANCH  13  14
ENDBRANCH   6  13
TORSDOF 5
