REMARK  2 active torsions:
REMARK  status: ('A' for Active; 'I' for Inactive)
REMARK    1  A    between atoms: C9_13  and  C10_14 
REMARK       I    between atoms: C10_14  and  N3_16 
REMARK    2  A    between atoms: N3_16  and  C11_17 
ROOT
HETATM    1  C1  UNL     1      -4.160  -2.054  -0.741  1.00  0.00     0.172 C 
HETATM    2  N1  UNL     1      -3.534  -0.911  -0.098  1.00  0.00    -0.310 N 
HETATM    3  N2  UNL     1      -4.400   0.178   0.014  1.00  0.00    -0.167 NA
HETATM    4  S1  UNL     1      -4.497   0.997  -1.540  1.00  0.00     0.010 SA
HETATM    5  S2  UNL     1      -2.574   1.099  -2.457  1.00  0.00    -0.075 SA
HETATM    6  C2  UNL     1      -1.707   2.608  -1.942  1.00  0.00     0.126 C 
HETATM    7  C3  UNL     1      -1.421   2.558  -0.461  1.00  0.00    -0.041 A 
HETATM    8  C4  UNL     1      -1.807   3.594   0.365  1.00  0.00     0.008 A 
HETATM    9  C5  UNL     1      -1.604   3.653   1.730  1.00  0.00     0.001 A 
HETATM   10  C6  UNL     1      -0.958   2.574   2.304  1.00  0.00     0.001 A 
HETATM   11  C7  UNL     1      -0.561   1.521   1.493  1.00  0.00     0.008 A 
HETATM   12  C8  UNL     1      -0.769   1.475   0.130  1.00  0.00    -0.037 A 
HETATM   13  C9  UNL     1      -0.253   0.269  -0.504  1.00  0.00     0.125 C 
HETATM   14  C17 UNL     1      -0.765  -1.036  -0.086  1.00  0.00     0.077 A 
HETATM   15  C18 UNL     1      -0.024  -1.696   1.017  1.00  0.00    -0.015 A 
HETATM   16  C19 UNL     1      -0.826  -2.197   1.943  1.00  0.00    -0.001 A 
HETATM   17  C20 UNL     1      -2.192  -1.867   1.463  1.00  0.00     0.027 A 
HETATM   18  C21 UNL     1      -2.163  -1.189   0.288  1.00  0.00     0.032 A 
HETATM   19  H4  UNL     1      -4.100   0.874   0.728  1.00  0.00     0.161 HD
ENDROOT
BRANCH  13  20
HETATM   20  C10 UNL     1       1.249   0.230  -0.310  1.00  0.00     0.231 C 
HETATM   21  O1  UNL     1       1.737   1.173   0.359  1.00  0.00    -0.272 OA
HETATM   22  N3  UNL     1       2.080  -0.768  -0.823  1.00  0.00    -0.327 N 
HETATM   23  H12 UNL     1       1.537  -1.478  -1.353  1.00  0.00     0.169 HD
BRANCH  22  24
HETATM   24  C11 UNL     1       3.481  -0.915  -0.713  1.00  0.00     0.034 A 
HETATM   25  C12 UNL     1       4.089  -1.992  -1.313  1.00  0.00     0.029 A 
HETATM   26  C13 UNL     1       5.444  -2.209  -1.255  1.00  0.00     0.002 A 
HETATM   27  C14 UNL     1       6.268  -1.340  -0.582  1.00  0.00     0.000 A 
HETATM   28  C15 UNL     1       5.712  -0.258   0.028  1.00  0.00     0.002 A 
HETATM   29  C16 UNL     1       4.349  -0.078  -0.055  1.00  0.00     0.029 A 
ENDBRANCH  22  24
ENDBRANCH  13  20
TORSDOF 2
