REMARK  2 active torsions:
REMARK  status: ('A' for Active; 'I' for Inactive)
REMARK    1  A    between atoms: N1_1  and  S1_2 
REMARK    2  A    between atoms: S1_2  and  C1_5 
ROOT
HETATM    1  C1  UNL     1       2.579  -0.435   0.398  1.00  0.00     0.185 C 
HETATM    2  N2  UNL     1       2.133  -0.916  -0.793  1.00  0.00    -0.050 NA
HETATM    3  C2  UNL     1       0.673  -0.933  -0.971  1.00  0.00     0.720 C 
HETATM    4  N3  UNL     1       0.204  -2.012  -0.312  1.00  0.00    -0.093 NA
HETATM    5  C3  UNL     1      -0.582  -1.259   0.706  1.00  0.00     0.189 C 
HETATM    6  C4  UNL     1       0.371  -0.499   1.579  1.00  0.00     0.007 C 
HETATM    7  C5  UNL     1       1.725  -0.326   1.629  1.00  0.00     0.044 C 
HETATM    8  C6  UNL     1      -1.389  -0.395  -0.230  1.00  0.00     0.161 A 
HETATM    9  N4  UNL     1      -0.540  -0.373  -1.443  1.00  0.00    -0.201 N 
HETATM   10  C7  UNL     1      -1.553   0.985   0.289  1.00  0.00     0.128 A 
HETATM   11  F1  UNL     1      -0.398   1.624   0.596  1.00  0.00    -0.208 F 
HETATM   12  C8  UNL     1      -2.670   1.651   0.484  1.00  0.00     0.040 A 
HETATM   13  C9  UNL     1      -3.954   1.030   0.177  1.00  0.00     0.002 A 
HETATM   14  C10 UNL     1      -3.874  -0.201  -0.289  1.00  0.00     0.013 A 
HETATM   15  C11 UNL     1      -2.687  -1.056  -0.552  1.00  0.00     0.231 A 
HETATM   16  F2  UNL     1      -2.670  -1.527  -1.845  1.00  0.00    -0.242 F 
HETATM   17  H6  UNL     1      -0.293  -0.176  -2.473  1.00  0.00     0.179 HD
ENDROOT
BRANCH   1  18
HETATM   18  S1  UNL     1       4.194   0.113   0.618  1.00  0.00     0.257 S 
HETATM   19  O1  UNL     1       4.758  -0.204   1.951  1.00  0.00    -0.205 OA
HETATM   20  O2  UNL     1       5.052  -0.643  -0.392  1.00  0.00    -0.205 OA
BRANCH  18  21
HETATM   21  N1  UNL     1       4.439   1.778   0.298  1.00  0.00    -0.224 NA
HETATM   22  H1  UNL     1       3.580   2.311   0.079  1.00  0.00     0.136 HD
HETATM   23  H2  UNL     1       5.239   1.983  -0.330  1.00  0.00     0.136 HD
ENDBRANCH  18  21
ENDBRANCH   1  18
TORSDOF 2
