REMARK  7 active torsions:
REMARK  status: ('A' for Active; 'I' for Inactive)
REMARK    1  A    between atoms: N1_1  and  C1_2 
REMARK    2  A    between atoms: C2_4  and  N3_5 
REMARK    3  A    between atoms: N3_5  and  C3_6 
REMARK    4  A    between atoms: C6_9  and  S1_10 
REMARK    5  A    between atoms: S1_10  and  N4_11 
REMARK    6  A    between atoms: N5_16  and  C9_17 
REMARK    7  A    between atoms: C9_17  and  N6_18 
ROOT
HETATM    1  C1  UNL     1      -1.581   0.576  -1.497  1.00  0.00     0.700 A 
HETATM    2  N2  UNL     1      -0.367   0.795  -1.357  1.00  0.00    -0.061 NA
HETATM    3  C2  UNL     1      -0.417   0.985   0.052  1.00  0.00     0.354 A 
HETATM    4  N5  UNL     1      -1.817   0.728  -0.136  1.00  0.00    -0.128 N 
ENDROOT
BRANCH   3   5
HETATM    5  N3  UNL     1       0.237  -0.019   0.853  1.00  0.00    -0.350 N 
HETATM    6  H4  UNL     1      -0.041  -0.692   1.600  1.00  0.00     0.163 HD
BRANCH   5   7
HETATM    7  C3  UNL     1       1.652  -0.184   0.614  1.00  0.00     0.030 A 
HETATM    8  C4  UNL     1       2.476  -1.125   1.219  1.00  0.00     0.031 A 
HETATM    9  C5  UNL     1       3.822  -1.285   1.002  1.00  0.00     0.027 A 
HETATM   10  C6  UNL     1       4.420  -0.438   0.101  1.00  0.00     0.074 A 
HETATM   11  C7  UNL     1       3.695   0.523  -0.547  1.00  0.00     0.027 A 
HETATM   12  C8  UNL     1       2.350   0.623  -0.277  1.00  0.00     0.031 A 
BRANCH  10  13
HETATM   13  S1  UNL     1       6.129  -0.642  -0.174  1.00  0.00     0.239 S 
HETATM   14  O1  UNL     1       6.447  -0.266  -1.584  1.00  0.00    -0.206 OA
HETATM   15  O2  UNL     1       6.497  -2.096  -0.022  1.00  0.00    -0.206 OA
BRANCH  13  16
HETATM   16  N4  UNL     1       6.985   0.346   0.941  1.00  0.00    -0.225 NA
HETATM   17  H7  UNL     1       7.826  -0.128   1.303  1.00  0.00     0.136 HD
HETATM   18  H8  UNL     1       7.217   1.297   0.530  1.00  0.00     0.136 HD
ENDBRANCH  13  16
ENDBRANCH  10  13
ENDBRANCH   5   7
ENDBRANCH   3   5
BRANCH   4  19
HETATM   19  C9  UNL     1      -3.104   0.599   0.482  1.00  0.00     0.333 A 
HETATM   20  C10 UNL     1      -4.249   0.447  -0.420  1.00  0.00     0.156 A 
HETATM   21  F1  UNL     1      -4.072   1.482  -1.297  1.00  0.00    -0.206 F 
HETATM   22  C11 UNL     1      -5.297  -0.331  -0.605  1.00  0.00     0.042 A 
HETATM   23  C12 UNL     1      -5.348  -1.383   0.401  1.00  0.00     0.002 A 
HETATM   24  C13 UNL     1      -4.344  -1.322   1.255  1.00  0.00     0.015 A 
HETATM   25  C14 UNL     1      -3.142  -0.488   1.511  1.00  0.00     0.260 A 
HETATM   26  F2  UNL     1      -3.138  -0.017   2.801  1.00  0.00    -0.240 F 
BRANCH  19  27
HETATM   27  N6  UNL     1      -3.376   1.848   1.234  1.00  0.00     0.118 N 
HETATM   28  H11 UNL     1      -2.551   1.942   1.889  1.00  0.00     0.316 HD
HETATM   29  H12 UNL     1      -3.384   2.613   0.534  1.00  0.00     0.316 HD
ENDBRANCH  19  27
ENDBRANCH   4  19
BRANCH   1  30
HETATM   30  N1  UNL     1      -2.157   0.302  -2.768  1.00  0.00    -0.233 N 
HETATM   31  H1  UNL     1      -2.531  -0.677  -2.753  1.00  0.00     0.174 HD
HETATM   32  H2  UNL     1      -2.235   0.912  -3.616  1.00  0.00     0.174 HD
ENDBRANCH   1  30
TORSDOF 7
