REMARK  11 active torsions:
REMARK  status: ('A' for Active; 'I' for Inactive)
REMARK    1  A    between atoms: C2_2  and  C3_3 
REMARK    2  A    between atoms: C2_2  and  C15_26 
REMARK    3  A    between atoms: C3_3  and  C4_4 
REMARK    4  A    between atoms: C4_4  and  C5_5 
REMARK    5  A    between atoms: C5_5  and  C6_6 
REMARK    6  A    between atoms: C6_6  and  P1_8 
REMARK    7  A    between atoms: P1_8  and  N1_9 
REMARK    8  A    between atoms: N3_12  and  C8_13 
REMARK    9  A    between atoms: C11_16  and  S1_17 
REMARK   10  A    between atoms: S1_17  and  N4_18 
REMARK   11  A    between atoms: C14_24  and  N6_25 
ROOT
HETATM    1  N1  UNL     1       0.498  -1.045   1.464  1.00  0.00    -0.068 N 
HETATM    2  N2  UNL     1      -0.226  -0.045   2.163  1.00  0.00    -0.147 NA
HETATM    3  C7  UNL     1      -1.449   0.161   1.793  1.00  0.00     0.258 A 
HETATM    4  N3  UNL     1      -2.100  -0.541   0.746  1.00  0.00    -0.210 N 
HETATM    5  N5  UNL     1      -1.362  -1.516   0.081  1.00  0.00     0.027 NA
HETATM    6  C14 UNL     1      -0.119  -1.772   0.409  1.00  0.00     0.737 A 
ENDROOT
BRANCH   4   7
HETATM    7  C8  UNL     1      -3.443  -0.296   0.359  1.00  0.00     0.060 A 
HETATM    8  C9  UNL     1      -4.272   0.639   0.939  1.00  0.00     0.033 A 
HETATM    9  C10 UNL     1      -5.567   0.871   0.562  1.00  0.00     0.027 A 
HETATM   10  C11 UNL     1      -6.112   0.136  -0.468  1.00  0.00     0.074 A 
HETATM   11  C12 UNL     1      -5.319  -0.800  -1.067  1.00  0.00     0.027 A 
HETATM   12  C13 UNL     1      -4.015  -1.015  -0.667  1.00  0.00     0.033 A 
BRANCH  10  13
HETATM   13  S1  UNL     1      -7.767   0.429  -0.955  1.00  0.00     0.239 S 
HETATM   14  O2  UNL     1      -8.405  -0.822  -1.498  1.00  0.00    -0.206 OA
HETATM   15  O3  UNL     1      -8.567   0.990   0.183  1.00  0.00    -0.206 OA
BRANCH  13  16
HETATM   16  N4  UNL     1      -7.708   1.658  -2.188  1.00  0.00    -0.225 NA
HETATM   17  H11 UNL     1      -6.981   2.335  -1.903  1.00  0.00     0.136 HD
HETATM   18  H12 UNL     1      -8.636   2.145  -2.238  1.00  0.00     0.136 HD
ENDBRANCH  13  16
ENDBRANCH  10  13
ENDBRANCH   4   7
BRANCH   6  19
HETATM   19  N6  UNL     1       0.624  -2.770  -0.279  1.00  0.00    -0.230 N 
HETATM   20  H15 UNL     1       0.526  -3.710   0.183  1.00  0.00     0.174 HD
HETATM   21  H16 UNL     1       1.248  -2.892  -1.106  1.00  0.00     0.174 HD
ENDBRANCH   6  19
BRANCH   1  22
HETATM   22  P1  UNL     1       2.192  -1.327   1.982  1.00  0.00     0.092 P 
HETATM   23  H7  UNL     1       2.419  -2.679   2.426  1.00  0.00     0.091 HD
BRANCH  22  24
HETATM   24  C6  UNL     1       3.278  -0.870   0.575  1.00  0.00     0.173 C 
HETATM   25  O1  UNL     1       4.042  -1.587  -0.071  1.00  0.00    -0.291 OA
BRANCH  24  26
HETATM   26  C5  UNL     1       3.263   0.549   0.123  1.00  0.00     0.103 C 
BRANCH  26  27
HETATM   27  C4  UNL     1       4.190   0.699  -0.998  1.00  0.00     0.075 C 
BRANCH  27  28
HETATM   28  C3  UNL     1       5.476   0.760  -0.722  1.00  0.00    -0.163 C 
BRANCH  28  29
HETATM   29  C2  UNL     1       6.684   0.925  -0.197  1.00  0.00     0.054 C 
HETATM   30  C1  UNL     1       7.360  -0.380  -0.054  1.00  0.00     0.032 C 
BRANCH  29  31
HETATM   31  C15 UNL     1       7.099   2.280   0.126  1.00  0.00     0.245 C 
HETATM   32  F1  UNL     1       6.159   3.209  -0.173  1.00  0.00    -0.254 F 
ENDBRANCH  29  31
ENDBRANCH  28  29
ENDBRANCH  27  28
ENDBRANCH  26  27
ENDBRANCH  24  26
ENDBRANCH  22  24
ENDBRANCH   1  22
TORSDOF 11
