REMARK  6 active torsions:
REMARK  status: ('A' for Active; 'I' for Inactive)
REMARK    1  A    between atoms: N1_1  and  C1_2 
REMARK    2  A    between atoms: C2_4  and  N3_5 
REMARK    3  A    between atoms: N3_5  and  C3_6 
REMARK    4  A    between atoms: C6_9  and  S1_10 
REMARK    5  A    between atoms: S1_10  and  N4_11 
REMARK    6  A    between atoms: N6_26  and  C16_27 
ROOT
HETATM    1  C1  UNL     1      -2.552  -1.628   0.842  1.00  0.00     0.205 C 
HETATM    2  N2  UNL     1      -1.409  -1.270   0.591  1.00  0.00    -0.033 NA
HETATM    3  C2  UNL     1      -0.769  -0.143   0.036  1.00  0.00     0.725 C 
HETATM    4  N5  UNL     1      -0.455   1.069  -0.350  1.00  0.00    -0.101 NA
HETATM    5  C9  UNL     1      -1.314   2.258  -0.076  1.00  0.00     0.210 C 
HETATM    6  C10 UNL     1      -2.699   1.789  -0.447  1.00  0.00     0.003 A 
HETATM    7  C11 UNL     1      -3.136   2.157  -1.677  1.00  0.00     0.015 A 
HETATM    8  C12 UNL     1      -4.120   1.217  -2.044  1.00  0.00     0.045 A 
HETATM    9  C13 UNL     1      -4.465   0.152  -1.185  1.00  0.00     0.146 A 
HETATM   10  F1  UNL     1      -5.379  -0.801  -1.475  1.00  0.00    -0.204 F 
HETATM   11  C14 UNL     1      -3.694   0.283  -0.068  1.00  0.00     0.122 A 
HETATM   12  C15 UNL     1      -2.759   0.955   0.610  1.00  0.00     0.154 A 
HETATM   13  F2  UNL     1      -2.267   0.798   1.813  1.00  0.00    -0.203 F 
HETATM   14  N6  UNL     1      -3.764  -0.942   0.606  1.00  0.00    -0.257 N 
ENDROOT
BRANCH   3  15
HETATM   15  N3  UNL     1       0.359  -0.872  -0.531  1.00  0.00    -0.188 N 
HETATM   16  H3  UNL     1       0.307  -1.789  -1.105  1.00  0.00     0.184 HD
BRANCH  15  17
HETATM   17  C3  UNL     1       1.751  -0.470  -0.407  1.00  0.00     0.049 A 
HETATM   18  C4  UNL     1       2.208   0.599   0.365  1.00  0.00     0.031 A 
HETATM   19  C5  UNL     1       3.490   1.011   0.502  1.00  0.00     0.027 A 
HETATM   20  C6  UNL     1       4.438   0.315  -0.180  1.00  0.00     0.074 A 
HETATM   21  C7  UNL     1       4.071  -0.754  -0.965  1.00  0.00     0.027 A 
HETATM   22  C8  UNL     1       2.749  -1.118  -1.059  1.00  0.00     0.031 A 
BRANCH  20  23
HETATM   23  S1  UNL     1       6.126   0.757  -0.078  1.00  0.00     0.239 S 
HETATM   24  O1  UNL     1       6.796   0.369  -1.359  1.00  0.00    -0.206 OA
HETATM   25  O2  UNL     1       6.181   2.237   0.163  1.00  0.00    -0.206 OA
BRANCH  23  26
HETATM   26  N4  UNL     1       6.860  -0.107   1.239  1.00  0.00    -0.225 NA
HETATM   27  H6  UNL     1       7.291   0.574   1.873  1.00  0.00     0.136 HD
HETATM   28  H7  UNL     1       6.152  -0.655   1.779  1.00  0.00     0.136 HD
ENDBRANCH  23  26
ENDBRANCH  20  23
ENDBRANCH  15  17
ENDBRANCH   3  15
BRANCH   1  29
HETATM   29  N1  UNL     1      -2.280  -2.908   1.397  1.00  0.00    -0.271 NA
HETATM   30  H1  UNL     1      -2.733  -3.837   1.377  1.00  0.00     0.127 HD
HETATM   31  H2  UNL     1      -2.764  -3.831   1.356  1.00  0.00     0.127 HD
ENDBRANCH   1  29
BRANCH  14  32
HETATM   32  C16 UNL     1      -4.769  -1.679   1.105  1.00  0.00     0.363 C 
HETATM   33  O3  UNL     1      -5.610  -0.798   0.910  1.00  0.00    -0.283 OA
ENDBRANCH  14  32
TORSDOF 6
