REMARK  5 active torsions:
REMARK  status: ('A' for Active; 'I' for Inactive)
REMARK    1  A    between atoms: C6_7  and  C7_8 
REMARK       I    between atoms: C7_8  and  N1_10 
REMARK    2  A    between atoms: C8_12  and  C9_13 
REMARK    3  A    between atoms: C12_16  and  S1_17 
REMARK    4  A    between atoms: S1_17  and  N3_18 
REMARK    5  A    between atoms: C15_25  and  N5_26 
ROOT
HETATM    1  C7  UNL     1      -2.533  -1.810  -1.196  1.00  0.00     0.298 C 
HETATM    2  O1  UNL     1      -3.098  -2.735  -1.878  1.00  0.00    -0.265 OA
HETATM    3  N1  UNL     1      -1.133  -1.674  -1.095  1.00  0.00    -0.021 N 
HETATM    4  N2  UNL     1      -0.312  -0.842  -0.482  1.00  0.00    -0.128 NA
HETATM    5  C8  UNL     1       0.967  -1.116  -0.683  1.00  0.00     0.202 A 
HETATM    6  N4  UNL     1       0.974  -2.191  -1.476  1.00  0.00    -0.041 NA
HETATM    7  C15 UNL     1      -0.293  -2.539  -1.733  1.00  0.00     0.726 A 
ENDROOT
BRANCH   5   8
HETATM    8  C9  UNL     1       2.120  -0.402  -0.156  1.00  0.00     0.053 A 
HETATM    9  C10 UNL     1       1.977   0.686   0.646  1.00  0.00     0.020 A 
HETATM   10  C11 UNL     1       3.036   1.409   1.180  1.00  0.00     0.026 A 
HETATM   11  C12 UNL     1       4.301   0.955   0.845  1.00  0.00     0.077 A 
HETATM   12  C13 UNL     1       4.481  -0.152   0.029  1.00  0.00     0.068 A 
HETATM   13  C14 UNL     1       3.391  -0.830  -0.472  1.00  0.00     0.132 A 
HETATM   14  F2  UNL     1       3.519  -1.919  -1.275  1.00  0.00    -0.205 F 
BRANCH  11  15
HETATM   15  S1  UNL     1       5.753   1.729   1.416  1.00  0.00     0.239 S 
HETATM   16  O2  UNL     1       6.837   0.695   1.611  1.00  0.00    -0.206 OA
HETATM   17  O3  UNL     1       5.507   2.378   2.745  1.00  0.00    -0.206 OA
BRANCH  15  18
HETATM   18  N3  UNL     1       6.297   2.969   0.343  1.00  0.00    -0.225 NA
HETATM   19  H8  UNL     1       5.442   3.498   0.037  1.00  0.00     0.136 HD
HETATM   20  H9  UNL     1       6.690   2.521  -0.520  1.00  0.00     0.136 HD
ENDBRANCH  15  18
ENDBRANCH  11  15
ENDBRANCH   5   8
BRANCH   7  21
HETATM   21  N5  UNL     1      -0.598  -3.664  -2.563  1.00  0.00    -0.231 N 
HETATM   22  H11 UNL     1      -0.655  -3.331  -3.550  1.00  0.00     0.174 HD
HETATM   23  H12 UNL     1      -0.740  -4.652  -2.241  1.00  0.00     0.174 HD
ENDBRANCH   7  21
BRANCH   1  24
HETATM   24  C6  UNL     1      -3.488  -0.925  -0.543  1.00  0.00     0.073 A 
HETATM   25  C5  UNL     1      -4.843  -1.125  -0.691  1.00  0.00     0.132 A 
HETATM   26  C4  UNL     1      -5.790  -0.295  -0.079  1.00  0.00     0.044 A 
HETATM   27  F1  UNL     1      -5.353  -2.134  -1.435  1.00  0.00    -0.205 F 
HETATM   28  C3  UNL     1      -5.396   0.761   0.699  1.00  0.00     0.010 A 
HETATM   29  C2  UNL     1      -4.048   0.996   0.873  1.00  0.00    -0.061 A 
HETATM   30  C1  UNL     1      -3.599   2.136   1.714  1.00  0.00     0.048 C 
HETATM   31  C16 UNL     1      -3.158   0.151   0.250  1.00  0.00     0.027 A 
ENDBRANCH   1  24
TORSDOF 5
