REMARK  3 active torsions:
REMARK  status: ('A' for Active; 'I' for Inactive)
REMARK    1  A    between atoms: C5_6  and  C6_7 
REMARK       I    between atoms: C6_7  and  N1_9 
REMARK       I    between atoms: N1_9  and  C7_10 
REMARK       I    between atoms: C7_10  and  N2_11 
REMARK    2  A    between atoms: N3_12  and  C8_13 
REMARK    3  A    between atoms: C8_13  and  C9_14 
ROOT
HETATM    1  C6  UNL     1       1.855   0.520   0.569  1.00  0.00     0.277 C 
HETATM    2  O1  UNL     1       1.003   1.449   0.794  1.00  0.00    -0.266 OA
HETATM    3  N1  UNL     1       1.351  -0.774   0.673  1.00  0.00    -0.154 N 
HETATM    4  C7  UNL     1       0.002  -1.076   1.000  1.00  0.00     0.696 C 
HETATM    5  N2  UNL     1      -0.372  -2.450   1.071  1.00  0.00    -0.233 N 
HETATM    6  N3  UNL     1      -0.757  -0.082   1.204  1.00  0.00    -0.103 NA
HETATM    7  H6  UNL     1       2.037  -1.520   0.492  1.00  0.00     0.187 HD
HETATM    8  H7  UNL     1      -0.315  -2.872   0.106  1.00  0.00     0.174 HD
HETATM    9  H8  UNL     1      -0.668  -3.018   1.916  1.00  0.00     0.174 HD
ENDROOT
BRANCH   6  10
HETATM   10  C8  UNL     1      -2.148  -0.094   1.546  1.00  0.00     0.210 C 
BRANCH  10  11
HETATM   11  C9  UNL     1      -2.940   0.060   0.344  1.00  0.00    -0.002 C 
HETATM   12  C10 UNL     1      -3.809   0.700  -0.366  1.00  0.00     0.108 C 
HETATM   13  N4  UNL     1      -5.258   0.562  -0.601  1.00  0.00    -0.363 N 
HETATM   14  S2  UNL     1      -4.001   2.004  -1.595  1.00  0.00     0.094 S 
HETATM   15  C11 UNL     1      -4.738   0.379  -1.986  1.00  0.00     0.206 C 
HETATM   16  H11 UNL     1      -6.296   0.528  -0.359  1.00  0.00     0.161 HD
HETATM   17  C12 UNL     1      -3.671  -0.669  -1.927  1.00  0.00     0.012 C 
HETATM   18  C13 UNL     1      -2.891  -0.891  -0.825  1.00  0.00     0.010 C 
HETATM   19  O2  UNL     1      -5.107   2.946  -1.167  1.00  0.00    -0.249 OA
ENDBRANCH  10  11
ENDBRANCH   6  10
BRANCH   1  20
HETATM   20  C5  UNL     1       3.219   0.946   0.240  1.00  0.00     0.079 A 
HETATM   21  C2  UNL     1       4.458   0.440  -0.074  1.00  0.00    -0.039 A 
HETATM   22  C1  UNL     1       4.563  -1.036  -0.123  1.00  0.00     0.050 C 
HETATM   23  C3  UNL     1       5.478   1.312  -0.311  1.00  0.00     0.015 A 
HETATM   24  C4  UNL     1       5.269   2.693  -0.238  1.00  0.00     0.051 A 
HETATM   25  S1  UNL     1       3.426   2.793   0.218  1.00  0.00    -0.096 SA
ENDBRANCH   1  20
TORSDOF 3
