REMARK  6 active torsions:
REMARK  status: ('A' for Active; 'I' for Inactive)
REMARK    1  A    between atoms: N1_1  and  C1_2 
REMARK    2  A    between atoms: C2_4  and  N3_5 
REMARK    3  A    between atoms: N3_5  and  C3_6 
REMARK    4  A    between atoms: C6_9  and  S1_10 
REMARK    5  A    between atoms: S1_10  and  N4_11 
REMARK    6  A    between atoms: N6_17  and  C9_18 
ROOT
HETATM    1  C1  UNL     1      -2.792  -1.846  -0.170  1.00  0.00     0.733 A 
HETATM    2  N2  UNL     1      -1.760  -2.528   0.279  1.00  0.00     0.131 NA
HETATM    3  C2  UNL     1      -0.670  -1.729   0.267  1.00  0.00     0.760 A 
HETATM    4  N5  UNL     1      -1.124  -0.566  -0.206  1.00  0.00     0.038 NA
HETATM    5  N6  UNL     1      -2.402  -0.598  -0.482  1.00  0.00    -0.068 N 
ENDROOT
BRANCH   3   6
HETATM    6  N3  UNL     1       0.621  -2.095   0.673  1.00  0.00    -0.186 N 
HETATM    7  H3  UNL     1       0.769  -3.088   1.024  1.00  0.00     0.184 HD
BRANCH   6   8
HETATM    8  C3  UNL     1       1.791  -1.289   0.677  1.00  0.00     0.049 A 
HETATM    9  C4  UNL     1       1.844   0.026   0.268  1.00  0.00     0.031 A 
HETATM   10  C5  UNL     1       2.978   0.795   0.275  1.00  0.00     0.027 A 
HETATM   11  C6  UNL     1       4.155   0.268   0.707  1.00  0.00     0.074 A 
HETATM   12  C7  UNL     1       4.159  -1.027   1.123  1.00  0.00     0.027 A 
HETATM   13  C8  UNL     1       3.009  -1.774   1.104  1.00  0.00     0.031 A 
BRANCH  11  14
HETATM   14  S1  UNL     1       5.617   1.221   0.729  1.00  0.00     0.239 S 
HETATM   15  O1  UNL     1       5.264   2.638   1.038  1.00  0.00    -0.206 OA
HETATM   16  O2  UNL     1       6.496   0.665   1.826  1.00  0.00    -0.206 OA
BRANCH  14  17
HETATM   17  N4  UNL     1       6.492   1.100  -0.745  1.00  0.00    -0.225 NA
HETATM   18  H6  UNL     1       6.398   1.942  -1.358  1.00  0.00     0.136 HD
HETATM   19  H7  UNL     1       6.267   0.231  -1.255  1.00  0.00     0.136 HD
ENDBRANCH  14  17
ENDBRANCH  11  14
ENDBRANCH   6   8
ENDBRANCH   3   6
BRANCH   1  20
HETATM   20  N1  UNL     1      -4.090  -2.448  -0.267  1.00  0.00    -0.231 N 
HETATM   21  H1  UNL     1      -4.454  -2.945   0.597  1.00  0.00     0.174 HD
HETATM   22  H2  UNL     1      -4.592  -2.360  -1.181  1.00  0.00     0.174 HD
ENDBRANCH   1  20
BRANCH   5  23
HETATM   23  C9  UNL     1      -3.347   0.357  -0.999  1.00  0.00     0.218 C 
HETATM   24  C10 UNL     1      -4.589   0.466  -0.205  1.00  0.00     0.050 C 
HETATM   25  C11 UNL     1      -5.217   1.621   0.062  1.00  0.00     0.116 C 
HETATM   26  F1  UNL     1      -6.371   1.728   0.799  1.00  0.00    -0.206 F 
HETATM   27  C12 UNL     1      -4.637   2.857  -0.465  1.00  0.00     0.057 C 
HETATM   28  C13 UNL     1      -3.624   2.713  -1.271  1.00  0.00     0.017 C 
HETATM   29  C14 UNL     1      -2.797   1.709  -1.175  1.00  0.00     0.134 C 
HETATM   30  F2  UNL     1      -1.683   2.432  -1.291  1.00  0.00    -0.207 F 
ENDBRANCH   5  23
TORSDOF 6
