REMARK  9 active torsions:
REMARK  status: ('A' for Active; 'I' for Inactive)
REMARK    1  A    between atoms: C6_7  and  B1_8 
REMARK    2  A    between atoms: B1_8  and  N1_9 
REMARK    3  A    between atoms: N1_9  and  C7_10 
REMARK    4  A    between atoms: C7_10  and  N2_12 
REMARK    5  A    between atoms: C8_14  and  N4_15 
REMARK    6  A    between atoms: N4_15  and  C10_17 
REMARK    7  A    between atoms: C10_17  and  C11_18 
REMARK    8  A    between atoms: C11_18  and  S2_20 
REMARK    9  A    between atoms: S2_20  and  N5_21 
ROOT
HETATM    1  N2  UNL     1       0.406   1.094   0.147  1.00  0.00    -0.083 N 
HETATM    2  N3  UNL     1      -0.179  -0.046   0.366  1.00  0.00     0.050 NA
HETATM    3  C8  UNL     1      -1.341   0.532   0.697  1.00  0.00     0.772 A 
HETATM    4  N6  UNL     1      -0.742   1.708   0.473  1.00  0.00     0.090 N 
HETATM    5  F2  UNL     1      -1.401   2.884   0.631  1.00  0.00    -0.058 F 
ENDROOT
BRANCH   1   6
HETATM    6  C7  UNL     1       1.542   1.900  -0.226  1.00  0.00     0.221 C 
HETATM    7  S1  UNL     1       1.706   2.876  -1.505  1.00  0.00    -0.037 SA
BRANCH   6   8
HETATM    8  N1  UNL     1       2.691   1.862   0.613  1.00  0.00    -0.329 NA
BRANCH   8   9
HETATM    9  B1  UNL     1       3.732   0.270  -0.615  1.00  0.00     0.352 B 
BRANCH   9  10
HETATM   10  C6  UNL     1       5.324  -0.329  -0.148  1.00  0.00    -0.029 A 
HETATM   11  C2  UNL     1       6.665   0.104  -0.505  1.00  0.00    -0.046 A 
HETATM   12  C1  UNL     1       6.868   1.123  -1.315  1.00  0.00     0.023 C 
HETATM   13  C3  UNL     1       7.695  -0.706   0.125  1.00  0.00     0.013 A 
HETATM   14  C4  UNL     1       7.016  -1.593   0.835  1.00  0.00     0.042 A 
HETATM   15  C5  UNL     1       5.578  -1.345   0.654  1.00  0.00     0.114 A 
HETATM   16  F1  UNL     1       4.609  -2.102   1.264  1.00  0.00    -0.207 F 
ENDBRANCH   9  10
ENDBRANCH   8   9
ENDBRANCH   6   8
ENDBRANCH   1   6
BRANCH   3  17
HETATM   17  N4  UNL     1      -2.466  -0.279   1.068  1.00  0.00    -0.190 N 
HETATM   18  C9  UNL     1      -2.562  -0.548   2.511  1.00  0.00     0.175 C 
BRANCH  17  19
HETATM   19  C10 UNL     1      -3.438  -0.813   0.192  1.00  0.00     0.128 C 
BRANCH  19  20
HETATM   20  C11 UNL     1      -4.500  -0.176  -0.310  1.00  0.00     0.064 C 
HETATM   21  C12 UNL     1      -4.749   1.244   0.048  1.00  0.00     0.064 C 
BRANCH  20  22
HETATM   22  S2  UNL     1      -5.558  -1.041  -1.368  1.00  0.00     0.236 S 
HETATM   23  O1  UNL     1      -6.240  -0.012  -2.253  1.00  0.00    -0.206 OA
HETATM   24  O2  UNL     1      -4.815  -2.042  -2.204  1.00  0.00    -0.206 OA
BRANCH  22  25
HETATM   25  N5  UNL     1      -6.805  -1.815  -0.464  1.00  0.00    -0.225 NA
HETATM   26  H12 UNL     1      -6.968  -2.791  -0.810  1.00  0.00     0.136 HD
HETATM   27  H13 UNL     1      -6.490  -1.858   0.547  1.00  0.00     0.136 HD
ENDBRANCH  22  25
ENDBRANCH  20  22
ENDBRANCH  19  20
ENDBRANCH  17  19
ENDBRANCH   3  17
TORSDOF 9
