REMARK  6 active torsions:
REMARK  status: ('A' for Active; 'I' for Inactive)
REMARK    1  A    between atoms: C5_6  and  C6_7 
REMARK       I    between atoms: C6_7  and  N1_9 
REMARK    2  A    between atoms: C7_11  and  S2_12 
REMARK    3  A    between atoms: S2_12  and  C8_13 
REMARK    4  A    between atoms: C11_16  and  S3_17 
REMARK    5  A    between atoms: S3_17  and  N3_18 
REMARK    6  A    between atoms: C13_23  and  N5_24 
ROOT
HETATM    1  C6  UNL     1       3.362   0.682   0.462  1.00  0.00     0.302 C 
HETATM    2  O1  UNL     1       4.246   0.855   1.334  1.00  0.00    -0.264 OA
HETATM    3  N1  UNL     1       2.061   1.243   0.556  1.00  0.00    -0.020 N 
HETATM    4  N2  UNL     1       1.040   1.132  -0.299  1.00  0.00    -0.121 NA
HETATM    5  C7  UNL     1      -0.015   1.827   0.180  1.00  0.00     0.231 A 
HETATM    6  N4  UNL     1       0.390   2.371   1.364  1.00  0.00    -0.035 NA
HETATM    7  C13 UNL     1       1.673   2.006   1.589  1.00  0.00     0.726 A 
ENDROOT
BRANCH   5   8
HETATM    8  S2  UNL     1      -1.630   2.044  -0.512  1.00  0.00    -0.052 SA
BRANCH   8   9
HETATM    9  C8  UNL     1      -2.756   0.755   0.033  1.00  0.00    -0.009 A 
HETATM   10  C9  UNL     1      -2.588  -0.300   0.841  1.00  0.00     0.016 A 
HETATM   11  C10 UNL     1      -3.877  -0.985   0.900  1.00  0.00     0.022 A 
HETATM   12  C11 UNL     1      -4.770  -0.364   0.161  1.00  0.00     0.057 A 
HETATM   13  C12 UNL     1      -4.155   0.827  -0.484  1.00  0.00     0.098 A 
BRANCH  12  14
HETATM   14  S3  UNL     1      -6.438  -0.878  -0.028  1.00  0.00     0.235 S 
HETATM   15  O2  UNL     1      -7.259   0.342  -0.329  1.00  0.00    -0.206 OA
HETATM   16  O3  UNL     1      -6.879  -1.568   1.227  1.00  0.00    -0.206 OA
BRANCH  14  17
HETATM   17  N3  UNL     1      -6.500  -1.951  -1.376  1.00  0.00    -0.225 NA
HETATM   18  H8  UNL     1      -7.443  -1.885  -1.847  1.00  0.00     0.136 HD
HETATM   19  H9  UNL     1      -6.272  -2.926  -1.073  1.00  0.00     0.136 HD
ENDBRANCH  14  17
ENDBRANCH  12  14
ENDBRANCH   8   9
ENDBRANCH   5   8
BRANCH   7  20
HETATM   20  N5  UNL     1       2.443   2.393   2.745  1.00  0.00    -0.231 N 
HETATM   21  H12 UNL     1       2.791   3.384   2.739  1.00  0.00     0.174 HD
HETATM   22  H13 UNL     1       2.731   1.879   3.605  1.00  0.00     0.174 HD
ENDBRANCH   7  20
BRANCH   1  23
HETATM   23  C5  UNL     1       3.693  -0.121  -0.674  1.00  0.00     0.081 A 
HETATM   24  C2  UNL     1       4.892  -0.771  -0.981  1.00  0.00    -0.039 A 
HETATM   25  C1  UNL     1       6.045  -0.671  -0.047  1.00  0.00     0.050 C 
HETATM   26  C3  UNL     1       4.939  -1.481  -2.150  1.00  0.00     0.015 A 
HETATM   27  C4  UNL     1       3.799  -1.511  -2.953  1.00  0.00     0.051 A 
HETATM   28  S1  UNL     1       2.563  -0.476  -2.022  1.00  0.00    -0.096 SA
ENDBRANCH   1  23
TORSDOF 6
