REMARK  7 active torsions:
REMARK  status: ('A' for Active; 'I' for Inactive)
REMARK    1  A    between atoms: C2_2  and  C3_3 
REMARK    2  A    between atoms: C4_4  and  S1_5 
REMARK    3  A    between atoms: S1_5  and  C5_6 
REMARK       I    between atoms: C5_6  and  N1_8 
REMARK    4  A    between atoms: C6_10  and  N3_11 
REMARK    5  A    between atoms: C9_14  and  S2_15 
REMARK    6  A    between atoms: S2_15  and  N4_16 
REMARK    7  A    between atoms: C12_22  and  N6_23 
ROOT
HETATM    1  C5  UNL     1       2.411  -0.651   0.061  1.00  0.00     0.327 C 
HETATM    2  O1  UNL     1       3.307  -1.560   0.013  1.00  0.00    -0.257 OA
HETATM    3  N1  UNL     1       1.029  -1.046   0.029  1.00  0.00    -0.001 N 
HETATM    4  N2  UNL     1      -0.039  -0.233   0.071  1.00  0.00     0.045 NA
HETATM    5  C6  UNL     1      -1.168  -0.968   0.020  1.00  0.00     0.762 A 
HETATM    6  N5  UNL     1      -0.778  -2.266  -0.055  1.00  0.00     0.132 NA
HETATM    7  C12 UNL     1       0.567  -2.312  -0.049  1.00  0.00     0.741 A 
ENDROOT
BRANCH   5   8
HETATM    8  N3  UNL     1      -2.532  -0.563   0.036  1.00  0.00    -0.184 N 
HETATM    9  C7  UNL     1      -3.607  -1.510  -0.027  1.00  0.00     0.111 A 
HETATM   10  C8  UNL     1      -4.865  -1.128  -0.012  1.00  0.00     0.042 A 
HETATM   11  C9  UNL     1      -5.243   0.262   0.069  1.00  0.00     0.073 A 
HETATM   12  C10 UNL     1      -4.245   1.129   0.126  1.00  0.00     0.018 A 
HETATM   13  C11 UNL     1      -2.799   0.862   0.119  1.00  0.00     0.176 A 
BRANCH  11  14
HETATM   14  S2  UNL     1      -6.909   0.759   0.088  1.00  0.00     0.239 S 
HETATM   15  O2  UNL     1      -7.725  -0.309   0.777  1.00  0.00    -0.206 OA
HETATM   16  O3  UNL     1      -7.049   1.998   0.929  1.00  0.00    -0.206 OA
BRANCH  14  17
HETATM   17  N4  UNL     1      -7.431   1.014  -1.518  1.00  0.00    -0.225 NA
HETATM   18  H10 UNL     1      -8.434   1.310  -1.514  1.00  0.00     0.136 HD
HETATM   19  H11 UNL     1      -6.895   1.838  -1.886  1.00  0.00     0.136 HD
ENDBRANCH  14  17
ENDBRANCH  11  14
ENDBRANCH   5   8
BRANCH   7  20
HETATM   20  N6  UNL     1       1.398  -3.485  -0.114  1.00  0.00    -0.230 N 
HETATM   21  H15 UNL     1       1.981  -3.849  -0.923  1.00  0.00     0.174 HD
HETATM   22  H16 UNL     1       1.615  -4.232   0.597  1.00  0.00     0.174 HD
ENDBRANCH   7  20
BRANCH   1  23
HETATM   23  S1  UNL     1       2.795   1.090   0.168  1.00  0.00    -0.039 SA
BRANCH  23  24
HETATM   24  C4  UNL     1       4.577   1.254   0.189  1.00  0.00     0.051 C 
HETATM   25  C3  UNL     1       5.653   0.501  -0.012  1.00  0.00    -0.020 C 
BRANCH  25  26
HETATM   26  C2  UNL     1       7.145   0.594  -0.005  1.00  0.00     0.023 C 
HETATM   27  C1  UNL     1       7.507   2.021   0.347  1.00  0.00     0.009 C 
ENDBRANCH  25  26
ENDBRANCH  23  24
ENDBRANCH   1  23
TORSDOF 7
