REMARK  9 active torsions:
REMARK  status: ('A' for Active; 'I' for Inactive)
REMARK    1  A    between atoms: O1_2  and  C2_3 
REMARK    2  A    between atoms: C6_7  and  N1_8 
REMARK    3  A    between atoms: N1_8  and  C7_9 
REMARK    4  A    between atoms: C8_10  and  C9_11 
REMARK    5  A    between atoms: C11_13  and  C12_14 
REMARK    6  A    between atoms: C15_19  and  C16_20 
REMARK    7  A    between atoms: C16_20  and  N4_21 
REMARK    8  A    between atoms: N4_21  and  C18_23 
REMARK    9  A    between atoms: C18_23  and  C20_25 
REMARK       I    between atoms: C20_25  and  N5_26 
ROOT
HETATM    1  C2  UNL     1      -0.375  -2.164  -0.639  1.00  0.00     0.099 C 
HETATM    2  C3  UNL     1       0.710  -2.896  -0.282  1.00  0.00     0.048 C 
HETATM    3  C4  UNL     1       0.831  -3.070   1.289  1.00  0.00     0.102 C 
HETATM    4  C5  UNL     1       1.449  -1.633   1.232  1.00  0.00    -0.006 C 
HETATM    5  C6  UNL     1       2.754  -1.402   1.095  1.00  0.00     0.132 C 
HETATM    6  N2  UNL     1       3.582  -2.488   0.458  1.00  0.00    -0.226 NA
HETATM    7  C13 UNL     1       3.174  -3.012  -0.745  1.00  0.00     0.209 C 
HETATM    8  N3  UNL     1       1.762  -3.311  -1.203  1.00  0.00    -0.352 N 
HETATM    9  C14 UNL     1       0.366  -0.614   1.130  1.00  0.00     0.023 C 
HETATM   10  C15 UNL     1      -0.563  -0.890   0.170  1.00  0.00     0.006 C 
HETATM   11  H11 UNL     1       1.165  -3.694  -1.960  1.00  0.00     0.166 HD
ENDROOT
BRANCH  10  12
HETATM   12  C16 UNL     1      -1.726  -0.156  -0.255  1.00  0.00     0.314 C 
BRANCH  12  13
HETATM   13  N4  UNL     1      -1.881   1.071   0.487  1.00  0.00     0.101 N 
HETATM   14  C17 UNL     1      -2.215   0.751   1.875  1.00  0.00     0.311 C 
BRANCH  13  15
HETATM   15  C18 UNL     1      -3.027   1.832  -0.013  1.00  0.00     0.309 C 
HETATM   16  C19 UNL     1      -2.863   2.169  -1.483  1.00  0.00     0.053 C 
BRANCH  15  17
HETATM   17  C20 UNL     1      -2.999   3.115   0.727  1.00  0.00     0.248 C 
HETATM   18  N5  UNL     1      -4.048   4.003   0.377  1.00  0.00    -0.368 N 
HETATM   19  H22 UNL     1      -4.696   4.699  -0.044  1.00  0.00     0.159 HD
HETATM   20  H23 UNL     1      -4.988   4.413   0.599  1.00  0.00     0.159 HD
HETATM   21  O2  UNL     1      -2.253   3.624   1.614  1.00  0.00    -0.271 OA
ENDBRANCH  15  17
ENDBRANCH  13  15
ENDBRANCH  12  13
ENDBRANCH  10  12
BRANCH   1  22
HETATM   22  O1  UNL     1      -0.945  -2.842  -1.656  1.00  0.00    -0.353 OA
HETATM   23  C1  UNL     1      -2.087  -3.653  -1.571  1.00  0.00     0.210 C 
ENDBRANCH   1  22
BRANCH   5  24
HETATM   24  N1  UNL     1       2.794  -0.064   1.631  1.00  0.00    -0.358 N 
HETATM   25  H6  UNL     1       2.962  -0.082   2.661  1.00  0.00     0.162 HD
BRANCH  24  26
HETATM   26  C7  UNL     1       2.622   1.038   0.795  1.00  0.00     0.094 A 
HETATM   27  C8  UNL     1       3.077   1.854   0.104  1.00  0.00    -0.037 A 
HETATM   28  C12 UNL     1       4.190   1.167   0.507  1.00  0.00     0.062 A 
BRANCH  27  29
HETATM   29  C9  UNL     1       3.519   2.604  -0.533  1.00  0.00    -0.063 A 
HETATM   30  C10 UNL     1       4.016   3.400  -1.213  1.00  0.00     0.033 A 
HETATM   31  C11 UNL     1       4.848   2.277  -0.437  1.00  0.00     0.035 A 
ENDBRANCH  27  29
ENDBRANCH  24  26
ENDBRANCH   5  24
TORSDOF 9
