REMARK  2 active torsions:
REMARK  status: ('A' for Active; 'I' for Inactive)
REMARK    1  A    between atoms: C4_6  and  C5_7 
REMARK    2  A    between atoms: C12_15  and  C13_16 
ROOT
HETATM    1  N1  UNL     1       7.469  -0.570  -0.656  1.00  0.00    -0.191 NA
HETATM    2  C1  UNL     1       6.348  -0.281  -0.545  1.00  0.00     0.110 C 
HETATM    3  C2  UNL     1       4.947   0.076  -0.404  1.00  0.00     0.125 C 
HETATM    4  C3  UNL     1       4.702   1.500  -0.251  1.00  0.00     0.110 C 
HETATM    5  N2  UNL     1       4.524   2.634  -0.123  1.00  0.00    -0.191 NA
HETATM    6  C4  UNL     1       3.981  -0.828  -0.412  1.00  0.00     0.045 C 
ENDROOT
BRANCH   6   7
HETATM    7  C5  UNL     1       2.578  -0.474  -0.269  1.00  0.00    -0.034 A 
HETATM    8  C6  UNL     1       1.872   0.578  -0.806  1.00  0.00     0.012 A 
HETATM    9  C7  UNL     1       0.535   0.733  -0.523  1.00  0.00     0.011 A 
HETATM   10  C8  UNL     1      -0.196  -0.105   0.284  1.00  0.00    -0.013 A 
HETATM   11  C9  UNL     1       0.557  -1.168   0.814  1.00  0.00    -0.021 A 
HETATM   12  C12 UNL     1      -1.573  -0.239   0.789  1.00  0.00     0.283 C 
HETATM   13  C10 UNL     1       1.894  -1.365   0.561  1.00  0.00     0.021 A 
HETATM   14  C11 UNL     1      -0.424  -1.942   1.657  1.00  0.00     0.310 C 
HETATM   15  N3  UNL     1      -1.674  -1.694   0.911  1.00  0.00     0.100 N 
HETATM   16  H7  UNL     1      -1.468  -2.048  -0.071  1.00  0.00     0.317 HD
BRANCH  12  17
HETATM   17  C13 UNL     1      -2.631   0.326  -0.040  1.00  0.00    -0.039 C 
HETATM   18  C14 UNL     1      -3.635  -0.403  -0.541  1.00  0.00     0.006 C 
HETATM   19  C15 UNL     1      -4.694   0.176  -1.372  1.00  0.00     0.012 C 
HETATM   20  C16 UNL     1      -4.853   1.489  -1.305  1.00  0.00    -0.030 C 
HETATM   21  C17 UNL     1      -4.201   2.139  -0.371  1.00  0.00    -0.010 C 
HETATM   22  C18 UNL     1      -2.743   1.754  -0.441  1.00  0.00     0.064 C 
ENDBRANCH  12  17
ENDBRANCH   6   7
TORSDOF 2
