REMARK  6 active torsions:
REMARK  status: ('A' for Active; 'I' for Inactive)
REMARK    1  A    between atoms: C2_3  and  C3_4 
REMARK    2  A    between atoms: C7_8  and  C8_9 
REMARK    3  A    between atoms: C9_10  and  N2_11 
REMARK    4  A    between atoms: C10_12  and  N3_13 
REMARK    5  A    between atoms: N3_13  and  C11_14 
REMARK    6  A    between atoms: C11_14  and  C12_16 
ROOT
HETATM    1  N1  UNL     1      -5.961   2.822   1.015  1.00  0.00    -0.197 NA
HETATM    2  C1  UNL     1      -5.673   2.149   0.108  1.00  0.00     0.063 C 
HETATM    3  C2  UNL     1      -5.291   1.292  -1.040  1.00  0.00     0.162 C 
ENDROOT
BRANCH   3   4
HETATM    4  C3  UNL     1      -4.300   0.276  -0.587  1.00  0.00    -0.044 A 
HETATM    5  C4  UNL     1      -4.700  -0.962  -0.106  1.00  0.00     0.008 A 
HETATM    6  C5  UNL     1      -3.759  -1.906   0.316  1.00  0.00     0.001 A 
HETATM    7  C6  UNL     1      -2.411  -1.589   0.247  1.00  0.00     0.011 A 
HETATM    8  C7  UNL     1      -1.995  -0.366  -0.227  1.00  0.00    -0.034 A 
HETATM    9  C15 UNL     1      -2.949   0.534  -0.632  1.00  0.00     0.019 A 
BRANCH   8  10
HETATM   10  C8  UNL     1      -0.582  -0.015  -0.307  1.00  0.00     0.030 C 
HETATM   11  C9  UNL     1       0.366  -0.842   0.068  1.00  0.00     0.118 C 
BRANCH  11  12
HETATM   12  N2  UNL     1       1.733  -0.549   0.010  1.00  0.00    -0.256 NA
HETATM   13  C10 UNL     1       2.439  -0.289   1.081  1.00  0.00     0.208 C 
BRANCH  13  14
HETATM   14  N3  UNL     1       3.844   0.011   1.003  1.00  0.00    -0.338 N 
HETATM   15  H9  UNL     1       4.401   0.492   1.751  1.00  0.00     0.168 HD
BRANCH  14  16
HETATM   16  C11 UNL     1       4.510  -0.385  -0.193  1.00  0.00     0.129 C 
HETATM   17  N4  UNL     1       4.145  -1.437  -0.806  1.00  0.00    -0.286 NA
HETATM   18  H10 UNL     1       3.378  -2.045  -0.488  1.00  0.00     0.188 HD
BRANCH  16  19
HETATM   19  C12 UNL     1       5.654   0.426  -0.733  1.00  0.00     0.268 C 
HETATM   20  C13 UNL     1       5.181   1.779  -1.023  1.00  0.00     0.086 C 
HETATM   21  N5  UNL     1       4.802   2.856  -1.269  1.00  0.00    -0.195 NA
HETATM   22  C14 UNL     1       6.755   0.503   0.246  1.00  0.00     0.086 C 
HETATM   23  N6  UNL     1       7.629   0.563   1.009  1.00  0.00    -0.195 NA
ENDBRANCH  16  19
ENDBRANCH  14  16
ENDBRANCH  13  14
ENDBRANCH  11  12
ENDBRANCH   8  10
ENDBRANCH   3   4
TORSDOF 6
