REMARK  3 active torsions:
REMARK  status: ('A' for Active; 'I' for Inactive)
REMARK    1  A    between atoms: C4_5  and  C5_6 
REMARK    2  A    between atoms: N2_14  and  C12_15 
REMARK    3  A    between atoms: C12_15  and  C13_16 
ROOT
HETATM    1  C1  UNL     1       5.479   1.550   0.498  1.00  0.00     0.060 C 
HETATM    2  C2  UNL     1       5.349   0.388  -0.409  1.00  0.00     0.018 C 
HETATM    3  C3  UNL     1       6.585  -0.003  -1.085  1.00  0.00     0.094 C 
HETATM    4  N1  UNL     1       7.583  -0.299  -1.629  1.00  0.00    -0.192 NA
HETATM    5  C4  UNL     1       4.299  -0.357  -0.712  1.00  0.00     0.012 C 
ENDROOT
BRANCH   5   6
HETATM    6  C5  UNL     1       2.898  -0.314  -0.271  1.00  0.00    -0.101 A 
HETATM    7  C6  UNL     1       2.398   0.560   0.584  1.00  0.00    -0.003 A 
HETATM    8  C7  UNL     1       1.053   0.689   1.073  1.00  0.00     0.024 A 
HETATM    9  C8  UNL     1       0.166  -0.174   0.615  1.00  0.00     0.002 A 
HETATM   10  C9  UNL     1       0.402  -1.283  -0.376  1.00  0.00    -0.001 A 
HETATM   11  N2  UNL     1      -1.213  -0.362   0.902  1.00  0.00    -0.380 N 
HETATM   12  B1  UNL     1       1.883  -1.395  -0.804  1.00  0.00     0.205 B 
HETATM   13  C10 UNL     1      -0.189  -2.430   0.381  1.00  0.00     0.021 C 
HETATM   14  H8  UNL     1       2.135  -1.962  -1.809  1.00  0.00    -0.020 HD
HETATM   15  C11 UNL     1      -1.538  -1.798   0.787  1.00  0.00     0.123 C 
BRANCH  11  16
HETATM   16  C12 UNL     1      -2.180   0.661   1.264  1.00  0.00     0.161 C 
BRANCH  16  17
HETATM   17  C13 UNL     1      -3.317   0.780   0.356  1.00  0.00    -0.040 A 
HETATM   18  C14 UNL     1      -3.407   1.580  -0.753  1.00  0.00     0.009 A 
HETATM   19  C15 UNL     1      -4.567   1.578  -1.519  1.00  0.00     0.001 A 
HETATM   20  C16 UNL     1      -5.655   0.798  -1.215  1.00  0.00     0.000 A 
HETATM   21  C17 UNL     1      -5.595  -0.018  -0.105  1.00  0.00     0.001 A 
HETATM   22  C18 UNL     1      -4.433  -0.000   0.641  1.00  0.00     0.009 A 
ENDBRANCH  16  17
ENDBRANCH  11  16
ENDBRANCH   5   6
TORSDOF 3
