REMARK  2 active torsions:
REMARK  status: ('A' for Active; 'I' for Inactive)
REMARK    1  A    between atoms: C7_8  and  C8_9 
REMARK    2  A    between atoms: C8_9  and  N2_10 
ROOT
HETATM    1  N1  UNL     1      -2.782  -2.464  -2.396  1.00  0.00    -0.191 NA
HETATM    2  C1  UNL     1      -2.980  -1.693  -1.547  1.00  0.00     0.100 C 
HETATM    3  C2  UNL     1      -3.241  -0.727  -0.510  1.00  0.00     0.052 A 
HETATM    4  C3  UNL     1      -4.402  -0.917   0.202  1.00  0.00     0.023 A 
HETATM    5  C4  UNL     1      -4.690   0.015   1.204  1.00  0.00     0.002 A 
HETATM    6  C5  UNL     1      -3.822   1.073   1.443  1.00  0.00     0.001 A 
HETATM    7  C6  UNL     1      -2.661   1.211   0.688  1.00  0.00     0.010 A 
HETATM    8  C7  UNL     1      -2.339   0.301  -0.320  1.00  0.00    -0.020 A 
ENDROOT
BRANCH   8   9
HETATM    9  C8  UNL     1      -1.087   0.473  -1.087  1.00  0.00     0.163 C 
BRANCH   9  10
HETATM   10  N2  UNL     1      -0.004  -0.363  -0.674  1.00  0.00    -0.376 N 
HETATM   11  C9  UNL     1       0.162  -1.776  -0.550  1.00  0.00     0.128 C 
HETATM   12  C10 UNL     1       1.458  -2.095   0.103  1.00  0.00     0.060 C 
HETATM   13  C11 UNL     1       2.194  -0.838   0.205  1.00  0.00    -0.033 A 
HETATM   14  C12 UNL     1       3.374  -0.383   0.580  1.00  0.00     0.002 A 
HETATM   15  C17 UNL     1       1.271   0.177  -0.270  1.00  0.00     0.032 A 
HETATM   16  C13 UNL     1       3.971   0.974   0.616  1.00  0.00     0.119 A 
HETATM   17  C14 UNL     1       5.162   1.009  -0.262  1.00  0.00     0.068 C 
HETATM   18  C15 UNL     1       3.019   2.031   0.134  1.00  0.00     0.052 A 
HETATM   19  N3  UNL     1       6.087   1.033  -0.956  1.00  0.00    -0.197 NA
HETATM   20  C16 UNL     1       1.748   1.411  -0.257  1.00  0.00     0.005 A 
ENDBRANCH   9  10
ENDBRANCH   8   9
TORSDOF 2
