REMARK  1 active torsions:
REMARK  status: ('A' for Active; 'I' for Inactive)
REMARK    1  A    between atoms: C5_5  and  C6_6 
ROOT
HETATM    1  C6  UNL     1       1.575   0.519   0.288  1.00  0.00     0.044 C 
HETATM    2  C7  UNL     1       2.459   0.917   1.188  1.00  0.00     0.125 C 
HETATM    3  C8  UNL     1       3.010   0.095   2.250  1.00  0.00     0.110 C 
HETATM    4  N1  UNL     1       3.473  -0.558   3.116  1.00  0.00    -0.191 NA
HETATM    5  C9  UNL     1       3.056   2.244   1.321  1.00  0.00     0.110 C 
HETATM    6  N2  UNL     1       3.513   3.294   1.411  1.00  0.00    -0.191 NA
ENDROOT
BRANCH   1   7
HETATM    7  C5  UNL     1       0.747  -0.580  -0.212  1.00  0.00    -0.040 C 
HETATM    8  C4  UNL     1       0.248  -0.026  -1.370  1.00  0.00    -0.002 C 
HETATM    9  C3  UNL     1      -0.358   1.039  -1.717  1.00  0.00     0.021 C 
HETATM   10  C2  UNL     1      -0.428   1.541  -0.312  1.00  0.00     0.066 C 
HETATM   11  C18 UNL     1      -1.089   2.354  -1.917  1.00  0.00     0.037 C 
HETATM   12  C1  UNL     1      -0.737   1.829   0.982  1.00  0.00     0.037 C 
HETATM   13  N3  UNL     1      -1.603   0.603  -0.455  1.00  0.00    -0.396 N 
HETATM   14  C16 UNL     1      -2.145  -0.779  -0.316  1.00  0.00     0.156 C 
HETATM   15  C17 UNL     1      -2.250   1.872  -0.965  1.00  0.00     0.119 C 
HETATM   16  C14 UNL     1      -1.095  -1.831  -0.211  1.00  0.00    -0.044 C 
HETATM   17  C13 UNL     1      -0.618  -2.765   0.864  1.00  0.00     0.005 C 
HETATM   18  C15 UNL     1      -0.158  -2.216  -1.149  1.00  0.00    -0.006 C 
HETATM   19  C12 UNL     1       0.464  -3.523   0.499  1.00  0.00    -0.014 C 
HETATM   20  C11 UNL     1       1.152  -2.354  -0.322  1.00  0.00     0.054 C 
HETATM   21  C10 UNL     1       1.217  -1.295   0.692  1.00  0.00    -0.003 C 
ENDBRANCH   1   7
TORSDOF 1
