REMARK  3 active torsions:
REMARK  status: ('A' for Active; 'I' for Inactive)
REMARK    1  A    between atoms: N1_1  and  C1_2 
REMARK    2  A    between atoms: C4_7  and  N3_8 
REMARK    3  A    between atoms: N3_8  and  C5_9 
ROOT
HETATM    1  C5  UNL     1      -0.069  -0.300  -0.636  1.00  0.00     0.036 A 
HETATM    2  C6  UNL     1      -0.480   0.908  -1.155  1.00  0.00     0.032 A 
HETATM    3  C7  UNL     1      -1.798   1.319  -1.224  1.00  0.00     0.041 A 
HETATM    4  C8  UNL     1      -2.789   0.468  -0.744  1.00  0.00     0.102 A 
HETATM    5  C9  UNL     1      -2.425  -0.730  -0.228  1.00  0.00     0.071 A 
HETATM    6  C10 UNL     1      -1.115  -1.099  -0.176  1.00  0.00     0.062 A 
HETATM    7  N4  UNL     1      -3.484  -1.593   0.264  1.00  0.00    -0.317 N 
HETATM    8  C11 UNL     1      -4.814  -1.092   0.152  1.00  0.00     0.325 C 
HETATM    9  O1  UNL     1      -5.756  -1.921   0.277  1.00  0.00    -0.263 OA
HETATM   10  C12 UNL     1      -5.155   0.330  -0.098  1.00  0.00     0.443 C 
HETATM   11  F2  UNL     1      -6.303   0.330  -0.877  1.00  0.00    -0.165 F 
HETATM   12  F3  UNL     1      -5.341   1.034   1.065  1.00  0.00    -0.165 F 
HETATM   13  O2  UNL     1      -4.105   0.907  -0.824  1.00  0.00    -0.274 OA
HETATM   14  H8  UNL     1      -3.268  -2.525   0.668  1.00  0.00     0.169 HD
ENDROOT
BRANCH   1  15
HETATM   15  N3  UNL     1       1.271  -0.660  -0.566  1.00  0.00    -0.338 N 
HETATM   16  H4  UNL     1       1.336  -1.696  -0.828  1.00  0.00     0.167 HD
BRANCH  15  17
HETATM   17  C4  UNL     1       2.494  -0.034  -0.251  1.00  0.00     0.187 A 
HETATM   18  C3  UNL     1       2.693   1.213   0.277  1.00  0.00     0.180 A 
HETATM   19  C2  UNL     1       3.910   1.801   0.540  1.00  0.00     0.182 A 
HETATM   20  F1  UNL     1       1.605   1.949   0.595  1.00  0.00    -0.200 F 
HETATM   21  N2  UNL     1       5.000   1.069   0.250  1.00  0.00    -0.072 NA
HETATM   22  C1  UNL     1       4.856  -0.159  -0.265  1.00  0.00     0.722 A 
HETATM   23  N5  UNL     1       3.643  -0.683  -0.502  1.00  0.00    -0.042 NA
BRANCH  22  24
HETATM   24  N1  UNL     1       5.997  -0.955  -0.591  1.00  0.00    -0.231 N 
HETATM   25  H1  UNL     1       6.245  -1.164  -1.595  1.00  0.00     0.174 HD
HETATM   26  H2  UNL     1       6.629  -1.362   0.142  1.00  0.00     0.174 HD
ENDBRANCH  22  24
ENDBRANCH  15  17
ENDBRANCH   1  15
TORSDOF 3
