REMARK  2 active torsions:
REMARK  status: ('A' for Active; 'I' for Inactive)
REMARK    1  A    between atoms: C4_6  and  C5_7 
REMARK    2  A    between atoms: N3_15  and  C13_16 
ROOT
HETATM    1  N1  UNL     1       7.189  -1.240   1.899  1.00  0.00    -0.191 NA
HETATM    2  C1  UNL     1       6.194  -1.145   1.357  1.00  0.00     0.110 C 
HETATM    3  C2  UNL     1       4.928  -1.004   0.661  1.00  0.00     0.125 C 
HETATM    4  C3  UNL     1       4.900  -1.437  -0.703  1.00  0.00     0.110 C 
HETATM    5  N2  UNL     1       4.891  -1.772  -1.800  1.00  0.00    -0.191 NA
HETATM    6  C4  UNL     1       3.870  -0.505   1.268  1.00  0.00     0.045 C 
ENDROOT
BRANCH   6   7
HETATM    7  C5  UNL     1       2.501  -0.259   0.808  1.00  0.00    -0.034 A 
HETATM    8  C6  UNL     1       1.396  -0.462   1.641  1.00  0.00     0.014 A 
HETATM    9  C7  UNL     1       0.132  -0.213   1.151  1.00  0.00     0.031 A 
HETATM   10  C8  UNL     1       0.044   0.234  -0.174  1.00  0.00     0.037 A 
HETATM   11  C9  UNL     1       1.101   0.449  -1.032  1.00  0.00    -0.029 A 
HETATM   12  N3  UNL     1      -1.172   0.536  -0.849  1.00  0.00    -0.372 N 
HETATM   13  C10 UNL     1       2.351   0.190  -0.509  1.00  0.00     0.021 A 
HETATM   14  C11 UNL     1       0.543   0.936  -2.341  1.00  0.00     0.060 C 
HETATM   15  C12 UNL     1      -0.757   1.546  -1.846  1.00  0.00     0.128 C 
BRANCH  12  16
HETATM   16  C13 UNL     1      -2.551   0.091  -0.726  1.00  0.00     0.111 A 
HETATM   17  C14 UNL     1      -3.323   1.237  -0.209  1.00  0.00    -0.002 A 
HETATM   18  C15 UNL     1      -4.169   1.325   0.805  1.00  0.00    -0.002 A 
HETATM   19  C16 UNL     1      -4.364   0.071   1.523  1.00  0.00    -0.004 A 
HETATM   20  C17 UNL     1      -3.709  -1.002   1.113  1.00  0.00    -0.024 A 
HETATM   21  C18 UNL     1      -2.740  -1.198  -0.024  1.00  0.00     0.056 A 
ENDBRANCH  12  16
ENDBRANCH   6   7
TORSDOF 2
