REMARK  3 active torsions:
REMARK  status: ('A' for Active; 'I' for Inactive)
REMARK    1  A    between atoms: O1_1  and  C1_2 
REMARK    2  A    between atoms: C4_5  and  C5_6 
REMARK    3  A    between atoms: C19_23  and  O2_24 
ROOT
HETATM    1  C5  UNL     1       0.940   0.155   0.863  1.00  0.00     0.296 C 
HETATM    2  N1  UNL     1       0.865   1.490   1.155  1.00  0.00    -0.430 NA
HETATM    3  C6  UNL     1       0.562   2.629   1.308  1.00  0.00     0.180 C 
HETATM    4  C7  UNL     1      -0.340   3.776   1.224  1.00  0.00     0.055 C 
HETATM    5  C8  UNL     1      -1.577   3.865   0.785  1.00  0.00     0.036 C 
HETATM    6 CL1  UNL     1      -1.959   5.601   1.000  1.00  0.00    -0.084 Cl
HETATM    7  C9  UNL     1      -2.639   3.008   0.349  1.00  0.00     0.020 C 
HETATM    8  C10 UNL     1      -3.196   1.838   0.097  1.00  0.00    -0.018 C 
HETATM    9  C11 UNL     1      -2.696   0.421   0.257  1.00  0.00    -0.009 C 
HETATM   10  C12 UNL     1      -3.717  -0.449  -0.191  1.00  0.00     0.067 C 
HETATM   11  C13 UNL     1      -3.464  -1.909  -0.100  1.00  0.00    -0.020 C 
HETATM   12  C14 UNL     1      -2.880  -3.115   0.110  1.00  0.00    -0.004 C 
HETATM   13  C15 UNL     1      -1.614  -3.658   0.527  1.00  0.00    -0.003 C 
HETATM   14  C16 UNL     1      -0.392  -3.126   0.752  1.00  0.00    -0.007 C 
HETATM   15  C17 UNL     1      -0.407  -1.767   0.438  1.00  0.00     0.147 C 
HETATM   16  N2  UNL     1      -0.386  -0.457   0.354  1.00  0.00    -0.375 N 
HETATM   17  C18 UNL     1      -1.220   0.548   0.727  1.00  0.00     0.130 C 
ENDROOT
BRANCH   1  18
HETATM   18  C4  UNL     1       2.060  -0.308   0.044  1.00  0.00     0.030 A 
HETATM   19  C3  UNL     1       2.916  -1.373   0.208  1.00  0.00     0.018 A 
HETATM   20  C2  UNL     1       3.936  -1.630  -0.685  1.00  0.00     0.037 A 
HETATM   21  C1  UNL     1       4.105  -0.798  -1.775  1.00  0.00     0.068 A 
HETATM   22  C20 UNL     1       3.275   0.283  -1.986  1.00  0.00     0.073 A 
HETATM   23  C19 UNL     1       2.249   0.519  -1.063  1.00  0.00     0.079 A 
BRANCH  21  24
HETATM   24  O1  UNL     1       5.153  -1.091  -2.661  1.00  0.00    -0.361 OA
HETATM   25  H1  UNL     1       5.892  -0.388  -2.782  1.00  0.00     0.217 HD
ENDBRANCH  21  24
BRANCH  23  26
HETATM   26  O2  UNL     1       1.482   1.643  -1.392  1.00  0.00    -0.360 OA
HETATM   27  H18 UNL     1       1.993   2.521  -1.455  1.00  0.00     0.217 HD
ENDBRANCH  23  26
ENDBRANCH   1  18
TORSDOF 3
