REMARK  2 active torsions:
REMARK  status: ('A' for Active; 'I' for Inactive)
REMARK    1  A    between atoms: C7_7  and  N1_8 
REMARK    2  A    between atoms: C12_13  and  C13_14 
ROOT
HETATM    1  C13 UNL     1       4.892   0.339  -0.165  1.00  0.00     0.232 C 
HETATM    2  C14 UNL     1       5.228   1.495  -0.995  1.00  0.00     0.083 C 
HETATM    3  N2  UNL     1       5.504   2.407  -1.652  1.00  0.00    -0.196 NA
HETATM    4  C15 UNL     1       5.392  -0.848  -0.854  1.00  0.00     0.083 C 
HETATM    5  N3  UNL     1       5.788  -1.785  -1.422  1.00  0.00    -0.196 NA
ENDROOT
BRANCH   1   6
HETATM    6  C12 UNL     1       3.417   0.243   0.071  1.00  0.00    -0.026 A 
HETATM    7  C11 UNL     1       2.821   0.234   1.320  1.00  0.00     0.019 A 
HETATM    8  C10 UNL     1       1.458   0.143   1.448  1.00  0.00    -0.029 A 
HETATM    9  C9  UNL     1       0.528   0.109   2.603  1.00  0.00     0.060 C 
HETATM   10  C18 UNL     1       0.729   0.062   0.278  1.00  0.00     0.037 A 
HETATM   11  C8  UNL     1      -0.694  -0.563   1.963  1.00  0.00     0.129 C 
HETATM   12  N1  UNL     1      -0.672  -0.026   0.598  1.00  0.00    -0.368 N 
HETATM   13  C17 UNL     1       1.306   0.069  -0.994  1.00  0.00     0.030 A 
HETATM   14  C16 UNL     1       2.682   0.161  -1.100  1.00  0.00     0.012 A 
BRANCH  12  15
HETATM   15  C7  UNL     1      -1.822   0.307  -0.170  1.00  0.00     0.136 C 
HETATM   16  C2  UNL     1      -2.729  -0.851  -0.404  1.00  0.00    -0.061 C 
HETATM   17  C1  UNL     1      -2.346  -2.254  -0.037  1.00  0.00     0.045 C 
HETATM   18  C3  UNL     1      -3.917  -0.631  -0.957  1.00  0.00    -0.018 C 
HETATM   19  C4  UNL     1      -4.203   0.812  -1.287  1.00  0.00     0.054 C 
HETATM   20  C5  UNL     1      -3.836   1.654  -0.095  1.00  0.00    -0.025 C 
HETATM   21  C6  UNL     1      -2.649   1.384   0.442  1.00  0.00    -0.001 C 
ENDBRANCH  12  15
ENDBRANCH   1   6
TORSDOF 2
