REMARK  6 active torsions:
REMARK  status: ('A' for Active; 'I' for Inactive)
REMARK       I    between atoms: N1_2  and  C2_3 
REMARK    1  A    between atoms: C2_3  and  C3_5 
REMARK    2  A    between atoms: C3_5  and  O2_6 
REMARK    3  A    between atoms: O2_6  and  C4_7 
REMARK    4  A    between atoms: C8_11  and  N2_12 
REMARK    5  A    between atoms: N2_12  and  C9_13 
REMARK    6  A    between atoms: C12_18  and  N4_19 
ROOT
HETATM    1  C9  UNL     1      -0.054   0.244   0.128  1.00  0.00     0.728 A 
HETATM    2  N3  UNL     1       0.069  -1.078   0.095  1.00  0.00    -0.072 NA
HETATM    3  C10 UNL     1      -0.901  -1.966  -0.153  1.00  0.00     0.182 A 
HETATM    4  C11 UNL     1      -2.157  -1.462  -0.400  1.00  0.00     0.180 A 
HETATM    5  F1  UNL     1      -3.153  -2.313  -0.652  1.00  0.00    -0.200 F 
HETATM    6  C12 UNL     1      -2.352  -0.120  -0.382  1.00  0.00     0.185 A 
HETATM    7  N6  UNL     1      -1.302   0.667  -0.121  1.00  0.00    -0.042 NA
ENDROOT
BRANCH   1   8
HETATM    8  N2  UNL     1       0.954   1.200   0.387  1.00  0.00    -0.188 N 
HETATM    9  H10 UNL     1       0.662   2.223   0.373  1.00  0.00     0.184 HD
BRANCH   8  10
HETATM   10  C8  UNL     1       2.320   0.970   0.666  1.00  0.00     0.052 A 
HETATM   11  C7  UNL     1       3.183   2.028   0.896  1.00  0.00     0.030 A 
HETATM   12  C6  UNL     1       4.520   1.864   1.171  1.00  0.00     0.005 A 
HETATM   13  C5  UNL     1       5.079   0.609   1.232  1.00  0.00     0.037 A 
HETATM   14  C4  UNL     1       4.269  -0.457   1.012  1.00  0.00     0.071 A 
HETATM   15  C20 UNL     1       2.934  -0.260   0.739  1.00  0.00     0.066 A 
BRANCH  14  16
HETATM   16  O2  UNL     1       4.766  -1.729   1.059  1.00  0.00    -0.342 OA
BRANCH  16  17
HETATM   17  C3  UNL     1       6.072  -2.133   1.310  1.00  0.00     0.278 C 
BRANCH  17  18
HETATM   18  C2  UNL     1       6.957  -1.547   0.239  1.00  0.00     0.241 C 
HETATM   19  N1  UNL     1       8.349  -1.882   0.370  1.00  0.00    -0.364 N 
HETATM   20  C1  UNL     1       9.281  -1.367  -0.610  1.00  0.00     0.149 C 
HETATM   21  H4  UNL     1       8.727  -2.491   1.153  1.00  0.00     0.161 HD
HETATM   22  O1  UNL     1       6.834  -0.813  -0.789  1.00  0.00    -0.271 OA
ENDBRANCH  17  18
ENDBRANCH  16  17
ENDBRANCH  14  16
ENDBRANCH   8  10
ENDBRANCH   1   8
BRANCH   6  23
HETATM   23  N4  UNL     1      -3.626   0.473  -0.629  1.00  0.00    -0.357 N 
HETATM   24  C13 UNL     1      -3.772   1.937  -0.590  1.00  0.00     0.154 C 
HETATM   25  C14 UNL     1      -4.990   2.286   0.224  1.00  0.00     0.027 C 
HETATM   26  C15 UNL     1      -6.047   1.562  -0.109  1.00  0.00     0.075 C 
HETATM   27  O3  UNL     1      -7.219   1.815   0.590  1.00  0.00    -0.278 OA
HETATM   28  C18 UNL     1      -5.983   0.540  -1.168  1.00  0.00     0.159 C 
HETATM   29  C16 UNL     1      -8.448   1.175   0.308  1.00  0.00     0.442 C 
HETATM   30  F2  UNL     1      -9.137   1.003   1.516  1.00  0.00    -0.165 F 
HETATM   31  F3  UNL     1      -9.249   1.924  -0.519  1.00  0.00    -0.165 F 
HETATM   32  C17 UNL     1      -8.252  -0.194  -0.247  1.00  0.00     0.321 C 
HETATM   33  O4  UNL     1      -8.877  -1.252  -0.038  1.00  0.00    -0.264 OA
HETATM   34  N5  UNL     1      -7.160  -0.286  -1.168  1.00  0.00    -0.342 N 
HETATM   35  H15 UNL     1      -7.093  -0.974  -1.959  1.00  0.00     0.163 HD
HETATM   36  C19 UNL     1      -4.788  -0.345  -0.922  1.00  0.00     0.156 C 
ENDBRANCH   6  23
TORSDOF 6
