REMARK  8 active torsions:
REMARK  status: ('A' for Active; 'I' for Inactive)
REMARK    1  A    between atoms: C2_2  and  C3_3 
REMARK    2  A    between atoms: C2_2  and  N2_6 
REMARK       I    between atoms: C3_3  and  N1_4 
REMARK    3  A    between atoms: N2_6  and  C5_8 
REMARK    4  A    between atoms: C5_8  and  C6_9 
REMARK    5  A    between atoms: C7_10  and  C8_11 
REMARK    6  A    between atoms: C11_14  and  O2_15 
REMARK    7  A    between atoms: C12_18  and  N5_19 
REMARK    8  A    between atoms: N5_19  and  C13_20 
ROOT
HETATM    1  C8  UNL     1      -0.872   0.343  -1.182  1.00  0.00     0.263 A 
HETATM    2  C9  UNL     1      -1.401   0.092  -2.589  1.00  0.00     0.045 A 
HETATM    3  C10 UNL     1      -2.107  -0.021  -3.772  1.00  0.00     0.045 A 
HETATM    4  C11 UNL     1      -3.358   0.525  -3.564  1.00  0.00     0.155 A 
HETATM    5  N3  UNL     1      -3.308   0.923  -2.272  1.00  0.00    -0.237 N 
HETATM    6  N4  UNL     1      -2.194   0.654  -1.789  1.00  0.00     0.000 N 
HETATM    7  C12 UNL     1      -3.144   1.320  -0.850  1.00  0.00     0.425 A 
HETATM    8  N5  UNL     1      -1.919   0.767  -0.264  1.00  0.00     0.128 N 
ENDROOT
BRANCH   1   9
HETATM    9  C7  UNL     1      -0.225  -0.928  -0.776  1.00  0.00     0.007 C 
HETATM   10  C6  UNL     1       0.932  -0.954  -0.088  1.00  0.00     0.001 C 
BRANCH  10  11
HETATM   11  C5  UNL     1       1.857   0.085   0.446  1.00  0.00     0.300 C 
BRANCH  11  12
HETATM   12  N2  UNL     1       3.184  -0.021  -0.098  1.00  0.00     0.100 N 
HETATM   13  C4  UNL     1       3.726  -1.342  -0.131  1.00  0.00     0.311 C 
BRANCH  12  14
HETATM   14  C2  UNL     1       4.071   0.985   0.422  1.00  0.00     0.309 C 
HETATM   15  C1  UNL     1       5.335   1.129  -0.353  1.00  0.00     0.053 C 
BRANCH  14  16
HETATM   16  C3  UNL     1       4.381   0.652   1.838  1.00  0.00     0.248 C 
HETATM   17  N1  UNL     1       5.258   1.619   2.403  1.00  0.00    -0.368 N 
HETATM   18  H5  UNL     1       6.045   1.260   2.973  1.00  0.00     0.159 HD
HETATM   19  H6  UNL     1       5.892   2.341   2.810  1.00  0.00     0.159 HD
HETATM   20  O1  UNL     1       4.013  -0.296   2.580  1.00  0.00    -0.271 OA
ENDBRANCH  14  16
ENDBRANCH  12  14
ENDBRANCH  11  12
ENDBRANCH  10  11
ENDBRANCH   1   9
BRANCH   8  21
HETATM   21  C13 UNL     1      -2.198  -0.210   0.734  1.00  0.00     0.286 A 
HETATM   22  C14 UNL     1      -3.104  -1.287   0.271  1.00  0.00     0.012 A 
HETATM   23  C15 UNL     1      -4.211  -1.810   0.774  1.00  0.00    -0.002 A 
HETATM   24  C16 UNL     1      -4.695  -1.250   2.053  1.00  0.00    -0.001 A 
HETATM   25  C17 UNL     1      -3.894  -0.287   2.470  1.00  0.00     0.012 A 
HETATM   26  C18 UNL     1      -2.658   0.396   2.037  1.00  0.00     0.230 A 
HETATM   27  F1  UNL     1      -1.685   0.129   2.997  1.00  0.00    -0.243 F 
ENDBRANCH   8  21
BRANCH   4  28
HETATM   28  O2  UNL     1      -4.573   0.820  -4.087  1.00  0.00    -0.345 OA
HETATM   29  H16 UNL     1      -5.264   0.101  -4.206  1.00  0.00     0.219 HD
ENDBRANCH   4  28
TORSDOF 8
