REMARK  4 active torsions:
REMARK  status: ('A' for Active; 'I' for Inactive)
REMARK    1  A    between atoms: N3_5  and  C3_6 
REMARK    2  A    between atoms: C4_7  and  C5_9 
REMARK    3  A    between atoms: C5_9  and  N4_10 
REMARK    4  A    between atoms: N4_10  and  C6_11 
ROOT
HETATM    1  C3  UNL     1      -0.912   1.181   0.429  1.00  0.00     0.175 C 
HETATM    2  C4  UNL     1       0.241   0.960  -0.222  1.00  0.00     0.129 C 
HETATM    3  F1  UNL     1       0.755   2.148  -0.541  1.00  0.00    -0.207 F 
ENDROOT
BRANCH   1   4
HETATM    4  N3  UNL     1      -1.618   0.060   0.858  1.00  0.00    -0.073 NA
HETATM    5  C2  UNL     1      -2.616  -0.064   1.557  1.00  0.00     0.719 C 
HETATM    6  N2  UNL     1      -2.857   1.310   1.811  1.00  0.00    -0.126 N 
HETATM    7  N6  UNL     1      -2.501  -1.489   1.389  1.00  0.00    -0.189 N 
HETATM    8  N1  UNL     1      -3.881   2.057   1.114  1.00  0.00    -0.249 N 
HETATM    9  H4  UNL     1      -2.279   1.746   2.526  1.00  0.00     0.206 HD
HETATM   10  C1  UNL     1      -3.818   3.461   1.407  1.00  0.00     0.181 C 
HETATM   11  C21 UNL     1      -4.887   1.523   0.166  1.00  0.00     0.262 C 
HETATM   12  C20 UNL     1      -5.848   0.993  -0.743  1.00  0.00     0.280 C 
HETATM   13  O4  UNL     1      -4.968   2.741   0.226  1.00  0.00    -0.269 OA
HETATM   14  O3  UNL     1      -6.045  -0.387  -0.864  1.00  0.00    -0.342 OA
HETATM   15  C18 UNL     1      -5.224  -1.392  -1.195  1.00  0.00     0.071 A 
HETATM   16  C17 UNL     1      -4.815  -2.419  -1.986  1.00  0.00     0.037 A 
HETATM   17  C19 UNL     1      -4.262  -1.417  -0.215  1.00  0.00     0.066 A 
HETATM   18  C16 UNL     1      -3.707  -3.214  -1.772  1.00  0.00     0.005 A 
HETATM   19  C15 UNL     1      -2.841  -3.083  -0.712  1.00  0.00     0.030 A 
HETATM   20  C14 UNL     1      -3.083  -2.104   0.195  1.00  0.00     0.052 A 
HETATM   21  H13 UNL     1      -2.099  -2.260   1.898  1.00  0.00     0.184 HD
ENDBRANCH   1   4
BRANCH   2  22
HETATM   22  C5  UNL     1       0.668  -0.448  -0.450  1.00  0.00     0.191 C 
BRANCH  22  23
HETATM   23  N4  UNL     1       1.920  -0.785   0.149  1.00  0.00    -0.383 N 
HETATM   24  H8  UNL     1       1.844  -1.498   0.935  1.00  0.00     0.160 HD
BRANCH  23  25
HETATM   25  C6  UNL     1       3.237  -0.372  -0.088  1.00  0.00     0.030 A 
HETATM   26  C7  UNL     1       3.528   0.541  -1.088  1.00  0.00     0.032 A 
HETATM   27  C8  UNL     1       4.823   0.945  -1.322  1.00  0.00     0.041 A 
HETATM   28  C9  UNL     1       5.863   0.453  -0.569  1.00  0.00     0.102 A 
HETATM   29  C10 UNL     1       5.595  -0.454   0.427  1.00  0.00     0.071 A 
HETATM   30  O2  UNL     1       7.189   0.847  -0.785  1.00  0.00    -0.274 OA
HETATM   31  C11 UNL     1       4.296  -0.836   0.637  1.00  0.00     0.061 A 
HETATM   32  N5  UNL     1       6.647  -0.977   1.216  1.00  0.00    -0.317 N 
HETATM   33  C12 UNL     1       7.998  -0.569   0.985  1.00  0.00     0.325 C 
HETATM   34  H12 UNL     1       6.437  -1.662   1.970  1.00  0.00     0.169 HD
HETATM   35  O1  UNL     1       8.818  -0.856   1.896  1.00  0.00    -0.263 OA
HETATM   36  C13 UNL     1       8.280   0.131  -0.276  1.00  0.00     0.443 C 
HETATM   37  F2  UNL     1       9.390   0.958  -0.165  1.00  0.00    -0.165 F 
HETATM   38  F3  UNL     1       8.586  -0.834  -1.238  1.00  0.00    -0.165 F 
ENDBRANCH  23  25
ENDBRANCH  22  23
ENDBRANCH   2  22
TORSDOF 4
