REMARK  5 active torsions:
REMARK  status: ('A' for Active; 'I' for Inactive)
REMARK    1  A    between atoms: O1_2  and  C2_3 
REMARK    2  A    between atoms: C6_9  and  N3_10 
REMARK    3  A    between atoms: N3_10  and  C7_11 
REMARK    4  A    between atoms: S1_20  and  C15_21 
REMARK    5  A    between atoms: C15_21  and  C16_22 
ROOT
HETATM    1  C2  UNL     1      -3.029  -1.219   0.534  1.00  0.00     0.101 A 
HETATM    2  C3  UNL     1      -2.038  -2.057   0.188  1.00  0.00     0.076 A 
HETATM    3  C4  UNL     1      -0.633  -1.685   0.087  1.00  0.00     0.075 A 
HETATM    4  N1  UNL     1       0.180  -2.708  -0.280  1.00  0.00    -0.241 NA
HETATM    5  C5  UNL     1       1.502  -2.503  -0.411  1.00  0.00     0.236 A 
HETATM    6  N2  UNL     1       2.053  -1.275  -0.180  1.00  0.00    -0.224 NA
HETATM    7  C6  UNL     1       1.245  -0.263   0.185  1.00  0.00     0.142 A 
HETATM    8  C13 UNL     1      -0.115  -0.446   0.326  1.00  0.00     0.045 A 
HETATM    9  C14 UNL     1      -0.914   0.707   0.724  1.00  0.00     0.059 A 
HETATM   10  S1  UNL     1      -2.555   0.501   0.899  1.00  0.00    -0.138 SA
ENDROOT
BRANCH   7  11
HETATM   11  N3  UNL     1       1.877   0.991   0.411  1.00  0.00    -0.338 N 
HETATM   12  H6  UNL     1       1.495   1.908   0.693  1.00  0.00     0.167 HD
BRANCH  11  13
HETATM   13  C7  UNL     1       3.286   1.092   0.243  1.00  0.00     0.072 A 
HETATM   14  C8  UNL     1       4.024   1.482   1.365  1.00  0.00     0.033 A 
HETATM   15  C9  UNL     1       5.384   1.612   1.317  1.00  0.00     0.002 A 
HETATM   16  C10 UNL     1       6.073   1.361   0.152  1.00  0.00     0.003 A 
HETATM   17  C11 UNL     1       5.358   0.971  -0.982  1.00  0.00     0.044 A 
HETATM   18  C12 UNL     1       3.986   0.843  -0.920  1.00  0.00     0.143 A 
HETATM   19  F1  UNL     1       3.253   0.466  -2.001  1.00  0.00    -0.204 F 
ENDBRANCH  11  13
ENDBRANCH   7  11
BRANCH  10  20
HETATM   20  C15 UNL     1      -3.709   1.861   0.483  1.00  0.00     0.089 C 
BRANCH  20  21
HETATM   21  C16 UNL     1      -3.926   1.812  -0.998  1.00  0.00     0.124 C 
HETATM   22 CL1  UNL     1      -4.623   0.267  -1.469  1.00  0.00    -0.130 Cl
ENDBRANCH  20  21
ENDBRANCH  10  20
BRANCH   1  23
HETATM   23  O1  UNL     1      -4.365  -1.584   0.627  1.00  0.00    -0.349 OA
HETATM   24  C1  UNL     1      -4.880  -2.800   0.198  1.00  0.00     0.210 C 
ENDBRANCH   1  23
TORSDOF 5
