REMARK  1 active torsions:
REMARK  status: ('A' for Active; 'I' for Inactive)
REMARK    1  A    between atoms: C2_2  and  C3_3 
ROOT
HETATM    1  C3  UNL     1       4.097   0.875   0.263  1.00  0.00     0.003 C 
HETATM    2  C4  UNL     1       2.775   0.898   0.534  1.00  0.00    -0.054 C 
HETATM    3  C5  UNL     1       2.029   2.002  -0.047  1.00  0.00     0.011 C 
HETATM    4  C6  UNL     1       0.860   2.546  -0.199  1.00  0.00     0.053 C 
HETATM    5  C7  UNL     1      -0.515   2.276   0.185  1.00  0.00     0.174 C 
HETATM    6  O1  UNL     1      -1.560   2.969  -0.001  1.00  0.00    -0.291 OA
HETATM    7  C8  UNL     1      -1.505   1.392   0.814  1.00  0.00     0.185 C 
HETATM    8  C9  UNL     1      -0.837   0.588   1.897  1.00  0.00     0.074 C 
HETATM    9  C10 UNL     1       0.027  -0.476   1.239  1.00  0.00    -0.047 A 
HETATM   10  C11 UNL     1      -1.037  -1.206   0.773  1.00  0.00     0.037 A 
HETATM   11  C12 UNL     1      -0.987  -2.400   0.024  1.00  0.00     0.029 A 
HETATM   12  C13 UNL     1       0.301  -2.884  -0.266  1.00  0.00     0.030 A 
HETATM   13  C14 UNL     1       1.361  -2.111   0.226  1.00  0.00     0.010 A 
HETATM   14  C15 UNL     1       1.273  -0.959   0.946  1.00  0.00    -0.047 A 
HETATM   15  C16 UNL     1       2.365  -0.176   1.472  1.00  0.00     0.077 C 
HETATM   16  N1  UNL     1      -1.928  -3.287  -0.592  1.00  0.00    -0.372 N 
HETATM   17  C17 UNL     1      -2.541  -2.616  -1.723  1.00  0.00     0.266 C 
HETATM   18  N2  UNL     1      -3.172  -1.377  -1.383  1.00  0.00    -0.282 N 
HETATM   19  C18 UNL     1      -4.228  -0.932  -1.919  1.00  0.00     0.195 A 
HETATM   20  N3  UNL     1      -3.760  -0.023  -0.935  1.00  0.00    -0.161 NA
HETATM   21  C19 UNL     1      -4.581   0.716  -0.312  1.00  0.00     0.108 C 
HETATM   22  C20 UNL     1      -3.888   1.593   0.675  1.00  0.00     0.125 C 
HETATM   23  N4  UNL     1      -2.736   1.941   1.193  1.00  0.00    -0.287 NA
HETATM   24  H15 UNL     1      -1.911  -4.189  -0.048  1.00  0.00     0.161 HD
ENDROOT
BRANCH   1  25
HETATM   25  C2  UNL     1       4.767   1.853  -0.522  1.00  0.00    -0.026 C 
HETATM   26  C1  UNL     1       6.078   1.858  -0.882  1.00  0.00     0.031 C 
ENDBRANCH   1  25
TORSDOF 1
