REMARK  9 active torsions:
REMARK  status: ('A' for Active; 'I' for Inactive)
REMARK    1  A    between atoms: C2_2  and  O1_3 
REMARK    2  A    between atoms: O1_3  and  C3_4 
REMARK    3  A    between atoms: C6_9  and  N3_10 
REMARK    4  A    between atoms: N3_10  and  C7_11 
REMARK    5  A    between atoms: C9_13  and  C10_14 
REMARK    6  A    between atoms: C11_15  and  N4_16 
REMARK       I    between atoms: N4_16  and  C12_17 
REMARK    7  A    between atoms: C12_17  and  C13_19 
REMARK    8  A    between atoms: C14_20  and  C15_21 
REMARK    9  A    between atoms: C15_21  and  N5_22 
ROOT
HETATM    1  C3  UNL     1      -3.921  -1.966  -0.747  1.00  0.00     0.150 C 
HETATM    2  N1  UNL     1      -4.730  -2.161   0.251  1.00  0.00    -0.222 NA
HETATM    3  C4  UNL     1      -5.506  -1.367   1.141  1.00  0.00     0.229 C 
HETATM    4  N2  UNL     1      -5.712  -0.095   1.309  1.00  0.00    -0.277 NA
HETATM    5  C5  UNL     1      -5.260   1.126   0.681  1.00  0.00     0.207 C 
HETATM    6  C6  UNL     1      -3.806   1.107   0.391  1.00  0.00     0.032 C 
HETATM    7  C9  UNL     1      -3.098   0.346  -0.459  1.00  0.00    -0.025 C 
HETATM    8  C20 UNL     1      -3.441  -0.731  -1.412  1.00  0.00     0.127 C 
ENDROOT
BRANCH   7   9
HETATM    9  C10 UNL     1      -1.680   0.686  -0.402  1.00  0.00     0.026 C 
HETATM   10  C11 UNL     1      -0.565   0.277  -0.998  1.00  0.00     0.092 C 
BRANCH  10  11
HETATM   11  N4  UNL     1       0.801   0.684  -0.866  1.00  0.00    -0.334 N 
HETATM   12  C12 UNL     1       1.726  -0.316  -0.447  1.00  0.00     0.244 C 
HETATM   13  O2  UNL     1       1.398  -1.503  -0.199  1.00  0.00    -0.268 OA
HETATM   14  H15 UNL     1       1.163   1.658  -1.054  1.00  0.00     0.168 HD
BRANCH  12  15
HETATM   15  C13 UNL     1       3.142  -0.016  -0.276  1.00  0.00     0.072 C 
HETATM   16  C14 UNL     1       3.855   1.061  -0.424  1.00  0.00    -0.002 C 
BRANCH  16  17
HETATM   17  C15 UNL     1       5.234   1.514  -0.298  1.00  0.00     0.144 C 
BRANCH  17  18
HETATM   18  N5  UNL     1       6.205   0.584   0.103  1.00  0.00    -0.409 N 
HETATM   19  C16 UNL     1       6.166   0.067   1.418  1.00  0.00     0.117 C 
HETATM   20  C17 UNL     1       6.431  -1.423   1.298  1.00  0.00     0.021 C 
HETATM   21  C18 UNL     1       7.255  -1.496   0.029  1.00  0.00     0.021 C 
HETATM   22  C19 UNL     1       6.625  -0.405  -0.819  1.00  0.00     0.117 C 
ENDBRANCH  17  18
ENDBRANCH  16  17
ENDBRANCH  12  15
ENDBRANCH  10  11
ENDBRANCH   7   9
BRANCH   6  23
HETATM   23  N3  UNL     1      -3.046   2.070   1.140  1.00  0.00    -0.392 N 
HETATM   24  H7  UNL     1      -2.624   1.747   2.039  1.00  0.00     0.159 HD
BRANCH  23  25
HETATM   25  C7  UNL     1      -2.923   3.407   0.596  1.00  0.00     0.115 C 
HETATM   26  C8  UNL     1      -4.267   4.140   0.621  1.00  0.00     0.026 C 
ENDBRANCH  23  25
ENDBRANCH   6  23
BRANCH   1  27
HETATM   27  O1  UNL     1      -3.452  -3.201  -1.235  1.00  0.00    -0.308 OA
BRANCH  27  28
HETATM   28  C2  UNL     1      -3.933  -4.373  -0.667  1.00  0.00     0.134 C 
HETATM   29  C1  UNL     1      -4.822  -5.059  -1.334  1.00  0.00     0.038 C 
ENDBRANCH  27  28
ENDBRANCH   1  27
TORSDOF 9
