REMARK  4 active torsions:
REMARK  status: ('A' for Active; 'I' for Inactive)
REMARK    1  A    between atoms: C1_2  and  C2_3 
REMARK    2  A    between atoms: C4_5  and  N2_6 
REMARK    3  A    between atoms: N2_6  and  C5_7 
REMARK    4  A    between atoms: C6_8  and  C7_9 
ROOT
HETATM    1  C2  UNL     1      -0.707   1.806  -0.623  1.00  0.00    -0.025 C 
HETATM    2  C3  UNL     1       0.343   0.969  -0.865  1.00  0.00     0.019 C 
HETATM    3  C4  UNL     1       0.483  -0.423  -0.713  1.00  0.00     0.076 C 
HETATM    4  C8  UNL     1       1.366  -1.360  -1.405  1.00  0.00     0.045 C 
HETATM    5  C9  UNL     1       1.097  -2.596  -0.443  1.00  0.00     0.042 C 
HETATM    6  C10 UNL     1      -0.370  -2.436  -0.192  1.00  0.00    -0.049 A 
HETATM    7  C11 UNL     1      -1.598  -2.914   0.335  1.00  0.00     0.008 A 
HETATM    8  C12 UNL     1      -2.785  -2.187   0.163  1.00  0.00     0.009 A 
HETATM    9  C13 UNL     1      -2.578  -1.042  -0.546  1.00  0.00    -0.040 A 
HETATM   10  C14 UNL     1      -1.608  -0.340  -1.167  1.00  0.00     0.019 A 
HETATM   11  C15 UNL     1      -0.768  -1.268  -0.790  1.00  0.00    -0.019 A 
HETATM   12  C16 UNL     1      -3.590   0.087  -0.509  1.00  0.00     0.153 C 
HETATM   13  N3  UNL     1      -2.997   1.136   0.243  1.00  0.00    -0.414 N 
HETATM   14  C17 UNL     1      -2.096   2.075  -0.199  1.00  0.00     0.154 C 
HETATM   15  H18 UNL     1      -3.010   0.890   1.242  1.00  0.00     0.153 HD
ENDROOT
BRANCH   3  16
HETATM   16  N2  UNL     1       0.998  -0.565   0.729  1.00  0.00    -0.382 N 
HETATM   17  H4  UNL     1       0.577  -1.073   1.545  1.00  0.00     0.160 HD
BRANCH  16  18
HETATM   18  C5  UNL     1       2.234   0.110   0.942  1.00  0.00     0.082 C 
HETATM   19  C6  UNL     1       3.050  -0.293   1.903  1.00  0.00     0.021 C 
BRANCH  19  20
HETATM   20  C7  UNL     1       4.370   0.241   2.311  1.00  0.00     0.251 C 
HETATM   21  F1  UNL     1       5.387  -0.663   2.215  1.00  0.00    -0.251 F 
ENDBRANCH  19  20
ENDBRANCH  16  18
ENDBRANCH   3  16
BRANCH   1  22
HETATM   22  C1  UNL     1      -0.134   3.155  -1.010  1.00  0.00     0.115 C 
HETATM   23  N1  UNL     1      -0.717   4.300  -0.972  1.00  0.00    -0.312 NA
HETATM   24  H1  UNL     1      -0.401   5.227  -1.212  1.00  0.00     0.186 HD
ENDBRANCH   1  22
TORSDOF 4
