REMARK  8 active torsions:
REMARK  status: ('A' for Active; 'I' for Inactive)
REMARK    1  A    between atoms: N1_2  and  C3_4 
REMARK    2  A    between atoms: C3_4  and  C4_5 
REMARK    3  A    between atoms: C5_6  and  N2_7 
REMARK    4  A    between atoms: N2_7  and  C6_8 
REMARK    5  A    between atoms: C7_9  and  C8_10 
REMARK    6  A    between atoms: C9_11  and  S1_13 
REMARK    7  A    between atoms: S1_13  and  N3_14 
REMARK    8  A    between atoms: N3_14  and  C10_15 
ROOT
HETATM    1  C8  UNL     1      -1.103  -0.891  -1.878  1.00  0.00     0.034 C 
HETATM    2  C9  UNL     1      -2.366  -0.485  -1.667  1.00  0.00     0.091 C 
HETATM    3 CL1  UNL     1      -2.584   0.929  -0.664  1.00  0.00    -0.075 Cl
ENDROOT
BRANCH   2   4
HETATM    4  S1  UNL     1      -3.438  -1.591  -2.570  1.00  0.00    -0.002 SA
BRANCH   4   5
HETATM    5  N3  UNL     1      -5.117  -1.038  -2.374  1.00  0.00    -0.325 N 
HETATM    6  H15 UNL     1      -5.520  -1.260  -3.330  1.00  0.00     0.174 HD
BRANCH   5   7
HETATM    7  C10 UNL     1      -5.637  -0.452  -1.168  1.00  0.00     0.038 A 
HETATM    8  C11 UNL     1      -5.659  -1.323  -0.079  1.00  0.00     0.033 A 
HETATM    9  C12 UNL     1      -6.166  -0.785   1.088  1.00  0.00     0.044 A 
HETATM   10  C13 UNL     1      -6.603   0.508   1.129  1.00  0.00     0.116 A 
HETATM   11  F1  UNL     1      -7.103   1.019   2.291  1.00  0.00    -0.206 F 
HETATM   12  C14 UNL     1      -6.571   1.350   0.043  1.00  0.00     0.044 A 
HETATM   13  C15 UNL     1      -6.071   0.836  -1.129  1.00  0.00     0.033 A 
ENDBRANCH   5   7
ENDBRANCH   4   5
ENDBRANCH   2   4
BRANCH   1  14
HETATM   14  C7  UNL     1      -0.219   0.055  -1.142  1.00  0.00     0.019 C 
HETATM   15  C6  UNL     1       1.112  -0.093  -1.163  1.00  0.00     0.087 C 
BRANCH  15  16
HETATM   16  N2  UNL     1       2.113   0.690  -0.542  1.00  0.00    -0.376 N 
HETATM   17  H11 UNL     1       3.042   0.767  -1.058  1.00  0.00     0.164 HD
BRANCH  16  18
HETATM   18  C5  UNL     1       2.393   1.488   0.600  1.00  0.00     0.085 C 
HETATM   19  C4  UNL     1       3.411   1.323   1.427  1.00  0.00     0.009 C 
BRANCH  19  20
HETATM   20  C3  UNL     1       4.366   0.243   1.202  1.00  0.00     0.144 C 
BRANCH  20  21
HETATM   21  N1  UNL     1       5.711   0.580   0.960  1.00  0.00    -0.418 N 
HETATM   22  C1  UNL     1       6.588  -0.556   0.746  1.00  0.00     0.142 C 
HETATM   23  C2  UNL     1       6.287   1.690   1.617  1.00  0.00     0.142 C 
ENDBRANCH  20  21
ENDBRANCH  19  20
ENDBRANCH  16  18
ENDBRANCH  15  16
ENDBRANCH   1  14
TORSDOF 8
