REMARK  4 active torsions:
REMARK  status: ('A' for Active; 'I' for Inactive)
REMARK    1  A    between atoms: O1_2  and  C2_3 
REMARK    2  A    between atoms: C7_8  and  C8_9 
REMARK    3  A    between atoms: C8_9  and  N1_10 
REMARK    4  A    between atoms: N3_20  and  C15_21 
ROOT
HETATM    1  N1  UNL     1       2.938   0.296  -0.865  1.00  0.00    -0.389 N 
HETATM    2  C9  UNL     1       3.745  -0.728  -0.356  1.00  0.00     0.124 C 
HETATM    3  C10 UNL     1       5.053  -0.340   0.259  1.00  0.00     0.066 C 
HETATM    4  P1  UNL     1       5.031   1.311   1.100  1.00  0.00    -0.051 P 
HETATM    5  N2  UNL     1       3.793   2.283   0.235  1.00  0.00    -0.273 NA
HETATM    6  C11 UNL     1       4.399   2.834  -0.938  1.00  0.00     0.117 C 
HETATM    7  C12 UNL     1       2.691   1.414  -0.019  1.00  0.00     0.192 C 
HETATM    8  C13 UNL     1       2.220   0.896   1.294  1.00  0.00     0.432 C 
HETATM    9  O2  UNL     1       1.824   0.534   2.407  1.00  0.00    -0.427 OA
HETATM   10  H12 UNL     1       6.313   2.001   0.943  1.00  0.00     0.074 HD
ENDROOT
BRANCH   1  11
HETATM   11  C8  UNL     1       1.907  -0.006  -1.787  1.00  0.00     0.160 C 
BRANCH  11  12
HETATM   12  C7  UNL     1       0.799  -0.844  -1.277  1.00  0.00    -0.006 A 
HETATM   13  C2  UNL     1       0.726  -2.206  -1.086  1.00  0.00     0.078 A 
HETATM   14  C3  UNL     1      -0.371  -2.834  -0.586  1.00  0.00     0.069 A 
HETATM   15  C4  UNL     1      -1.507  -2.145  -0.228  1.00  0.00     0.072 A 
HETATM   16  C5  UNL     1      -1.502  -0.778  -0.393  1.00  0.00     0.011 A 
HETATM   17  N5  UNL     1      -2.464  -2.877   0.230  1.00  0.00    -0.239 NA
HETATM   18  C6  UNL     1      -0.378  -0.178  -0.901  1.00  0.00     0.027 A 
HETATM   19  C14 UNL     1      -2.460   0.093  -0.124  1.00  0.00     0.132 A 
HETATM   20  N3  UNL     1      -3.757  -0.071   0.401  1.00  0.00    -0.240 N 
HETATM   21  N4  UNL     1      -4.281  -1.317   0.750  1.00  0.00    -0.161 NA
HETATM   22  C21 UNL     1      -3.768  -2.495   0.689  1.00  0.00     0.256 A 
BRANCH  13  23
HETATM   23  O1  UNL     1       1.840  -2.914  -1.436  1.00  0.00    -0.355 OA
HETATM   24  C1  UNL     1       1.874  -4.305  -1.284  1.00  0.00     0.210 C 
ENDBRANCH  13  23
BRANCH  20  25
HETATM   25  C15 UNL     1      -4.622   1.025   0.613  1.00  0.00     0.096 A 
HETATM   26  C16 UNL     1      -4.374   2.352   0.360  1.00  0.00     0.035 A 
HETATM   27  C17 UNL     1      -5.270   3.371   0.594  1.00  0.00     0.002 A 
HETATM   28  C18 UNL     1      -6.511   3.085   1.117  1.00  0.00     0.003 A 
HETATM   29  C19 UNL     1      -6.797   1.781   1.383  1.00  0.00     0.045 A 
HETATM   30  C20 UNL     1      -5.872   0.797   1.133  1.00  0.00     0.145 A 
HETATM   31  F1  UNL     1      -6.281  -0.457   1.441  1.00  0.00    -0.204 F 
ENDBRANCH  20  25
ENDBRANCH  11  12
ENDBRANCH   1  11
TORSDOF 4
