REMARK  4 active torsions:
REMARK  status: ('A' for Active; 'I' for Inactive)
REMARK    1  A    between atoms: N1_2  and  C2_3 
REMARK    2  A    between atoms: N1_2  and  C3_5 
REMARK    3  A    between atoms: C3_5  and  C4_6 
REMARK    4  A    between atoms: C6_8  and  N2_9 
ROOT
HETATM    1  C4  UNL     1      -1.140  -0.226  -0.472  1.00  0.00     0.235 A 
HETATM    2  C5  UNL     1      -0.853  -0.131  -1.934  1.00  0.00     0.121 A 
HETATM    3  C6  UNL     1       0.111   0.357  -0.877  1.00  0.00     0.205 A 
HETATM    4  N3  UNL     1       0.509   1.638  -0.937  1.00  0.00    -0.406 NA
HETATM    5  C12 UNL     1       1.076   2.688  -1.085  1.00  0.00     0.294 A 
HETATM    6  N4  UNL     1      -0.018   3.385  -0.580  1.00  0.00    -0.241 NA
HETATM    7  C13 UNL     1      -0.390   4.524  -0.336  1.00  0.00     0.138 A 
HETATM    8  C14 UNL     1      -1.726   4.094   0.180  1.00  0.00     0.131 A 
HETATM    9  N5  UNL     1      -2.512   3.037   0.418  1.00  0.00    -0.271 NA
HETATM   10  C15 UNL     1      -1.841   1.861   0.046  1.00  0.00     0.418 A 
HETATM   11  N6  UNL     1      -2.248   0.532   0.090  1.00  0.00     0.119 NA
HETATM   12  H20 UNL     1      -2.365   0.239   1.085  1.00  0.00     0.319 HD
ENDROOT
BRANCH   3  13
HETATM   13  N2  UNL     1       1.273  -0.496  -0.632  1.00  0.00    -0.370 N 
HETATM   14  C7  UNL     1       1.626  -0.580   0.735  1.00  0.00     0.150 C 
HETATM   15  C8  UNL     1       2.244  -1.928   0.965  1.00  0.00     0.032 C 
HETATM   16  C9  UNL     1       3.203  -2.066   0.020  1.00  0.00     0.111 C 
HETATM   17  F1  UNL     1       3.912  -3.248   0.042  1.00  0.00    -0.209 F 
HETATM   18  C10 UNL     1       3.588  -1.078  -1.059  1.00  0.00     0.161 C 
HETATM   19 CL1  UNL     1       4.366  -1.957  -2.385  1.00  0.00    -0.116 Cl
HETATM   20  C11 UNL     1       2.311  -0.401  -1.583  1.00  0.00     0.148 C 
ENDBRANCH   3  13
BRANCH   1  21
HETATM   21  C3  UNL     1      -1.261  -1.673  -0.051  1.00  0.00     0.166 C 
BRANCH  21  22
HETATM   22  N1  UNL     1      -1.580  -1.931   1.318  1.00  0.00    -0.384 N 
HETATM   23  C1  UNL     1      -3.022  -2.072   1.578  1.00  0.00     0.146 C 
BRANCH  22  24
HETATM   24  C2  UNL     1      -1.024  -2.147   2.609  1.00  0.00     0.513 C 
HETATM   25  O1  UNL     1      -0.002  -2.221   3.319  1.00  0.00    -0.412 OA
ENDBRANCH  22  24
ENDBRANCH  21  22
ENDBRANCH   1  21
TORSDOF 4
