REMARK  6 active torsions:
REMARK  status: ('A' for Active; 'I' for Inactive)
REMARK    1  A    between atoms: C2_2  and  N1_3 
REMARK    2  A    between atoms: N1_3  and  C4_5 
REMARK    3  A    between atoms: C5_6  and  C6_7 
REMARK       I    between atoms: C6_7  and  N2_9 
REMARK    4  A    between atoms: N2_9  and  C7_10 
REMARK    5  A    between atoms: C10_13  and  N3_14 
REMARK    6  A    between atoms: N3_14  and  C11_15 
ROOT
HETATM    1  C7  UNL     1      -0.496  -1.141   0.303  1.00  0.00     0.131 A 
HETATM    2  C8  UNL     1       0.848  -0.868   0.417  1.00  0.00     0.068 A 
HETATM    3  C9  UNL     1       1.839  -1.790   0.674  1.00  0.00     0.044 A 
HETATM    4  C10 UNL     1       3.181  -1.397   0.758  1.00  0.00     0.142 A 
HETATM    5  N4  UNL     1       4.131  -2.329   1.000  1.00  0.00    -0.224 NA
HETATM    6  C17 UNL     1       3.719  -3.627   1.151  1.00  0.00     0.236 A 
HETATM    7  N5  UNL     1       2.435  -4.027   1.076  1.00  0.00    -0.240 NA
HETATM    8  C18 UNL     1       1.485  -3.110   0.837  1.00  0.00     0.089 A 
HETATM    9  C19 UNL     1       0.127  -3.378   0.721  1.00  0.00     0.151 A 
HETATM   10  N6  UNL     1      -0.790  -2.437   0.471  1.00  0.00    -0.241 NA
ENDROOT
BRANCH   1  11
HETATM   11  N2  UNL     1      -1.528  -0.224   0.016  1.00  0.00    -0.308 N 
HETATM   12  C6  UNL     1      -1.499   1.140  -0.329  1.00  0.00     0.248 C 
HETATM   13  O1  UNL     1      -0.328   1.658  -0.404  1.00  0.00    -0.268 OA
HETATM   14  H11 UNL     1      -2.515  -0.575   0.052  1.00  0.00     0.170 HD
BRANCH  12  15
HETATM   15  C5  UNL     1      -2.656   1.956  -0.597  1.00  0.00     0.091 C 
HETATM   16  C4  UNL     1      -3.954   1.755  -0.595  1.00  0.00     0.090 C 
BRANCH  16  17
HETATM   17  N1  UNL     1      -4.907   0.699  -0.347  1.00  0.00    -0.394 N 
HETATM   18  C3  UNL     1      -5.263  -0.417  -1.204  1.00  0.00     0.148 C 
BRANCH  17  19
HETATM   19  C2  UNL     1      -5.630   0.739   0.942  1.00  0.00     0.117 C 
HETATM   20  C1  UNL     1      -7.077   1.055   0.588  1.00  0.00     0.026 C 
ENDBRANCH  17  19
ENDBRANCH  16  17
ENDBRANCH  12  15
ENDBRANCH   1  11
BRANCH   4  21
HETATM   21  N3  UNL     1       3.571  -0.042   0.631  1.00  0.00    -0.340 N 
HETATM   22  H13 UNL     1       2.907   0.527   1.248  1.00  0.00     0.167 HD
BRANCH  21  23
HETATM   23  C11 UNL     1       4.582   0.655  -0.075  1.00  0.00     0.035 A 
HETATM   24  C12 UNL     1       4.703   2.029   0.136  1.00  0.00     0.032 A 
HETATM   25  C13 UNL     1       5.676   2.700  -0.566  1.00  0.00     0.046 A 
HETATM   26  C14 UNL     1       6.530   2.091  -1.460  1.00  0.00     0.138 A 
HETATM   27  F1  UNL     1       7.413   2.908  -2.049  1.00  0.00    -0.204 F 
HETATM   28  C15 UNL     1       6.365   0.734  -1.628  1.00  0.00     0.074 A 
HETATM   29 CL1  UNL     1       7.473  -0.013  -2.774  1.00  0.00    -0.081 Cl
HETATM   30  C16 UNL     1       5.412   0.003  -0.956  1.00  0.00     0.056 A 
ENDBRANCH  21  23
ENDBRANCH   4  21
TORSDOF 6
