REMARK  5 active torsions:
REMARK  status: ('A' for Active; 'I' for Inactive)
REMARK    1  A    between atoms: C3_5  and  N3_6 
REMARK    2  A    between atoms: N3_6  and  C4_7 
REMARK    3  A    between atoms: C7_10  and  C8_11 
REMARK    4  A    between atoms: C8_11  and  C9_12 
REMARK    5  A    between atoms: C17_21  and  N5_22 
ROOT
HETATM    1  C1  UNL     1      -1.635  -4.837   0.043  1.00  0.00     0.136 C 
HETATM    2  N1  UNL     1      -0.648  -4.163  -0.459  1.00  0.00    -0.253 NA
HETATM    3  C2  UNL     1      -0.836  -2.803  -0.887  1.00  0.00     0.235 C 
HETATM    4  N2  UNL     1      -1.091  -2.233   0.218  1.00  0.00    -0.222 NA
HETATM    5  C3  UNL     1      -1.370  -0.900   0.490  1.00  0.00     0.154 C 
HETATM    6  C16 UNL     1      -2.554  -0.354   0.719  1.00  0.00     0.090 C 
HETATM    7  C17 UNL     1      -3.473   0.804   1.030  1.00  0.00     0.293 C 
HETATM    8  C22 UNL     1      -4.108  -0.297   1.878  1.00  0.00     0.167 C 
HETATM    9  N6  UNL     1      -3.781  -1.122   0.700  1.00  0.00    -0.359 N 
HETATM   10  C23 UNL     1      -4.149  -2.146  -0.233  1.00  0.00     0.273 C 
HETATM   11  N7  UNL     1      -3.984  -3.490   0.201  1.00  0.00    -0.281 NA
HETATM   12  C24 UNL     1      -2.933  -4.199   0.168  1.00  0.00     0.131 C 
ENDROOT
BRANCH   5  13
HETATM   13  N3  UNL     1      -0.312   0.014   0.543  1.00  0.00    -0.339 N 
HETATM   14  H3  UNL     1      -0.283   1.002   0.808  1.00  0.00     0.167 HD
BRANCH  13  15
HETATM   15  C4  UNL     1       1.050  -0.226   0.223  1.00  0.00     0.033 A 
HETATM   16  C5  UNL     1       1.655  -0.088  -0.989  1.00  0.00     0.030 A 
HETATM   17  C6  UNL     1       3.012  -0.371  -1.106  1.00  0.00     0.010 A 
HETATM   18  C7  UNL     1       3.795  -0.790  -0.056  1.00  0.00    -0.052 A 
HETATM   19  C14 UNL     1       3.180  -0.932   1.180  1.00  0.00     0.010 A 
HETATM   20  C15 UNL     1       1.836  -0.649   1.289  1.00  0.00     0.030 A 
BRANCH  18  21
HETATM   21  C8  UNL     1       5.224  -1.063  -0.290  1.00  0.00     0.097 C 
BRANCH  21  22
HETATM   22  C9  UNL     1       6.030   0.177  -0.068  1.00  0.00     0.038 A 
HETATM   23  C10 UNL     1       6.255   1.028  -1.137  1.00  0.00     0.027 A 
HETATM   24  C11 UNL     1       6.990   2.193  -1.012  1.00  0.00     0.003 A 
HETATM   25  C12 UNL     1       7.481   2.445   0.249  1.00  0.00     0.019 A 
HETATM   26  C13 UNL     1       7.269   1.604   1.348  1.00  0.00     0.117 A 
HETATM   27  N4  UNL     1       6.542   0.497   1.120  1.00  0.00    -0.265 NA
ENDBRANCH  21  22
ENDBRANCH  18  21
ENDBRANCH  13  15
ENDBRANCH   5  13
BRANCH   7  28
HETATM   28  N5  UNL     1      -4.204   1.163  -0.138  1.00  0.00     0.100 N 
HETATM   29  C18 UNL     1      -5.120   2.247  -0.007  1.00  0.00     0.273 C 
HETATM   30  C19 UNL     1      -4.193   3.445   0.007  1.00  0.00     0.032 C 
HETATM   31  C20 UNL     1      -3.303   3.115  -1.174  1.00  0.00     0.032 C 
HETATM   32  C21 UNL     1      -3.291   1.604  -1.173  1.00  0.00     0.273 C 
ENDBRANCH   7  28
TORSDOF 5
