REMARK  7 active torsions:
REMARK  status: ('A' for Active; 'I' for Inactive)
REMARK    1  A    between atoms: C3_3  and  C4_4 
REMARK    2  A    between atoms: N1_5  and  C5_6 
REMARK    3  A    between atoms: C5_6  and  C6_7 
REMARK    4  A    between atoms: C9_10  and  N2_11 
REMARK       I    between atoms: N2_11  and  C10_12 
REMARK    5  A    between atoms: C10_12  and  C11_14 
REMARK    6  A    between atoms: C12_15  and  C13_16 
REMARK    7  A    between atoms: C13_16  and  N3_17 
ROOT
HETATM    1  C6  UNL     1       3.527   0.806  -0.267  1.00  0.00     0.055 C 
HETATM    2  C7  UNL     1       2.717  -0.210  -0.496  1.00  0.00     0.033 C 
HETATM    3  C8  UNL     1       1.357  -0.460  -0.941  1.00  0.00     0.052 C 
HETATM    4  C9  UNL     1       0.450   0.437  -1.279  1.00  0.00     0.131 C 
HETATM    5  N4  UNL     1       0.200   1.832  -1.403  1.00  0.00    -0.226 NA
HETATM    6  C18 UNL     1       0.168   2.235  -2.635  1.00  0.00     0.121 C 
HETATM    7  C19 UNL     1       1.186   1.838  -3.318  1.00  0.00     0.120 C 
HETATM    8  N5  UNL     1       2.212   1.503  -2.622  1.00  0.00    -0.237 NA
HETATM    9  C20 UNL     1       2.439   2.476  -1.568  1.00  0.00     0.234 C 
HETATM   10  N6  UNL     1       3.049   2.127  -0.490  1.00  0.00    -0.245 NA
ENDROOT
BRANCH   4  11
HETATM   11  N2  UNL     1      -0.804  -0.120  -1.677  1.00  0.00    -0.308 N 
HETATM   12  C10 UNL     1      -2.064   0.099  -1.072  1.00  0.00     0.246 C 
HETATM   13  O1  UNL     1      -1.963   0.876  -0.096  1.00  0.00    -0.268 OA
HETATM   14  H11 UNL     1      -0.701  -0.755  -2.525  1.00  0.00     0.170 HD
BRANCH  12  15
HETATM   15  C11 UNL     1      -3.264  -0.527  -1.570  1.00  0.00     0.072 C 
HETATM   16  C12 UNL     1      -4.453  -0.344  -1.029  1.00  0.00     0.008 C 
BRANCH  16  17
HETATM   17  C13 UNL     1      -4.968   0.434   0.106  1.00  0.00     0.300 C 
BRANCH  17  18
HETATM   18  N3  UNL     1      -5.599  -0.445   1.095  1.00  0.00     0.091 N 
HETATM   19  C14 UNL     1      -6.062   0.390   2.159  1.00  0.00     0.273 C 
HETATM   20  C15 UNL     1      -7.552   0.490   2.006  1.00  0.00     0.032 C 
HETATM   21  C16 UNL     1      -7.874  -0.933   1.530  1.00  0.00     0.032 C 
HETATM   22  C17 UNL     1      -6.742  -1.139   0.543  1.00  0.00     0.273 C 
ENDBRANCH  17  18
ENDBRANCH  16  17
ENDBRANCH  12  15
ENDBRANCH   4  11
BRANCH   1  23
HETATM   23  C5  UNL     1       4.948   0.984   0.202  1.00  0.00     0.207 C 
BRANCH  23  24
HETATM   24  N1  UNL     1       5.428  -0.384   0.420  1.00  0.00    -0.296 NA
HETATM   25  C4  UNL     1       6.673  -0.635   0.545  1.00  0.00     0.110 C 
BRANCH  25  26
HETATM   26  C3  UNL     1       7.858   0.211   0.519  1.00  0.00     0.014 C 
HETATM   27  C2  UNL     1       9.041  -0.361   0.683  1.00  0.00    -0.029 C 
HETATM   28  C1  UNL     1       8.850  -1.839   0.866  1.00  0.00     0.036 C 
ENDBRANCH  25  26
ENDBRANCH  23  24
ENDBRANCH   1  23
TORSDOF 7
