REMARK  0 active torsions:
REMARK  status: ('A' for Active; 'I' for Inactive)
ROOT
HETATM    1  C1  UNL     1       4.350   1.882   1.403  1.00  0.00     0.038 C 
HETATM    2  C2  UNL     1       3.405   0.799   0.959  1.00  0.00    -0.004 C 
HETATM    3  C3  UNL     1       3.215   0.265  -0.254  1.00  0.00     0.034 C 
HETATM    4  C4  UNL     1       2.619  -0.623  -1.258  1.00  0.00     0.097 C 
HETATM    5  C5  UNL     1       1.466  -1.420  -0.790  1.00  0.00    -0.052 A 
HETATM    6  C6  UNL     1       0.737  -1.968  -1.854  1.00  0.00     0.010 A 
HETATM    7  C7  UNL     1      -0.409  -2.694  -1.623  1.00  0.00     0.030 A 
HETATM    8  C8  UNL     1      -0.833  -2.878  -0.323  1.00  0.00     0.033 A 
HETATM    9  C9  UNL     1      -0.117  -2.343   0.732  1.00  0.00     0.030 A 
HETATM   10  C10 UNL     1       1.029  -1.617   0.497  1.00  0.00     0.010 A 
HETATM   11  N1  UNL     1      -2.017  -3.579   0.030  1.00  0.00    -0.341 N 
HETATM   12  C11 UNL     1      -2.790  -2.382  -0.177  1.00  0.00     0.129 C 
HETATM   13  C12 UNL     1      -2.335  -1.227  -0.744  1.00  0.00     0.054 C 
HETATM   14  C13 UNL     1      -1.685  -0.018  -0.667  1.00  0.00     0.054 C 
HETATM   15  C14 UNL     1      -1.585   0.949   0.302  1.00  0.00     0.123 C 
HETATM   16  N2  UNL     1      -2.054   0.365   1.415  1.00  0.00    -0.242 NA
HETATM   17  C15 UNL     1      -3.152   0.925   1.981  1.00  0.00     0.138 C 
HETATM   18  C16 UNL     1      -4.136  -0.029   2.229  1.00  0.00     0.137 C 
HETATM   19  N3  UNL     1      -4.679  -1.259   2.284  1.00  0.00    -0.253 NA
HETATM   20  C17 UNL     1      -4.227  -2.303   1.595  1.00  0.00     0.234 C 
HETATM   21  N4  UNL     1      -4.089  -2.435   0.247  1.00  0.00    -0.225 NA
HETATM   22  N5  UNL     1      -1.097   2.238   0.139  1.00  0.00    -0.371 N 
HETATM   23  C18 UNL     1      -0.424   3.129  -0.752  1.00  0.00     0.148 C 
HETATM   24  C19 UNL     1       0.959   2.744  -1.027  1.00  0.00    -0.006 C 
HETATM   25  C20 UNL     1       2.145   2.175  -1.101  1.00  0.00     0.017 C 
HETATM   26  C21 UNL     1       3.523   2.109  -1.587  1.00  0.00     0.116 C 
HETATM   27  N6  UNL     1       4.098   1.048  -1.107  1.00  0.00    -0.266 NA
HETATM   28  H11 UNL     1      -2.463  -4.468   0.327  1.00  0.00     0.167 HD
HETATM   29  H17 UNL     1      -1.331   2.730   1.056  1.00  0.00     0.161 HD
ENDROOT
TORSDOF 0
