REMARK  6 active torsions:
REMARK  status: ('A' for Active; 'I' for Inactive)
REMARK    1  A    between atoms: C2_2  and  C3_3 
REMARK    2  A    between atoms: C3_3  and  C4_5 
REMARK    3  A    between atoms: C4_5  and  O2_6 
REMARK    4  A    between atoms: C5_7  and  C6_8 
REMARK    5  A    between atoms: N2_18  and  C15_19 
REMARK    6  A    between atoms: C15_19  and  C16_20 
ROOT
HETATM    1  C4  UNL     1       4.129   0.907   0.789  1.00  0.00     0.190 C 
HETATM    2  C5  UNL     1       3.981   2.170   0.065  1.00  0.00     0.006 C 
HETATM    3  C7  UNL     1       2.703   2.308  -0.337  1.00  0.00     0.028 C 
HETATM    4  C8  UNL     1       1.891   1.148   0.084  1.00  0.00     0.132 C 
HETATM    5  C9  UNL     1       1.258   0.414  -1.059  1.00  0.00     0.047 C 
HETATM    6  C10 UNL     1       1.236  -0.887  -0.664  1.00  0.00     0.057 C 
HETATM    7  C11 UNL     1       0.095  -1.421  -1.399  1.00  0.00     0.040 C 
HETATM    8  C12 UNL     1      -1.176  -1.357  -1.092  1.00  0.00    -0.028 C 
HETATM    9  C13 UNL     1      -2.197  -1.960  -1.968  1.00  0.00     0.060 C 
HETATM   10  C14 UNL     1      -3.501  -1.793  -1.269  1.00  0.00     0.128 C 
HETATM   11  N2  UNL     1      -3.243  -1.344   0.083  1.00  0.00    -0.376 N 
HETATM   12  C22 UNL     1      -1.962  -0.817  -0.005  1.00  0.00     0.035 C 
HETATM   13  C23 UNL     1      -1.455   0.125   0.838  1.00  0.00     0.032 C 
HETATM   14  C24 UNL     1      -0.249   0.923   1.115  1.00  0.00     0.157 C 
HETATM   15  N3  UNL     1       0.911   1.429   1.048  1.00  0.00    -0.293 NA
HETATM   16  N4  UNL     1       2.295  -1.015   0.262  1.00  0.00    -0.251 NA
HETATM   17  C25 UNL     1       2.920   0.128   0.430  1.00  0.00     0.097 C 
ENDROOT
BRANCH  11  18
HETATM   18  C15 UNL     1      -4.071  -1.408   1.265  1.00  0.00     0.161 C 
BRANCH  18  19
HETATM   19  C16 UNL     1      -5.325  -0.659   0.954  1.00  0.00    -0.040 A 
HETATM   20  C17 UNL     1      -5.571   0.679   1.152  1.00  0.00     0.009 A 
HETATM   21  C18 UNL     1      -6.801   1.208   0.802  1.00  0.00     0.001 A 
HETATM   22  C19 UNL     1      -7.819   0.456   0.253  1.00  0.00     0.000 A 
HETATM   23  C20 UNL     1      -7.591  -0.883   0.049  1.00  0.00     0.001 A 
HETATM   24  C21 UNL     1      -6.350  -1.420   0.402  1.00  0.00     0.009 A 
ENDBRANCH  18  19
ENDBRANCH  11  18
BRANCH   1  25
HETATM   25  C3  UNL     1       5.384   0.209   0.449  1.00  0.00     0.171 C 
HETATM   26  O1  UNL     1       6.187  -0.156   1.286  1.00  0.00    -0.294 OA
BRANCH  25  27
HETATM   27  C2  UNL     1       5.840  -0.139  -0.917  1.00  0.00     0.078 C 
HETATM   28  C1  UNL     1       7.156  -0.839  -0.821  1.00  0.00     0.013 C 
ENDBRANCH  25  27
ENDBRANCH   1  25
BRANCH   1  29
HETATM   29  O2  UNL     1       4.076   1.041   2.170  1.00  0.00    -0.372 OA
HETATM   30  H6  UNL     1       4.598   0.327   2.610  1.00  0.00     0.212 HD
ENDBRANCH   1  29
BRANCH   2  31
HETATM   31  C6  UNL     1       5.028   3.169  -0.209  1.00  0.00     0.117 C 
HETATM   32  N1  UNL     1       6.221   2.942   0.220  1.00  0.00    -0.312 NA
HETATM   33  H8  UNL     1       6.979   3.631   0.041  1.00  0.00     0.186 HD
ENDBRANCH   2  31
TORSDOF 6
