REMARK  6 active torsions:
REMARK  status: ('A' for Active; 'I' for Inactive)
REMARK    1  A    between atoms: N4_12  and  C9_13 
REMARK    2  A    between atoms: C9_13  and  N5_14 
REMARK    3  A    between atoms: N5_14  and  C10_15 
REMARK    4  A    between atoms: C17_24  and  O1_25 
REMARK    5  A    between atoms: O1_25  and  C18_26 
REMARK    6  A    between atoms: C18_26  and  C19_27 
ROOT
HETATM    1  C1  UNL     1      -4.394   0.022   2.062  1.00  0.00     0.311 C 
HETATM    2  N1  UNL     1      -4.148  -0.002   0.627  1.00  0.00     0.100 N 
HETATM    3  C2  UNL     1      -4.290   1.351   0.028  1.00  0.00     0.309 C 
HETATM    4  C3  UNL     1      -3.195   0.975  -0.868  1.00  0.00     0.124 C 
HETATM    5  C4  UNL     1      -3.502   0.303  -2.158  1.00  0.00     0.147 C 
HETATM    6  N2  UNL     1      -2.666   1.377  -2.722  1.00  0.00    -0.235 NA
HETATM    7  N3  UNL     1      -2.307   1.862  -1.462  1.00  0.00    -0.309 N 
HETATM    8  C5  UNL     1      -1.622   2.665  -0.518  1.00  0.00     0.102 C 
HETATM    9  C6  UNL     1      -0.662   2.423   0.343  1.00  0.00    -0.002 C 
HETATM   10  C7  UNL     1       0.264   1.464   0.925  1.00  0.00     0.087 C 
HETATM   11  C8  UNL     1       0.268   0.146   0.306  1.00  0.00     0.036 C 
HETATM   12  N4  UNL     1       1.431  -0.370   0.050  1.00  0.00    -0.274 NA
HETATM   13  C16 UNL     1      -0.696  -0.871  -0.073  1.00  0.00     0.061 C 
HETATM   14  C17 UNL     1      -2.022  -1.070  -0.146  1.00  0.00     0.084 C 
HETATM   15  C20 UNL     1      -2.722   0.141   0.285  1.00  0.00     0.311 C 
HETATM   16  H8  UNL     1      -3.244   2.036  -3.296  1.00  0.00     0.146 HD
ENDROOT
BRANCH  12  17
HETATM   17  C9  UNL     1       2.666   0.285   0.344  1.00  0.00     0.270 C 
BRANCH  17  18
HETATM   18  N5  UNL     1       3.805  -0.613   0.106  1.00  0.00    -0.369 N 
HETATM   19  H15 UNL     1       3.594  -1.587  -0.236  1.00  0.00     0.161 HD
BRANCH  18  20
HETATM   20  C10 UNL     1       5.148  -0.234   0.312  1.00  0.00     0.070 A 
HETATM   21  C11 UNL     1       5.462   1.032   0.759  1.00  0.00     0.032 A 
HETATM   22  C12 UNL     1       6.777   1.413   0.964  1.00  0.00     0.004 A 
HETATM   23  C13 UNL     1       7.830   0.555   0.735  1.00  0.00     0.027 A 
HETATM   24  C14 UNL     1       7.488  -0.707   0.288  1.00  0.00     0.074 A 
HETATM   25 CL1  UNL     1       8.689  -1.928  -0.056  1.00  0.00    -0.081 Cl
HETATM   26  C15 UNL     1       6.180  -1.102   0.078  1.00  0.00     0.164 A 
HETATM   27  F1  UNL     1       5.841  -2.341  -0.361  1.00  0.00    -0.202 F 
ENDBRANCH  18  20
ENDBRANCH  17  18
ENDBRANCH  12  17
BRANCH  14  28
HETATM   28  O1  UNL     1      -2.895  -2.081  -0.516  1.00  0.00    -0.346 OA
BRANCH  28  29
HETATM   29  C18 UNL     1      -2.644  -3.420  -0.063  1.00  0.00     0.244 C 
BRANCH  29  30
HETATM   30  C19 UNL     1      -3.713  -4.273  -0.599  1.00  0.00     0.257 C 
HETATM   31  O2  UNL     1      -3.789  -5.467  -0.396  1.00  0.00    -0.305 OA
ENDBRANCH  29  30
ENDBRANCH  28  29
ENDBRANCH  14  28
TORSDOF 6
