REMARK  2 active torsions:
REMARK  status: ('A' for Active; 'I' for Inactive)
REMARK    1  A    between atoms: C7_7  and  N1_8 
REMARK    2  A    between atoms: N2_14  and  C13_15 
ROOT
HETATM    1  N1  UNL     1      -1.424   0.053  -0.600  1.00  0.00    -0.378 N 
HETATM    2  C8  UNL     1      -1.872  -0.627  -1.821  1.00  0.00     0.127 C 
HETATM    3  C9  UNL     1      -0.800  -1.708  -2.176  1.00  0.00     0.047 C 
HETATM    4  C10 UNL     1       0.359  -0.861  -2.600  1.00  0.00    -0.027 C 
HETATM    5  C11 UNL     1       1.525  -0.588  -2.183  1.00  0.00    -0.011 C 
HETATM    6  C12 UNL     1       1.737  -1.333  -0.949  1.00  0.00     0.152 C 
HETATM    7  N2  UNL     1       1.727  -0.394   0.195  1.00  0.00    -0.356 N 
HETATM    8  C18 UNL     1       0.676   0.283   0.826  1.00  0.00     0.100 C 
HETATM    9  C19 UNL     1       1.200   1.319   1.853  1.00  0.00     0.034 C 
HETATM   10  C20 UNL     1      -0.505   0.828   0.149  1.00  0.00     0.148 C 
ENDROOT
BRANCH   7  11
HETATM   11  C13 UNL     1       3.044  -0.151   0.747  1.00  0.00     0.140 A 
HETATM   12  N3  UNL     1       3.303  -0.479   2.040  1.00  0.00    -0.224 NA
HETATM   13  C14 UNL     1       4.516  -0.280   2.606  1.00  0.00     0.238 A 
HETATM   14  N4  UNL     1       5.542   0.257   1.920  1.00  0.00    -0.217 NA
HETATM   15  C15 UNL     1       5.307   0.591   0.632  1.00  0.00     0.178 A 
HETATM   16  C16 UNL     1       4.090   0.400   0.037  1.00  0.00     0.065 A 
HETATM   17  O1  UNL     1       5.839   1.122  -0.519  1.00  0.00    -0.329 OA
HETATM   18  C17 UNL     1       4.621   0.954  -1.200  1.00  0.00     0.224 A 
ENDBRANCH   7  11
BRANCH   1  19
HETATM   19  C7  UNL     1      -2.532  -0.214   0.303  1.00  0.00     0.036 A 
HETATM   20  C2  UNL     1      -3.683   0.533   0.065  1.00  0.00    -0.035 A 
HETATM   21  C1  UNL     1      -3.860   1.582  -1.004  1.00  0.00     0.050 C 
HETATM   22  C3  UNL     1      -4.856   0.398   0.821  1.00  0.00     0.009 A 
HETATM   23  C4  UNL     1      -4.875  -0.511   1.845  1.00  0.00     0.001 A 
HETATM   24  C5  UNL     1      -3.750  -1.264   2.103  1.00  0.00     0.002 A 
HETATM   25  C6  UNL     1      -2.614  -1.110   1.344  1.00  0.00     0.030 A 
ENDBRANCH   1  19
TORSDOF 2
