REMARK  9 active torsions:
REMARK  status: ('A' for Active; 'I' for Inactive)
REMARK    1  A    between atoms: C2_2  and  C3_3 
REMARK       I    between atoms: C3_3  and  N1_5 
REMARK    2  A    between atoms: N1_5  and  C4_6 
REMARK    3  A    between atoms: C7_9  and  N2_10 
REMARK    4  A    between atoms: N2_10  and  C8_11 
REMARK    5  A    between atoms: C10_13  and  C11_14 
REMARK    6  A    between atoms: C11_14  and  N3_15 
REMARK    7  A    between atoms: N3_15  and  C12_16 
REMARK    8  A    between atoms: C12_16  and  C13_17 
REMARK    9  A    between atoms: C24_30  and  O2_31 
ROOT
HETATM    1  N2  UNL     1      -0.664  -0.541  -1.045  1.00  0.00    -0.369 N 
HETATM    2  H8  UNL     1      -1.034   0.164  -1.718  1.00  0.00     0.161 HD
ENDROOT
BRANCH   1   3
HETATM    3  C7  UNL     1      -1.545  -1.169  -0.150  1.00  0.00     0.137 A 
HETATM    4  C6  UNL     1      -2.895  -0.877  -0.149  1.00  0.00     0.039 A 
HETATM    5  C5  UNL     1      -3.727   0.018  -0.935  1.00  0.00     0.045 A 
HETATM    6  C23 UNL     1      -3.724  -1.515   0.748  1.00  0.00     0.084 A 
HETATM    7  C4  UNL     1      -4.999  -0.061  -0.547  1.00  0.00     0.048 A 
HETATM    8  C24 UNL     1      -5.117  -1.037   0.553  1.00  0.00     0.223 A 
HETATM    9  N5  UNL     1      -3.278  -2.422   1.636  1.00  0.00    -0.242 NA
HETATM   10  C22 UNL     1      -1.964  -2.686   1.611  1.00  0.00     0.235 A 
HETATM   11  N4  UNL     1      -1.158  -2.078   0.753  1.00  0.00    -0.224 NA
BRANCH   7  12
HETATM   12  N1  UNL     1      -6.159   0.614  -1.015  1.00  0.00    -0.328 N 
HETATM   13  C3  UNL     1      -6.956   1.437  -0.187  1.00  0.00     0.221 C 
HETATM   14  O1  UNL     1      -6.663   1.607   1.017  1.00  0.00    -0.273 OA
HETATM   15  H6  UNL     1      -6.426   0.484  -2.036  1.00  0.00     0.168 HD
BRANCH  13  16
HETATM   16  C2  UNL     1      -8.152   2.098  -0.787  1.00  0.00     0.098 C 
HETATM   17  C1  UNL     1      -8.893   2.934   0.213  1.00  0.00     0.014 C 
ENDBRANCH  13  16
ENDBRANCH   7  12
BRANCH   8  18
HETATM   18  O2  UNL     1      -6.002  -2.064   0.305  1.00  0.00    -0.378 OA
HETATM   19  C25 UNL     1      -7.060  -2.085   1.211  1.00  0.00     0.203 C 
ENDBRANCH   8  18
ENDBRANCH   1   3
BRANCH   1  20
HETATM   20  C8  UNL     1       0.742  -0.885  -1.017  1.00  0.00     0.087 C 
HETATM   21  C9  UNL     1       1.374  -0.599   0.334  1.00  0.00     0.032 C 
HETATM   22  C10 UNL     1       2.891  -0.697   0.031  1.00  0.00     0.016 C 
HETATM   23  C19 UNL     1       2.982  -0.081  -1.349  1.00  0.00     0.012 C 
HETATM   24  C20 UNL     1       1.592  -0.085  -1.947  1.00  0.00     0.004 C 
HETATM   25  C21 UNL     1       1.682  -0.716  -3.328  1.00  0.00     0.012 C 
BRANCH  22  26
HETATM   26  C11 UNL     1       3.567   0.070   1.108  1.00  0.00     0.274 C 
BRANCH  26  27
HETATM   27  N3  UNL     1       4.979   0.135   1.094  1.00  0.00     0.087 N 
HETATM   28  H15 UNL     1       5.298   0.499   2.019  1.00  0.00     0.316 HD
BRANCH  27  29
HETATM   29  C12 UNL     1       5.619   0.860   0.058  1.00  0.00     0.308 C 
BRANCH  29  30
HETATM   30  C13 UNL     1       7.107   0.823   0.345  1.00  0.00    -0.030 A 
HETATM   31  C14 UNL     1       7.871  -0.222  -0.187  1.00  0.00     0.009 A 
HETATM   32  C15 UNL     1       9.226  -0.318   0.033  1.00  0.00     0.001 A 
HETATM   33  C16 UNL     1       9.849   0.638   0.798  1.00  0.00     0.000 A 
HETATM   34  C17 UNL     1       9.110   1.689   1.340  1.00  0.00     0.001 A 
HETATM   35  C18 UNL     1       7.745   1.787   1.119  1.00  0.00     0.009 A 
ENDBRANCH  29  30
ENDBRANCH  27  29
ENDBRANCH  26  27
ENDBRANCH  22  26
ENDBRANCH   1  20
TORSDOF 9
