REMARK  6 active torsions:
REMARK  status: ('A' for Active; 'I' for Inactive)
REMARK       I    between atoms: N1_2  and  C2_3 
REMARK       I    between atoms: C2_3  and  N2_5 
REMARK    1  A    between atoms: C3_6  and  C4_7 
REMARK    2  A    between atoms: C7_10  and  N3_11 
REMARK    3  A    between atoms: C11_15  and  S1_16 
REMARK    4  A    between atoms: S1_16  and  C12_19 
REMARK    5  A    between atoms: C18_25  and  N4_26 
REMARK    6  A    between atoms: C22_32  and  O4_33 
ROOT
HETATM    1  C4  UNL     1       2.324  -0.518  -0.034  1.00  0.00     0.016 A 
HETATM    2  C5  UNL     1       1.117  -1.144  -0.229  1.00  0.00     0.033 A 
HETATM    3  C6  UNL     1       1.059  -2.506  -0.043  1.00  0.00     0.040 A 
HETATM    4  C7  UNL     1      -0.198  -3.009  -0.278  1.00  0.00     0.145 A 
HETATM    5  N5  UNL     1      -0.370  -4.354  -0.137  1.00  0.00    -0.223 NA
HETATM    6  C19 UNL     1       0.683  -5.141   0.226  1.00  0.00     0.236 A 
HETATM    7  N6  UNL     1       1.919  -4.646   0.459  1.00  0.00    -0.241 NA
HETATM    8  C20 UNL     1       2.100  -3.325   0.323  1.00  0.00     0.074 A 
HETATM    9  C21 UNL     1       3.306  -2.672   0.513  1.00  0.00     0.070 A 
HETATM   10  C22 UNL     1       3.423  -1.291   0.339  1.00  0.00     0.082 A 
ENDROOT
BRANCH   4  11
HETATM   11  N3  UNL     1      -1.449  -2.412  -0.605  1.00  0.00    -0.315 N 
HETATM   12  C8  UNL     1      -1.630  -2.545  -2.013  1.00  0.00     0.095 A 
HETATM   13  C9  UNL     1      -2.719  -2.036  -2.615  1.00  0.00     0.019 A 
HETATM   14  C10 UNL     1      -3.746  -1.338  -1.855  1.00  0.00     0.025 A 
HETATM   15  C11 UNL     1      -3.526  -1.250  -0.555  1.00  0.00     0.084 A 
HETATM   16  C18 UNL     1      -2.404  -1.764   0.266  1.00  0.00     0.229 A 
BRANCH  15  17
HETATM   17  S1  UNL     1      -4.797  -0.392   0.335  1.00  0.00     0.206 S 
HETATM   18  O2  UNL     1      -6.127  -0.585  -0.345  1.00  0.00    -0.217 OA
HETATM   19  O3  UNL     1      -4.895  -1.012   1.684  1.00  0.00    -0.217 OA
BRANCH  17  20
HETATM   20  C12 UNL     1      -4.480   1.303   0.462  1.00  0.00     0.064 A 
HETATM   21  C13 UNL     1      -4.967   2.115  -0.569  1.00  0.00     0.024 A 
HETATM   22  C14 UNL     1      -4.817   3.487  -0.644  1.00  0.00     0.002 A 
HETATM   23  C15 UNL     1      -4.136   4.094   0.372  1.00  0.00     0.000 A 
HETATM   24  C16 UNL     1      -3.636   3.348   1.409  1.00  0.00     0.002 A 
HETATM   25  C17 UNL     1      -3.801   1.983   1.458  1.00  0.00     0.024 A 
ENDBRANCH  17  20
ENDBRANCH  15  17
BRANCH  16  26
HETATM   26  N4  UNL     1      -1.892  -0.653   1.014  1.00  0.00    -0.406 N 
HETATM   27  H16 UNL     1      -1.143  -0.872   1.681  1.00  0.00     0.152 HD
HETATM   28  H17 UNL     1      -1.775   0.185   0.434  1.00  0.00     0.152 HD
ENDBRANCH  16  26
ENDBRANCH   4  11
BRANCH   1  29
HETATM   29  C3  UNL     1       2.532   0.916  -0.195  1.00  0.00     0.136 C 
HETATM   30  N2  UNL     1       3.669   1.470  -0.006  1.00  0.00    -0.206 NA
HETATM   31  C2  UNL     1       3.910   2.866  -0.153  1.00  0.00     0.341 C 
HETATM   32  N1  UNL     1       4.871   3.375  -1.042  1.00  0.00    -0.346 N 
HETATM   33  O1  UNL     1       3.124   3.441   0.636  1.00  0.00    -0.245 OA
HETATM   34  C1  UNL     1       5.014   4.834  -1.090  1.00  0.00     0.151 C 
HETATM   35  H4  UNL     1       5.411   2.677  -1.601  1.00  0.00     0.163 HD
ENDBRANCH   1  29
BRANCH  10  36
HETATM   36  O4  UNL     1       4.646  -0.670   0.539  1.00  0.00    -0.355 OA
HETATM   37  C23 UNL     1       5.774  -1.433   0.918  1.00  0.00     0.210 C 
ENDBRANCH  10  36
TORSDOF 6
