REMARK  8 active torsions:
REMARK  status: ('A' for Active; 'I' for Inactive)
REMARK    1  A    between atoms: C1_2  and  C2_3 
REMARK    2  A    between atoms: C2_3  and  N1_4 
REMARK    3  A    between atoms: N1_4  and  C3_5 
REMARK    4  A    between atoms: C5_7  and  N2_8 
REMARK    5  A    between atoms: N2_8  and  C6_9 
REMARK    6  A    between atoms: C9_12  and  N3_13 
REMARK    7  A    between atoms: N3_13  and  S1_14 
REMARK    8  A    between atoms: S1_14  and  C10_17 
ROOT
HETATM    1  N2  UNL     1      -1.117  -0.684  -1.695  1.00  0.00    -0.340 N 
HETATM    2  H7  UNL     1      -1.255  -1.493  -2.384  1.00  0.00     0.167 HD
ENDROOT
BRANCH   1   3
HETATM    3  C5  UNL     1      -2.142   0.051  -0.961  1.00  0.00     0.127 C 
HETATM    4  C4  UNL     1      -2.640   0.953  -1.856  1.00  0.00     0.050 C 
HETATM    5  C3  UNL     1      -3.746   1.772  -1.127  1.00  0.00     0.128 C 
HETATM    6  C21 UNL     1      -3.007   2.337   0.063  1.00  0.00     0.203 C 
HETATM    7  O4  UNL     1      -3.783   2.874   1.081  1.00  0.00    -0.361 OA
HETATM    8  C20 UNL     1      -3.574   2.486   2.427  1.00  0.00     0.136 C 
HETATM    9  C19 UNL     1      -3.131   1.668   3.373  1.00  0.00     0.043 C 
HETATM   10  C18 UNL     1      -2.426   0.368   3.385  1.00  0.00     0.120 C 
HETATM   11  N6  UNL     1      -2.406   0.337   2.152  1.00  0.00    -0.254 NA
HETATM   12  C17 UNL     1      -1.870  -0.642   1.317  1.00  0.00     0.234 C 
HETATM   13  N5  UNL     1      -1.731  -0.822   0.066  1.00  0.00    -0.225 NA
BRANCH   5  14
HETATM   14  N1  UNL     1      -4.831   0.930  -0.913  1.00  0.00    -0.406 N 
HETATM   15  H4  UNL     1      -5.757   1.257  -1.227  1.00  0.00     0.154 HD
BRANCH  14  16
HETATM   16  C2  UNL     1      -4.861  -0.268  -0.244  1.00  0.00     0.184 C 
BRANCH  16  17
HETATM   17  C1  UNL     1      -6.306  -0.782  -0.329  1.00  0.00     0.250 C 
HETATM   18  O1  UNL     1      -6.626  -1.837   0.185  1.00  0.00    -0.305 OA
ENDBRANCH  16  17
ENDBRANCH  14  16
ENDBRANCH   5  14
ENDBRANCH   1   3
BRANCH   1  19
HETATM   19  C6  UNL     1       0.316  -0.685  -1.847  1.00  0.00     0.051 A 
HETATM   20  C7  UNL     1       0.871   0.078  -2.877  1.00  0.00     0.035 A 
HETATM   21  C8  UNL     1       2.238   0.138  -3.096  1.00  0.00     0.053 A 
HETATM   22  C9  UNL     1       3.000  -0.612  -2.220  1.00  0.00     0.136 A 
HETATM   23  N4  UNL     1       2.470  -1.337  -1.241  1.00  0.00    -0.240 NA
HETATM   24  C16 UNL     1       1.134  -1.408  -1.011  1.00  0.00     0.148 A 
BRANCH  22  25
HETATM   25  N3  UNL     1       4.426  -0.601  -2.382  1.00  0.00    -0.264 N 
HETATM   26  H10 UNL     1       4.868  -0.038  -3.151  1.00  0.00     0.180 HD
BRANCH  25  27
HETATM   27  S1  UNL     1       5.446  -1.505  -1.327  1.00  0.00     0.264 S 
HETATM   28  O2  UNL     1       6.846  -1.480  -1.821  1.00  0.00    -0.200 OA
HETATM   29  O3  UNL     1       4.984  -2.952  -1.427  1.00  0.00    -0.200 OA
BRANCH  27  30
HETATM   30  C10 UNL     1       5.306  -0.976   0.332  1.00  0.00     0.079 A 
HETATM   31  C11 UNL     1       6.200   0.068   0.606  1.00  0.00     0.025 A 
HETATM   32  C12 UNL     1       6.277   0.653   1.853  1.00  0.00     0.002 A 
HETATM   33  C13 UNL     1       5.444   0.192   2.861  1.00  0.00     0.000 A 
HETATM   34  C14 UNL     1       4.564  -0.836   2.587  1.00  0.00     0.002 A 
HETATM   35  C15 UNL     1       4.494  -1.416   1.335  1.00  0.00     0.025 A 
ENDBRANCH  27  30
ENDBRANCH  25  27
ENDBRANCH  22  25
ENDBRANCH   1  19
TORSDOF 8
