REMARK  8 active torsions:
REMARK  status: ('A' for Active; 'I' for Inactive)
REMARK    1  A    between atoms: C6_8  and  N3_9 
REMARK    2  A    between atoms: N3_9  and  C7_10 
REMARK    3  A    between atoms: N4_18  and  C15_19 
REMARK    4  A    between atoms: C15_19  and  C16_20 
REMARK    5  A    between atoms: C23_27  and  N5_28 
REMARK       I    between atoms: N5_28  and  C24_29 
REMARK    6  A    between atoms: C24_29  and  C25_31 
REMARK    7  A    between atoms: C25_31  and  C26_32 
REMARK    8  A    between atoms: C26_32  and  O2_33 
ROOT
HETATM    1  C1  UNL     1      -5.929   1.689   1.485  1.00  0.00     0.046 C 
HETATM    2  C2  UNL     1      -4.763   0.927   2.018  1.00  0.00    -0.054 A 
HETATM    3  C3  UNL     1      -4.414   0.580   3.245  1.00  0.00     0.037 A 
HETATM    4  C4  UNL     1      -3.164  -0.159   3.084  1.00  0.00     0.070 A 
HETATM    5  N1  UNL     1      -2.445  -0.719   4.095  1.00  0.00    -0.241 NA
HETATM    6  C5  UNL     1      -1.297  -1.397   3.789  1.00  0.00     0.235 A 
HETATM    7  N2  UNL     1      -0.915  -1.488   2.503  1.00  0.00    -0.224 NA
HETATM    8  C6  UNL     1      -1.647  -0.922   1.530  1.00  0.00     0.140 A 
HETATM    9  C22 UNL     1      -2.809  -0.226   1.750  1.00  0.00     0.043 A 
HETATM   10  C23 UNL     1      -3.811   0.486   0.928  1.00  0.00     0.153 A 
ENDROOT
BRANCH   8  11
HETATM   11  N3  UNL     1      -1.142  -1.107   0.219  1.00  0.00    -0.340 N 
HETATM   12  H6  UNL     1      -1.581  -1.622  -0.577  1.00  0.00     0.167 HD
BRANCH  11  13
HETATM   13  C7  UNL     1       0.120  -0.482   0.036  1.00  0.00     0.034 A 
HETATM   14  C8  UNL     1       0.736   0.326   0.938  1.00  0.00     0.032 A 
HETATM   15  C9  UNL     1       1.964   0.931   0.818  1.00  0.00     0.032 A 
HETATM   16  C10 UNL     1       2.626   0.671  -0.366  1.00  0.00     0.037 A 
HETATM   17  C11 UNL     1       2.080  -0.135  -1.341  1.00  0.00    -0.028 A 
HETATM   18  N4  UNL     1       3.884   1.055  -0.904  1.00  0.00    -0.376 N 
HETATM   19  C12 UNL     1       0.829  -0.713  -1.146  1.00  0.00     0.039 A 
HETATM   20  C13 UNL     1       2.945  -0.294  -2.526  1.00  0.00     0.060 C 
HETATM   21  C14 UNL     1       4.006   0.761  -2.315  1.00  0.00     0.128 C 
BRANCH  18  22
HETATM   22  C15 UNL     1       4.916   1.664  -0.069  1.00  0.00     0.161 C 
BRANCH  22  23
HETATM   23  C16 UNL     1       6.109   0.783   0.008  1.00  0.00    -0.040 A 
HETATM   24  C17 UNL     1       6.070  -0.139   1.063  1.00  0.00     0.009 A 
HETATM   25  C18 UNL     1       7.075  -1.052   1.316  1.00  0.00     0.001 A 
HETATM   26  C19 UNL     1       8.170  -1.047   0.482  1.00  0.00     0.000 A 
HETATM   27  C20 UNL     1       8.236  -0.151  -0.565  1.00  0.00     0.001 A 
HETATM   28  C21 UNL     1       7.221   0.752  -0.801  1.00  0.00     0.009 A 
ENDBRANCH  22  23
ENDBRANCH  18  22
ENDBRANCH  11  13
ENDBRANCH   8  11
BRANCH  10  29
HETATM   29  N5  UNL     1      -4.609  -0.423   0.103  1.00  0.00    -0.348 N 
HETATM   30  C24 UNL     1      -4.960  -0.076  -1.253  1.00  0.00     0.220 C 
HETATM   31  O1  UNL     1      -4.511   1.046  -1.595  1.00  0.00    -0.274 OA
HETATM   32  H22 UNL     1      -4.855  -1.299   0.643  1.00  0.00     0.163 HD
BRANCH  30  33
HETATM   33  C25 UNL     1      -5.761  -1.170  -1.845  1.00  0.00     0.128 C 
BRANCH  33  34
HETATM   34  C26 UNL     1      -6.283  -0.861  -3.227  1.00  0.00     0.173 C 
BRANCH  34  35
HETATM   35  O2  UNL     1      -7.113   0.268  -3.240  1.00  0.00    -0.400 OA
HETATM   36  H27 UNL     1      -7.822   0.122  -2.555  1.00  0.00     0.209 HD
ENDBRANCH  34  35
ENDBRANCH  33  34
ENDBRANCH  30  33
ENDBRANCH  10  29
TORSDOF 8
