REMARK  7 active torsions:
REMARK  status: ('A' for Active; 'I' for Inactive)
REMARK    1  A    between atoms: C2_2  and  C3_3 
REMARK       I    between atoms: C3_3  and  N1_5 
REMARK    2  A    between atoms: N1_5  and  C4_6 
REMARK    3  A    between atoms: N2_8  and  C6_9 
REMARK    4  A    between atoms: C6_9  and  C7_10 
REMARK    5  A    between atoms: C8_11  and  C9_12 
REMARK    6  A    between atoms: C9_12  and  N3_13 
REMARK    7  A    between atoms: C15_21  and  O2_22 
ROOT
HETATM    1  C4  UNL     1      -1.957  -0.239   0.075  1.00  0.00     0.086 C 
HETATM    2  C5  UNL     1      -0.923   0.493  -0.420  1.00  0.00     0.120 C 
HETATM    3  N2  UNL     1       0.432   0.015  -0.221  1.00  0.00    -0.358 N 
HETATM    4  C12 UNL     1       0.650  -1.399  -0.055  1.00  0.00     0.241 C 
HETATM    5  N4  UNL     1       1.659  -1.695   0.968  1.00  0.00    -0.358 N 
HETATM    6  C13 UNL     1       1.265  -3.056   1.270  1.00  0.00     0.205 C 
HETATM    7  N5  UNL     1       0.018  -3.146   1.049  1.00  0.00    -0.242 NA
HETATM    8  C14 UNL     1      -0.566  -1.968   0.607  1.00  0.00     0.113 C 
HETATM    9  C15 UNL     1      -1.806  -1.571   0.655  1.00  0.00     0.125 C 
HETATM   10  H17 UNL     1       2.493  -1.362   1.536  1.00  0.00     0.162 HD
ENDROOT
BRANCH   3  11
HETATM   11  C6  UNL     1       1.491   0.954  -0.048  1.00  0.00     0.151 C 
BRANCH  11  12
HETATM   12  C7  UNL     1       2.835   0.530  -0.424  1.00  0.00    -0.010 C 
HETATM   13  C8  UNL     1       4.114   0.203  -0.247  1.00  0.00    -0.010 C 
BRANCH  13  14
HETATM   14  C9  UNL     1       5.077  -0.207  -1.385  1.00  0.00     0.150 C 
BRANCH  14  15
HETATM   15  N3  UNL     1       6.131   0.811  -1.213  1.00  0.00    -0.376 N 
HETATM   16  C10 UNL     1       7.140   1.807  -1.050  1.00  0.00     0.087 A 
HETATM   17  C11 UNL     1       7.614   0.606  -1.307  1.00  0.00     0.150 A 
ENDBRANCH  14  15
ENDBRANCH  13  14
ENDBRANCH  11  12
ENDBRANCH   3  11
BRANCH   1  18
HETATM   18  N1  UNL     1      -3.107   0.566  -0.312  1.00  0.00    -0.324 N 
HETATM   19  C3  UNL     1      -3.964   1.236   0.576  1.00  0.00     0.221 C 
HETATM   20  O1  UNL     1      -3.990   1.345   1.834  1.00  0.00    -0.273 OA
HETATM   21  H6  UNL     1      -3.306   0.658  -1.338  1.00  0.00     0.169 HD
BRANCH  19  22
HETATM   22  C2  UNL     1      -5.101   2.002  -0.039  1.00  0.00     0.098 C 
HETATM   23  C1  UNL     1      -5.737   2.979   0.889  1.00  0.00     0.014 C 
ENDBRANCH  19  22
ENDBRANCH   1  18
BRANCH   9  24
HETATM   24  O2  UNL     1      -2.968  -2.097   1.113  1.00  0.00    -0.352 OA
HETATM   25  C16 UNL     1      -3.877  -2.951   0.476  1.00  0.00     0.210 C 
ENDBRANCH   9  24
TORSDOF 7
