REMARK  4 active torsions:
REMARK  status: ('A' for Active; 'I' for Inactive)
REMARK    1  A    between atoms: O1_2  and  C2_3 
REMARK    2  A    between atoms: C8_11  and  N3_12 
REMARK    3  A    between atoms: N3_12  and  S1_13 
REMARK    4  A    between atoms: S1_13  and  C9_16 
ROOT
HETATM    1  C2  UNL     1       3.942   0.806   1.628  1.00  0.00     0.065 C 
HETATM    2  C3  UNL     1       2.981   1.777   1.789  1.00  0.00     0.065 C 
HETATM    3  C4  UNL     1       1.874   1.859   0.877  1.00  0.00     0.062 A 
HETATM    4  C5  UNL     1       0.688   1.720   0.249  1.00  0.00     0.065 A 
HETATM    5  C6  UNL     1      -0.288   1.796  -0.621  1.00  0.00     0.087 A 
HETATM    6  N1  UNL     1       0.395   2.550  -1.490  1.00  0.00    -0.240 NA
HETATM    7  C7  UNL     1       1.684   2.921  -1.208  1.00  0.00     0.234 A 
HETATM    8  N2  UNL     1       2.422   2.625  -0.116  1.00  0.00    -0.242 NA
HETATM    9  C8  UNL     1      -1.511   1.068  -0.385  1.00  0.00     0.071 C 
HETATM   10  C15 UNL     1      -1.591  -0.048   0.310  1.00  0.00     0.033 C 
HETATM   11  C16 UNL     1      -0.925  -1.081   1.089  1.00  0.00     0.014 C 
HETATM   12  C17 UNL     1       0.348  -1.338   1.459  1.00  0.00     0.006 C 
HETATM   13  C18 UNL     1       0.619  -2.507   2.298  1.00  0.00     0.054 C 
HETATM   14  C19 UNL     1       1.741  -0.969   1.072  1.00  0.00     0.247 C 
HETATM   15  O4  UNL     1       2.828  -1.137   1.635  1.00  0.00    -0.268 OA
HETATM   16  N4  UNL     1       2.568  -0.333   0.026  1.00  0.00    -0.351 N 
HETATM   17  C20 UNL     1       3.920  -0.253   0.542  1.00  0.00     0.187 C 
HETATM   18  H18 UNL     1       2.339  -0.014  -0.926  1.00  0.00     0.163 HD
ENDROOT
BRANCH   9  19
HETATM   19  N3  UNL     1      -2.420   1.858  -1.061  1.00  0.00    -0.278 N 
HETATM   20  H7  UNL     1      -2.765   2.794  -0.689  1.00  0.00     0.179 HD
BRANCH  19  21
HETATM   21  S1  UNL     1      -3.035   1.315  -2.576  1.00  0.00     0.263 S 
HETATM   22  O2  UNL     1      -1.886   1.037  -3.507  1.00  0.00    -0.200 OA
HETATM   23  O3  UNL     1      -3.988   2.320  -3.155  1.00  0.00    -0.200 OA
BRANCH  21  24
HETATM   24  C9  UNL     1      -3.900  -0.185  -2.357  1.00  0.00     0.079 A 
HETATM   25  C10 UNL     1      -5.267  -0.107  -2.066  1.00  0.00     0.025 A 
HETATM   26  C11 UNL     1      -6.028  -1.241  -1.878  1.00  0.00     0.002 A 
HETATM   27  C12 UNL     1      -5.439  -2.496  -1.979  1.00  0.00     0.000 A 
HETATM   28  C13 UNL     1      -4.102  -2.495  -2.265  1.00  0.00     0.002 A 
HETATM   29  C14 UNL     1      -3.272  -1.414  -2.466  1.00  0.00     0.025 A 
ENDBRANCH  21  24
ENDBRANCH  19  21
ENDBRANCH   9  19
BRANCH   1  30
HETATM   30  O1  UNL     1       4.911   0.927   2.601  1.00  0.00    -0.358 OA
HETATM   31  C1  UNL     1       6.160   0.281   2.611  1.00  0.00     0.209 C 
ENDBRANCH   1  30
TORSDOF 4
