REMARK  4 active torsions:
REMARK  status: ('A' for Active; 'I' for Inactive)
REMARK    1  A    between atoms: C2_2  and  C3_3 
REMARK       I    between atoms: C3_3  and  N1_5 
REMARK    2  A    between atoms: N1_5  and  N2_6 
REMARK    3  A    between atoms: C6_9  and  O2_10 
REMARK    4  A    between atoms: N3_13  and  C9_14 
ROOT
HETATM    1  N2  UNL     1      -2.046   0.509  -0.097  1.00  0.00    -0.199 N 
HETATM    2  C4  UNL     1      -3.210   1.358  -0.023  1.00  0.00     0.140 A 
HETATM    3  C5  UNL     1      -3.124   2.685  -0.018  1.00  0.00     0.059 A 
HETATM    4  C6  UNL     1      -1.797   3.279  -0.089  1.00  0.00     0.087 A 
HETATM    5  C8  UNL     1      -0.738   2.500  -0.155  1.00  0.00     0.155 A 
HETATM    6  N3  UNL     1      -0.782   1.079  -0.164  1.00  0.00    -0.244 N 
ENDROOT
BRANCH   6   7
HETATM    7  C9  UNL     1       0.377   0.301  -0.203  1.00  0.00     0.058 A 
HETATM    8  C10 UNL     1       0.694  -0.932  -0.703  1.00  0.00     0.034 A 
HETATM    9  C11 UNL     1       1.921  -1.542  -0.607  1.00  0.00     0.032 A 
HETATM   10  C12 UNL     1       2.957  -0.912   0.032  1.00  0.00     0.036 A 
HETATM   11  C13 UNL     1       2.717   0.330   0.560  1.00  0.00    -0.028 A 
HETATM   12  N4  UNL     1       4.273  -1.348   0.241  1.00  0.00    -0.384 N 
HETATM   13  C14 UNL     1       1.466   0.904   0.439  1.00  0.00     0.041 A 
HETATM   14  C15 UNL     1       4.008   0.742   1.173  1.00  0.00     0.060 C 
HETATM   15  C16 UNL     1       4.792  -0.527   1.339  1.00  0.00     0.127 C 
HETATM   16  C17 UNL     1       5.016  -2.384  -0.450  1.00  0.00     0.149 C 
ENDBRANCH   6   7
BRANCH   1  17
HETATM   17  N1  UNL     1      -2.428  -0.821  -0.064  1.00  0.00    -0.249 N 
HETATM   18  C3  UNL     1      -2.854  -1.828  -0.936  1.00  0.00     0.237 C 
HETATM   19  O1  UNL     1      -2.968  -1.569  -2.175  1.00  0.00    -0.272 OA
HETATM   20  H6  UNL     1      -2.308  -0.966   0.984  1.00  0.00     0.192 HD
BRANCH  18  21
HETATM   21  C2  UNL     1      -3.134  -3.140  -0.268  1.00  0.00     0.100 C 
HETATM   22  C1  UNL     1      -3.582  -4.134  -1.308  1.00  0.00     0.014 C 
ENDBRANCH  18  21
ENDBRANCH   1  17
BRANCH   4  23
HETATM   23  O2  UNL     1      -1.694   4.664  -0.084  1.00  0.00    -0.354 OA
HETATM   24  C7  UNL     1      -2.380   5.502   0.828  1.00  0.00     0.210 C 
ENDBRANCH   4  23
TORSDOF 4
