REMARK  6 active torsions:
REMARK  status: ('A' for Active; 'I' for Inactive)
REMARK    1  A    between atoms: C2_2  and  C3_3 
REMARK    2  A    between atoms: C4_4  and  N1_5 
REMARK    3  A    between atoms: C8_11  and  N4_12 
REMARK       I    between atoms: N4_12  and  C9_13 
REMARK    4  A    between atoms: C9_13  and  C10_15 
REMARK    5  A    between atoms: C11_16  and  C12_17 
REMARK    6  A    between atoms: C12_17  and  N5_18 
ROOT
HETATM    1  N1  UNL     1       4.899  -0.077   0.334  1.00  0.00    -0.242 N 
HETATM    2  N2  UNL     1       5.456  -0.915   1.302  1.00  0.00    -0.161 NA
HETATM    3  C5  UNL     1       4.764  -1.927   1.754  1.00  0.00     0.255 A 
HETATM    4  N3  UNL     1       3.440  -2.215   1.291  1.00  0.00    -0.242 NA
HETATM    5  C6  UNL     1       2.877  -1.475   0.399  1.00  0.00     0.070 A 
HETATM    6  C7  UNL     1       1.504  -1.886   0.008  1.00  0.00     0.118 A 
HETATM    7  C8  UNL     1       0.942  -0.982  -1.015  1.00  0.00     0.018 A 
HETATM    8  C17 UNL     1       1.663   0.054  -1.471  1.00  0.00     0.028 A 
HETATM    9  C18 UNL     1       2.997   0.405  -1.053  1.00  0.00     0.036 A 
HETATM   10  C19 UNL     1       3.587  -0.331  -0.151  1.00  0.00     0.083 A 
ENDROOT
BRANCH   7  11
HETATM   11  N4  UNL     1      -0.345  -1.199  -1.522  1.00  0.00    -0.327 N 
HETATM   12  C9  UNL     1      -1.625  -1.250  -0.964  1.00  0.00     0.245 C 
HETATM   13  O1  UNL     1      -1.740  -1.070   0.274  1.00  0.00    -0.268 OA
HETATM   14  H9  UNL     1      -0.243  -1.352  -2.565  1.00  0.00     0.169 HD
BRANCH  12  15
HETATM   15  C10 UNL     1      -2.755  -1.506  -1.825  1.00  0.00     0.072 C 
HETATM   16  C11 UNL     1      -3.994  -1.570  -1.378  1.00  0.00     0.008 C 
BRANCH  16  17
HETATM   17  C12 UNL     1      -4.735  -1.453  -0.110  1.00  0.00     0.300 C 
BRANCH  17  18
HETATM   18  N5  UNL     1      -5.711  -0.377  -0.139  1.00  0.00     0.091 N 
HETATM   19  C13 UNL     1      -4.989   0.876  -0.183  1.00  0.00     0.273 C 
HETATM   20  C14 UNL     1      -6.012   1.833   0.402  1.00  0.00     0.032 C 
HETATM   21  C15 UNL     1      -6.576   1.032   1.553  1.00  0.00     0.032 C 
HETATM   22  C16 UNL     1      -6.491  -0.378   1.061  1.00  0.00     0.273 C 
ENDBRANCH  17  18
ENDBRANCH  16  17
ENDBRANCH  12  15
ENDBRANCH   7  11
BRANCH   1  23
HETATM   23  C4  UNL     1       5.643   1.017  -0.163  1.00  0.00     0.119 C 
HETATM   24  C3  UNL     1       6.677   1.532   0.490  1.00  0.00     0.019 C 
BRANCH  24  25
HETATM   25  C2  UNL     1       7.524   2.668   0.071  1.00  0.00    -0.009 C 
HETATM   26  C1  UNL     1       8.542   3.121   0.783  1.00  0.00     0.011 C 
ENDBRANCH  24  25
ENDBRANCH   1  23
TORSDOF 6
