REMARK  8 active torsions:
REMARK  status: ('A' for Active; 'I' for Inactive)
REMARK    1  A    between atoms: O1_2  and  C2_3 
REMARK    2  A    between atoms: C6_9  and  N3_10 
REMARK    3  A    between atoms: N3_10  and  C7_11 
REMARK    4  A    between atoms: C7_11  and  C8_12 
REMARK    5  A    between atoms: C15_21  and  C16_22 
REMARK    6  A    between atoms: C16_22  and  N5_23 
REMARK    7  A    between atoms: N5_23  and  C18_25 
REMARK    8  A    between atoms: C18_25  and  C19_26 
REMARK       I    between atoms: C19_26  and  N6_27 
ROOT
HETATM    1  C2  UNL     1      -0.937  -2.366  -0.475  1.00  0.00     0.078 A 
HETATM    2  C3  UNL     1       0.034  -3.302  -0.835  1.00  0.00     0.070 A 
HETATM    3  C4  UNL     1       1.366  -3.076  -0.586  1.00  0.00     0.074 A 
HETATM    4  N1  UNL     1       2.283  -4.000  -0.946  1.00  0.00    -0.241 NA
HETATM    5  C5  UNL     1       3.608  -3.814  -0.718  1.00  0.00     0.236 A 
HETATM    6  N2  UNL     1       4.015  -2.673  -0.114  1.00  0.00    -0.224 NA
HETATM    7  C6  UNL     1       3.097  -1.757   0.241  1.00  0.00     0.141 A 
HETATM    8  C13 UNL     1       1.741  -1.900   0.031  1.00  0.00     0.039 A 
HETATM    9  C14 UNL     1       0.841  -0.944   0.408  1.00  0.00     0.029 A 
HETATM   10  C15 UNL     1      -0.508  -1.188   0.149  1.00  0.00    -0.006 A 
ENDROOT
BRANCH  10  11
HETATM   11  C16 UNL     1      -1.537  -0.187   0.534  1.00  0.00     0.159 C 
BRANCH  11  12
HETATM   12  N5  UNL     1      -2.025   0.556  -0.584  1.00  0.00    -0.393 N 
HETATM   13  C17 UNL     1      -1.046   1.301  -1.288  1.00  0.00     0.144 C 
BRANCH  12  14
HETATM   14  C18 UNL     1      -3.288   1.183  -0.428  1.00  0.00     0.162 C 
HETATM   15  C20 UNL     1      -3.339   2.023   0.798  1.00  0.00     0.314 C 
HETATM   16  N7  UNL     1      -4.552   1.396   1.205  1.00  0.00     0.090 N 
HETATM   17  C21 UNL     1      -5.663   2.293   1.164  1.00  0.00     0.310 C 
HETATM   18  C22 UNL     1      -4.417   0.438   0.137  1.00  0.00     0.314 C 
BRANCH  14  19
HETATM   19  C19 UNL     1      -3.623   1.915  -1.695  1.00  0.00     0.247 C 
HETATM   20  N6  UNL     1      -4.862   2.599  -1.705  1.00  0.00    -0.368 N 
HETATM   21  H16 UNL     1      -5.714   3.166  -1.644  1.00  0.00     0.159 HD
HETATM   22  H17 UNL     1      -5.837   2.594  -2.089  1.00  0.00     0.159 HD
HETATM   23  O2  UNL     1      -3.024   2.070  -2.814  1.00  0.00    -0.271 OA
ENDBRANCH  14  19
ENDBRANCH  12  14
ENDBRANCH  11  12
ENDBRANCH  10  11
BRANCH   1  24
HETATM   24  O1  UNL     1      -2.292  -2.564  -0.712  1.00  0.00    -0.355 OA
HETATM   25  C1  UNL     1      -2.683  -3.769  -1.345  1.00  0.00     0.210 C 
ENDBRANCH   1  24
BRANCH   7  26
HETATM   26  N3  UNL     1       3.618  -0.594   0.867  1.00  0.00    -0.348 N 
HETATM   27  H6  UNL     1       3.163   0.262   1.241  1.00  0.00     0.167 HD
BRANCH  26  28
HETATM   28  C7  UNL     1       5.008  -0.445   1.084  1.00  0.00     0.121 C 
BRANCH  28  29
HETATM   29  C8  UNL     1       5.740   0.614   0.836  1.00  0.00     0.073 A 
HETATM   30  C9  UNL     1       7.162   0.665   1.095  1.00  0.00     0.035 A 
HETATM   31  C10 UNL     1       7.890   1.732   0.843  1.00  0.00     0.029 A 
HETATM   32  C11 UNL     1       7.127   2.842   0.284  1.00  0.00     0.065 A 
HETATM   33 CL1  UNL     1       7.916   4.358  -0.089  1.00  0.00    -0.082 Cl
HETATM   34  C12 UNL     1       5.844   2.806   0.021  1.00  0.00     0.109 A 
HETATM   35  N4  UNL     1       5.160   1.790   0.288  1.00  0.00    -0.244 NA
ENDBRANCH  28  29
ENDBRANCH  26  28
ENDBRANCH   7  26
TORSDOF 8
