REMARK  5 active torsions:
REMARK  status: ('A' for Active; 'I' for Inactive)
REMARK    1  A    between atoms: C2_2  and  O1_3 
REMARK    2  A    between atoms: O1_3  and  C3_4 
REMARK    3  A    between atoms: C7_8  and  O2_9 
REMARK    4  A    between atoms: O2_9  and  C8_10 
REMARK    5  A    between atoms: C8_10  and  C9_11 
ROOT
HETATM    1  C3  UNL     1      -1.438   1.940   0.367  1.00  0.00     0.072 C 
HETATM    2  C4  UNL     1      -0.448   1.068   0.440  1.00  0.00     0.016 C 
HETATM    3  C5  UNL     1      -0.132  -0.189  -0.214  1.00  0.00     0.039 C 
HETATM    4  C6  UNL     1       1.152  -0.137  -0.918  1.00  0.00     0.019 C 
HETATM    5  C7  UNL     1       1.903  -1.222  -1.222  1.00  0.00     0.066 C 
HETATM    6  C14 UNL     1       1.669  -2.693  -1.132  1.00  0.00     0.037 C 
HETATM    7  C15 UNL     1       0.594  -3.327  -0.607  1.00  0.00     0.009 C 
HETATM    8  C16 UNL     1      -0.837  -3.013  -0.325  1.00  0.00    -0.062 C 
HETATM    9  C17 UNL     1      -1.605  -2.057  -0.900  1.00  0.00    -0.019 C 
HETATM   10  C18 UNL     1      -1.276  -0.614  -1.108  1.00  0.00     0.040 C 
HETATM   11  C19 UNL     1      -1.329  -3.927   0.704  1.00  0.00     0.040 C 
HETATM   12  C20 UNL     1      -1.603  -3.229   2.009  1.00  0.00     0.034 C 
HETATM   13  C21 UNL     1      -2.596  -2.127   1.936  1.00  0.00     0.270 C 
HETATM   14  N2  UNL     1      -3.906  -2.508   1.448  1.00  0.00     0.086 NA
HETATM   15  C22 UNL     1      -4.713  -1.375   1.126  1.00  0.00     0.296 C 
HETATM   16  C23 UNL     1      -5.162  -0.507   2.192  1.00  0.00     0.004 C 
HETATM   17  C24 UNL     1      -4.953   0.775   2.427  1.00  0.00     0.050 C 
HETATM   18  C25 UNL     1      -4.382   2.080   2.124  1.00  0.00     0.372 A 
HETATM   19  O3  UNL     1      -3.887   1.375   1.199  1.00  0.00    -0.145 OA
HETATM   20  N3  UNL     1      -3.544   2.800   1.240  1.00  0.00     0.096 N 
HETATM   21  C26 UNL     1      -2.656   2.713   0.063  1.00  0.00     0.339 C 
HETATM   22  H26 UNL     1      -4.396  -3.058   2.191  1.00  0.00     0.316 HD
HETATM   23  H31 UNL     1      -3.638   3.783   1.655  1.00  0.00     0.323 HD
ENDROOT
BRANCH   5  24
HETATM   24  O2  UNL     1       3.168  -1.010  -1.726  1.00  0.00    -0.345 OA
BRANCH  24  25
HETATM   25  C8  UNL     1       3.723   0.283  -1.668  1.00  0.00     0.234 C 
BRANCH  25  26
HETATM   26  C9  UNL     1       5.199   0.288  -1.946  1.00  0.00     0.058 A 
HETATM   27  C10 UNL     1       6.050  -0.756  -2.213  1.00  0.00     0.029 A 
HETATM   28  C11 UNL     1       7.391  -0.572  -2.449  1.00  0.00     0.003 A 
HETATM   29  C12 UNL     1       7.879   0.740  -2.408  1.00  0.00     0.019 A 
HETATM   30  C13 UNL     1       6.986   1.755  -2.135  1.00  0.00     0.117 A 
HETATM   31  N1  UNL     1       5.672   1.566  -1.906  1.00  0.00    -0.263 NA
ENDBRANCH  25  26
ENDBRANCH  24  25
ENDBRANCH   5  24
BRANCH   1  32
HETATM   32  O1  UNL     1      -1.005   2.901   1.336  1.00  0.00    -0.354 OA
BRANCH  32  33
HETATM   33  C2  UNL     1       0.043   3.780   1.044  1.00  0.00     0.171 C 
HETATM   34  C1  UNL     1       0.404   4.718   2.169  1.00  0.00     0.034 C 
ENDBRANCH  32  33
ENDBRANCH   1  32
TORSDOF 5
