REMARK  9 active torsions:
REMARK  status: ('A' for Active; 'I' for Inactive)
REMARK    1  A    between atoms: C3_3  and  C4_4 
REMARK    2  A    between atoms: C4_4  and  C5_5 
REMARK    3  A    between atoms: C6_6  and  N1_7 
REMARK    4  A    between atoms: C10_11  and  C11_12 
REMARK    5  A    between atoms: C12_13  and  N2_14 
REMARK    6  A    between atoms: N2_14  and  C13_15 
REMARK    7  A    between atoms: C17_21  and  O1_22 
REMARK    8  A    between atoms: C19_24  and  N5_25 
REMARK       I    between atoms: N5_25  and  C20_26 
REMARK    9  A    between atoms: C20_26  and  C21_28 
ROOT
HETATM    1  C13 UNL     1      -1.175  -0.264  -1.226  1.00  0.00     0.141 A 
HETATM    2  N3  UNL     1      -0.353   0.243  -2.153  1.00  0.00    -0.224 NA
HETATM    3  C14 UNL     1      -0.835   1.081  -3.078  1.00  0.00     0.236 A 
HETATM    4  N4  UNL     1      -2.125   1.448  -3.130  1.00  0.00    -0.241 NA
HETATM    5  C15 UNL     1      -3.017   0.962  -2.211  1.00  0.00     0.075 A 
HETATM    6  C16 UNL     1      -4.339   1.291  -2.212  1.00  0.00     0.071 A 
HETATM    7  C17 UNL     1      -5.137   0.728  -1.229  1.00  0.00     0.097 A 
HETATM    8  C19 UNL     1      -4.613  -0.149  -0.267  1.00  0.00     0.069 A 
HETATM    9  C23 UNL     1      -3.267  -0.470  -0.283  1.00  0.00     0.050 A 
HETATM   10  C24 UNL     1      -2.503   0.104  -1.270  1.00  0.00     0.041 A 
ENDROOT
BRANCH   1  11
HETATM   11  N2  UNL     1      -0.503  -1.129  -0.322  1.00  0.00    -0.350 N 
HETATM   12  H17 UNL     1      -0.882  -2.099  -0.196  1.00  0.00     0.166 HD
BRANCH  11  13
HETATM   13  C12 UNL     1       0.644  -0.610   0.338  1.00  0.00     0.087 C 
HETATM   14  C11 UNL     1       1.953  -0.404   0.247  1.00  0.00     0.016 C 
BRANCH  14  15
HETATM   15  C10 UNL     1       2.803  -0.761  -0.883  1.00  0.00     0.117 C 
HETATM   16  N1  UNL     1       4.171  -1.117  -0.525  1.00  0.00    -0.333 N 
HETATM   17  C7  UNL     1       4.646  -1.462  -1.874  1.00  0.00     0.133 C 
HETATM   18  C8  UNL     1       4.321  -0.143  -2.597  1.00  0.00     0.023 C 
HETATM   19  C9  UNL     1       3.132   0.428  -1.801  1.00  0.00     0.031 C 
BRANCH  16  20
HETATM   20  C6  UNL     1       4.944  -1.158   0.629  1.00  0.00     0.009 C 
HETATM   21  C5  UNL     1       5.613  -1.172   1.621  1.00  0.00    -0.080 C 
BRANCH  21  22
HETATM   22  C4  UNL     1       6.440  -1.169   2.823  1.00  0.00     0.122 C 
BRANCH  22  23
HETATM   23  C3  UNL     1       7.570  -0.166   2.691  1.00  0.00    -0.019 C 
HETATM   24  C2  UNL     1       7.946   0.678   1.751  1.00  0.00    -0.034 C 
HETATM   25  C1  UNL     1       8.824   1.713   1.200  1.00  0.00     0.036 C 
ENDBRANCH  22  23
ENDBRANCH  21  22
ENDBRANCH  16  20
ENDBRANCH  14  15
ENDBRANCH  11  13
ENDBRANCH   1  11
BRANCH   8  26
HETATM   26  N5  UNL     1      -5.590  -0.625   0.646  1.00  0.00    -0.325 N 
HETATM   27  C20 UNL     1      -6.110  -0.171   1.881  1.00  0.00     0.221 C 
HETATM   28  O2  UNL     1      -5.764   0.866   2.480  1.00  0.00    -0.273 OA
HETATM   29  H23 UNL     1      -5.840  -1.489   0.099  1.00  0.00     0.169 HD
BRANCH  27  30
HETATM   30  C21 UNL     1      -7.143  -1.137   2.345  1.00  0.00     0.098 C 
HETATM   31  C22 UNL     1      -7.756  -0.673   3.644  1.00  0.00     0.014 C 
ENDBRANCH  27  30
ENDBRANCH   8  26
BRANCH   7  32
HETATM   32  O1  UNL     1      -6.485   1.091  -1.265  1.00  0.00    -0.354 OA
HETATM   33  C18 UNL     1      -7.015   1.981  -2.241  1.00  0.00     0.210 C 
ENDBRANCH   7  32
TORSDOF 9
