REMARK  5 active torsions:
REMARK  status: ('A' for Active; 'I' for Inactive)
REMARK    1  A    between atoms: N3_19  and  C17_20 
REMARK    2  A    between atoms: C17_20  and  C18_21 
REMARK    3  A    between atoms: C18_21  and  S1_22 
REMARK    4  A    between atoms: S1_22  and  C19_23 
REMARK    5  A    between atoms: C20_24  and  C21_25 
ROOT
HETATM    1  C1  UNL     1      -4.269  -3.163  -0.158  1.00  0.00     0.048 C 
HETATM    2  C2  UNL     1      -3.649  -1.827  -0.380  1.00  0.00    -0.061 C 
HETATM    3  C3  UNL     1      -2.383  -1.895  -0.831  1.00  0.00     0.007 C 
HETATM    4  C4  UNL     1      -1.100  -1.456  -1.286  1.00  0.00     0.001 C 
HETATM    5  C5  UNL     1       0.008  -0.916  -1.676  1.00  0.00     0.011 C 
HETATM    6  C6  UNL     1       0.261   0.544  -1.736  1.00  0.00    -0.038 C 
HETATM    7  C7  UNL     1       1.367   1.239  -1.739  1.00  0.00     0.021 C 
HETATM    8  C8  UNL     1       1.276   2.165  -0.590  1.00  0.00     0.262 C 
HETATM    9  C9  UNL     1      -0.005   2.980  -0.576  1.00  0.00     0.100 C 
HETATM   10  C10 UNL     1      -0.871   2.644  -1.708  1.00  0.00    -0.015 C 
HETATM   11  C11 UNL     1      -0.989   1.331  -1.722  1.00  0.00     0.007 C 
HETATM   12  C12 UNL     1      -0.334   2.366   0.748  1.00  0.00     0.350 C 
HETATM   13  N1  UNL     1      -1.594   1.714   0.777  1.00  0.00    -0.280 N 
HETATM   14  N2  UNL     1      -1.538   0.448   1.366  1.00  0.00    -0.190 NA
HETATM   15  C13 UNL     1      -2.634  -0.265   1.498  1.00  0.00     0.139 C 
HETATM   16  C14 UNL     1      -3.462   0.753   0.886  1.00  0.00     0.033 C 
HETATM   17  C15 UNL     1      -4.682   0.327   0.587  1.00  0.00    -0.024 C 
HETATM   18  C16 UNL     1      -4.631  -0.819  -0.075  1.00  0.00     0.019 C 
HETATM   19  N3  UNL     1       0.805   1.505   0.594  1.00  0.00     0.133 N 
HETATM   20  H13 UNL     1      -2.266   2.406   0.329  1.00  0.00     0.184 HD
ENDROOT
BRANCH  19  21
HETATM   21  C17 UNL     1       1.756   1.740   1.695  1.00  0.00     0.368 C 
BRANCH  21  22
HETATM   22  C18 UNL     1       2.894   0.916   1.581  1.00  0.00    -0.077 C 
BRANCH  22  23
HETATM   23  S1  UNL     1       3.901   0.160   1.473  1.00  0.00    -0.062 SA
BRANCH  23  24
HETATM   24  C19 UNL     1       5.100  -0.764   1.360  1.00  0.00     0.059 C 
HETATM   25  C20 UNL     1       4.924  -2.058   1.558  1.00  0.00     0.026 C 
BRANCH  25  26
HETATM   26  C21 UNL     1       6.042  -2.950   1.456  1.00  0.00     0.107 C 
HETATM   27  N4  UNL     1       7.269  -2.675   1.186  1.00  0.00    -0.312 NA
HETATM   28  H22 UNL     1       7.589  -1.717   1.003  1.00  0.00     0.186 HD
ENDBRANCH  25  26
ENDBRANCH  23  24
ENDBRANCH  22  23
ENDBRANCH  21  22
ENDBRANCH  19  21
TORSDOF 5
