REMARK  4 active torsions:
REMARK  status: ('A' for Active; 'I' for Inactive)
REMARK    1  A    between atoms: C7_9  and  O1_10 
REMARK    2  A    between atoms: O1_10  and  C8_11 
REMARK    3  A    between atoms: N4_21  and  C17_22 
REMARK    4  A    between atoms: C17_22  and  C18_23 
ROOT
HETATM    1  C1  UNL     1      -1.990   1.808   0.739  1.00  0.00    -0.003 C 
HETATM    2  C2  UNL     1      -1.456   1.264  -0.396  1.00  0.00     0.094 A 
HETATM    3  C3  UNL     1      -2.016   0.056  -1.155  1.00  0.00     0.007 A 
HETATM    4  C4  UNL     1      -1.108   0.764  -1.906  1.00  0.00     0.159 A 
HETATM    5  N1  UNL     1      -2.049   0.849  -2.889  1.00  0.00    -0.246 NA
HETATM    6  C5  UNL     1      -3.288   0.275  -2.701  1.00  0.00     0.230 A 
HETATM    7  N2  UNL     1      -3.719  -0.403  -1.609  1.00  0.00    -0.244 NA
HETATM    8  C6  UNL     1      -2.966  -0.615  -0.527  1.00  0.00     0.072 A 
HETATM    9  C7  UNL     1      -2.747  -1.279   0.756  1.00  0.00     0.174 C 
HETATM   10  C10 UNL     1      -1.359  -1.105   1.309  1.00  0.00     0.044 C 
HETATM   11  C11 UNL     1      -0.247  -1.282   0.308  1.00  0.00     0.005 C 
HETATM   12  C12 UNL     1       0.627  -2.496   0.834  1.00  0.00     0.034 C 
HETATM   13  C13 UNL     1       1.810  -2.304  -0.096  1.00  0.00    -0.001 C 
HETATM   14  C14 UNL     1       1.908  -0.984  -0.385  1.00  0.00     0.013 C 
HETATM   15  C15 UNL     1       0.805  -0.238   0.339  1.00  0.00     0.082 C 
HETATM   16  C16 UNL     1       1.063   0.780  -0.632  1.00  0.00     0.192 C 
HETATM   17  N3  UNL     1       0.251   1.095  -1.736  1.00  0.00    -0.369 N 
HETATM   18  N4  UNL     1       2.390   0.236  -0.965  1.00  0.00    -0.356 N 
HETATM   19  H19 UNL     1       0.531   1.616  -2.591  1.00  0.00     0.158 HD
ENDROOT
BRANCH  18  20
HETATM   20  C17 UNL     1       3.650   0.591  -1.556  1.00  0.00     0.184 C 
BRANCH  20  21
HETATM   21  C18 UNL     1       4.276   1.639  -0.713  1.00  0.00     0.052 A 
HETATM   22  C19 UNL     1       5.117   1.173   0.286  1.00  0.00     0.029 A 
HETATM   23  C20 UNL     1       5.775   2.030   1.147  1.00  0.00     0.003 A 
HETATM   24  C21 UNL     1       5.545   3.384   0.954  1.00  0.00     0.019 A 
HETATM   25  C22 UNL     1       4.705   3.804  -0.046  1.00  0.00     0.117 A 
HETATM   26  N5  UNL     1       4.057   2.967  -0.894  1.00  0.00    -0.264 NA
ENDBRANCH  20  21
ENDBRANCH  18  20
BRANCH   9  27
HETATM   27  O1  UNL     1      -3.665  -0.846   1.685  1.00  0.00    -0.380 OA
BRANCH  27  28
HETATM   28  C8  UNL     1      -4.473  -1.875   2.166  1.00  0.00     0.164 C 
HETATM   29  C9  UNL     1      -5.277  -2.562   1.091  1.00  0.00     0.033 C 
ENDBRANCH  27  28
ENDBRANCH   9  27
TORSDOF 4
