REMARK  3 active torsions:
REMARK  status: ('A' for Active; 'I' for Inactive)
REMARK    1  A    between atoms: C2_2  and  C3_3 
REMARK       I    between atoms: C3_3  and  N1_5 
REMARK    2  A    between atoms: N1_5  and  C4_6 
REMARK    3  A    between atoms: C8_10  and  C9_11 
ROOT
HETATM    1  C4  UNL     1       2.670  -0.501  -0.934  1.00  0.00     0.009 C 
HETATM    2  C5  UNL     1       1.403  -0.746  -0.664  1.00  0.00     0.017 C 
HETATM    3  C6  UNL     1       0.432  -1.800  -0.278  1.00  0.00     0.131 C 
HETATM    4  C7  UNL     1      -0.720  -1.219   0.472  1.00  0.00     0.021 C 
HETATM    5  C8  UNL     1      -1.696  -0.560  -0.134  1.00  0.00     0.027 C 
HETATM    6  N3  UNL     1      -0.708  -1.415   1.887  1.00  0.00    -0.374 N 
HETATM    7  C15 UNL     1      -0.105  -2.514   2.605  1.00  0.00     0.272 C 
HETATM    8  N4  UNL     1       0.868  -3.150   1.741  1.00  0.00    -0.254 NA
HETATM    9  C16 UNL     1       1.098  -2.854   0.528  1.00  0.00     0.135 C 
HETATM   10  N5  UNL     1       2.126  -3.758   0.133  1.00  0.00    -0.249 NA
HETATM   11  C17 UNL     1       3.094  -3.716  -0.724  1.00  0.00     0.092 C 
HETATM   12  C18 UNL     1       3.592  -2.688  -1.712  1.00  0.00     0.053 C 
HETATM   13  C19 UNL     1       3.841  -1.407  -0.946  1.00  0.00     0.062 C 
HETATM   14  H20 UNL     1      -1.188  -0.688   2.495  1.00  0.00     0.161 HD
ENDROOT
BRANCH   5  15
HETATM   15  C9  UNL     1      -2.830   0.016   0.573  1.00  0.00     0.027 C 
HETATM   16  C10 UNL     1      -3.770   0.662  -0.099  1.00  0.00     0.006 C 
HETATM   17  C11 UNL     1      -3.836   0.897  -1.569  1.00  0.00     0.058 C 
HETATM   18  N2  UNL     1      -4.938   1.282   0.425  1.00  0.00    -0.388 N 
HETATM   19  C12 UNL     1      -5.308   1.043  -1.838  1.00  0.00     0.026 C 
HETATM   20  C13 UNL     1      -5.977   1.429  -0.558  1.00  0.00     0.122 C 
HETATM   21  C14 UNL     1      -5.096   1.733   1.811  1.00  0.00     0.149 C 
ENDBRANCH   5  15
BRANCH   1  22
HETATM   22  N1  UNL     1       2.924   0.859  -1.261  1.00  0.00    -0.331 N 
HETATM   23  C3  UNL     1       3.829   1.562  -0.437  1.00  0.00     0.221 C 
HETATM   24  O1  UNL     1       4.459   1.144   0.573  1.00  0.00    -0.273 OA
HETATM   25  H6  UNL     1       2.532   1.439  -2.043  1.00  0.00     0.168 HD
BRANCH  23  26
HETATM   26  C2  UNL     1       4.243   2.990  -0.591  1.00  0.00     0.098 C 
HETATM   27  C1  UNL     1       5.226   3.281   0.530  1.00  0.00     0.014 C 
ENDBRANCH  23  26
ENDBRANCH   1  22
TORSDOF 3
