REMARK  4 active torsions:
REMARK  status: ('A' for Active; 'I' for Inactive)
REMARK    1  A    between atoms: O1_2  and  C2_3 
REMARK    2  A    between atoms: C6_7  and  N1_8 
REMARK    3  A    between atoms: N1_8  and  C7_9 
REMARK    4  A    between atoms: N2_17  and  C15_18 
ROOT
HETATM    1  N1  UNL     1      -0.088   1.675   1.081  1.00  0.00    -0.340 N 
HETATM    2  H6  UNL     1       0.012   2.098   2.023  1.00  0.00     0.167 HD
ENDROOT
BRANCH   1   3
HETATM    3  C6  UNL     1       1.089   1.909   0.354  1.00  0.00     0.142 A 
HETATM    4  C5  UNL     1       2.080   0.960   0.412  1.00  0.00     0.039 A 
HETATM    5  C4  UNL     1       2.006  -0.213   1.130  1.00  0.00     0.020 A 
HETATM    6  C17 UNL     1       3.254   1.180  -0.300  1.00  0.00     0.074 A 
HETATM    7  C3  UNL     1       3.047  -1.120   1.138  1.00  0.00     0.038 A 
HETATM    8  C2  UNL     1       4.212  -0.918   0.440  1.00  0.00     0.070 A 
HETATM    9  C18 UNL     1       4.277   0.256  -0.274  1.00  0.00     0.069 A 
HETATM   10  N4  UNL     1       3.385   2.315  -1.025  1.00  0.00    -0.241 NA
HETATM   11  C16 UNL     1       2.406   3.231  -1.070  1.00  0.00     0.236 A 
HETATM   12  N3  UNL     1       1.281   3.014  -0.383  1.00  0.00    -0.224 NA
BRANCH   8  13
HETATM   13  O1  UNL     1       5.220  -1.862   0.487  1.00  0.00    -0.356 OA
HETATM   14  C1  UNL     1       6.448  -1.795  -0.163  1.00  0.00     0.210 C 
ENDBRANCH   8  13
ENDBRANCH   1   3
BRANCH   1  15
HETATM   15  C7  UNL     1      -1.215   0.976   0.589  1.00  0.00     0.034 A 
HETATM   16  C8  UNL     1      -1.164   0.506  -0.703  1.00  0.00     0.032 A 
HETATM   17  C9  UNL     1      -2.262  -0.194  -1.217  1.00  0.00     0.032 A 
HETATM   18  C10 UNL     1      -3.365  -0.381  -0.385  1.00  0.00     0.043 A 
HETATM   19  C11 UNL     1      -3.419   0.091   0.914  1.00  0.00    -0.028 A 
HETATM   20  N2  UNL     1      -4.608  -1.052  -0.652  1.00  0.00    -0.324 N 
HETATM   21  C12 UNL     1      -2.314   0.782   1.398  1.00  0.00     0.039 A 
HETATM   22  C13 UNL     1      -4.706  -0.258   1.550  1.00  0.00     0.061 C 
HETATM   23  C14 UNL     1      -5.548  -0.824   0.433  1.00  0.00     0.136 C 
BRANCH  20  24
HETATM   24  C15 UNL     1      -4.905  -1.835  -1.804  1.00  0.00     0.355 C 
HETATM   25  O2  UNL     1      -5.989  -2.425  -2.047  1.00  0.00    -0.283 OA
ENDBRANCH  20  24
ENDBRANCH   1  15
TORSDOF 4
