REMARK  4 active torsions:
REMARK  status: ('A' for Active; 'I' for Inactive)
REMARK    1  A    between atoms: N1_2  and  C2_3 
REMARK    2  A    between atoms: C10_12  and  C11_13 
REMARK    3  A    between atoms: C11_13  and  N3_14 
REMARK    4  A    between atoms: C14_17  and  O1_18 
ROOT
HETATM    1  C2  UNL     1      -2.549   0.110  -1.797  1.00  0.00     0.041 C 
HETATM    2  C3  UNL     1      -2.963  -0.946  -2.465  1.00  0.00     0.027 C 
HETATM    3  C4  UNL     1      -3.159  -2.304  -1.989  1.00  0.00     0.000 C 
HETATM    4  C5  UNL     1      -2.894  -2.405  -0.707  1.00  0.00     0.009 C 
HETATM    5  C6  UNL     1      -2.482  -1.324   0.159  1.00  0.00     0.259 C 
HETATM    6  N2  UNL     1      -1.698  -1.670   1.317  1.00  0.00     0.092 N 
HETATM    7  C7  UNL     1      -2.063  -0.724   2.346  1.00  0.00     0.270 C 
HETATM    8  C8  UNL     1      -2.550   0.605   1.876  1.00  0.00     0.031 C 
HETATM    9  C9  UNL     1      -2.121   1.034   0.500  1.00  0.00     0.022 C 
HETATM   10  C10 UNL     1      -1.886  -0.094  -0.430  1.00  0.00     0.054 C 
HETATM   11  H7  UNL     1      -1.942  -2.643   1.571  1.00  0.00     0.316 HD
ENDROOT
BRANCH  10  12
HETATM   12  C11 UNL     1      -0.396  -0.243  -0.712  1.00  0.00     0.137 C 
BRANCH  12  13
HETATM   13  N3  UNL     1       0.528  -0.427   0.281  1.00  0.00    -0.394 N 
HETATM   14  C12 UNL     1       0.943   0.527   1.206  1.00  0.00     0.121 C 
HETATM   15  C13 UNL     1       1.694   1.727   0.637  1.00  0.00     0.061 C 
HETATM   16  C14 UNL     1       2.988   1.467   0.013  1.00  0.00     0.099 C 
HETATM   17  C16 UNL     1       3.488   0.263   0.022  1.00  0.00     0.053 C 
HETATM   18  C17 UNL     1       4.615  -0.529  -0.397  1.00  0.00     0.239 C 
HETATM   19  N4  UNL     1       4.560  -1.806  -0.061  1.00  0.00    -0.298 NA
HETATM   20  C18 UNL     1       3.426  -2.316   0.677  1.00  0.00     0.164 C 
HETATM   21  N5  UNL     1       2.454  -1.666   0.202  1.00  0.00    -0.272 NA
HETATM   22  C19 UNL     1       1.062  -1.727   0.539  1.00  0.00     0.268 C 
BRANCH  16  23
HETATM   23  O1  UNL     1       3.284   2.794  -0.443  1.00  0.00    -0.381 OA
HETATM   24  C15 UNL     1       4.579   2.978  -1.008  1.00  0.00     0.202 C 
ENDBRANCH  16  23
ENDBRANCH  12  13
ENDBRANCH  10  12
BRANCH   1  25
HETATM   25  N1  UNL     1      -2.325   1.481  -2.095  1.00  0.00    -0.291 NA
HETATM   26  C1  UNL     1      -3.259   2.275  -2.508  1.00  0.00     0.170 C 
ENDBRANCH   1  25
TORSDOF 4
