REMARK  7 active torsions:
REMARK  status: ('A' for Active; 'I' for Inactive)
REMARK    1  A    between atoms: C2_2  and  C3_3 
REMARK       I    between atoms: C3_3  and  N1_5 
REMARK    2  A    between atoms: N1_5  and  C4_6 
REMARK    3  A    between atoms: C9_13  and  N3_14 
REMARK    4  A    between atoms: N3_14  and  C10_15 
REMARK    5  A    between atoms: N4_18  and  O2_19 
REMARK    6  A    between atoms: O2_19  and  C13_20 
REMARK    7  A    between atoms: C13_20  and  C14_21 
ROOT
HETATM    1  C4  UNL     1      -4.131   0.457  -1.802  1.00  0.00     0.051 A 
HETATM    2  C5  UNL     1      -5.101  -0.051  -2.651  1.00  0.00     0.035 A 
HETATM    3  C6  UNL     1      -4.104  -0.916  -2.528  1.00  0.00     0.015 A 
HETATM    4  C7  UNL     1      -2.846  -1.450  -2.076  1.00  0.00     0.062 A 
HETATM    5  P1  UNL     1      -2.907  -3.075  -1.238  1.00  0.00    -0.077 P 
HETATM    6  C8  UNL     1      -2.002  -2.812   0.365  1.00  0.00     0.122 A 
HETATM    7  N2  UNL     1      -1.509  -1.709   0.817  1.00  0.00    -0.243 NA
HETATM    8  C9  UNL     1      -1.632  -0.530   0.038  1.00  0.00     0.131 A 
HETATM    9  C21 UNL     1      -2.193  -0.470  -1.134  1.00  0.00    -0.022 A 
HETATM   10  C22 UNL     1      -2.606   0.675  -2.039  1.00  0.00     0.071 C 
HETATM   11  H9  UNL     1      -2.179  -4.077  -1.998  1.00  0.00     0.064 HD
ENDROOT
BRANCH   8  12
HETATM   12  N3  UNL     1      -1.114   0.714   0.535  1.00  0.00    -0.341 N 
HETATM   13  H11 UNL     1      -1.518   1.614   0.845  1.00  0.00     0.167 HD
BRANCH  12  14
HETATM   14  C10 UNL     1       0.312   0.512   0.550  1.00  0.00     0.032 A 
HETATM   15  C11 UNL     1       1.070   0.132  -0.479  1.00  0.00     0.025 A 
HETATM   16  C12 UNL     1       2.541  -0.077  -0.465  1.00  0.00     0.184 A 
HETATM   17  N4  UNL     1       3.096   0.190   0.857  1.00  0.00    -0.266 N 
HETATM   18  C19 UNL     1       2.319   0.602   1.993  1.00  0.00     0.119 A 
HETATM   19  C20 UNL     1       1.016   0.745   1.820  1.00  0.00     0.048 A 
BRANCH  17  20
HETATM   20  O2  UNL     1       4.424   0.050   1.056  1.00  0.00    -0.274 OA
BRANCH  20  21
HETATM   21  C13 UNL     1       5.054   0.148  -0.181  1.00  0.00     0.241 C 
BRANCH  21  22
HETATM   22  C14 UNL     1       6.527  -0.012   0.084  1.00  0.00    -0.015 A 
HETATM   23  C15 UNL     1       7.336   1.072   0.356  1.00  0.00     0.012 A 
HETATM   24  C16 UNL     1       8.677   0.802   0.584  1.00  0.00     0.020 A 
HETATM   25  C17 UNL     1       9.166  -0.499   0.538  1.00  0.00     0.116 A 
HETATM   26  N5  UNL     1       8.348  -1.546   0.268  1.00  0.00    -0.272 NA
HETATM   27  C18 UNL     1       7.053  -1.306   0.046  1.00  0.00     0.125 A 
ENDBRANCH  21  22
ENDBRANCH  20  21
ENDBRANCH  17  20
ENDBRANCH  12  14
ENDBRANCH   8  12
BRANCH   1  28
HETATM   28  N1  UNL     1      -4.398   0.203  -0.331  1.00  0.00    -0.350 N 
HETATM   29  C3  UNL     1      -5.624   0.818  -0.030  1.00  0.00     0.217 C 
HETATM   30  O1  UNL     1      -6.356   1.462  -0.847  1.00  0.00    -0.274 OA
HETATM   31  H6  UNL     1      -4.027  -0.252   0.549  1.00  0.00     0.163 HD
BRANCH  29  32
HETATM   32  C2  UNL     1      -6.324   0.854   1.286  1.00  0.00     0.098 C 
HETATM   33  C1  UNL     1      -7.607   1.639   1.092  1.00  0.00     0.014 C 
ENDBRANCH  29  32
ENDBRANCH   1  28
TORSDOF 7
