REMARK  5 active torsions:
REMARK  status: ('A' for Active; 'I' for Inactive)
REMARK    1  A    between atoms: O1_2  and  C2_3 
REMARK    2  A    between atoms: N2_8  and  B1_9 
REMARK    3  A    between atoms: B1_9  and  C6_10 
REMARK    4  A    between atoms: C9_13  and  C10_14 
REMARK    5  A    between atoms: C18_22  and  N3_23 
ROOT
HETATM    1  C2  UNL     1      -4.772   0.798   0.333  1.00  0.00     0.275 C 
HETATM    2  C3  UNL     1      -3.794   1.755   0.094  1.00  0.00     0.054 C 
HETATM    3  C4  UNL     1      -2.463   1.227   0.008  1.00  0.00     0.079 C 
HETATM    4  C5  UNL     1      -1.311   2.135  -0.108  1.00  0.00     0.122 C 
HETATM    5  N1  UNL     1      -0.313   1.402   0.369  1.00  0.00    -0.203 NA
HETATM    6  N2  UNL     1      -0.280  -0.012   0.136  1.00  0.00    -0.319 N 
HETATM    7  C16 UNL     1      -1.290  -0.760  -0.629  1.00  0.00     0.059 C 
HETATM    8  C17 UNL     1      -2.163   0.191  -1.033  1.00  0.00     0.019 C 
HETATM    9  C18 UNL     1      -0.977  -2.191  -0.581  1.00  0.00     0.049 C 
HETATM   10  C19 UNL     1      -1.875  -3.214  -0.635  1.00  0.00     0.010 C 
HETATM   11  C20 UNL     1      -3.160  -2.516  -0.762  1.00  0.00     0.110 C 
HETATM   12  C21 UNL     1      -3.634  -1.882   0.496  1.00  0.00     0.363 A 
HETATM   13  O2  UNL     1      -4.003  -1.425   1.602  1.00  0.00    -0.143 OA
HETATM   14  N4  UNL     1      -4.202  -0.544   0.414  1.00  0.00     0.140 N 
HETATM   15  H21 UNL     1      -4.368  -0.381  -0.633  1.00  0.00     0.332 HD
ENDROOT
BRANCH   6  16
HETATM   16  B1  UNL     1       0.978  -0.656   0.788  1.00  0.00     0.337 B 
HETATM   17  H7  UNL     1       0.701  -1.285   1.767  1.00  0.00     0.007 HD
BRANCH  16  18
HETATM   18  C6  UNL     1       2.410  -0.203   0.504  1.00  0.00    -0.075 A 
HETATM   19  C7  UNL     1       2.845   0.970  -0.041  1.00  0.00    -0.003 A 
HETATM   20  C8  UNL     1       4.205   1.235  -0.237  1.00  0.00     0.007 A 
HETATM   21  C9  UNL     1       5.168   0.312   0.117  1.00  0.00    -0.047 A 
HETATM   22  C14 UNL     1       4.741  -0.890   0.674  1.00  0.00     0.007 A 
HETATM   23  C15 UNL     1       3.402  -1.126   0.856  1.00  0.00    -0.003 A 
BRANCH  21  24
HETATM   24  C10 UNL     1       6.612   0.524  -0.059  1.00  0.00     0.065 C 
HETATM   25  C11 UNL     1       7.133   1.816   0.502  1.00  0.00    -0.002 C 
HETATM   26  C12 UNL     1       7.555   2.122  -0.703  1.00  0.00    -0.032 C 
HETATM   27  C13 UNL     1       7.009   1.133  -1.343  1.00  0.00    -0.002 C 
ENDBRANCH  21  24
ENDBRANCH  16  18
ENDBRANCH   6  16
BRANCH   9  28
HETATM   28  N3  UNL     1       0.369  -2.623  -0.482  1.00  0.00    -0.398 N 
HETATM   29  H16 UNL     1       0.581  -3.285   0.286  1.00  0.00     0.156 HD
HETATM   30  H17 UNL     1       1.179  -2.340  -1.111  1.00  0.00     0.156 HD
ENDBRANCH   9  28
BRANCH   1  31
HETATM   31  O1  UNL     1      -6.102   1.046   0.467  1.00  0.00    -0.334 OA
HETATM   32  C1  UNL     1      -6.698   1.863   1.427  1.00  0.00     0.211 C 
ENDBRANCH   1  31
TORSDOF 5
