REMARK  7 active torsions:
REMARK  status: ('A' for Active; 'I' for Inactive)
REMARK    1  A    between atoms: C2_2  and  C3_3 
REMARK    2  A    between atoms: C3_3  and  C4_5 
REMARK    3  A    between atoms: C4_5  and  C5_6 
REMARK    4  A    between atoms: C5_6  and  O3_25 
REMARK    5  A    between atoms: C6_7  and  C7_8 
REMARK    6  A    between atoms: C11_13  and  O2_14 
REMARK    7  A    between atoms: O2_14  and  C12_15 
ROOT
HETATM    1  C7  UNL     1      -0.918   0.111   0.266  1.00  0.00     0.061 C 
HETATM    2  N1  UNL     1       0.287   0.503   0.032  1.00  0.00    -0.247 NA
HETATM    3  C8  UNL     1       1.521  -0.159  -0.153  1.00  0.00     0.082 A 
HETATM    4  C9  UNL     1       1.766  -1.415   0.165  1.00  0.00     0.044 A 
HETATM    5  C10 UNL     1       3.180  -1.665  -0.207  1.00  0.00     0.124 A 
HETATM    6  C11 UNL     1       3.645  -0.370  -0.767  1.00  0.00     0.061 A 
HETATM    7  C17 UNL     1       2.670   0.522  -0.736  1.00  0.00     0.066 A 
HETATM    8  N3  UNL     1       0.924  -2.407   0.743  1.00  0.00    -0.367 N 
HETATM    9  C18 UNL     1      -0.511  -2.392   0.590  1.00  0.00     0.090 C 
HETATM   10  C19 UNL     1      -1.267  -1.298   0.388  1.00  0.00     0.048 C 
HETATM   11  H16 UNL     1       1.352  -3.163   1.285  1.00  0.00     0.165 HD
ENDROOT
BRANCH   1  12
HETATM   12  C6  UNL     1      -1.971   1.088   0.404  1.00  0.00     0.064 C 
HETATM   13  C5  UNL     1      -3.269   1.081   0.644  1.00  0.00     0.055 C 
BRANCH  13  14
HETATM   14  C4  UNL     1      -4.473   0.303   0.911  1.00  0.00     0.142 C 
BRANCH  14  15
HETATM   15  C3  UNL     1      -5.565   0.495  -0.111  1.00  0.00     0.132 C 
HETATM   16  O1  UNL     1      -5.595   1.184  -1.113  1.00  0.00    -0.298 OA
BRANCH  15  17
HETATM   17  C2  UNL     1      -6.856  -0.228   0.030  1.00  0.00     0.074 C 
HETATM   18  C1  UNL     1      -7.025  -1.303  -1.023  1.00  0.00     0.013 C 
ENDBRANCH  15  17
ENDBRANCH  14  15
ENDBRANCH  13  14
BRANCH  13  19
HETATM   19  O3  UNL     1      -3.897   2.347   0.683  1.00  0.00    -0.360 OA
HETATM   20  C20 UNL     1      -3.612   3.379  -0.205  1.00  0.00     0.209 C 
ENDBRANCH  13  19
ENDBRANCH   1  12
BRANCH   6  21
HETATM   21  O2  UNL     1       4.884  -0.024  -1.274  1.00  0.00    -0.313 OA
BRANCH  21  22
HETATM   22  C12 UNL     1       6.057   0.072  -0.584  1.00  0.00     0.093 A 
HETATM   23  C13 UNL     1       7.090   0.450  -1.453  1.00  0.00     0.040 A 
HETATM   24  C14 UNL     1       8.401   0.618  -0.993  1.00  0.00     0.022 A 
HETATM   25  C15 UNL     1       8.633   0.398   0.346  1.00  0.00     0.116 A 
HETATM   26  N2  UNL     1       7.632   0.032   1.192  1.00  0.00    -0.270 NA
HETATM   27  C16 UNL     1       6.375  -0.128   0.743  1.00  0.00     0.153 A 
ENDBRANCH  21  22
ENDBRANCH   6  21
TORSDOF 7
