REMARK  5 active torsions:
REMARK  status: ('A' for Active; 'I' for Inactive)
REMARK    1  A    between atoms: C5_7  and  C6_8 
REMARK    2  A    between atoms: C6_8  and  C7_9 
REMARK    3  A    between atoms: C7_9  and  O2_10 
REMARK    4  A    between atoms: O2_10  and  C8_11 
REMARK    5  A    between atoms: C13_19  and  C14_20 
ROOT
HETATM    1  C14 UNL     1       5.434   0.771  -1.309  1.00  0.00     0.102 C 
HETATM    2  C15 UNL     1       6.369   1.588  -0.775  1.00  0.00     0.204 C 
HETATM    3 CL1  UNL     1       7.566   2.625   0.038  1.00  0.00    -0.261 Cl
ENDROOT
BRANCH   1   4
HETATM    4  C13 UNL     1       5.022   0.303   0.129  1.00  0.00     0.240 C 
HETATM    5  N4  UNL     1       3.892  -0.591  -0.279  1.00  0.00     0.088 N 
HETATM    6  C12 UNL     1       4.277  -1.684  -1.200  1.00  0.00     0.426 C 
HETATM    7  C17 UNL     1       2.468  -0.713  -0.000  1.00  0.00     0.286 C 
HETATM    8  F1  UNL     1       4.642   0.004   0.015  1.00  0.00    -0.214 F 
HETATM    9  N3  UNL     1       3.164  -2.402  -1.745  1.00  0.00    -0.252 NA
HETATM   10  C11 UNL     1       2.436  -3.273  -1.257  1.00  0.00     0.228 C 
HETATM   11  N2  UNL     1       1.372  -4.252  -1.158  1.00  0.00    -0.254 NA
HETATM   12  C10 UNL     1       0.200  -3.681  -0.889  1.00  0.00     0.120 C 
HETATM   13  C9  UNL     1      -0.065  -2.266  -0.714  1.00  0.00     0.051 C 
HETATM   14  C8  UNL     1       0.127  -0.931  -0.678  1.00  0.00     0.049 C 
HETATM   15  C18 UNL     1       1.524  -0.463  -1.082  1.00  0.00     0.095 C 
HETATM   16  C16 UNL     1       4.590  -0.168   1.309  1.00  0.00     0.244 C 
BRANCH  14  17
HETATM   17  O2  UNL     1      -0.803   0.045  -0.330  1.00  0.00    -0.355 OA
BRANCH  17  18
HETATM   18  C7  UNL     1      -1.289   0.314   0.949  1.00  0.00     0.177 C 
BRANCH  18  19
HETATM   19  C6  UNL     1      -2.129   1.561   0.866  1.00  0.00     0.052 C 
BRANCH  19  20
HETATM   20  C5  UNL     1      -3.261   1.413  -0.089  1.00  0.00     0.086 C 
HETATM   21  C2  UNL     1      -4.207   0.313   0.274  1.00  0.00     0.028 C 
HETATM   22  C1  UNL     1      -5.041   0.025  -0.975  1.00  0.00     0.014 C 
HETATM   23  C3  UNL     1      -5.068   0.677   1.443  1.00  0.00     0.176 C 
HETATM   24  O1  UNL     1      -5.366   1.996   1.577  1.00  0.00    -0.372 OA
HETATM   25  C4  UNL     1      -5.124   2.846   0.555  1.00  0.00     0.285 C 
HETATM   26  N1  UNL     1      -3.957   2.651  -0.245  1.00  0.00    -0.397 N 
HETATM   27  H9  UNL     1      -3.327   3.479  -0.317  1.00  0.00     0.155 HD
ENDBRANCH  19  20
ENDBRANCH  18  19
ENDBRANCH  17  18
ENDBRANCH  14  17
ENDBRANCH   1   4
TORSDOF 5
