REMARK  8 active torsions:
REMARK  status: ('A' for Active; 'I' for Inactive)
REMARK    1  A    between atoms: C2_2  and  C3_3 
REMARK    2  A    between atoms: C3_3  and  C11_13 
REMARK    3  A    between atoms: C4_4  and  C5_5 
REMARK    4  A    between atoms: C6_6  and  O1_7 
REMARK    5  A    between atoms: O1_7  and  C7_8 
REMARK    6  A    between atoms: C15_19  and  O2_20 
REMARK    7  A    between atoms: C17_22  and  N4_23 
REMARK       I    between atoms: N4_23  and  C18_24 
REMARK    8  A    between atoms: C18_24  and  C19_26 
ROOT
HETATM    1  C11 UNL     1       1.207  -0.058   1.279  1.00  0.00     0.081 A 
HETATM    2  N2  UNL     1       1.881  -0.535   2.335  1.00  0.00    -0.240 NA
HETATM    3  C12 UNL     1       1.516  -0.206   3.614  1.00  0.00     0.234 A 
HETATM    4  N3  UNL     1       0.463   0.607   3.743  1.00  0.00    -0.241 NA
HETATM    5  C13 UNL     1      -0.197   1.066   2.682  1.00  0.00     0.074 A 
HETATM    6  C14 UNL     1      -1.306   1.864   2.904  1.00  0.00     0.071 A 
HETATM    7  C15 UNL     1      -2.046   2.318   1.846  1.00  0.00     0.097 A 
HETATM    8  C17 UNL     1      -1.641   1.947   0.570  1.00  0.00     0.075 A 
HETATM    9  C21 UNL     1      -0.532   1.144   0.255  1.00  0.00    -0.018 A 
HETATM   10  C22 UNL     1      -0.303   0.723  -1.129  1.00  0.00     0.052 C 
HETATM   11  C23 UNL     1       0.133   0.758   1.387  1.00  0.00     0.031 A 
ENDROOT
BRANCH   1  12
HETATM   12  C3  UNL     1       1.858  -0.527   0.116  1.00  0.00    -0.010 C 
HETATM   13  C4  UNL     1       2.480  -1.166  -0.823  1.00  0.00     0.015 C 
BRANCH  12  14
HETATM   14  C2  UNL     1       2.438   0.714  -0.526  1.00  0.00     0.005 C 
HETATM   15  C1  UNL     1       2.456   2.061  -0.346  1.00  0.00     0.014 C 
ENDBRANCH  12  14
BRANCH  13  16
HETATM   16  C5  UNL     1       3.324  -0.986  -1.962  1.00  0.00     0.025 C 
HETATM   17  C6  UNL     1       3.562  -2.191  -2.443  1.00  0.00     0.136 C 
BRANCH  17  18
HETATM   18  O1  UNL     1       2.904  -3.133  -1.657  1.00  0.00    -0.349 OA
BRANCH  18  19
HETATM   19  C7  UNL     1       3.302  -4.492  -1.742  1.00  0.00     0.192 A 
HETATM   20  C8  UNL     1       2.477  -5.375  -0.869  1.00  0.00     0.030 A 
HETATM   21  C9  UNL     1       3.321  -5.899   0.036  1.00  0.00     0.115 A 
HETATM   22  N1  UNL     1       4.639  -5.406  -0.204  1.00  0.00    -0.274 NA
HETATM   23  C10 UNL     1       4.664  -4.614  -1.195  1.00  0.00     0.125 A 
ENDBRANCH  18  19
ENDBRANCH  17  18
ENDBRANCH  13  16
ENDBRANCH   1  12
BRANCH   8  24
HETATM   24  N4  UNL     1      -2.446   2.442  -0.523  1.00  0.00    -0.324 N 
HETATM   25  C18 UNL     1      -3.563   1.638  -0.961  1.00  0.00     0.221 C 
HETATM   26  O3  UNL     1      -3.970   0.533  -0.532  1.00  0.00    -0.273 OA
HETATM   27  H16 UNL     1      -2.274   3.330  -1.009  1.00  0.00     0.169 HD
BRANCH  25  28
HETATM   28  C19 UNL     1      -4.394   2.159  -2.095  1.00  0.00     0.098 C 
HETATM   29  C20 UNL     1      -5.495   1.155  -2.368  1.00  0.00     0.014 C 
ENDBRANCH  25  28
ENDBRANCH   8  24
BRANCH   7  30
HETATM   30  O2  UNL     1      -3.165   3.122   2.004  1.00  0.00    -0.354 OA
HETATM   31  C16 UNL     1      -3.584   3.504   3.280  1.00  0.00     0.210 C 
ENDBRANCH   7  30
TORSDOF 8
