REMARK  4 active torsions:
REMARK  status: ('A' for Active; 'I' for Inactive)
REMARK    1  A    between atoms: C1_2  and  S1_3 
REMARK    2  A    between atoms: S1_3  and  C2_4 
REMARK    3  A    between atoms: C2_4  and  C3_5 
REMARK    4  A    between atoms: C4_6  and  C5_7 
ROOT
HETATM    1  C5  UNL     1       1.712  -0.647  -0.053  1.00  0.00     0.037 C 
HETATM    2  N1  UNL     1       0.835  -0.183  -0.844  1.00  0.00    -0.265 NA
HETATM    3  C6  UNL     1       0.723   1.162  -1.192  1.00  0.00     0.117 C 
HETATM    4  C7  UNL     1      -0.149   2.127  -1.059  1.00  0.00     0.021 C 
HETATM    5  C8  UNL     1      -0.748   3.441  -1.162  1.00  0.00     0.021 C 
HETATM    6  C9  UNL     1      -1.860   4.071  -0.814  1.00  0.00     0.116 C 
HETATM    7  N2  UNL     1      -2.608   3.114  -0.170  1.00  0.00    -0.275 NA
HETATM    8  C10 UNL     1      -3.720   3.056   0.398  1.00  0.00     0.115 C 
HETATM    9  C11 UNL     1      -3.543   1.640   0.715  1.00  0.00     0.222 C 
HETATM   10  O2  UNL     1      -3.536   0.824  -0.451  1.00  0.00    -0.346 OA
HETATM   11  C12 UNL     1      -3.224  -0.511  -0.234  1.00  0.00     0.069 A 
HETATM   12  C13 UNL     1      -3.470  -1.441   0.732  1.00  0.00     0.039 A 
HETATM   13  C14 UNL     1      -2.913  -2.673   0.505  1.00  0.00     0.032 A 
HETATM   14  C15 UNL     1      -2.165  -2.920  -0.629  1.00  0.00     0.032 A 
HETATM   15  C16 UNL     1      -1.928  -1.944  -1.620  1.00  0.00     0.032 A 
HETATM   16  C17 UNL     1      -2.491  -0.708  -1.383  1.00  0.00     0.039 A 
HETATM   17  N3  UNL     1      -1.528  -4.227  -0.730  1.00  0.00    -0.366 N 
HETATM   18  C18 UNL     1      -0.419  -3.562  -0.074  1.00  0.00     0.084 C 
HETATM   19  C19 UNL     1       0.582  -2.798  -0.507  1.00  0.00    -0.004 C 
HETATM   20  C20 UNL     1       1.691  -2.130   0.171  1.00  0.00     0.087 C 
HETATM   21  H17 UNL     1      -1.576  -5.220  -1.031  1.00  0.00     0.165 HD
ENDROOT
BRANCH   1  22
HETATM   22  C4  UNL     1       2.786   0.004   0.683  1.00  0.00     0.024 C 
HETATM   23  C3  UNL     1       3.128   1.269   0.723  1.00  0.00    -0.014 C 
BRANCH  23  24
HETATM   24  C2  UNL     1       4.207   1.937   1.460  1.00  0.00     0.108 C 
BRANCH  24  25
HETATM   25  S1  UNL     1       5.151   0.705   2.441  1.00  0.00    -0.098 SA
BRANCH  25  26
HETATM   26  C1  UNL     1       5.991  -0.394   1.325  1.00  0.00     0.304 C 
HETATM   27  O1  UNL     1       6.099  -1.532   0.866  1.00  0.00    -0.295 OA
ENDBRANCH  25  26
ENDBRANCH  24  25
ENDBRANCH  23  24
ENDBRANCH   1  22
TORSDOF 4
