REMARK  5 active torsions:
REMARK  status: ('A' for Active; 'I' for Inactive)
REMARK    1  A    between atoms: C2_2  and  C3_3 
REMARK       I    between atoms: C3_3  and  N1_5 
REMARK    2  A    between atoms: N1_5  and  C4_6 
REMARK    3  A    between atoms: C5_7  and  C6_8 
REMARK    4  A    between atoms: C9_13  and  O2_14 
REMARK    5  A    between atoms: O2_14  and  C10_15 
ROOT
HETATM    1  C6  UNL     1       1.761  -0.939   0.393  1.00  0.00     0.065 C 
HETATM    2  N2  UNL     1       1.148  -0.110   1.126  1.00  0.00    -0.178 NA
HETATM    3  N3  UNL     1      -0.146  -0.041   1.583  1.00  0.00    -0.277 N 
HETATM    4  C7  UNL     1      -1.225  -0.199   0.692  1.00  0.00     0.069 A 
HETATM    5  C8  UNL     1      -2.408   0.416   1.122  1.00  0.00     0.069 A 
HETATM    6  C9  UNL     1      -3.605   0.410   0.437  1.00  0.00     0.078 A 
HETATM    7  C15 UNL     1      -3.647  -0.253  -0.768  1.00  0.00     0.039 A 
HETATM    8  C16 UNL     1      -2.528  -0.887  -1.266  1.00  0.00     0.024 A 
HETATM    9  C17 UNL     1      -1.345  -0.850  -0.535  1.00  0.00     0.029 A 
HETATM   10  S1  UNL     1      -0.095  -1.750  -1.435  1.00  0.00    -0.121 SA
HETATM   11  C18 UNL     1       1.228  -2.173  -0.237  1.00  0.00     0.140 C 
HETATM   12  H9  UNL     1      -0.440   0.130   2.586  1.00  0.00     0.189 HD
ENDROOT
BRANCH   1  13
HETATM   13  C5  UNL     1       3.157  -0.581   0.181  1.00  0.00     0.047 C 
HETATM   14  C4  UNL     1       4.199  -1.044  -0.454  1.00  0.00     0.093 C 
BRANCH  14  15
HETATM   15  N1  UNL     1       5.538  -0.732  -0.678  1.00  0.00    -0.337 N 
HETATM   16  C3  UNL     1       6.276   0.373  -0.195  1.00  0.00     0.221 C 
HETATM   17  O1  UNL     1       5.702   1.214   0.537  1.00  0.00    -0.273 OA
HETATM   18  H6  UNL     1       6.097  -1.375  -1.275  1.00  0.00     0.168 HD
BRANCH  16  19
HETATM   19  C2  UNL     1       7.732   0.571  -0.531  1.00  0.00     0.098 C 
HETATM   20  C1  UNL     1       8.235   1.836   0.132  1.00  0.00     0.014 C 
ENDBRANCH  16  19
ENDBRANCH  14  15
ENDBRANCH   1  13
BRANCH   6  21
HETATM   21  O2  UNL     1      -4.702   1.064   0.983  1.00  0.00    -0.309 OA
BRANCH  21  22
HETATM   22  C10 UNL     1      -5.890   1.036   0.265  1.00  0.00     0.093 A 
HETATM   23  C11 UNL     1      -6.648  -0.080   0.639  1.00  0.00     0.040 A 
HETATM   24  C12 UNL     1      -7.890  -0.313   0.043  1.00  0.00     0.022 A 
HETATM   25  C13 UNL     1      -8.319   0.593  -0.911  1.00  0.00     0.116 A 
HETATM   26  N4  UNL     1      -7.573   1.652  -1.251  1.00  0.00    -0.270 NA
HETATM   27  C14 UNL     1      -6.381   1.898  -0.694  1.00  0.00     0.153 A 
ENDBRANCH  21  22
ENDBRANCH   6  21
TORSDOF 5
