REMARK  4 active torsions:
REMARK  status: ('A' for Active; 'I' for Inactive)
REMARK    1  A    between atoms: C11_15  and  O2_16 
REMARK    2  A    between atoms: C13_18  and  N4_19 
REMARK       I    between atoms: N4_19  and  C14_20 
REMARK    3  A    between atoms: C14_20  and  C15_22 
REMARK    4  A    between atoms: C19_26  and  N5_27 
ROOT
HETATM    1  C1  UNL     1      -0.013   2.485   3.157  1.00  0.00     0.053 C 
HETATM    2  C2  UNL     1       0.785   2.076   2.187  1.00  0.00     0.093 C 
HETATM    3  O1  UNL     1       1.979   2.180   1.445  1.00  0.00    -0.305 OA
HETATM    4  C3  UNL     1       3.125   1.469   1.797  1.00  0.00     0.122 A 
HETATM    5  C4  UNL     1       4.365   2.066   1.627  1.00  0.00     0.155 A 
HETATM    6  N1  UNL     1       5.539   1.489   1.930  1.00  0.00    -0.270 NA
HETATM    7  C5  UNL     1       5.588   0.251   2.435  1.00  0.00     0.118 A 
HETATM    8  C6  UNL     1       4.369  -0.347   2.605  1.00  0.00     0.054 A 
HETATM    9  C7  UNL     1       3.105   0.173   2.321  1.00  0.00     0.094 A 
HETATM   10  N2  UNL     1       2.020  -0.692   2.594  1.00  0.00    -0.239 NA
HETATM   11  C8  UNL     1       1.669  -1.581   1.754  1.00  0.00     0.234 C 
HETATM   12  N3  UNL     1       1.151  -2.594   0.969  1.00  0.00    -0.241 NA
HETATM   13  C9  UNL     1       0.353  -2.441  -0.058  1.00  0.00     0.073 A 
HETATM   14  C10 UNL     1      -0.411  -3.032  -1.123  1.00  0.00     0.071 A 
HETATM   15  C11 UNL     1      -1.040  -2.125  -1.837  1.00  0.00     0.098 A 
HETATM   16  C13 UNL     1      -0.770  -0.789  -1.324  1.00  0.00     0.081 A 
HETATM   17  C17 UNL     1       0.015  -1.026  -0.324  1.00  0.00     0.025 A 
HETATM   18  C18 UNL     1       0.440   0.115   0.488  1.00  0.00     0.048 C 
HETATM   19  C19 UNL     1       0.223   0.948   1.482  1.00  0.00     0.062 C 
ENDROOT
BRANCH  16  20
HETATM   20  N4  UNL     1      -1.218   0.454  -1.806  1.00  0.00    -0.324 N 
HETATM   21  C14 UNL     1      -2.074   0.600  -2.908  1.00  0.00     0.221 C 
HETATM   22  O3  UNL     1      -2.557  -0.306  -3.607  1.00  0.00    -0.273 OA
HETATM   23  H11 UNL     1      -0.994   1.379  -1.440  1.00  0.00     0.169 HD
BRANCH  21  24
HETATM   24  C15 UNL     1      -2.563   1.875  -3.445  1.00  0.00     0.098 C 
HETATM   25  C16 UNL     1      -3.481   1.731  -4.607  1.00  0.00     0.014 C 
ENDBRANCH  21  24
ENDBRANCH  16  20
BRANCH  15  26
HETATM   26  O2  UNL     1      -1.797  -2.585  -2.879  1.00  0.00    -0.354 OA
HETATM   27  C12 UNL     1      -2.908  -3.418  -2.835  1.00  0.00     0.210 C 
ENDBRANCH  15  26
BRANCH  19  28
HETATM   28  N5  UNL     1      -1.020   0.347   1.778  1.00  0.00    -0.392 N 
HETATM   29  C20 UNL     1      -1.206  -0.018   3.151  1.00  0.00     0.146 C 
HETATM   30  H18 UNL     1      -1.942   0.051   1.324  1.00  0.00     0.159 HD
ENDBRANCH  19  28
TORSDOF 4
