REMARK  6 active torsions:
REMARK  status: ('A' for Active; 'I' for Inactive)
REMARK    1  A    between atoms: C2_2  and  C3_3 
REMARK       I    between atoms: C3_3  and  N1_5 
REMARK    2  A    between atoms: N1_5  and  C4_6 
REMARK    3  A    between atoms: C4_6  and  N2_7 
REMARK    4  A    between atoms: C5_8  and  O2_9 
REMARK    5  A    between atoms: C15_21  and  O3_22 
REMARK    6  A    between atoms: O3_22  and  C16_23 
ROOT
HETATM    1  C4  UNL     1      -1.312   0.349   0.453  1.00  0.00     0.287 C 
HETATM    2  C5  UNL     1      -2.517   0.128  -0.383  1.00  0.00     0.105 C 
HETATM    3  C7  UNL     1      -3.402  -0.378  -1.296  1.00  0.00     0.123 C 
HETATM    4  C8  UNL     1      -3.474  -1.483  -2.297  1.00  0.00     0.059 C 
HETATM    5  C9  UNL     1      -3.126  -2.759  -1.609  1.00  0.00     0.003 C 
HETATM    6  C10 UNL     1      -1.962  -2.609  -0.945  1.00  0.00     0.115 C 
HETATM    7  N3  UNL     1      -0.923  -1.752  -1.470  1.00  0.00    -0.245 N 
HETATM    8  N4  UNL     1      -1.262  -1.140  -2.679  1.00  0.00    -0.184 NA
HETATM    9  C11 UNL     1      -2.387  -1.301  -3.295  1.00  0.00     0.121 C 
HETATM   10  C12 UNL     1       0.261  -1.507  -0.792  1.00  0.00     0.068 A 
HETATM   11  C13 UNL     1       1.523  -2.020  -0.835  1.00  0.00     0.035 A 
HETATM   12  C14 UNL     1       2.498  -1.542  -0.012  1.00  0.00     0.039 A 
HETATM   13  C15 UNL     1       2.227  -0.532   0.877  1.00  0.00     0.070 A 
HETATM   14  C20 UNL     1       0.921  -0.041   0.884  1.00  0.00     0.050 A 
HETATM   15  C21 UNL     1      -0.137  -0.486   0.062  1.00  0.00     0.034 A 
ENDROOT
BRANCH   1  16
HETATM   16  N1  UNL     1      -0.974   1.758   0.421  1.00  0.00    -0.317 N 
HETATM   17  C3  UNL     1      -0.681   2.372  -0.818  1.00  0.00     0.239 C 
HETATM   18  O1  UNL     1      -0.670   1.850  -1.951  1.00  0.00    -0.269 OA
HETATM   19  H4  UNL     1      -0.909   2.436   1.214  1.00  0.00     0.165 HD
BRANCH  17  20
HETATM   20  C2  UNL     1      -0.322   3.793  -0.975  1.00  0.00     0.047 C 
HETATM   21  C1  UNL     1      -0.181   3.737  -2.301  1.00  0.00     0.037 C 
ENDBRANCH  17  20
ENDBRANCH   1  16
BRANCH   1  22
HETATM   22  N2  UNL     1      -1.615  -0.003   1.817  1.00  0.00     0.115 N 
HETATM   23  H5  UNL     1      -1.331  -0.976   2.001  1.00  0.00     0.316 HD
HETATM   24  H6  UNL     1      -1.207   0.668   2.511  1.00  0.00     0.316 HD
ENDBRANCH   1  22
BRANCH   2  25
HETATM   25  O2  UNL     1      -3.240   1.221   0.197  1.00  0.00    -0.385 OA
HETATM   26  C6  UNL     1      -4.424   0.914   0.901  1.00  0.00     0.202 C 
ENDBRANCH   2  25
BRANCH  13  27
HETATM   27  O3  UNL     1       3.211  -0.051   1.705  1.00  0.00    -0.337 OA
BRANCH  27  28
HETATM   28  C16 UNL     1       4.515  -0.483   1.748  1.00  0.00     0.193 A 
HETATM   29  C17 UNL     1       4.919  -0.883   3.132  1.00  0.00     0.030 A 
HETATM   30  C18 UNL     1       5.949  -0.132   3.532  1.00  0.00     0.115 A 
HETATM   31  N5  UNL     1       6.289   0.773   2.504  1.00  0.00    -0.274 NA
HETATM   32  C19 UNL     1       5.501   0.604   1.480  1.00  0.00     0.125 A 
ENDBRANCH  27  28
ENDBRANCH  13  27
TORSDOF 6
