REMARK  7 active torsions:
REMARK  status: ('A' for Active; 'I' for Inactive)
REMARK    1  A    between atoms: C4_5  and  C5_6 
REMARK    2  A    between atoms: C4_5  and  C7_9 
REMARK    3  A    between atoms: C5_6  and  O2_7 
REMARK    4  A    between atoms: C9_11  and  C10_12 
REMARK    5  A    between atoms: N2_19  and  N3_20 
REMARK    6  A    between atoms: C18_24  and  C19_25 
REMARK    7  A    between atoms: C19_25  and  N5_26 
ROOT
HETATM    1  C7  UNL     1      -1.030  -0.901   0.455  1.00  0.00    -0.001 A 
HETATM    2  C8  UNL     1       0.117  -0.263  -0.211  1.00  0.00     0.024 A 
HETATM    3  C9  UNL     1       1.199  -0.945  -0.520  1.00  0.00    -0.027 A 
HETATM    4  C17 UNL     1       1.353  -2.387  -0.237  1.00  0.00     0.188 A 
HETATM    5  N4  UNL     1       0.233  -2.973   0.405  1.00  0.00    -0.287 NA
HETATM    6  C18 UNL     1      -0.816  -2.303   0.707  1.00  0.00     0.067 A 
ENDROOT
BRANCH   3   7
HETATM    7  C10 UNL     1       2.353  -0.348  -1.176  1.00  0.00    -0.027 A 
HETATM    8  C11 UNL     1       3.494  -1.054  -1.489  1.00  0.00     0.014 A 
HETATM    9  C12 UNL     1       4.619  -0.560  -2.103  1.00  0.00     0.035 A 
HETATM   10  C13 UNL     1       4.625   0.774  -2.448  1.00  0.00     0.088 A 
HETATM   11  C14 UNL     1       3.530   1.569  -2.178  1.00  0.00     0.014 A 
HETATM   12  N2  UNL     1       5.553   1.553  -3.049  1.00  0.00    -0.180 N 
HETATM   13  C15 UNL     1       3.817   2.840  -2.627  1.00  0.00     0.154 A 
HETATM   14  C16 UNL     1       2.426   0.978  -1.548  1.00  0.00     0.027 A 
HETATM   15  N1  UNL     1       5.070   2.784  -3.155  1.00  0.00    -0.163 NA
BRANCH  12  16
HETATM   16  N3  UNL     1       6.822   1.183  -3.502  1.00  0.00    -0.322 N 
HETATM   17  H15 UNL     1       7.496   1.290  -2.699  1.00  0.00     0.179 HD
HETATM   18  H16 UNL     1       6.998   0.861  -4.493  1.00  0.00     0.179 HD
ENDBRANCH  12  16
ENDBRANCH   3   7
BRANCH   1  19
HETATM   19  C4  UNL     1      -2.019  -0.077   0.691  1.00  0.00    -0.015 C 
HETATM   20  C3  UNL     1      -3.281  -0.386   1.326  1.00  0.00    -0.042 A 
HETATM   21  C2  UNL     1      -4.479  -0.883   1.980  1.00  0.00     0.035 A 
HETATM   22  O1  UNL     1      -4.178   0.508   1.497  1.00  0.00     0.000 OA
HETATM   23  C1  UNL     1      -5.597   0.104   2.154  1.00  0.00     0.010 A 
BRANCH  19  24
HETATM   24  C5  UNL     1      -2.074   1.361   0.372  1.00  0.00     0.207 C 
BRANCH  24  25
HETATM   25  O2  UNL     1      -2.256   2.059   1.598  1.00  0.00    -0.391 OA
HETATM   26  C6  UNL     1      -2.316   3.429   1.357  1.00  0.00     0.201 C 
ENDBRANCH  24  25
ENDBRANCH  19  24
ENDBRANCH   1  19
BRANCH   6  27
HETATM   27  C19 UNL     1      -1.892  -3.021   1.399  1.00  0.00     0.326 C 
BRANCH  27  28
HETATM   28  N5  UNL     1      -1.860  -2.597   2.789  1.00  0.00     0.083 N 
HETATM   29  H22 UNL     1      -0.917  -2.263   3.085  1.00  0.00     0.313 HD
HETATM   30  H23 UNL     1      -2.141  -3.416   3.375  1.00  0.00     0.313 HD
ENDBRANCH  27  28
ENDBRANCH   6  27
TORSDOF 7
