REMARK  3 active torsions:
REMARK  status: ('A' for Active; 'I' for Inactive)
REMARK    1  A    between atoms: C2_2  and  C3_3 
REMARK       I    between atoms: C3_3  and  N1_5 
REMARK    2  A    between atoms: N1_5  and  C4_6 
REMARK    3  A    between atoms: C9_11  and  O2_12 
ROOT
HETATM    1  C4  UNL     1       2.515   0.151   0.524  1.00  0.00     0.070 A 
HETATM    2  C5  UNL     1       1.399  -0.647   0.511  1.00  0.00     0.066 A 
HETATM    3  C6  UNL     1       0.137  -0.186   0.206  1.00  0.00     0.082 A 
HETATM    4  C7  UNL     1       0.005   1.180  -0.106  1.00  0.00     0.088 A 
HETATM    5  C8  UNL     1       1.116   2.000  -0.098  1.00  0.00     0.073 A 
HETATM    6  C9  UNL     1       2.344   1.484   0.213  1.00  0.00     0.097 A 
HETATM    7  N2  UNL     1      -1.092   1.766  -0.412  1.00  0.00    -0.245 N 
HETATM    8  C11 UNL     1      -1.338   3.106  -0.737  1.00  0.00     0.227 A 
HETATM    9  N3  UNL     1      -2.302   2.276  -0.594  1.00  0.00    -0.278 N 
HETATM   10  C12 UNL     1      -3.698   2.459  -0.709  1.00  0.00     0.152 C 
HETATM   11  C13 UNL     1      -4.404   1.209  -1.271  1.00  0.00     0.047 C 
HETATM   12  C14 UNL     1      -4.080   0.089  -0.345  1.00  0.00     0.103 C 
HETATM   13  C15 UNL     1      -3.249  -0.932  -1.090  1.00  0.00     0.022 C 
HETATM   14  C16 UNL     1      -3.164  -1.677   0.040  1.00  0.00     0.040 C 
HETATM   15  C17 UNL     1      -1.670  -1.875   0.263  1.00  0.00     0.207 C 
HETATM   16  N4  UNL     1      -1.001  -0.638   0.113  1.00  0.00    -0.281 NA
HETATM   17  N5  UNL     1      -4.513  -1.923   0.504  1.00  0.00    -0.319 N 
HETATM   18  C18 UNL     1      -4.625  -3.148   1.279  1.00  0.00     0.171 C 
HETATM   19  N6  UNL     1      -5.205  -0.788  -0.024  1.00  0.00    -0.230 NA
HETATM   20  H24 UNL     1      -5.637  -1.014  -0.952  1.00  0.00     0.147 HD
ENDROOT
BRANCH   1  21
HETATM   21  N1  UNL     1       3.712  -0.529   0.865  1.00  0.00    -0.325 N 
HETATM   22  C3  UNL     1       4.558  -1.146  -0.084  1.00  0.00     0.221 C 
HETATM   23  O1  UNL     1       4.225  -1.082  -1.283  1.00  0.00    -0.273 OA
HETATM   24  H6  UNL     1       3.812  -0.472   1.893  1.00  0.00     0.169 HD
BRANCH  22  25
HETATM   25  C2  UNL     1       5.754  -1.793   0.551  1.00  0.00     0.098 C 
HETATM   26  C1  UNL     1       6.627  -2.437  -0.505  1.00  0.00     0.014 C 
ENDBRANCH  22  25
ENDBRANCH   1  21
BRANCH   6  27
HETATM   27  O2  UNL     1       3.530   2.239   0.247  1.00  0.00    -0.354 OA
HETATM   28  C10 UNL     1       3.394   3.622  -0.069  1.00  0.00     0.210 C 
ENDBRANCH   6  27
TORSDOF 3
