REMARK  5 active torsions:
REMARK  status: ('A' for Active; 'I' for Inactive)
REMARK    1  A    between atoms: C2_2  and  C3_3 
REMARK    2  A    between atoms: C3_3  and  P1_5 
REMARK    3  A    between atoms: C8_12  and  N3_13 
REMARK    4  A    between atoms: N5_21  and  N6_22 
REMARK    5  A    between atoms: C16_24  and  O2_25 
ROOT
HETATM    1  P1  UNL     1      -1.716   0.466  -1.532  1.00  0.00    -0.006 P 
HETATM    2  C4  UNL     1      -0.365   0.453  -0.643  1.00  0.00     0.030 A 
HETATM    3  C5  UNL     1      -0.263   1.280   0.526  1.00  0.00     0.040 A 
HETATM    4  C6  UNL     1      -1.235   2.126   0.991  1.00  0.00     0.075 A 
HETATM    5  N1  UNL     1      -1.005   2.842   2.104  1.00  0.00    -0.241 NA
HETATM    6  C7  UNL     1       0.138   2.772   2.797  1.00  0.00     0.236 A 
HETATM    7  N2  UNL     1       1.122   1.934   2.351  1.00  0.00    -0.223 NA
HETATM    8  C8  UNL     1       0.909   1.200   1.223  1.00  0.00     0.147 A 
HETATM    9  C15 UNL     1      -2.488   2.250   0.303  1.00  0.00     0.070 A 
HETATM   10  C16 UNL     1      -2.861   1.626  -0.778  1.00  0.00     0.077 A 
HETATM   11  H6  UNL     1      -1.375   0.840  -2.836  1.00  0.00     0.071 HD
ENDROOT
BRANCH   8  12
HETATM   12  N3  UNL     1       2.053   0.420   0.915  1.00  0.00    -0.316 N 
HETATM   13  C9  UNL     1       3.305   1.051   0.645  1.00  0.00     0.096 A 
HETATM   14  C10 UNL     1       4.404   0.350   0.344  1.00  0.00     0.024 A 
HETATM   15  C11 UNL     1       4.433  -1.118   0.267  1.00  0.00     0.183 A 
HETATM   16  C12 UNL     1       3.035  -1.610   0.566  1.00  0.00     0.007 A 
HETATM   17  N5  UNL     1       4.736  -1.734  -0.964  1.00  0.00    -0.223 N 
HETATM   18  C13 UNL     1       1.910  -0.994   0.870  1.00  0.00     0.109 A 
HETATM   19  C14 UNL     1       3.392  -3.007   0.307  1.00  0.00     0.151 C 
HETATM   20  N4  UNL     1       4.370  -3.043  -0.573  1.00  0.00    -0.172 NA
BRANCH  17  21
HETATM   21  N6  UNL     1       5.234  -1.036  -2.068  1.00  0.00    -0.230 NA
HETATM   22  H14 UNL     1       5.550  -1.685  -2.830  1.00  0.00     0.144 HD
HETATM   23  H15 UNL     1       5.991  -0.370  -1.782  1.00  0.00     0.144 HD
ENDBRANCH  17  21
ENDBRANCH   8  12
BRANCH   1  24
HETATM   24  C3  UNL     1      -2.472  -1.178  -1.506  1.00  0.00     0.154 C 
HETATM   25  O1  UNL     1      -2.779  -2.184  -2.162  1.00  0.00    -0.293 OA
BRANCH  24  26
HETATM   26  C2  UNL     1      -2.916  -1.431  -0.083  1.00  0.00     0.079 C 
HETATM   27  C1  UNL     1      -3.561  -2.790  -0.029  1.00  0.00     0.013 C 
ENDBRANCH  24  26
ENDBRANCH   1  24
BRANCH  10  28
HETATM   28  O2  UNL     1      -4.060   1.755  -1.424  1.00  0.00    -0.355 OA
HETATM   29  C17 UNL     1      -5.186   2.426  -0.862  1.00  0.00     0.210 C 
ENDBRANCH  10  28
TORSDOF 5
