REMARK  6 active torsions:
REMARK  status: ('A' for Active; 'I' for Inactive)
REMARK    1  A    between atoms: C2_2  and  C3_3 
REMARK    2  A    between atoms: C3_3  and  C4_5 
REMARK    3  A    between atoms: C7_8  and  N1_9 
REMARK    4  A    between atoms: N1_9  and  C8_10 
REMARK    5  A    between atoms: C17_23  and  C18_24 
REMARK    6  A    between atoms: C18_24  and  N4_25 
ROOT
HETATM    1  C4  UNL     1      -1.777  -0.363  -0.006  1.00  0.00     0.019 A 
HETATM    2  C5  UNL     1      -0.517  -0.304   0.550  1.00  0.00     0.033 A 
HETATM    3  C6  UNL     1       0.210  -1.458   0.379  1.00  0.00     0.040 A 
HETATM    4  C7  UNL     1       1.517  -1.592   0.877  1.00  0.00     0.142 A 
HETATM    5  N2  UNL     1       2.255  -2.698   0.733  1.00  0.00    -0.224 NA
HETATM    6  C14 UNL     1       1.766  -3.766   0.085  1.00  0.00     0.236 A 
HETATM    7  N3  UNL     1       0.499  -3.705  -0.426  1.00  0.00    -0.241 NA
HETATM    8  C15 UNL     1      -0.221  -2.583  -0.268  1.00  0.00     0.072 A 
HETATM    9  C16 UNL     1      -1.489  -2.554  -0.790  1.00  0.00     0.042 A 
HETATM   10  C17 UNL     1      -2.324  -1.432  -0.678  1.00  0.00    -0.015 A 
ENDROOT
BRANCH   4  11
HETATM   11  N1  UNL     1       2.094  -0.493   1.562  1.00  0.00    -0.340 N 
HETATM   12  H7  UNL     1       1.730  -0.449   2.556  1.00  0.00     0.167 HD
BRANCH  11  13
HETATM   13  C8  UNL     1       3.022   0.431   1.022  1.00  0.00     0.035 A 
HETATM   14  C9  UNL     1       3.561   1.561   1.640  1.00  0.00     0.032 A 
HETATM   15  C10 UNL     1       4.474   2.345   0.978  1.00  0.00     0.046 A 
HETATM   16  C11 UNL     1       4.850   2.001  -0.306  1.00  0.00     0.138 A 
HETATM   17  F1  UNL     1       5.765   2.794  -0.944  1.00  0.00    -0.204 F 
HETATM   18  C12 UNL     1       4.346   0.896  -0.960  1.00  0.00     0.074 A 
HETATM   19 CL1  UNL     1       4.881   0.538  -2.595  1.00  0.00    -0.081 Cl
HETATM   20  C13 UNL     1       3.431   0.123  -0.277  1.00  0.00     0.056 A 
ENDBRANCH  11  13
ENDBRANCH   4  11
BRANCH   1  21
HETATM   21  C3  UNL     1      -2.617   0.818   0.103  1.00  0.00     0.159 C 
HETATM   22  O1  UNL     1      -3.778   1.017  -0.330  1.00  0.00    -0.292 OA
BRANCH  21  23
HETATM   23  C2  UNL     1      -2.204   2.048   0.786  1.00  0.00     0.079 C 
HETATM   24  C1  UNL     1      -3.251   3.149   0.662  1.00  0.00     0.013 C 
ENDBRANCH  21  23
ENDBRANCH   1  21
BRANCH  10  25
HETATM   25  C18 UNL     1      -3.692  -1.429  -1.245  1.00  0.00     0.306 C 
BRANCH  25  26
HETATM   26  N4  UNL     1      -3.784  -0.655  -2.461  1.00  0.00     0.082 N 
HETATM   27  H15 UNL     1      -4.785  -0.696  -2.767  1.00  0.00     0.313 HD
HETATM   28  H16 UNL     1      -3.220  -1.106  -3.204  1.00  0.00     0.313 HD
ENDBRANCH  25  26
ENDBRANCH  10  25
TORSDOF 6
