REMARK  6 active torsions:
REMARK  status: ('A' for Active; 'I' for Inactive)
REMARK    1  A    between atoms: O1_2  and  C2_3 
REMARK    2  A    between atoms: C5_6  and  N1_7 
REMARK    3  A    between atoms: C5_6  and  N3_10 
REMARK    4  A    between atoms: C6_8  and  N2_9 
REMARK    5  A    between atoms: N3_10  and  C7_11 
REMARK    6  A    between atoms: C14_20  and  N4_21 
REMARK       I    between atoms: N4_21  and  C15_22 
ROOT
HETATM    1  C2  UNL     1      -2.254  -1.407  -0.347  1.00  0.00     0.091 A 
HETATM    2  C3  UNL     1      -1.177  -1.703  -1.062  1.00  0.00     0.017 A 
HETATM    3  C4  UNL     1       0.168  -1.131  -0.984  1.00  0.00     0.090 A 
HETATM    4  C5  UNL     1       0.356  -0.070   0.040  1.00  0.00     0.149 A 
HETATM    5  C13 UNL     1      -0.869   0.231   0.818  1.00  0.00     0.061 A 
HETATM    6  C14 UNL     1      -2.051  -0.352   0.666  1.00  0.00     0.068 A 
ENDROOT
BRANCH   4   7
HETATM    7  N1  UNL     1       0.765   1.186  -0.592  1.00  0.00    -0.254 NA
HETATM    8  C6  UNL     1       0.715   1.353  -1.862  1.00  0.00     0.170 C 
BRANCH   8   9
HETATM    9  N2  UNL     1       1.217   2.601  -1.416  1.00  0.00    -0.297 NA
HETATM   10  H8  UNL     1       1.969   3.060  -2.000  1.00  0.00     0.124 HD
HETATM   11  H9  UNL     1       1.707   3.517  -1.248  1.00  0.00     0.124 HD
ENDBRANCH   8   9
ENDBRANCH   4   7
BRANCH   4  12
HETATM   12  N3  UNL     1       1.395  -0.379   1.021  1.00  0.00    -0.367 N 
HETATM   13  H10 UNL     1       1.231  -0.458   2.054  1.00  0.00     0.161 HD
BRANCH  12  14
HETATM   14  C7  UNL     1       2.685  -0.575   0.503  1.00  0.00     0.097 C 
HETATM   15  C8  UNL     1       3.711   0.225   0.359  1.00  0.00    -0.014 A 
HETATM   16  C9  UNL     1       3.586   1.612   0.790  1.00  0.00     0.037 A 
HETATM   17  C12 UNL     1       4.907  -0.361  -0.234  1.00  0.00     0.082 A 
HETATM   18  C10 UNL     1       4.699   2.338   0.593  1.00  0.00     0.146 A 
HETATM   19  O2  UNL     1       5.858   1.797   0.026  1.00  0.00    -0.297 OA
HETATM   20  C11 UNL     1       5.954   0.468  -0.379  1.00  0.00     0.230 A 
HETATM   21  F1  UNL     1       7.122   0.031  -0.920  1.00  0.00    -0.178 F 
ENDBRANCH  12  14
ENDBRANCH   4  12
BRANCH   6  22
HETATM   22  N4  UNL     1      -3.170   0.018   1.475  1.00  0.00    -0.325 N 
HETATM   23  C15 UNL     1      -3.820  -0.943   2.312  1.00  0.00     0.218 C 
HETATM   24  C16 UNL     1      -4.983  -0.474   3.126  1.00  0.00     0.117 C 
HETATM   25  O3  UNL     1      -3.483  -2.155   2.412  1.00  0.00    -0.274 OA
HETATM   26  H16 UNL     1      -3.525   1.001   1.461  1.00  0.00     0.169 HD
ENDBRANCH   6  22
BRANCH   1  27
HETATM   27  O1  UNL     1      -3.522  -1.982  -0.457  1.00  0.00    -0.354 OA
HETATM   28  C1  UNL     1      -4.418  -1.553  -1.480  1.00  0.00     0.210 C 
ENDBRANCH   1  27
TORSDOF 6
