REMARK  3 active torsions:
REMARK  status: ('A' for Active; 'I' for Inactive)
REMARK    1  A    between atoms: C2_2  and  C3_3 
REMARK       I    between atoms: C3_3  and  N1_5 
REMARK    2  A    between atoms: N1_5  and  C4_6 
REMARK    3  A    between atoms: C11_15  and  C12_16 
ROOT
HETATM    1  C4  UNL     1      -0.091  -0.133   0.397  1.00  0.00     0.034 C 
HETATM    2  C5  UNL     1      -0.752  -1.213   0.780  1.00  0.00     0.115 C 
HETATM    3  C6  UNL     1      -2.043  -1.845   1.124  1.00  0.00     0.161 C 
HETATM    4  N2  UNL     1      -2.972  -1.983   0.017  1.00  0.00    -0.272 NA
HETATM    5  C7  UNL     1      -3.631  -0.986  -0.558  1.00  0.00     0.228 C 
HETATM    6  N3  UNL     1      -3.831   0.402  -0.121  1.00  0.00    -0.243 NA
HETATM    7  C8  UNL     1      -3.062   0.995   0.781  1.00  0.00     0.059 C 
HETATM    8  C9  UNL     1      -2.324   2.204   0.330  1.00  0.00     0.028 C 
HETATM    9  C10 UNL     1      -1.035   2.141   0.059  1.00  0.00    -0.014 C 
HETATM   10  C11 UNL     1       0.158   1.274   0.001  1.00  0.00     0.056 C 
HETATM   11  C14 UNL     1      -3.098   0.248   2.077  1.00  0.00     0.053 C 
HETATM   12  C15 UNL     1      -2.648  -1.025   2.249  1.00  0.00     0.039 C 
HETATM   13 CL1  UNL     1      -2.821  -1.632   3.851  1.00  0.00    -0.087 Cl
ENDROOT
BRANCH   1  14
HETATM   14  N1  UNL     1       1.188  -0.768   0.398  1.00  0.00    -0.355 N 
HETATM   15  C3  UNL     1       1.936  -0.842  -0.805  1.00  0.00     0.217 C 
HETATM   16  O1  UNL     1       1.797  -0.475  -2.003  1.00  0.00    -0.274 OA
HETATM   17  H6  UNL     1       1.812  -1.253   1.115  1.00  0.00     0.162 HD
BRANCH  15  18
HETATM   18  C2  UNL     1       3.264  -1.435  -1.078  1.00  0.00     0.098 C 
HETATM   19  C1  UNL     1       3.688  -1.290  -2.501  1.00  0.00     0.014 C 
ENDBRANCH  15  18
ENDBRANCH   1  14
BRANCH  10  20
HETATM   20  C12 UNL     1       1.151   1.917   0.949  1.00  0.00     0.013 C 
HETATM   21  C13 UNL     1       2.343   2.432   0.585  1.00  0.00     0.185 C 
HETATM   22  F1  UNL     1       2.541   2.300  -0.750  1.00  0.00    -0.220 F 
ENDBRANCH  10  20
TORSDOF 3
