REMARK  5 active torsions:
REMARK  status: ('A' for Active; 'I' for Inactive)
REMARK    1  A    between atoms: C2_2  and  C3_3 
REMARK       I    between atoms: C3_3  and  N1_5 
REMARK    2  A    between atoms: N1_5  and  C4_6 
REMARK    3  A    between atoms: C7_9  and  N2_10 
REMARK    4  A    between atoms: N2_10  and  C8_11 
REMARK    5  A    between atoms: C16_23  and  O2_24 
ROOT
HETATM    1  C4  UNL     1      -1.748   0.151  -0.477  1.00  0.00     0.069 A 
HETATM    2  C5  UNL     1      -0.358   0.144  -0.426  1.00  0.00     0.050 A 
HETATM    3  C6  UNL     1       0.344   1.190   0.118  1.00  0.00     0.041 A 
HETATM    4  C7  UNL     1       1.723   1.109   0.132  1.00  0.00     0.141 A 
HETATM    5  N3  UNL     1       2.422   2.125   0.661  1.00  0.00    -0.224 NA
HETATM    6  C13 UNL     1       1.748   3.180   1.157  1.00  0.00     0.236 A 
HETATM    7  N4  UNL     1       0.388   3.294   1.160  1.00  0.00    -0.241 NA
HETATM    8  C14 UNL     1      -0.343   2.273   0.627  1.00  0.00     0.075 A 
HETATM    9  C15 UNL     1      -1.707   2.289   0.582  1.00  0.00     0.071 A 
HETATM   10  C16 UNL     1      -2.428   1.243   0.037  1.00  0.00     0.097 A 
ENDROOT
BRANCH   4  11
HETATM   11  N2  UNL     1       2.478   0.035  -0.369  1.00  0.00    -0.342 N 
HETATM   12  H8  UNL     1       2.183  -0.854  -0.821  1.00  0.00     0.167 HD
BRANCH  11  13
HETATM   13  C8  UNL     1       3.907  -0.032  -0.347  1.00  0.00     0.036 A 
HETATM   14  C9  UNL     1       4.530   1.110  -0.660  1.00  0.00     0.030 A 
HETATM   15  C10 UNL     1       5.971   0.894  -0.596  1.00  0.00     0.042 A 
HETATM   16  C11 UNL     1       6.179  -0.363  -0.250  1.00  0.00     0.118 A 
HETATM   17  F1  UNL     1       7.279  -1.149  -0.031  1.00  0.00    -0.209 F 
HETATM   18  C12 UNL     1       4.901  -1.085  -0.055  1.00  0.00     0.194 A 
HETATM   19 CL1  UNL     1       4.795  -1.641   1.620  1.00  0.00    -0.111 Cl
ENDBRANCH  11  13
ENDBRANCH   4  11
BRANCH   1  20
HETATM   20  N1  UNL     1      -2.416  -0.985  -1.064  1.00  0.00    -0.325 N 
HETATM   21  C3  UNL     1      -2.751  -2.039  -0.182  1.00  0.00     0.221 C 
HETATM   22  O1  UNL     1      -2.457  -1.939   1.041  1.00  0.00    -0.273 OA
HETATM   23  H6  UNL     1      -2.622  -0.983  -2.093  1.00  0.00     0.169 HD
BRANCH  21  24
HETATM   24  C2  UNL     1      -3.450  -3.241  -0.760  1.00  0.00     0.098 C 
HETATM   25  C1  UNL     1      -3.736  -4.268   0.295  1.00  0.00     0.014 C 
ENDBRANCH  21  24
ENDBRANCH   1  20
BRANCH  10  26
HETATM   26  O2  UNL     1      -3.826   1.243  -0.018  1.00  0.00    -0.354 OA
HETATM   27  C17 UNL     1      -4.537   2.370   0.512  1.00  0.00     0.210 C 
ENDBRANCH  10  26
TORSDOF 5
