REMARK  4 active torsions:
REMARK  status: ('A' for Active; 'I' for Inactive)
REMARK    1  A    between atoms: C2_2  and  C3_3 
REMARK       I    between atoms: C3_3  and  N1_5 
REMARK    2  A    between atoms: N1_5  and  C4_6 
REMARK    3  A    between atoms: N4_13  and  C9_14 
REMARK    4  A    between atoms: C16_23  and  O2_24 
ROOT
HETATM    1  C4  UNL     1      -0.807   0.877   1.142  1.00  0.00     0.161 C 
HETATM    2  N2  UNL     1       0.057   0.269   0.376  1.00  0.00    -0.237 NA
HETATM    3  C5  UNL     1       1.323   0.950   0.199  1.00  0.00     0.267 A 
HETATM    4  C6  UNL     1       1.156   2.385   0.385  1.00  0.00     0.081 A 
HETATM    5  N3  UNL     1       1.797   3.266  -0.333  1.00  0.00    -0.260 NA
HETATM    6  C7  UNL     1       2.679   2.814  -1.350  1.00  0.00     0.134 A 
HETATM    7  C8  UNL     1       2.840   1.522  -1.585  1.00  0.00     0.113 A 
HETATM    8  N4  UNL     1       2.149   0.515  -0.858  1.00  0.00    -0.326 N 
HETATM    9  C15 UNL     1       0.206   3.028   1.287  1.00  0.00     0.072 C 
HETATM   10  C16 UNL     1      -0.833   2.256   1.680  1.00  0.00     0.116 C 
ENDROOT
BRANCH   8  11
HETATM   11  C9  UNL     1       2.293  -0.854  -1.194  1.00  0.00     0.038 A 
HETATM   12  C10 UNL     1       1.812  -1.905  -0.445  1.00  0.00     0.033 A 
HETATM   13  C11 UNL     1       1.937  -3.238  -0.762  1.00  0.00     0.046 A 
HETATM   14  C12 UNL     1       2.598  -3.577  -1.924  1.00  0.00     0.138 A 
HETATM   15  F1  UNL     1       2.732  -4.882  -2.255  1.00  0.00    -0.204 F 
HETATM   16  C13 UNL     1       3.107  -2.575  -2.724  1.00  0.00     0.074 A 
HETATM   17 CL1  UNL     1       3.929  -3.064  -4.175  1.00  0.00    -0.081 Cl
HETATM   18  C14 UNL     1       2.942  -1.262  -2.340  1.00  0.00     0.056 A 
ENDBRANCH   8  11
BRANCH   1  19
HETATM   19  N1  UNL     1      -2.081   0.231   1.373  1.00  0.00    -0.310 N 
HETATM   20  C3  UNL     1      -2.322  -1.036   0.750  1.00  0.00     0.222 C 
HETATM   21  O1  UNL     1      -1.464  -1.597   0.014  1.00  0.00    -0.273 OA
HETATM   22  H6  UNL     1      -2.864   0.601   1.962  1.00  0.00     0.170 HD
BRANCH  20  23
HETATM   23  C2  UNL     1      -3.634  -1.735   0.968  1.00  0.00     0.099 C 
HETATM   24  C1  UNL     1      -3.664  -3.034   0.225  1.00  0.00     0.014 C 
ENDBRANCH  20  23
ENDBRANCH   1  19
BRANCH  10  25
HETATM   25  O2  UNL     1      -1.816   2.745   2.513  1.00  0.00    -0.352 OA
HETATM   26  C17 UNL     1      -2.422   3.980   2.188  1.00  0.00     0.210 C 
ENDBRANCH  10  25
TORSDOF 4
