REMARK  5 active torsions:
REMARK  status: ('A' for Active; 'I' for Inactive)
REMARK    1  A    between atoms: C2_2  and  C3_3 
REMARK       I    between atoms: C3_3  and  N1_5 
REMARK    2  A    between atoms: N1_5  and  C4_6 
REMARK    3  A    between atoms: C17_22  and  N3_23 
REMARK    4  A    between atoms: N3_23  and  N4_24 
REMARK    5  A    between atoms: N4_24  and  O2_25 
ROOT
HETATM    1  C4  UNL     1       0.522  -0.283   0.292  1.00  0.00     0.041 A 
HETATM    2  C5  UNL     1      -0.162  -1.034   1.103  1.00  0.00     0.038 A 
HETATM    3  C6  UNL     1      -0.435  -1.887   0.014  1.00  0.00    -0.012 A 
HETATM    4  C7  UNL     1      -1.658  -2.452  -0.099  1.00  0.00     0.175 A 
HETATM    5  N2  UNL     1      -2.301  -1.887   1.049  1.00  0.00    -0.305 NA
HETATM    6  C8  UNL     1      -2.567  -0.612   1.193  1.00  0.00     0.157 C 
HETATM    7  C9  UNL     1      -2.733   0.867   1.065  1.00  0.00     0.046 C 
HETATM    8  C10 UNL     1      -2.594   2.081   0.496  1.00  0.00     0.136 C 
HETATM    9  F1  UNL     1      -3.260   2.926   1.356  1.00  0.00    -0.205 F 
HETATM   10  C11 UNL     1      -1.911   2.769  -0.563  1.00  0.00     0.068 C 
HETATM   11 CL1  UNL     1      -2.271   4.434  -0.805  1.00  0.00    -0.081 Cl
HETATM   12  C12 UNL     1      -1.009   2.580  -1.556  1.00  0.00     0.000 C 
HETATM   13  C13 UNL     1      -0.627   1.209  -1.476  1.00  0.00     0.033 C 
HETATM   14  C14 UNL     1       0.855   0.788  -1.572  1.00  0.00     0.044 C 
HETATM   15  C15 UNL     1       0.622  -0.679  -1.098  1.00  0.00    -0.032 A 
HETATM   16  C16 UNL     1       0.378  -1.482  -2.086  1.00  0.00     0.024 A 
HETATM   17  C17 UNL     1      -0.455  -2.453  -1.308  1.00  0.00     0.144 A 
ENDROOT
BRANCH   1  18
HETATM   18  N1  UNL     1       0.958   0.711   1.156  1.00  0.00    -0.327 N 
HETATM   19  C3  UNL     1       2.371   0.826   1.307  1.00  0.00     0.221 C 
HETATM   20  O1  UNL     1       3.320   0.196   0.804  1.00  0.00    -0.273 OA
HETATM   21  H6  UNL     1       0.355   1.367   1.676  1.00  0.00     0.169 HD
BRANCH  19  22
HETATM   22  C2  UNL     1       2.887   1.880   2.231  1.00  0.00     0.098 C 
HETATM   23  C1  UNL     1       4.379   1.898   2.329  1.00  0.00     0.014 C 
ENDBRANCH  19  22
ENDBRANCH   1  18
BRANCH  17  24
HETATM   24  N3  UNL     1      -0.656  -3.176  -2.312  1.00  0.00    -0.174 NA
BRANCH  24  25
HETATM   25  N4  UNL     1      -1.403  -4.355  -2.307  1.00  0.00    -0.191 N 
HETATM   26  H17 UNL     1      -2.374  -4.771  -2.461  1.00  0.00     0.217 HD
BRANCH  25  27
HETATM   27  O2  UNL     1      -0.641  -5.401  -1.995  1.00  0.00    -0.273 OA
HETATM   28  H18 UNL     1      -0.992  -5.985  -1.274  1.00  0.00     0.246 HD
ENDBRANCH  25  27
ENDBRANCH  24  25
ENDBRANCH  17  24
TORSDOF 5
