REMARK  6 active torsions:
REMARK  status: ('A' for Active; 'I' for Inactive)
REMARK    1  A    between atoms: C2_2  and  N1_3 
REMARK    2  A    between atoms: N1_3  and  C3_4 
REMARK    3  A    between atoms: C3_4  and  C5_6 
REMARK    4  A    between atoms: C9_13  and  C10_15 
REMARK    5  A    between atoms: C10_15  and  N4_16 
REMARK    6  A    between atoms: N4_16  and  C11_17 
ROOT
HETATM    1  C1  UNL     1      -3.526  -0.882   1.259  1.00  0.00     0.068 C 
HETATM    2  C2  UNL     1      -2.092  -0.663   0.884  1.00  0.00     0.014 C 
HETATM    3  C6  UNL     1      -1.240  -1.685   0.960  1.00  0.00     0.044 A 
HETATM    4  C7  UNL     1      -1.927  -2.910   1.430  1.00  0.00     0.132 A 
HETATM    5  N2  UNL     1      -1.145  -3.961   1.599  1.00  0.00    -0.254 NA
HETATM    6  C8  UNL     1       0.253  -3.819   1.310  1.00  0.00     0.230 A 
HETATM    7  N3  UNL     1       0.873  -2.799   0.895  1.00  0.00    -0.233 NA
HETATM    8  C9  UNL     1       0.200  -1.551   0.632  1.00  0.00     0.243 A 
HETATM    9  F1  UNL     1       0.698  -0.651   1.545  1.00  0.00    -0.210 F 
ENDROOT
BRANCH   8  10
HETATM   10  C10 UNL     1       0.404  -1.138  -0.816  1.00  0.00     0.194 C 
BRANCH  10  11
HETATM   11  N4  UNL     1       1.774  -1.000  -1.177  1.00  0.00    -0.385 N 
HETATM   12  H14 UNL     1       2.164  -1.784  -1.791  1.00  0.00     0.159 HD
BRANCH  11  13
HETATM   13  C11 UNL     1       2.785  -0.059  -0.920  1.00  0.00     0.029 A 
HETATM   14  C12 UNL     1       4.116  -0.173  -1.343  1.00  0.00     0.029 A 
HETATM   15  C13 UNL     1       5.048   0.800  -1.078  1.00  0.00     0.004 A 
HETATM   16  C14 UNL     1       4.736   1.947  -0.382  1.00  0.00     0.024 A 
HETATM   17  C15 UNL     1       3.433   2.093   0.050  1.00  0.00     0.036 A 
HETATM   18 CL1  UNL     1       3.097   3.566   0.926  1.00  0.00    -0.084 Cl
HETATM   19  C16 UNL     1       2.514   1.103  -0.228  1.00  0.00     0.052 A 
ENDBRANCH  11  13
ENDBRANCH  10  11
ENDBRANCH   8  10
BRANCH   2  20
HETATM   20  N1  UNL     1      -1.811   0.689   0.479  1.00  0.00    -0.386 N 
HETATM   21  H4  UNL     1      -1.051   0.895   1.176  1.00  0.00     0.160 HD
BRANCH  20  22
HETATM   22  C3  UNL     1      -2.266   1.639  -0.491  1.00  0.00     0.111 C 
HETATM   23  C4  UNL     1      -3.702   2.032  -0.396  1.00  0.00     0.035 C 
BRANCH  22  24
HETATM   24  C5  UNL     1      -1.350   2.821  -0.389  1.00  0.00     0.415 C 
HETATM   25  O1  UNL     1      -0.386   3.320   0.165  1.00  0.00    -0.428 OA
ENDBRANCH  22  24
ENDBRANCH  20  22
ENDBRANCH   2  20
TORSDOF 6
