REMARK  3 active torsions:
REMARK  status: ('A' for Active; 'I' for Inactive)
REMARK    1  A    between atoms: C2_2  and  C3_3 
REMARK       I    between atoms: C3_3  and  N1_5 
REMARK    2  A    between atoms: C9_11  and  N2_12 
REMARK    3  A    between atoms: S1_21  and  O2_22 
ROOT
HETATM    1  C3  UNL     1       1.595  -1.273  -0.395  1.00  0.00     0.220 C 
HETATM    2  O1  UNL     1       0.740  -2.181  -0.425  1.00  0.00    -0.273 OA
HETATM    3  N1  UNL     1       1.314   0.110  -0.696  1.00  0.00    -0.337 N 
HETATM    4  C4  UNL     1       2.455   0.961  -0.579  1.00  0.00     0.149 C 
HETATM    5  C5  UNL     1       2.279   2.369  -1.059  1.00  0.00     0.127 C 
HETATM    6  C6  UNL     1       1.188   2.355  -2.100  1.00  0.00    -0.009 C 
HETATM    7  C7  UNL     1       0.062   1.673  -1.904  1.00  0.00     0.002 C 
HETATM    8  C8  UNL     1      -0.039   0.424  -1.060  1.00  0.00     0.161 C 
HETATM    9  C9  UNL     1      -0.907   0.762   0.129  1.00  0.00     0.055 C 
HETATM   10  C15 UNL     1      -0.857   1.785   1.019  1.00  0.00     0.154 C 
HETATM   11  N3  UNL     1       0.105   2.869   1.136  1.00  0.00    -0.211 NA
HETATM   12  S1  UNL     1       1.484   3.254   0.364  1.00  0.00     0.038 S 
ENDROOT
BRANCH   9  13
HETATM   13  N2  UNL     1      -1.965  -0.142   0.373  1.00  0.00    -0.347 N 
HETATM   14  C10 UNL     1      -1.994  -1.032   1.516  1.00  0.00     0.153 C 
HETATM   15  C11 UNL     1      -3.231  -1.840   1.523  1.00  0.00    -0.011 C 
HETATM   16  C12 UNL     1      -3.953  -2.156   0.440  1.00  0.00    -0.025 C 
HETATM   17  C13 UNL     1      -3.391  -1.606  -0.832  1.00  0.00     0.086 C 
HETATM   18  C14 UNL     1      -3.043  -0.144  -0.592  1.00  0.00     0.275 C 
HETATM   19  F1  UNL     1      -4.140   0.426   0.059  1.00  0.00    -0.227 F 
ENDBRANCH   9  13
BRANCH   1  20
HETATM   20  C2  UNL     1       2.897  -1.844  -0.009  1.00  0.00     0.098 C 
HETATM   21  C1  UNL     1       2.852  -2.622   1.300  1.00  0.00     0.014 C 
ENDBRANCH   1  20
BRANCH  12  22
HETATM   22  O2  UNL     1       2.478   4.444   1.087  1.00  0.00    -0.321 OA
HETATM   23  H20 UNL     1       1.987   5.282   1.182  1.00  0.00     0.228 HD
ENDBRANCH  12  22
TORSDOF 3
