REMARK  4 active torsions:
REMARK  status: ('A' for Active; 'I' for Inactive)
REMARK    1  A    between atoms: C2_2  and  C3_3 
REMARK    2  A    between atoms: C3_3  and  C4_5 
REMARK    3  A    between atoms: C7_8  and  N1_9 
REMARK    4  A    between atoms: N1_9  and  C8_10 
ROOT
HETATM    1  C4  UNL     1       0.256   1.172   0.515  1.00  0.00     0.016 C 
HETATM    2  C5  UNL     1       0.401   0.679  -0.704  1.00  0.00     0.030 C 
HETATM    3  C6  UNL     1       0.510  -0.669  -1.250  1.00  0.00     0.038 A 
HETATM    4  C7  UNL     1       1.878  -0.910  -1.484  1.00  0.00     0.141 A 
HETATM    5  N2  UNL     1       2.483  -2.036  -1.983  1.00  0.00    -0.224 NA
HETATM    6  C14 UNL     1       1.606  -3.028  -2.278  1.00  0.00     0.235 A 
HETATM    7  N3  UNL     1       0.295  -2.837  -2.070  1.00  0.00    -0.243 NA
HETATM    8  C15 UNL     1      -0.272  -1.728  -1.582  1.00  0.00     0.085 A 
HETATM    9  C16 UNL     1      -1.726  -1.978  -1.538  1.00  0.00     0.299 C 
HETATM   10  C17 UNL     1      -2.046  -3.242  -0.771  1.00  0.00     0.210 C 
HETATM   11  O2  UNL     1      -3.349  -3.625  -1.014  1.00  0.00    -0.387 OA
HETATM   12  C18 UNL     1      -4.103  -2.679  -1.656  1.00  0.00     0.198 C 
HETATM   13  C19 UNL     1      -3.912  -1.286  -1.157  1.00  0.00     0.299 C 
HETATM   14  N4  UNL     1      -2.520  -0.913  -1.030  1.00  0.00     0.103 N 
HETATM   15  C20 UNL     1      -2.262  -0.639   0.376  1.00  0.00     0.275 C 
HETATM   16  C21 UNL     1      -2.700   0.732   0.794  1.00  0.00     0.056 C 
HETATM   17  C22 UNL     1      -2.233   1.031   2.173  1.00  0.00     0.169 C 
HETATM   18  O3  UNL     1      -1.031   1.489   2.431  1.00  0.00    -0.386 OA
HETATM   19  C23 UNL     1       0.103   0.966   1.980  1.00  0.00     0.210 C 
ENDROOT
BRANCH   4  20
HETATM   20  N1  UNL     1       2.864   0.117  -1.211  1.00  0.00    -0.340 N 
HETATM   21  H5  UNL     1       3.036   0.699  -2.034  1.00  0.00     0.167 HD
BRANCH  20  22
HETATM   22  C8  UNL     1       3.485   0.251   0.069  1.00  0.00     0.035 A 
HETATM   23  C9  UNL     1       3.139  -0.599   1.070  1.00  0.00     0.032 A 
HETATM   24  C10 UNL     1       3.757  -0.442   2.294  1.00  0.00     0.046 A 
HETATM   25  C11 UNL     1       4.696   0.565   2.456  1.00  0.00     0.138 A 
HETATM   26  F1  UNL     1       5.326   0.750   3.653  1.00  0.00    -0.204 F 
HETATM   27  C12 UNL     1       5.024   1.416   1.408  1.00  0.00     0.074 A 
HETATM   28 CL1  UNL     1       6.212   2.706   1.582  1.00  0.00    -0.081 Cl
HETATM   29  C13 UNL     1       4.407   1.271   0.160  1.00  0.00     0.056 A 
ENDBRANCH  20  22
ENDBRANCH   4  20
BRANCH   1  30
HETATM   30  C3  UNL     1       0.214   2.648   0.380  1.00  0.00     0.179 C 
HETATM   31  O1  UNL     1       0.102   3.644   1.109  1.00  0.00    -0.288 OA
BRANCH  30  32
HETATM   32  C2  UNL     1       0.297   3.542  -0.766  1.00  0.00     0.045 C 
HETATM   33  C1  UNL     1       0.192   4.716  -0.175  1.00  0.00     0.015 C 
ENDBRANCH  30  32
ENDBRANCH   1  30
TORSDOF 4
