REMARK  6 active torsions:
REMARK  status: ('A' for Active; 'I' for Inactive)
REMARK    1  A    between atoms: C3_3  and  N1_5 
REMARK    2  A    between atoms: C5_7  and  C6_8 
REMARK    3  A    between atoms: C6_8  and  C7_9 
REMARK    4  A    between atoms: C7_9  and  N2_10 
REMARK    5  A    between atoms: C15_21  and  N5_22 
REMARK    6  A    between atoms: N5_22  and  C16_23 
ROOT
HETATM    1  N1  UNL     1       0.922   0.654  -0.204  1.00  0.00    -0.357 N 
HETATM    2  C4  UNL     1      -0.491   0.829  -0.396  1.00  0.00     0.158 A 
HETATM    3  C5  UNL     1      -1.151  -0.303  -1.024  1.00  0.00    -0.058 A 
HETATM    4  C12 UNL     1      -0.587  -1.430  -1.427  1.00  0.00     0.038 A 
HETATM    5  C13 UNL     1       0.850  -1.496  -1.193  1.00  0.00     0.088 A 
HETATM    6  N3  UNL     1       1.435  -2.633  -1.606  1.00  0.00    -0.240 NA
HETATM    7  C14 UNL     1       2.748  -2.846  -1.468  1.00  0.00     0.236 A 
HETATM    8  N4  UNL     1       3.471  -1.871  -0.894  1.00  0.00    -0.222 NA
HETATM    9  C15 UNL     1       2.919  -0.738  -0.476  1.00  0.00     0.158 A 
HETATM   10  C22 UNL     1       1.596  -0.509  -0.609  1.00  0.00     0.107 A 
ENDROOT
BRANCH   9  11
HETATM   11  N5  UNL     1       3.743   0.249   0.107  1.00  0.00    -0.339 N 
HETATM   12  H20 UNL     1       3.970   1.139   0.551  1.00  0.00     0.167 HD
BRANCH  11  13
HETATM   13  C16 UNL     1       5.135  -0.115   0.175  1.00  0.00     0.035 A 
HETATM   14  C17 UNL     1       5.326  -1.394   0.719  1.00  0.00     0.032 A 
HETATM   15  C18 UNL     1       6.607  -1.948   0.841  1.00  0.00     0.046 A 
HETATM   16  C19 UNL     1       7.716  -1.246   0.428  1.00  0.00     0.138 A 
HETATM   17  F1  UNL     1       8.999  -1.682   0.498  1.00  0.00    -0.204 F 
HETATM   18  C20 UNL     1       7.556   0.013  -0.109  1.00  0.00     0.074 A 
HETATM   19 CL1  UNL     1       8.834   1.079  -0.697  1.00  0.00    -0.081 Cl
HETATM   20  C21 UNL     1       6.295   0.549  -0.225  1.00  0.00     0.056 A 
ENDBRANCH  11  13
ENDBRANCH   9  11
BRANCH   1  21
HETATM   21  C3  UNL     1       1.629   1.704   0.427  1.00  0.00     0.094 A 
HETATM   22  C2  UNL     1       0.825   2.891   0.808  1.00  0.00     0.026 A 
HETATM   23  C1  UNL     1       1.498   3.862   1.401  1.00  0.00     0.008 A 
HETATM   24  O1  UNL     1       2.090   2.747   1.005  1.00  0.00     0.000 OA
ENDBRANCH   1  21
BRANCH   3  25
HETATM   25  C6  UNL     1      -2.636  -0.194  -1.249  1.00  0.00     0.066 C 
BRANCH  25  26
HETATM   26  C7  UNL     1      -3.288  -0.026   0.079  1.00  0.00     0.277 C 
BRANCH  26  27
HETATM   27  N2  UNL     1      -4.731   0.083   0.009  1.00  0.00     0.092 N 
HETATM   28  C8  UNL     1      -5.367  -1.126  -0.399  1.00  0.00     0.298 C 
HETATM   29  C9  UNL     1      -6.781  -1.135   0.134  1.00  0.00     0.198 C 
HETATM   30  O2  UNL     1      -7.354   0.135   0.104  1.00  0.00    -0.388 OA
HETATM   31  C10 UNL     1      -6.733   0.992   1.011  1.00  0.00     0.198 C 
HETATM   32  C11 UNL     1      -5.287   0.669   1.211  1.00  0.00     0.298 C 
ENDBRANCH  26  27
ENDBRANCH  25  26
ENDBRANCH   3  25
TORSDOF 6
