REMARK  1 active torsions:
REMARK  status: ('A' for Active; 'I' for Inactive)
REMARK       I    between atoms: N1_1  and  C1_2 
REMARK    1  A    between atoms: C1_2  and  C2_4 
ROOT
HETATM    1  C2  UNL     1       1.502   0.541  -1.873  1.00  0.00     0.112 C 
HETATM    2  C3  UNL     1       0.078   1.056  -1.827  1.00  0.00     0.064 C 
HETATM    3  C4  UNL     1      -0.923   1.429  -0.956  1.00  0.00     0.013 C 
HETATM    4  C5  UNL     1      -1.413   1.623   0.496  1.00  0.00     0.069 C 
HETATM    5  C6  UNL     1      -2.323   0.413   0.577  1.00  0.00     0.011 C 
HETATM    6  C7  UNL     1      -3.451   0.637  -0.129  1.00  0.00     0.027 C 
HETATM    7  C8  UNL     1      -3.387   1.321  -1.453  1.00  0.00     0.040 C 
HETATM    8  C9  UNL     1      -2.117   1.657  -1.824  1.00  0.00     0.099 C 
HETATM    9  F1  UNL     1      -1.738   2.200  -3.012  1.00  0.00    -0.210 F 
HETATM   10  N2  UNL     1      -2.205  -0.874   1.191  1.00  0.00    -0.344 N 
HETATM   11  C10 UNL     1      -1.077  -1.658   1.564  1.00  0.00     0.141 A 
HETATM   12  N3  UNL     1      -1.126  -2.495   2.606  1.00  0.00    -0.224 NA
HETATM   13  C11 UNL     1      -0.059  -3.196   3.032  1.00  0.00     0.236 A 
HETATM   14  N4  UNL     1       1.154  -3.109   2.437  1.00  0.00    -0.241 NA
HETATM   15  C12 UNL     1       1.265  -2.267   1.363  1.00  0.00     0.073 A 
HETATM   16  C13 UNL     1       2.516  -2.126   0.749  1.00  0.00     0.057 A 
HETATM   17  C14 UNL     1       2.703  -1.271  -0.308  1.00  0.00     0.043 A 
HETATM   18 CL1  UNL     1       4.167  -0.938  -1.207  1.00  0.00    -0.084 Cl
HETATM   19  C15 UNL     1       1.699  -0.509  -0.831  1.00  0.00    -0.022 A 
HETATM   20  C16 UNL     1       0.625  -0.849  -0.056  1.00  0.00     0.027 A 
HETATM   21  C17 UNL     1       0.139  -1.577   0.971  1.00  0.00     0.039 A 
HETATM   22  H9  UNL     1      -3.096  -1.355   1.427  1.00  0.00     0.167 HD
ENDROOT
BRANCH   1  23
HETATM   23  C1  UNL     1       2.429   1.669  -1.781  1.00  0.00     0.204 C 
HETATM   24  N1  UNL     1       2.286   2.317  -0.521  1.00  0.00    -0.272 NA
HETATM   25  H1  UNL     1       2.746   2.479   0.419  1.00  0.00     0.127 HD
HETATM   26  H2  UNL     1       2.725   2.489   0.415  1.00  0.00     0.127 HD
HETATM   27  O1  UNL     1       3.331   2.349  -2.337  1.00  0.00    -0.279 OA
ENDBRANCH   1  23
TORSDOF 1
