REMARK  3 active torsions:
REMARK  status: ('A' for Active; 'I' for Inactive)
REMARK    1  A    between atoms: C2_2  and  C3_3 
REMARK       I    between atoms: C3_3  and  N1_5 
REMARK    2  A    between atoms: N1_5  and  C4_6 
REMARK    3  A    between atoms: C9_12  and  C10_13 
ROOT
HETATM    1  C4  UNL     1      -2.166  -0.422  -0.161  1.00  0.00     0.036 A 
HETATM    2  C5  UNL     1      -0.883  -0.131  -0.178  1.00  0.00     0.047 A 
HETATM    3  C6  UNL     1       0.145  -1.129   0.167  1.00  0.00     0.040 A 
HETATM    4  C7  UNL     1       1.385  -0.746   0.122  1.00  0.00     0.139 A 
HETATM    5  N2  UNL     1       1.675   0.595  -0.252  1.00  0.00    -0.241 NA
HETATM    6  C8  UNL     1       2.857   1.094  -0.334  1.00  0.00     0.133 A 
HETATM    7  C9  UNL     1       4.052   0.317  -0.045  1.00  0.00     0.021 A 
HETATM    8  C12 UNL     1       3.883  -0.944   0.312  1.00  0.00     0.104 A 
HETATM    9  N3  UNL     1       2.567  -1.466   0.393  1.00  0.00    -0.349 N 
HETATM   10  C13 UNL     1      -0.434  -2.416   0.509  1.00  0.00     0.062 A 
HETATM   11  N4  UNL     1       0.393  -3.347   0.823  1.00  0.00    -0.299 NA
HETATM   12  C14 UNL     1      -1.869  -2.670   0.507  1.00  0.00     0.034 A 
HETATM   13  C15 UNL     1      -2.724  -1.719   0.185  1.00  0.00     0.032 A 
HETATM   14  H9  UNL     1       2.478  -2.461   0.677  1.00  0.00     0.167 HD
HETATM   15  H10 UNL     1       0.010  -4.277   1.073  1.00  0.00     0.187 HD
ENDROOT
BRANCH   1  16
HETATM   16  N1  UNL     1      -3.123   0.577  -0.502  1.00  0.00    -0.324 N 
HETATM   17  C3  UNL     1      -4.033   0.830   0.589  1.00  0.00     0.244 C 
HETATM   18  O1  UNL     1      -3.770   0.102   1.603  1.00  0.00    -0.268 OA
HETATM   19  H4  UNL     1      -3.241   1.118  -1.390  1.00  0.00     0.169 HD
BRANCH  17  20
HETATM   20  C2  UNL     1      -5.114   1.811   0.505  1.00  0.00     0.064 C 
HETATM   21  C1  UNL     1      -5.409   2.580  -0.535  1.00  0.00     0.017 C 
ENDBRANCH  17  20
ENDBRANCH   1  16
BRANCH   7  22
HETATM   22  C10 UNL     1       5.373   0.915  -0.148  1.00  0.00     0.073 C 
HETATM   23 CL1  UNL     1       6.837   0.023   0.188  1.00  0.00    -0.081 Cl
HETATM   24  C11 UNL     1       5.535   2.177  -0.506  1.00  0.00     0.213 C 
HETATM   25  F1  UNL     1       4.865   3.294  -0.865  1.00  0.00    -0.218 F 
ENDBRANCH   7  22
TORSDOF 3
