REMARK  0 active torsions:
REMARK  status: ('A' for Active; 'I' for Inactive)
ROOT
HETATM    1  O1  UNL     1      -0.489  -1.755  -0.225  1.00  0.00    -0.140 OA
HETATM    2  C1  UNL     1      -1.429  -2.257  -0.801  1.00  0.00     0.385 A 
HETATM    3  N1  UNL     1      -0.124  -2.579  -1.193  1.00  0.00     0.125 N 
HETATM    4  C2  UNL     1       1.246  -2.229  -0.837  1.00  0.00     0.193 A 
HETATM    5  C3  UNL     1       1.579  -0.863  -0.863  1.00  0.00     0.060 A 
HETATM    6  C4  UNL     1       2.792  -0.307  -0.564  1.00  0.00     0.041 A 
HETATM    7  C5  UNL     1       3.142   1.017  -0.567  1.00  0.00     0.141 A 
HETATM    8  N2  UNL     1       4.393   1.366  -0.229  1.00  0.00    -0.224 NA
HETATM    9  C6  UNL     1       5.331   0.463   0.118  1.00  0.00     0.236 A 
HETATM   10  N3  UNL     1       5.023  -0.861   0.135  1.00  0.00    -0.241 NA
HETATM   11  C7  UNL     1       3.773  -1.196  -0.204  1.00  0.00     0.074 A 
HETATM   12  C8  UNL     1       3.461  -2.534  -0.176  1.00  0.00     0.058 A 
HETATM   13  C9  UNL     1       2.241  -3.097  -0.475  1.00  0.00     0.073 A 
HETATM   14 CL1  UNL     1       1.697  -4.732  -0.499  1.00  0.00    -0.082 Cl
HETATM   15  N4  UNL     1       2.450   2.263  -0.851  1.00  0.00    -0.350 N 
HETATM   16  C10 UNL     1       1.308   2.479  -0.026  1.00  0.00     0.089 C 
HETATM   17  C11 UNL     1       0.222   2.648   0.685  1.00  0.00     0.030 C 
HETATM   18  C12 UNL     1      -1.016   2.799   1.409  1.00  0.00     0.213 A 
HETATM   19  C13 UNL     1      -2.127   2.351   0.906  1.00  0.00     0.066 A 
HETATM   20  F1  UNL     1      -0.939   2.256   0.290  1.00  0.00    -0.361 F 
HETATM   21  C14 UNL     1      -3.486   1.885   0.458  1.00  0.00     0.070 C 
HETATM   22  C15 UNL     1      -3.345   0.496  -0.009  1.00  0.00    -0.001 C 
HETATM   23  C16 UNL     1      -4.390  -0.523   0.361  1.00  0.00     0.033 C 
HETATM   24  C17 UNL     1      -3.582  -1.828   0.436  1.00  0.00    -0.018 C 
HETATM   25  C18 UNL     1      -2.366  -1.540   0.041  1.00  0.00    -0.009 C 
HETATM   26  C19 UNL     1      -2.169  -0.133   0.677  1.00  0.00     0.044 C 
HETATM   27  H1  UNL     1      -0.011  -3.303  -1.972  1.00  0.00     0.330 HD
HETATM   28  H5  UNL     1       2.703   2.980  -1.559  1.00  0.00     0.166 HD
ENDROOT
TORSDOF 0
