REMARK  8 active torsions:
REMARK  status: ('A' for Active; 'I' for Inactive)
REMARK    1  A    between atoms: C2_2  and  C3_3 
REMARK       I    between atoms: C3_3  and  N1_5 
REMARK    2  A    between atoms: N1_5  and  C4_6 
REMARK    3  A    between atoms: C9_12  and  N3_13 
REMARK    4  A    between atoms: N3_13  and  C10_14 
REMARK    5  A    between atoms: C17_23  and  C18_24 
REMARK    6  A    between atoms: C18_24  and  C19_25 
REMARK    7  A    between atoms: C19_25  and  C20_26 
REMARK    8  A    between atoms: C20_26  and  N4_27 
ROOT
HETATM    1  C4  UNL     1       0.327  -1.285  -0.349  1.00  0.00     0.047 C 
HETATM    2  C5  UNL     1       1.290  -0.394  -0.227  1.00  0.00    -0.008 C 
HETATM    3  C6  UNL     1       1.744  -0.021   1.186  1.00  0.00     0.054 C 
HETATM    4  C7  UNL     1       0.651   1.083   1.399  1.00  0.00     0.053 C 
HETATM    5  C8  UNL     1       0.751   1.861   0.102  1.00  0.00     0.095 C 
HETATM    6  N2  UNL     1       1.527   1.736  -0.944  1.00  0.00    -0.275 NA
HETATM    7  C9  UNL     1       1.902   0.334  -1.366  1.00  0.00     0.237 C 
HETATM    8  C16 UNL     1      -0.597   0.232   1.352  1.00  0.00    -0.007 C 
HETATM    9  C17 UNL     1      -0.742  -0.867   0.587  1.00  0.00    -0.034 C 
ENDROOT
BRANCH   7  10
HETATM   10  N3  UNL     1       3.303   0.233  -1.415  1.00  0.00    -0.364 N 
HETATM   11  H10 UNL     1       3.434  -0.588  -2.093  1.00  0.00     0.162 HD
BRANCH  10  12
HETATM   12  C10 UNL     1       4.545   0.735  -0.958  1.00  0.00     0.031 A 
HETATM   13  C11 UNL     1       5.749   0.156  -1.352  1.00  0.00     0.032 A 
HETATM   14  C12 UNL     1       6.934   0.689  -0.913  1.00  0.00     0.046 A 
HETATM   15  C13 UNL     1       6.950   1.795  -0.084  1.00  0.00     0.138 A 
HETATM   16  F1  UNL     1       8.148   2.264   0.307  1.00  0.00    -0.204 F 
HETATM   17  C14 UNL     1       5.812   2.429   0.354  1.00  0.00     0.074 A 
HETATM   18 CL1  UNL     1       5.811   3.816   1.395  1.00  0.00    -0.081 Cl
HETATM   19  C15 UNL     1       4.670   1.849  -0.119  1.00  0.00     0.056 A 
ENDBRANCH  10  12
ENDBRANCH   7  10
BRANCH   1  20
HETATM   20  N1  UNL     1       0.367  -2.360  -1.194  1.00  0.00    -0.323 N 
HETATM   21  C3  UNL     1       0.030  -3.518  -1.864  1.00  0.00     0.244 C 
HETATM   22  O1  UNL     1      -1.073  -3.848  -1.376  1.00  0.00    -0.268 OA
HETATM   23  H4  UNL     1       1.274  -2.204  -1.737  1.00  0.00     0.169 HD
BRANCH  21  24
HETATM   24  C2  UNL     1       0.609  -4.336  -2.885  1.00  0.00     0.064 C 
HETATM   25  C1  UNL     1       1.726  -4.344  -3.584  1.00  0.00     0.017 C 
ENDBRANCH  21  24
ENDBRANCH   1  20
BRANCH   9  26
HETATM   26  C18 UNL     1      -2.017  -1.563   0.779  1.00  0.00     0.042 C 
BRANCH  26  27
HETATM   27  C19 UNL     1      -2.937  -1.455  -0.445  1.00  0.00     0.035 C 
BRANCH  27  28
HETATM   28  C20 UNL     1      -3.249   0.032  -0.686  1.00  0.00     0.273 C 
BRANCH  28  29
HETATM   29  N4  UNL     1      -3.866   0.638   0.434  1.00  0.00     0.092 N 
HETATM   30  C21 UNL     1      -5.200   0.188   0.717  1.00  0.00     0.298 C 
HETATM   31  C22 UNL     1      -5.908   1.208   1.620  1.00  0.00     0.198 C 
HETATM   32  O2  UNL     1      -5.012   1.773   2.499  1.00  0.00    -0.388 OA
HETATM   33  C23 UNL     1      -4.090   2.570   1.868  1.00  0.00     0.198 C 
HETATM   34  C24 UNL     1      -3.772   2.081   0.488  1.00  0.00     0.298 C 
ENDBRANCH  28  29
ENDBRANCH  27  28
ENDBRANCH  26  27
ENDBRANCH   9  26
TORSDOF 8
