REMARK  3 active torsions:
REMARK  status: ('A' for Active; 'I' for Inactive)
REMARK    1  A    between atoms: C2_2  and  N1_5 
REMARK    2  A    between atoms: N1_5  and  C4_6 
REMARK    3  A    between atoms: C5_7  and  C6_8 
ROOT
HETATM    1  C1  UNL     1       6.065   0.164  -3.501  1.00  0.00     0.035 C 
HETATM    2  C2  UNL     1       6.530   1.347  -2.712  1.00  0.00     0.110 C 
HETATM    3  C3  UNL     1       6.754   2.483  -3.690  1.00  0.00     0.415 C 
HETATM    4  O1  UNL     1       6.837   3.474  -4.395  1.00  0.00    -0.428 OA
ENDROOT
BRANCH   2   5
HETATM    5  N1  UNL     1       5.572   1.731  -1.732  1.00  0.00    -0.392 N 
HETATM    6  H6  UNL     1       5.171   2.696  -1.776  1.00  0.00     0.159 HD
BRANCH   5   7
HETATM    7  C4  UNL     1       5.013   1.096  -0.652  1.00  0.00     0.083 C 
HETATM    8  C5  UNL     1       3.995   0.633  -0.020  1.00  0.00     0.020 C 
BRANCH   8   9
HETATM    9  C6  UNL     1       2.552   0.596  -0.298  1.00  0.00     0.051 C 
HETATM   10  C7  UNL     1       1.522   0.118   0.367  1.00  0.00     0.126 C 
HETATM   11  N2  UNL     1       0.212   0.183  -0.082  1.00  0.00    -0.225 NA
HETATM   12  N6  UNL     1       1.707  -0.546   1.710  1.00  0.00    -0.356 N 
HETATM   13  C8  UNL     1      -0.484   0.827  -0.904  1.00  0.00     0.234 C 
HETATM   14  N3  UNL     1      -1.765   0.231  -0.710  1.00  0.00    -0.253 NA
HETATM   15  C9  UNL     1      -2.808   0.854  -0.181  1.00  0.00     0.131 C 
HETATM   16  C10 UNL     1      -4.190   0.425   0.102  1.00  0.00     0.008 A 
HETATM   17  C11 UNL     1      -4.900   0.575  -1.075  1.00  0.00     0.016 A 
HETATM   18  C14 UNL     1      -4.894  -0.071   1.183  1.00  0.00     0.064 A 
HETATM   19  C12 UNL     1      -6.229   0.288  -1.283  1.00  0.00     0.020 A 
HETATM   20  C13 UNL     1      -6.883  -0.210  -0.149  1.00  0.00     0.117 A 
HETATM   21  N4  UNL     1      -6.187  -0.360   1.005  1.00  0.00    -0.263 NA
HETATM   22  C15 UNL     1      -4.492  -0.418   2.595  1.00  0.00     0.188 C 
HETATM   23  N5  UNL     1      -3.635  -1.613   2.563  1.00  0.00    -0.350 N 
HETATM   24  C16 UNL     1      -3.717  -2.946   2.497  1.00  0.00     0.092 A 
HETATM   25  C23 UNL     1      -2.363  -1.233   2.420  1.00  0.00     0.044 A 
HETATM   26  C17 UNL     1      -2.465  -3.493   2.293  1.00  0.00     0.030 A 
HETATM   27  C18 UNL     1      -1.657  -2.404   2.248  1.00  0.00    -0.009 A 
HETATM   28  C19 UNL     1      -0.327  -2.359   2.010  1.00  0.00     0.025 A 
HETATM   29  C20 UNL     1       0.716  -1.560   1.856  1.00  0.00     0.101 A 
HETATM   30  C21 UNL     1      -0.121  -0.433   2.074  1.00  0.00     0.014 A 
HETATM   31  C22 UNL     1      -1.444  -0.242   2.320  1.00  0.00     0.029 A 
HETATM   32  H22 UNL     1       2.401  -0.366   2.479  1.00  0.00     0.162 HD
ENDBRANCH   8   9
ENDBRANCH   5   7
ENDBRANCH   2   5
TORSDOF 3
