REMARK  5 active torsions:
REMARK  status: ('A' for Active; 'I' for Inactive)
REMARK    1  A    between atoms: C2_2  and  C3_3 
REMARK    2  A    between atoms: C4_4  and  N1_5 
REMARK    3  A    between atoms: N1_5  and  C5_6 
REMARK    4  A    between atoms: C9_12  and  N3_13 
REMARK    5  A    between atoms: N3_13  and  C10_14 
ROOT
HETATM    1  C5  UNL     1       0.987  -0.542  -0.147  1.00  0.00     0.060 C 
HETATM    2  C6  UNL     1       1.555  -1.611  -0.679  1.00  0.00     0.045 C 
HETATM    3  C7  UNL     1       0.680  -2.774  -0.969  1.00  0.00     0.235 C 
HETATM    4  F1  UNL     1       1.244  -3.962  -0.555  1.00  0.00    -0.239 F 
HETATM    5  C8  UNL     1      -0.650  -2.607  -0.370  1.00  0.00     0.127 C 
HETATM    6  N2  UNL     1      -1.183  -1.582   0.151  1.00  0.00    -0.271 NA
HETATM    7  C9  UNL     1      -0.442  -0.366   0.200  1.00  0.00     0.256 C 
ENDROOT
BRANCH   7   8
HETATM    8  N3  UNL     1      -1.074   0.654  -0.601  1.00  0.00    -0.362 N 
HETATM    9  H9  UNL     1      -0.466   1.145  -1.321  1.00  0.00     0.162 HD
BRANCH   8  10
HETATM   10  C10 UNL     1      -2.435   1.058  -0.510  1.00  0.00     0.031 A 
HETATM   11  C11 UNL     1      -2.954   2.057  -1.332  1.00  0.00     0.029 A 
HETATM   12  C12 UNL     1      -4.274   2.433  -1.228  1.00  0.00     0.004 A 
HETATM   13  C13 UNL     1      -5.090   1.823  -0.310  1.00  0.00     0.024 A 
HETATM   14  C14 UNL     1      -4.623   0.829   0.525  1.00  0.00     0.036 A 
HETATM   15 CL1  UNL     1      -5.690   0.067   1.687  1.00  0.00    -0.084 Cl
HETATM   16  C15 UNL     1      -3.282   0.469   0.397  1.00  0.00     0.053 A 
ENDBRANCH   8  10
ENDBRANCH   7   8
BRANCH   1  17
HETATM   17  N1  UNL     1       1.753   0.626   0.166  1.00  0.00    -0.315 N 
HETATM   18  H4  UNL     1       1.423   1.613   0.063  1.00  0.00     0.176 HD
BRANCH  17  19
HETATM   19  C4  UNL     1       3.059   0.474   0.654  1.00  0.00     0.015 C 
HETATM   20  C3  UNL     1       4.208   0.336   1.061  1.00  0.00    -0.056 C 
BRANCH  20  21
HETATM   21  C2  UNL     1       5.549   0.152   1.532  1.00  0.00     0.056 C 
HETATM   22  C1  UNL     1       6.518   0.019   0.634  1.00  0.00     0.021 C 
ENDBRANCH  20  21
ENDBRANCH  17  19
ENDBRANCH   1  17
TORSDOF 5
