REMARK  7 active torsions:
REMARK  status: ('A' for Active; 'I' for Inactive)
REMARK    1  A    between atoms: C3_3  and  C4_4 
REMARK    2  A    between atoms: C4_4  and  C5_5 
REMARK    3  A    between atoms: C4_4  and  N3_17 
REMARK    4  A    between atoms: C6_6  and  C7_7 
REMARK    5  A    between atoms: C8_8  and  N1_9 
REMARK    6  A    between atoms: N1_9  and  C9_10 
REMARK    7  A    between atoms: C9_10  and  C10_11 
ROOT
HETATM    1  C1  UNL     1       2.093   2.966  -2.317  1.00  0.00     0.091 C 
HETATM    2  C2  UNL     1       2.176   2.305  -1.185  1.00  0.00    -0.174 C 
HETATM    3  C3  UNL     1       2.164   1.503  -0.151  1.00  0.00     0.097 C 
ENDROOT
BRANCH   3   4
HETATM    4  C4  UNL     1       2.429   0.088  -0.377  1.00  0.00     0.148 C 
BRANCH   4   5
HETATM    5  C5  UNL     1       2.698  -0.573   0.926  1.00  0.00     0.001 C 
HETATM    6  C6  UNL     1       1.724  -0.733   1.796  1.00  0.00    -0.001 C 
BRANCH   6   7
HETATM    7  C7  UNL     1       0.360  -0.272   1.514  1.00  0.00     0.016 C 
HETATM    8  C8  UNL     1      -0.620  -0.431   2.379  1.00  0.00     0.083 C 
BRANCH   8   9
HETATM    9  N1  UNL     1      -1.960   0.015   2.132  1.00  0.00    -0.393 N 
HETATM   10  H9  UNL     1      -2.461   0.890   2.467  1.00  0.00     0.159 HD
BRANCH   9  11
HETATM   11  C9  UNL     1      -2.658  -0.953   1.282  1.00  0.00     0.178 C 
BRANCH  11  12
HETATM   12  C10 UNL     1      -4.053  -0.498   1.005  1.00  0.00     0.051 A 
HETATM   13  C11 UNL     1      -5.071  -0.874   1.860  1.00  0.00     0.029 A 
HETATM   14  C12 UNL     1      -6.340  -0.434   1.562  1.00  0.00     0.003 A 
HETATM   15  C13 UNL     1      -6.539   0.351   0.442  1.00  0.00     0.019 A 
HETATM   16  C14 UNL     1      -5.478   0.701  -0.385  1.00  0.00     0.117 A 
HETATM   17  N2  UNL     1      -4.238   0.264  -0.084  1.00  0.00    -0.264 NA
ENDBRANCH  11  12
ENDBRANCH   9  11
ENDBRANCH   8   9
ENDBRANCH   6   7
ENDBRANCH   4   5
BRANCH   4  18
HETATM   18  N3  UNL     1       3.563  -0.183  -1.240  1.00  0.00    -0.271 N 
HETATM   19  C15 UNL     1       3.869  -1.573  -1.474  1.00  0.00     0.125 C 
HETATM   20  C16 UNL     1       5.079  -1.877  -1.849  1.00  0.00    -0.006 C 
HETATM   21  C17 UNL     1       5.611  -1.131  -2.802  1.00  0.00     0.034 C 
HETATM   22  C18 UNL     1       5.378   0.318  -2.625  1.00  0.00     0.140 C 
HETATM   23  N4  UNL     1       4.399   0.730  -1.878  1.00  0.00    -0.185 NA
ENDBRANCH   4  18
ENDBRANCH   3   4
TORSDOF 7
