REMARK  6 active torsions:
REMARK  status: ('A' for Active; 'I' for Inactive)
REMARK    1  A    between atoms: C2_2  and  C3_3 
REMARK       I    between atoms: C3_3  and  N1_5 
REMARK    2  A    between atoms: N1_5  and  C4_6 
REMARK    3  A    between atoms: C7_9  and  N2_10 
REMARK    4  A    between atoms: N2_10  and  C8_11 
REMARK    5  A    between atoms: C10_13  and  C11_14 
REMARK    6  A    between atoms: C17_22  and  O2_23 
ROOT
HETATM    1  C4  UNL     1       1.441  -0.454  -0.339  1.00  0.00     0.069 A 
HETATM    2  C5  UNL     1       0.167   0.055  -0.190  1.00  0.00     0.050 A 
HETATM    3  C6  UNL     1      -0.858  -0.744   0.271  1.00  0.00     0.041 A 
HETATM    4  C7  UNL     1      -2.105  -0.166   0.395  1.00  0.00     0.138 A 
HETATM    5  N3  UNL     1      -3.118  -0.926   0.842  1.00  0.00    -0.224 NA
HETATM    6  C14 UNL     1      -2.923  -2.221   1.162  1.00  0.00     0.235 A 
HETATM    7  N4  UNL     1      -1.688  -2.772   1.033  1.00  0.00    -0.241 NA
HETATM    8  C15 UNL     1      -0.637  -2.068   0.593  1.00  0.00     0.075 A 
HETATM    9  C16 UNL     1       0.631  -2.565   0.441  1.00  0.00     0.071 A 
HETATM   10  C17 UNL     1       1.679  -1.776  -0.022  1.00  0.00     0.097 A 
ENDROOT
BRANCH   4  11
HETATM   11  N2  UNL     1      -2.422   1.190   0.086  1.00  0.00    -0.369 N 
HETATM   12  H8  UNL     1      -1.825   1.944  -0.263  1.00  0.00     0.161 HD
BRANCH  11  13
HETATM   13  C8  UNL     1      -3.696   1.763   0.218  1.00  0.00     0.086 A 
HETATM   14  C9  UNL     1      -4.723   0.822  -0.836  1.00  0.00     0.001 A 
HETATM   15  C10 UNL     1      -5.359   1.679  -0.128  1.00  0.00     0.029 A 
HETATM   16  C13 UNL     1      -3.873   0.200  -1.782  1.00  0.00    -0.035 A 
HETATM   17  C11 UNL     1      -4.268   2.526  -0.883  1.00  0.00     0.030 A 
HETATM   18  C12 UNL     1      -3.763   1.574  -1.951  1.00  0.00     0.026 A 
ENDBRANCH  11  13
ENDBRANCH   4  11
BRANCH   1  19
HETATM   19  N1  UNL     1       2.575   0.291  -0.810  1.00  0.00    -0.325 N 
HETATM   20  C3  UNL     1       3.271   0.908   0.235  1.00  0.00     0.221 C 
HETATM   21  O1  UNL     1       2.790   0.704   1.377  1.00  0.00    -0.273 OA
HETATM   22  H6  UNL     1       2.860   0.372  -1.830  1.00  0.00     0.169 HD
BRANCH  20  23
HETATM   23  C2  UNL     1       4.487   1.735  -0.047  1.00  0.00     0.098 C 
HETATM   24  C1  UNL     1       5.080   2.303   1.205  1.00  0.00     0.014 C 
ENDBRANCH  20  23
ENDBRANCH   1  19
BRANCH  10  25
HETATM   25  O2  UNL     1       2.938  -2.350  -0.150  1.00  0.00    -0.354 OA
HETATM   26  C18 UNL     1       3.221  -3.684   0.161  1.00  0.00     0.210 C 
ENDBRANCH  10  25
TORSDOF 6
