REMARK  7 active torsions:
REMARK  status: ('A' for Active; 'I' for Inactive)
REMARK    1  A    between atoms: O1_2  and  C2_3 
REMARK    2  A    between atoms: C6_9  and  N3_10 
REMARK    3  A    between atoms: N3_10  and  C7_11 
REMARK    4  A    between atoms: C15_21  and  C16_22 
REMARK    5  A    between atoms: C16_22  and  N4_23 
REMARK    6  A    between atoms: N4_23  and  C18_25 
REMARK    7  A    between atoms: C18_25  and  C19_26 
REMARK       I    between atoms: C19_26  and  N5_27 
ROOT
HETATM    1  C2  UNL     1      -0.514   2.955   0.679  1.00  0.00     0.078 A 
HETATM    2  C3  UNL     1       0.449   3.531  -0.121  1.00  0.00     0.070 A 
HETATM    3  C4  UNL     1       1.499   2.729  -0.507  1.00  0.00     0.074 A 
HETATM    4  N1  UNL     1       2.448   3.310  -1.300  1.00  0.00    -0.241 NA
HETATM    5  C5  UNL     1       3.502   2.581  -1.712  1.00  0.00     0.236 A 
HETATM    6  N2  UNL     1       3.630   1.302  -1.358  1.00  0.00    -0.224 NA
HETATM    7  C6  UNL     1       2.750   0.664  -0.589  1.00  0.00     0.142 A 
HETATM    8  C13 UNL     1       1.670   1.404  -0.164  1.00  0.00     0.039 A 
HETATM    9  C14 UNL     1       0.653   0.930   0.635  1.00  0.00     0.029 A 
HETATM   10  C15 UNL     1      -0.465   1.640   1.095  1.00  0.00    -0.006 A 
ENDROOT
BRANCH  10  11
HETATM   11  C16 UNL     1      -1.459   0.985   1.932  1.00  0.00     0.159 C 
BRANCH  11  12
HETATM   12  N4  UNL     1      -2.665   0.552   1.385  1.00  0.00    -0.393 N 
HETATM   13  C17 UNL     1      -3.529   1.491   0.804  1.00  0.00     0.144 C 
BRANCH  12  14
HETATM   14  C18 UNL     1      -2.716  -0.783   0.914  1.00  0.00     0.162 C 
HETATM   15  C20 UNL     1      -3.978  -1.244   0.258  1.00  0.00     0.314 C 
HETATM   16  N6  UNL     1      -3.458  -0.756  -0.982  1.00  0.00     0.090 N 
HETATM   17  C21 UNL     1      -3.707  -1.601  -2.137  1.00  0.00     0.310 C 
HETATM   18  C22 UNL     1      -2.136  -1.109  -0.425  1.00  0.00     0.314 C 
BRANCH  14  19
HETATM   19  C19 UNL     1      -2.376  -1.741   2.003  1.00  0.00     0.247 C 
HETATM   20  N5  UNL     1      -2.419  -3.104   1.586  1.00  0.00    -0.368 N 
HETATM   21  H16 UNL     1      -2.002  -4.052   1.711  1.00  0.00     0.159 HD
HETATM   22  H17 UNL     1      -2.818  -3.893   0.996  1.00  0.00     0.159 HD
HETATM   23  O2  UNL     1      -2.051  -1.826   3.203  1.00  0.00    -0.271 OA
ENDBRANCH  14  19
ENDBRANCH  12  14
ENDBRANCH  11  12
ENDBRANCH  10  11
BRANCH   1  24
HETATM   24  O1  UNL     1      -1.559   3.771   1.061  1.00  0.00    -0.355 OA
HETATM   25  C1  UNL     1      -1.717   5.107   0.707  1.00  0.00     0.210 C 
ENDBRANCH   1  24
BRANCH   7  26
HETATM   26  N3  UNL     1       2.858  -0.674  -0.200  1.00  0.00    -0.338 N 
HETATM   27  H6  UNL     1       2.142  -1.130   0.399  1.00  0.00     0.167 HD
BRANCH  26  28
HETATM   28  C7  UNL     1       3.863  -1.607  -0.507  1.00  0.00     0.074 A 
HETATM   29  C8  UNL     1       4.960  -1.319  -1.288  1.00  0.00     0.033 A 
HETATM   30  C9  UNL     1       5.970  -2.199  -1.615  1.00  0.00     0.004 A 
HETATM   31  C10 UNL     1       5.913  -3.487  -1.139  1.00  0.00     0.027 A 
HETATM   32  C11 UNL     1       4.844  -3.843  -0.353  1.00  0.00     0.074 A 
HETATM   33 CL1  UNL     1       4.740  -5.468   0.268  1.00  0.00    -0.081 Cl
HETATM   34  C12 UNL     1       3.887  -2.920  -0.074  1.00  0.00     0.164 A 
HETATM   35  F1  UNL     1       2.850  -3.350   0.718  1.00  0.00    -0.202 F 
ENDBRANCH  26  28
ENDBRANCH   7  26
TORSDOF 7
