REMARK  4 active torsions:
REMARK  status: ('A' for Active; 'I' for Inactive)
REMARK    1  A    between atoms: C2_2  and  C3_3 
REMARK    2  A    between atoms: C3_3  and  N1_5 
REMARK    3  A    between atoms: N1_5  and  C4_6 
REMARK    4  A    between atoms: C9_11  and  O1_12 
ROOT
HETATM    1  C4  UNL     1       2.454  -0.724   0.185  1.00  0.00     0.064 A 
HETATM    2  C5  UNL     1       1.507   0.277   0.207  1.00  0.00     0.047 A 
HETATM    3  C6  UNL     1       0.148   0.029   0.281  1.00  0.00     0.014 A 
HETATM    4  C7  UNL     1      -0.218  -1.298   0.334  1.00  0.00     0.093 A 
HETATM    5  C8  UNL     1       0.678  -2.341   0.316  1.00  0.00     0.073 A 
HETATM    6  C9  UNL     1       2.033  -2.057   0.240  1.00  0.00     0.097 A 
HETATM    7  N2  UNL     1      -1.431  -1.701   0.407  1.00  0.00    -0.155 NA
HETATM    8  N3  UNL     1      -2.522  -0.857   0.440  1.00  0.00    -0.201 N 
HETATM    9  C11 UNL     1      -3.897  -0.918   0.543  1.00  0.00     0.200 C 
HETATM   10  C12 UNL     1      -4.836  -1.520  -0.376  1.00  0.00    -0.004 C 
HETATM   11  C13 UNL     1      -5.753  -0.908  -1.164  1.00  0.00    -0.003 C 
HETATM   12  C14 UNL     1      -6.093   0.492  -1.410  1.00  0.00    -0.003 C 
HETATM   13  C15 UNL     1      -5.409   1.593  -0.984  1.00  0.00    -0.015 C 
HETATM   14  C16 UNL     1      -4.222   2.162  -0.274  1.00  0.00     0.069 C 
HETATM   15  C17 UNL     1      -3.048   1.737   0.296  1.00  0.00     0.018 C 
HETATM   16  C18 UNL     1      -2.530   3.035   0.780  1.00  0.00     0.066 C 
HETATM   17  N4  UNL     1      -2.215   0.528   0.385  1.00  0.00    -0.256 N 
HETATM   18  C19 UNL     1      -0.823   0.897   0.306  1.00  0.00     0.131 A 
ENDROOT
BRANCH   1  19
HETATM   19  N1  UNL     1       3.848  -0.367   0.107  1.00  0.00    -0.370 N 
HETATM   20  H7  UNL     1       4.514  -1.181   0.098  1.00  0.00     0.161 HD
BRANCH  19  21
HETATM   21  C3  UNL     1       4.340   0.993   0.046  1.00  0.00     0.178 C 
HETATM   22 CL1  UNL     1       3.707   1.782  -1.433  1.00  0.00    -0.103 Cl
BRANCH  21  23
HETATM   23  C2  UNL     1       5.853   0.948  -0.003  1.00  0.00     0.037 C 
HETATM   24  C1  UNL     1       6.403   2.347  -0.089  1.00  0.00     0.008 C 
ENDBRANCH  21  23
ENDBRANCH  19  21
ENDBRANCH   1  19
BRANCH   6  25
HETATM   25  O1  UNL     1       3.000  -3.055   0.217  1.00  0.00    -0.354 OA
HETATM   26  C10 UNL     1       2.714  -4.421   0.267  1.00  0.00     0.210 C 
ENDBRANCH   6  25
TORSDOF 4
