REMARK  2 active torsions:
REMARK  status: ('A' for Active; 'I' for Inactive)
REMARK    1  A    between atoms: O1_2  and  C2_3 
REMARK    2  A    between atoms: C7_9  and  C8_10 
ROOT
HETATM    1  C2  UNL     1      -3.446   1.075  -0.296  1.00  0.00     0.123 C 
HETATM    2  C3  UNL     1      -2.251   0.796   0.318  1.00  0.00     0.047 C 
HETATM    3  C4  UNL     1      -2.223  -0.516   0.917  1.00  0.00     0.067 C 
HETATM    4  C5  UNL     1      -1.099  -1.454   0.959  1.00  0.00    -0.019 C 
HETATM    5  C6  UNL     1       0.247  -1.680   0.691  1.00  0.00     0.138 C 
HETATM    6  N1  UNL     1       1.622  -1.427   0.248  1.00  0.00    -0.405 N 
HETATM    7  C7  UNL     1       1.929   0.017   0.378  1.00  0.00     0.130 C 
HETATM    8  C14 UNL     1       1.156   0.738  -0.694  1.00  0.00     0.179 C 
HETATM    9  N2  UNL     1       1.110   2.176  -0.361  1.00  0.00    -0.282 NA
HETATM   10  C15 UNL     1      -0.080   2.574   0.133  1.00  0.00     0.201 C 
HETATM   11  N3  UNL     1      -1.170   1.675   0.308  1.00  0.00    -0.352 N 
HETATM   12  C16 UNL     1      -1.663  -2.771   1.531  1.00  0.00     0.017 C 
HETATM   13  C17 UNL     1      -2.986  -3.128   0.847  1.00  0.00     0.105 C 
HETATM   14  C18 UNL     1      -4.152  -2.287   1.238  1.00  0.00     0.242 C 
HETATM   15  O2  UNL     1      -4.427  -2.213   2.488  1.00  0.00    -0.271 OA
HETATM   16  N4  UNL     1      -5.020  -1.542   0.380  1.00  0.00    -0.213 NA
HETATM   17  P1  UNL     1      -4.841  -0.111  -0.334  1.00  0.00     0.130 P 
HETATM   18  H7  UNL     1       1.398  -2.431   0.160  1.00  0.00     0.154 HD
HETATM   19  H17 UNL     1      -1.243   1.738  -0.758  1.00  0.00     0.166 HD
ENDROOT
BRANCH   7  20
HETATM   20  C8  UNL     1       3.374   0.252   0.122  1.00  0.00    -0.034 A 
HETATM   21  C9  UNL     1       4.219   1.048   0.864  1.00  0.00     0.009 A 
HETATM   22  C10 UNL     1       5.530   1.129   0.451  1.00  0.00     0.001 A 
HETATM   23  C11 UNL     1       6.037   0.468  -0.646  1.00  0.00     0.000 A 
HETATM   24  C12 UNL     1       5.175  -0.335  -1.392  1.00  0.00     0.001 A 
HETATM   25  C13 UNL     1       3.842  -0.425  -0.983  1.00  0.00     0.009 A 
ENDBRANCH   7  20
BRANCH   1  26
HETATM   26  O1  UNL     1      -3.724   2.211  -0.919  1.00  0.00    -0.351 OA
HETATM   27  C1  UNL     1      -3.046   3.118  -1.697  1.00  0.00     0.210 C 
ENDBRANCH   1  26
TORSDOF 2
