REMARK  7 active torsions:
REMARK  status: ('A' for Active; 'I' for Inactive)
REMARK    1  A    between atoms: C2_2  and  C3_3 
REMARK    2  A    between atoms: C4_4  and  C5_5 
REMARK    3  A    between atoms: C6_6  and  C7_7 
REMARK    4  A    between atoms: C7_7  and  N1_8 
REMARK    5  A    between atoms: N1_8  and  C8_9 
REMARK    6  A    between atoms: C14_18  and  N4_19 
REMARK       I    between atoms: N4_19  and  C15_20 
REMARK    7  A    between atoms: C15_20  and  C16_22 
ROOT
HETATM    1  C8  UNL     1       0.524  -2.908  -0.652  1.00  0.00     0.137 A 
HETATM    2  N2  UNL     1       0.964  -3.972  -1.322  1.00  0.00    -0.224 NA
HETATM    3  C9  UNL     1       0.187  -4.779  -2.042  1.00  0.00     0.235 A 
HETATM    4  N3  UNL     1      -1.100  -4.450  -2.055  1.00  0.00    -0.241 NA
HETATM    5  C10 UNL     1      -1.645  -3.421  -1.429  1.00  0.00     0.075 A 
HETATM    6  C11 UNL     1      -3.009  -3.143  -1.470  1.00  0.00     0.071 A 
HETATM    7  C12 UNL     1      -3.567  -2.076  -0.798  1.00  0.00     0.097 A 
HETATM    8  O1  UNL     1      -4.801  -1.892  -0.880  1.00  0.00    -0.354 OA
HETATM    9  C13 UNL     1      -6.099  -1.794  -1.038  1.00  0.00     0.210 C 
HETATM   10  C14 UNL     1      -2.739  -1.237  -0.045  1.00  0.00     0.069 A 
HETATM   11  C18 UNL     1      -1.392  -1.535  -0.022  1.00  0.00     0.050 A 
HETATM   12  C19 UNL     1      -0.829  -2.596  -0.688  1.00  0.00     0.041 A 
ENDROOT
BRANCH  10  13
HETATM   13  N4  UNL     1      -3.364  -0.158   0.622  1.00  0.00    -0.325 N 
HETATM   14  C15 UNL     1      -2.800   0.846   1.417  1.00  0.00     0.221 C 
HETATM   15  O2  UNL     1      -1.580   0.865   1.617  1.00  0.00    -0.273 OA
HETATM   16  H18 UNL     1      -4.407  -0.046   0.544  1.00  0.00     0.169 HD
BRANCH  14  17
HETATM   17  C16 UNL     1      -3.594   1.929   2.060  1.00  0.00     0.098 C 
HETATM   18  C17 UNL     1      -2.752   2.863   2.859  1.00  0.00     0.014 C 
ENDBRANCH  14  17
ENDBRANCH  10  13
BRANCH   1  19
HETATM   19  N1  UNL     1       1.299  -1.985   0.122  1.00  0.00    -0.371 N 
HETATM   20  H12 UNL     1       2.245  -2.469   0.038  1.00  0.00     0.161 HD
BRANCH  19  21
HETATM   21  C7  UNL     1       2.062  -1.076   0.883  1.00  0.00     0.148 C 
BRANCH  21  22
HETATM   22  C6  UNL     1       3.243  -0.462   0.231  1.00  0.00    -0.007 C 
HETATM   23  C5  UNL     1       3.666   0.732  -0.080  1.00  0.00    -0.003 C 
BRANCH  23  24
HETATM   24  C4  UNL     1       3.560   2.143  -0.140  1.00  0.00    -0.004 C 
HETATM   25  C3  UNL     1       4.122   3.255  -0.517  1.00  0.00    -0.027 C 
BRANCH  25  26
HETATM   26  C2  UNL     1       5.447   3.207  -1.191  1.00  0.00     0.022 C 
HETATM   27  C1  UNL     1       6.472   3.961  -0.403  1.00  0.00     0.009 C 
ENDBRANCH  25  26
ENDBRANCH  23  24
ENDBRANCH  21  22
ENDBRANCH  19  21
ENDBRANCH   1  19
TORSDOF 7
