REMARK  7 active torsions:
REMARK  status: ('A' for Active; 'I' for Inactive)
REMARK    1  A    between atoms: O1_2  and  C2_3 
REMARK    2  A    between atoms: C4_5  and  N1_6 
REMARK    3  A    between atoms: N1_6  and  C5_7 
REMARK    4  A    between atoms: C8_10  and  O2_11 
REMARK    5  A    between atoms: O2_11  and  C9_12 
REMARK    6  A    between atoms: C17_22  and  N3_23 
REMARK       I    between atoms: N3_23  and  C18_24 
REMARK    7  A    between atoms: C18_24  and  C19_26 
ROOT
HETATM    1  N1  UNL     1      -0.423  -1.105   1.080  1.00  0.00    -0.340 N 
HETATM    2  H4  UNL     1      -0.598  -1.606   1.979  1.00  0.00     0.167 HD
ENDROOT
BRANCH   1   3
HETATM    3  C4  UNL     1      -1.499  -0.937   0.166  1.00  0.00     0.143 C 
HETATM    4  C3  UNL     1      -1.747  -1.871  -0.736  1.00  0.00     0.056 C 
HETATM    5  C2  UNL     1      -2.952  -2.409  -0.631  1.00  0.00     0.068 C 
HETATM    6  C21 UNL     1      -4.123  -1.540  -0.425  1.00  0.00     0.144 C 
HETATM    7  C17 UNL     1      -3.667  -0.124  -0.215  1.00  0.00     0.115 C 
HETATM    8  N2  UNL     1      -2.420   0.168   0.066  1.00  0.00    -0.216 NA
BRANCH   5   9
HETATM    9  O1  UNL     1      -3.036  -3.769  -0.723  1.00  0.00    -0.359 OA
HETATM   10  C1  UNL     1      -4.098  -4.560  -0.272  1.00  0.00     0.209 C 
ENDBRANCH   5   9
BRANCH   7  11
HETATM   11  N3  UNL     1      -4.664   0.887  -0.338  1.00  0.00    -0.315 N 
HETATM   12  C18 UNL     1      -4.289   2.261  -0.148  1.00  0.00     0.222 C 
HETATM   13  O3  UNL     1      -3.085   2.521   0.122  1.00  0.00    -0.273 OA
HETATM   14  H13 UNL     1      -5.651   0.625  -0.563  1.00  0.00     0.170 HD
BRANCH  12  15
HETATM   15  C19 UNL     1      -5.384   3.252  -0.293  1.00  0.00     0.098 C 
HETATM   16  C20 UNL     1      -4.898   4.662  -0.077  1.00  0.00     0.014 C 
ENDBRANCH  12  15
ENDBRANCH   7  11
ENDBRANCH   1   3
BRANCH   1  17
HETATM   17  C5  UNL     1       0.959  -0.804   1.233  1.00  0.00     0.033 A 
HETATM   18  C6  UNL     1       1.482   0.329   1.815  1.00  0.00     0.032 A 
HETATM   19  C7  UNL     1       2.846   0.463   1.882  1.00  0.00     0.039 A 
HETATM   20  C8  UNL     1       3.667  -0.521   1.375  1.00  0.00     0.076 A 
HETATM   21  C15 UNL     1       3.184  -1.689   0.776  1.00  0.00     0.039 A 
HETATM   22  C16 UNL     1       1.790  -1.801   0.720  1.00  0.00     0.032 A 
BRANCH  20  23
HETATM   23  O2  UNL     1       5.060  -0.446   1.412  1.00  0.00    -0.311 OA
BRANCH  23  24
HETATM   24  C9  UNL     1       5.786   0.129   0.391  1.00  0.00     0.079 A 
HETATM   25  C10 UNL     1       6.173  -0.728  -0.620  1.00  0.00     0.037 A 
HETATM   26  C11 UNL     1       6.907  -0.281  -1.706  1.00  0.00     0.006 A 
HETATM   27  C12 UNL     1       7.285   1.054  -1.821  1.00  0.00     0.042 A 
HETATM   28  C13 UNL     1       6.876   1.873  -0.787  1.00  0.00     0.119 A 
HETATM   29  F1  UNL     1       7.225   3.183  -0.862  1.00  0.00    -0.206 F 
HETATM   30  C14 UNL     1       6.145   1.453   0.303  1.00  0.00     0.079 A 
ENDBRANCH  23  24
ENDBRANCH  20  23
ENDBRANCH   1  17
TORSDOF 7
