REMARK  6 active torsions:
REMARK  status: ('A' for Active; 'I' for Inactive)
REMARK    1  A    between atoms: C2_2  and  C3_3 
REMARK    2  A    between atoms: C4_4  and  C5_5 
REMARK    3  A    between atoms: C6_6  and  C7_7 
REMARK    4  A    between atoms: C14_15  and  N1_16 
REMARK       I    between atoms: N1_16  and  C15_17 
REMARK    5  A    between atoms: C15_17  and  C16_19 
REMARK    6  A    between atoms: C18_21  and  O3_22 
ROOT
HETATM    1  C7  UNL     1       1.198  -0.570   0.799  1.00  0.00     0.145 C 
HETATM    2  C8  UNL     1       0.821  -1.936   1.367  1.00  0.00     0.022 C 
HETATM    3  C9  UNL     1      -0.200  -2.686   0.910  1.00  0.00     0.029 C 
HETATM    4  C10 UNL     1      -0.940  -2.397  -0.356  1.00  0.00     0.038 C 
HETATM    5  C11 UNL     1      -0.273  -1.333  -0.703  1.00  0.00     0.008 C 
HETATM    6  C12 UNL     1       0.500  -1.223  -1.967  1.00  0.00     0.036 C 
HETATM    7  C13 UNL     1       1.700  -0.646  -1.652  1.00  0.00     0.137 C 
HETATM    8  O1  UNL     1       2.118  -0.786  -0.301  1.00  0.00    -0.340 OA
HETATM    9  C14 UNL     1      -0.132  -0.098   0.209  1.00  0.00     0.151 C 
HETATM   10  C18 UNL     1      -1.121  -0.068   1.285  1.00  0.00     0.084 C 
HETATM   11  C20 UNL     1      -2.278  -0.491   0.846  1.00  0.00     0.054 C 
HETATM   12  C21 UNL     1      -3.607  -0.937   0.485  1.00  0.00     0.120 C 
HETATM   13  N2  UNL     1      -3.441  -1.243  -0.751  1.00  0.00    -0.254 NA
HETATM   14  C22 UNL     1      -4.351  -1.736  -1.675  1.00  0.00     0.228 C 
HETATM   15  N3  UNL     1      -4.201  -2.967  -1.534  1.00  0.00    -0.264 NA
HETATM   16  C23 UNL     1      -3.332  -3.681  -0.659  1.00  0.00     0.272 C 
HETATM   17  N4  UNL     1      -1.948  -3.320  -0.626  1.00  0.00    -0.371 N 
HETATM   18  H24 UNL     1      -1.261  -4.078  -0.968  1.00  0.00     0.161 HD
ENDROOT
BRANCH   1  19
HETATM   19  C6  UNL     1       1.810   0.250   1.817  1.00  0.00    -0.027 A 
HETATM   20  C5  UNL     1       2.943   0.994   2.101  1.00  0.00    -0.048 A 
HETATM   21  C24 UNL     1       1.914   0.954   3.115  1.00  0.00     0.077 A 
BRANCH  20  22
HETATM   22  C4  UNL     1       4.255   1.571   1.828  1.00  0.00     0.007 C 
HETATM   23  C3  UNL     1       5.071   1.531   0.770  1.00  0.00    -0.003 C 
BRANCH  23  24
HETATM   24  C2  UNL     1       5.276   1.040  -0.585  1.00  0.00    -0.026 C 
HETATM   25  C1  UNL     1       6.232   1.106  -1.536  1.00  0.00     0.031 C 
ENDBRANCH  23  24
ENDBRANCH  20  22
ENDBRANCH   1  19
BRANCH   9  26
HETATM   26  N1  UNL     1       0.049   1.096  -0.524  1.00  0.00    -0.338 N 
HETATM   27  C15 UNL     1      -0.741   1.723  -1.482  1.00  0.00     0.218 C 
HETATM   28  O2  UNL     1      -1.871   1.214  -1.821  1.00  0.00    -0.274 OA
HETATM   29  H10 UNL     1       0.789   1.847  -0.579  1.00  0.00     0.164 HD
BRANCH  27  30
HETATM   30  C16 UNL     1      -1.215   2.661  -2.474  1.00  0.00     0.098 C 
HETATM   31  C17 UNL     1      -2.585   2.318  -3.031  1.00  0.00     0.014 C 
ENDBRANCH  27  30
ENDBRANCH   9  26
BRANCH  10  32
HETATM   32  O3  UNL     1      -0.715   0.384   2.566  1.00  0.00    -0.357 OA
HETATM   33  C19 UNL     1      -1.445   1.346   3.283  1.00  0.00     0.209 C 
ENDBRANCH  10  32
TORSDOF 6
