REMARK  5 active torsions:
REMARK  status: ('A' for Active; 'I' for Inactive)
REMARK    1  A    between atoms: C2_2  and  C3_3 
REMARK       I    between atoms: C3_3  and  N1_5 
REMARK    2  A    between atoms: N1_5  and  C4_6 
REMARK    3  A    between atoms: C11_13  and  O2_14 
REMARK    4  A    between atoms: O2_14  and  C12_15 
REMARK    5  A    between atoms: C22_30  and  O3_31 
ROOT
HETATM    1  C4  UNL     1      -3.238   0.618   0.342  1.00  0.00     0.069 A 
HETATM    2  C5  UNL     1      -1.995   0.199   0.276  1.00  0.00     0.048 A 
HETATM    3  C6  UNL     1      -1.252   0.679  -0.916  1.00  0.00     0.018 A 
HETATM    4  C7  UNL     1      -0.031   0.575  -1.336  1.00  0.00     0.030 C 
HETATM    5  C8  UNL     1       1.135   0.694  -2.126  1.00  0.00     0.072 C 
HETATM    6  C9  UNL     1       2.375   0.416  -2.318  1.00  0.00    -0.012 C 
HETATM    7  C10 UNL     1       3.585  -0.313  -1.797  1.00  0.00     0.031 C 
HETATM    8  C11 UNL     1       3.568  -1.108  -0.716  1.00  0.00     0.066 C 
HETATM    9  C18 UNL     1       2.583  -1.620   0.225  1.00  0.00     0.157 C 
HETATM   10  N2  UNL     1       2.562  -0.993   1.483  1.00  0.00    -0.285 NA
HETATM   11  P1  UNL     1       1.799   0.628   1.366  1.00  0.00     0.003 P 
HETATM   12  N3  UNL     1       0.507   0.607   0.089  1.00  0.00    -0.357 N 
HETATM   13  C19 UNL     1      -1.958   1.534  -1.848  1.00  0.00     0.065 A 
HETATM   14  N4  UNL     1      -1.380   1.979  -2.937  1.00  0.00    -0.294 NA
HETATM   15  C20 UNL     1      -2.051   2.827  -3.875  1.00  0.00     0.178 C 
HETATM   16  C21 UNL     1      -3.357   1.933  -1.655  1.00  0.00     0.071 A 
HETATM   17  C22 UNL     1      -3.931   1.470  -0.584  1.00  0.00     0.097 A 
HETATM   18  H17 UNL     1       3.408  -0.976   1.990  1.00  0.00     0.128 HD
HETATM   19  H18 UNL     1       2.764   1.680   1.168  1.00  0.00     0.088 HD
HETATM   20  H19 UNL     1       0.169   0.669   1.111  1.00  0.00     0.225 HD
ENDROOT
BRANCH   1  21
HETATM   21  N1  UNL     1      -3.721   0.040   1.537  1.00  0.00    -0.325 N 
HETATM   22  C3  UNL     1      -4.781  -0.864   1.264  1.00  0.00     0.221 C 
HETATM   23  O1  UNL     1      -5.301  -1.185   0.166  1.00  0.00    -0.273 OA
HETATM   24  H6  UNL     1      -3.551   0.058   2.554  1.00  0.00     0.169 HD
BRANCH  22  25
HETATM   25  C2  UNL     1      -5.618  -1.711   2.178  1.00  0.00     0.098 C 
HETATM   26  C1  UNL     1      -6.745  -2.302   1.337  1.00  0.00     0.014 C 
ENDBRANCH  22  25
ENDBRANCH   1  21
BRANCH  17  27
HETATM   27  O3  UNL     1      -5.236   1.858  -0.413  1.00  0.00    -0.354 OA
HETATM   28  C23 UNL     1      -5.902   1.932   0.786  1.00  0.00     0.210 C 
ENDBRANCH  17  27
BRANCH   8  29
HETATM   29  O2  UNL     1       4.867  -1.486  -0.631  1.00  0.00    -0.314 OA
BRANCH  29  30
HETATM   30  C12 UNL     1       5.842  -1.131   0.198  1.00  0.00     0.078 A 
HETATM   31  C13 UNL     1       6.963  -1.901  -0.184  1.00  0.00     0.037 A 
HETATM   32  C14 UNL     1       8.194  -1.773   0.509  1.00  0.00     0.006 A 
HETATM   33  C15 UNL     1       8.283  -0.893   1.548  1.00  0.00     0.042 A 
HETATM   34  C16 UNL     1       7.228  -0.104   1.975  1.00  0.00     0.119 A 
HETATM   35  F1  UNL     1       7.189   0.783   2.987  1.00  0.00    -0.206 F 
HETATM   36  C17 UNL     1       6.071  -0.281   1.263  1.00  0.00     0.079 A 
ENDBRANCH  29  30
ENDBRANCH   8  29
TORSDOF 5
