REMARK  4 active torsions:
REMARK  status: ('A' for Active; 'I' for Inactive)
REMARK    1  A    between atoms: C2_2  and  C3_3 
REMARK    2  A    between atoms: C8_9  and  N2_10 
REMARK       I    between atoms: N2_10  and  C9_11 
REMARK    3  A    between atoms: C9_11  and  C10_13 
REMARK    4  A    between atoms: C24_30  and  O3_31 
ROOT
HETATM    1  C3  UNL     1      -2.518   1.782   1.000  1.00  0.00     0.065 C 
HETATM    2  C4  UNL     1      -1.776   0.521   1.308  1.00  0.00     0.004 C 
HETATM    3  C5  UNL     1      -0.577  -0.021   1.336  1.00  0.00     0.114 C 
HETATM    4  N1  UNL     1       0.774   0.310   1.070  1.00  0.00    -0.259 NA
HETATM    5  C6  UNL     1       1.283  -0.212  -0.025  1.00  0.00     0.087 C 
HETATM    6  C7  UNL     1       2.656   0.331   0.021  1.00  0.00     0.061 C 
HETATM    7  C8  UNL     1       3.751   0.129  -0.708  1.00  0.00     0.038 C 
HETATM    8  C12 UNL     1       4.118  -0.699  -1.874  1.00  0.00     0.231 C 
HETATM    9  O2  UNL     1       3.171  -0.862  -2.862  1.00  0.00    -0.357 OA
HETATM   10  C13 UNL     1       1.898  -1.332  -3.148  1.00  0.00     0.137 C 
HETATM   11  C14 UNL     1       0.848  -1.414  -2.347  1.00  0.00     0.058 C 
HETATM   12  C15 UNL     1       0.544  -1.095  -0.958  1.00  0.00     0.088 C 
HETATM   13  N3  UNL     1      -0.510  -1.692  -0.562  1.00  0.00    -0.240 NA
HETATM   14  C16 UNL     1      -1.332  -2.559  -1.295  1.00  0.00     0.227 C 
HETATM   15  N4  UNL     1      -2.459  -2.198  -1.855  1.00  0.00    -0.278 NA
HETATM   16  C17 UNL     1      -2.909  -0.803  -1.721  1.00  0.00     0.189 C 
HETATM   17  C18 UNL     1      -3.998  -0.790  -0.716  1.00  0.00    -0.029 A 
HETATM   18  C19 UNL     1      -4.762  -1.930  -0.539  1.00  0.00     0.009 A 
HETATM   19  C20 UNL     1      -5.809  -2.080   0.345  1.00  0.00     0.001 A 
HETATM   20  C21 UNL     1      -6.098  -0.972   1.109  1.00  0.00     0.001 A 
HETATM   21  C22 UNL     1      -5.365   0.186   0.968  1.00  0.00     0.010 A 
HETATM   22  C23 UNL     1      -4.323   0.319   0.082  1.00  0.00    -0.021 A 
HETATM   23  C24 UNL     1      -3.488   1.507  -0.133  1.00  0.00     0.163 C 
ENDROOT
BRANCH   7  24
HETATM   24  N2  UNL     1       4.817   0.954  -0.184  1.00  0.00    -0.329 N 
HETATM   25  C9  UNL     1       5.933   0.219   0.254  1.00  0.00     0.221 C 
HETATM   26  O1  UNL     1       6.119  -1.026   0.250  1.00  0.00    -0.273 OA
HETATM   27  H8  UNL     1       4.876   2.000  -0.085  1.00  0.00     0.168 HD
BRANCH  25  28
HETATM   28  C10 UNL     1       7.171   0.841   0.840  1.00  0.00     0.098 C 
HETATM   29  C11 UNL     1       8.119  -0.292   1.178  1.00  0.00     0.014 C 
ENDBRANCH  25  28
ENDBRANCH   7  24
BRANCH   1  30
HETATM   30  C2  UNL     1      -3.289   2.130   2.237  1.00  0.00    -0.025 C 
HETATM   31  C1  UNL     1      -3.102   3.333   2.816  1.00  0.00     0.007 C 
ENDBRANCH   1  30
BRANCH  23  32
HETATM   32  O3  UNL     1      -4.365   2.618  -0.157  1.00  0.00    -0.390 OA
HETATM   33  H26 UNL     1      -5.304   2.346  -0.192  1.00  0.00     0.210 HD
ENDBRANCH  23  32
TORSDOF 4
