REMARK  4 active torsions:
REMARK  status: ('A' for Active; 'I' for Inactive)
REMARK    1  A    between atoms: C2_2  and  C3_3 
REMARK       I    between atoms: C3_3  and  N1_5 
REMARK    2  A    between atoms: N1_5  and  C4_6 
REMARK    3  A    between atoms: C10_14  and  C11_15 
REMARK    4  A    between atoms: C23_28  and  O2_29 
ROOT
HETATM    1  C4  UNL     1       1.364   0.257   0.608  1.00  0.00     0.046 C 
HETATM    2  C5  UNL     1       1.200   1.220   1.606  1.00  0.00     0.063 C 
HETATM    3  C6  UNL     1       0.348   2.301   1.140  1.00  0.00     0.190 A 
HETATM    4  N2  UNL     1       0.891   3.584   0.869  1.00  0.00    -0.241 NA
HETATM    5  C7  UNL     1       0.676   3.898  -0.345  1.00  0.00     0.230 A 
HETATM    6  N3  UNL     1      -0.035   2.863  -1.066  1.00  0.00    -0.242 NA
HETATM    7  C8  UNL     1      -0.232   1.901  -0.195  1.00  0.00     0.096 A 
HETATM    8  C9  UNL     1      -0.820   0.530  -0.307  1.00  0.00    -0.001 C 
HETATM    9  C10 UNL     1      -2.106   0.054  -0.101  1.00  0.00     0.038 A 
HETATM   10  C17 UNL     1      -2.598   1.331   0.545  1.00  0.00     0.023 A 
HETATM   11  C18 UNL     1      -2.263   0.484   1.627  1.00  0.00     0.060 A 
HETATM   12  C19 UNL     1      -1.627   1.064   2.685  1.00  0.00    -0.014 A 
HETATM   13  C20 UNL     1      -1.936   1.917   1.654  1.00  0.00     0.047 A 
HETATM   14  C21 UNL     1      -2.245   2.746   0.634  1.00  0.00     0.051 A 
HETATM   15  C22 UNL     1      -2.900   2.168  -0.464  1.00  0.00    -0.031 A 
HETATM   16  N4  UNL     1      -0.730   2.624   2.117  1.00  0.00    -0.375 N 
HETATM   17  C23 UNL     1       0.500  -0.214  -0.528  1.00  0.00     0.202 C 
HETATM   18  H18 UNL     1      -0.413   3.271   2.899  1.00  0.00     0.157 HD
ENDROOT
BRANCH   1  19
HETATM   19  N1  UNL     1       2.640  -0.426   0.721  1.00  0.00    -0.328 N 
HETATM   20  C3  UNL     1       3.715  -0.464  -0.183  1.00  0.00     0.221 C 
HETATM   21  O1  UNL     1       3.923   0.041  -1.308  1.00  0.00    -0.273 OA
HETATM   22  H6  UNL     1       2.680  -0.934   1.630  1.00  0.00     0.168 HD
BRANCH  20  23
HETATM   23  C2  UNL     1       4.901  -1.279   0.248  1.00  0.00     0.098 C 
HETATM   24  C1  UNL     1       5.976  -1.228  -0.803  1.00  0.00     0.014 C 
ENDBRANCH  20  23
ENDBRANCH   1  19
BRANCH  17  25
HETATM   25  O2  UNL     1       1.033   0.295  -1.693  1.00  0.00    -0.380 OA
HETATM   26  C24 UNL     1       1.121  -0.652  -2.708  1.00  0.00     0.202 C 
ENDBRANCH  17  25
BRANCH   9  27
HETATM   27  C11 UNL     1      -2.726  -1.255  -0.220  1.00  0.00    -0.043 A 
HETATM   28  C12 UNL     1      -3.961  -1.184  -0.875  1.00  0.00     0.008 A 
HETATM   29  C13 UNL     1      -4.677  -2.343  -1.061  1.00  0.00     0.001 A 
HETATM   30  C14 UNL     1      -4.094  -3.493  -0.571  1.00  0.00     0.000 A 
HETATM   31  C15 UNL     1      -2.885  -3.622   0.080  1.00  0.00     0.001 A 
HETATM   32  C16 UNL     1      -2.201  -2.436   0.245  1.00  0.00     0.008 A 
ENDBRANCH   9  27
TORSDOF 4
