REMARK  6 active torsions:
REMARK  status: ('A' for Active; 'I' for Inactive)
REMARK    1  A    between atoms: C2_2  and  C3_3 
REMARK    2  A    between atoms: C4_4  and  C5_5 
REMARK    3  A    between atoms: C5_5  and  O1_6 
REMARK    4  A    between atoms: O1_6  and  C6_7 
REMARK    5  A    between atoms: C9_10  and  N1_11 
REMARK    6  A    between atoms: C12_16  and  C13_17 
ROOT
HETATM    1  C6  UNL     1       0.828   0.281  -0.686  1.00  0.00     0.069 A 
HETATM    2  C7  UNL     1       0.001   0.848  -1.632  1.00  0.00     0.039 A 
HETATM    3  C8  UNL     1      -1.348   0.516  -1.471  1.00  0.00     0.034 A 
HETATM    4  C9  UNL     1      -1.904  -0.301  -0.484  1.00  0.00     0.054 A 
HETATM    5  C14 UNL     1      -0.989  -0.815   0.406  1.00  0.00     0.034 A 
HETATM    6  C15 UNL     1       0.355  -0.536   0.318  1.00  0.00     0.039 A 
ENDROOT
BRANCH   4   7
HETATM    7  N1  UNL     1      -3.331  -0.511  -0.531  1.00  0.00    -0.258 N 
HETATM    8  N2  UNL     1      -3.535  -1.196  -1.713  1.00  0.00    -0.165 NA
HETATM    9  C10 UNL     1      -4.698  -1.562  -2.123  1.00  0.00     0.254 A 
HETATM   10  N3  UNL     1      -5.838  -1.242  -1.314  1.00  0.00    -0.254 NA
HETATM   11  C11 UNL     1      -5.675  -0.591  -0.191  1.00  0.00     0.119 A 
HETATM   12  C12 UNL     1      -4.390  -0.118   0.376  1.00  0.00     0.161 A 
BRANCH  12  13
HETATM   13  C13 UNL     1      -4.185  -0.818   1.698  1.00  0.00     0.118 C 
HETATM   14 BR1  UNL     1      -5.596  -0.340   2.951  1.00  0.00    -0.094 Br
ENDBRANCH  12  13
ENDBRANCH   4   7
BRANCH   1  15
HETATM   15  O1  UNL     1       2.177   0.588  -0.812  1.00  0.00    -0.347 OA
BRANCH  15  16
HETATM   16  C5  UNL     1       3.068   0.034   0.129  1.00  0.00     0.203 C 
BRANCH  16  17
HETATM   17  C4  UNL     1       4.445   0.482  -0.181  1.00  0.00    -0.001 C 
HETATM   18  C3  UNL     1       5.219   1.175   0.633  1.00  0.00    -0.006 C 
BRANCH  18  19
HETATM   19  C2  UNL     1       6.557   1.547   0.190  1.00  0.00    -0.027 C 
HETATM   20  C1  UNL     1       7.371   2.241   0.968  1.00  0.00     0.031 C 
ENDBRANCH  18  19
ENDBRANCH  16  17
ENDBRANCH  15  16
ENDBRANCH   1  15
TORSDOF 6
