REMARK  9 active torsions:
REMARK  status: ('A' for Active; 'I' for Inactive)
REMARK    1  A    between atoms: C2_2  and  C3_3 
REMARK       I    between atoms: C3_3  and  N1_5 
REMARK    2  A    between atoms: N1_5  and  C4_6 
REMARK    3  A    between atoms: N2_10  and  C8_11 
REMARK    4  A    between atoms: N3_12  and  C9_13 
REMARK    5  A    between atoms: C9_13  and  C10_14 
REMARK    6  A    between atoms: C13_17  and  C14_18 
REMARK    7  A    between atoms: C14_18  and  O2_19 
REMARK    8  A    between atoms: C14_18  and  C15_20 
REMARK    9  A    between atoms: C24_29  and  O3_30 
ROOT
HETATM    1  C8  UNL     1      -0.028  -1.860  -0.169  1.00  0.00     0.227 C 
HETATM    2  N3  UNL     1      -0.152  -2.379   1.003  1.00  0.00    -0.278 NA
ENDROOT
BRANCH   2   3
HETATM    3  C9  UNL     1      -1.319  -2.122   1.819  1.00  0.00     0.188 C 
BRANCH   3   4
HETATM    4  C10 UNL     1      -2.263  -1.303   1.018  1.00  0.00    -0.038 A 
HETATM    5  C11 UNL     1      -3.177  -1.967   0.259  1.00  0.00     0.009 A 
HETATM    6  C12 UNL     1      -4.070  -1.222  -0.499  1.00  0.00     0.011 A 
HETATM    7  C13 UNL     1      -4.081   0.156  -0.525  1.00  0.00    -0.025 A 
HETATM    8  C21 UNL     1      -3.128   0.800   0.266  1.00  0.00     0.011 A 
HETATM    9  C22 UNL     1      -2.220   0.075   1.036  1.00  0.00     0.009 A 
BRANCH   7  10
HETATM   10  C14 UNL     1      -5.044   0.943  -1.342  1.00  0.00     0.184 C 
BRANCH  10  11
HETATM   11  O2  UNL     1      -5.173   0.432  -2.648  1.00  0.00    -0.386 OA
HETATM   12  H16 UNL     1      -4.489  -0.274  -2.821  1.00  0.00     0.210 HD
ENDBRANCH  10  11
BRANCH  10  13
HETATM   13  C15 UNL     1      -6.387   1.046  -0.687  1.00  0.00    -0.025 A 
HETATM   14  C16 UNL     1      -7.231  -0.037  -0.828  1.00  0.00     0.010 A 
HETATM   15  C17 UNL     1      -8.490  -0.032  -0.258  1.00  0.00     0.001 A 
HETATM   16  C18 UNL     1      -8.927   1.059   0.463  1.00  0.00     0.000 A 
HETATM   17  C19 UNL     1      -8.065   2.128   0.589  1.00  0.00     0.001 A 
HETATM   18  C20 UNL     1      -6.790   2.160   0.030  1.00  0.00     0.010 A 
ENDBRANCH  10  13
ENDBRANCH   7  10
ENDBRANCH   3   4
ENDBRANCH   2   3
BRANCH   1  19
HETATM   19  N2  UNL     1       1.212  -2.546  -0.218  1.00  0.00    -0.247 NA
HETATM   20  C7  UNL     1       2.289  -1.845  -0.189  1.00  0.00     0.042 A 
HETATM   21  C6  UNL     1       2.123  -0.373  -0.106  1.00  0.00     0.088 A 
HETATM   22  C23 UNL     1       3.629  -2.413  -0.233  1.00  0.00     0.066 A 
HETATM   23  C5  UNL     1       3.471   0.231  -0.085  1.00  0.00     0.012 A 
HETATM   24  C4  UNL     1       4.684  -0.246  -0.123  1.00  0.00     0.065 A 
HETATM   25  C24 UNL     1       4.738  -1.695  -0.204  1.00  0.00     0.096 A 
BRANCH  24  26
HETATM   26  N1  UNL     1       5.903   0.468  -0.095  1.00  0.00    -0.325 N 
HETATM   27  C3  UNL     1       6.127   1.860  -0.020  1.00  0.00     0.221 C 
HETATM   28  O1  UNL     1       5.149   2.643   0.033  1.00  0.00    -0.273 OA
HETATM   29  H6  UNL     1       6.801  -0.059  -0.132  1.00  0.00     0.169 HD
BRANCH  27  30
HETATM   30  C2  UNL     1       7.472   2.489   0.003  1.00  0.00     0.098 C 
HETATM   31  C1  UNL     1       7.383   3.977   0.086  1.00  0.00     0.014 C 
ENDBRANCH  27  30
ENDBRANCH  24  26
BRANCH  25  32
HETATM   32  O3  UNL     1       5.953  -2.367  -0.252  1.00  0.00    -0.354 OA
HETATM   33  C25 UNL     1       6.494  -2.857   0.962  1.00  0.00     0.210 C 
ENDBRANCH  25  32
ENDBRANCH   1  19
TORSDOF 9
