REMARK  5 active torsions:
REMARK  status: ('A' for Active; 'I' for Inactive)
REMARK    1  A    between atoms: O1_2  and  C2_3 
REMARK    2  A    between atoms: C12_15  and  C13_16 
REMARK    3  A    between atoms: C13_16  and  C14_17 
REMARK    4  A    between atoms: C14_17  and  N3_18 
REMARK    5  A    between atoms: C16_21  and  C17_22 
ROOT
HETATM    1  C17 UNL     1      -2.970   2.334  -1.135  1.00  0.00    -0.065 C 
HETATM    2  C18 UNL     1      -3.877   3.058  -0.719  1.00  0.00     0.106 C 
HETATM    3  F1  UNL     1      -4.842   3.856  -0.277  1.00  0.00    -0.144 F 
ENDROOT
BRANCH   1   4
HETATM    4  C16 UNL     1      -1.881   1.483  -1.654  1.00  0.00     0.019 C 
HETATM    5  C15 UNL     1      -2.280   0.022  -2.047  1.00  0.00     0.023 C 
HETATM    6  C12 UNL     1      -2.658  -0.733  -0.809  1.00  0.00    -0.012 C 
HETATM    7  C11 UNL     1      -1.615  -0.605   0.272  1.00  0.00     0.005 C 
HETATM    8  C10 UNL     1      -0.249  -0.841  -0.261  1.00  0.00     0.001 C 
HETATM    9  C9  UNL     1       0.790  -0.396   0.795  1.00  0.00     0.016 C 
HETATM   10  C8  UNL     1       2.146  -0.439   0.187  1.00  0.00     0.081 A 
HETATM   11  C2  UNL     1       3.119  -1.325   0.864  1.00  0.00     0.056 A 
HETATM   12  C7  UNL     1       2.871   0.847   0.152  1.00  0.00     0.027 A 
HETATM   13  C3  UNL     1       4.258  -0.743   1.198  1.00  0.00     0.065 A 
HETATM   14  C4  UNL     1       4.100   0.634   0.746  1.00  0.00     0.071 A 
HETATM   15  N1  UNL     1       5.072   1.578   0.908  1.00  0.00    -0.241 NA
HETATM   16  C5  UNL     1       4.854   2.830   0.469  1.00  0.00     0.235 A 
HETATM   17  N2  UNL     1       3.666   3.059  -0.110  1.00  0.00    -0.224 NA
HETATM   18  C6  UNL     1       2.709   2.146  -0.275  1.00  0.00     0.134 A 
HETATM   19  N4  UNL     1       1.453   2.328  -0.859  1.00  0.00    -0.374 N 
HETATM   20  C20 UNL     1       0.646   2.253  -2.070  1.00  0.00     0.128 C 
HETATM   21  H23 UNL     1       1.003   2.660   0.049  1.00  0.00     0.161 HD
HETATM   22  C19 UNL     1      -0.775   2.354  -1.652  1.00  0.00     0.079 C 
BRANCH   6  23
HETATM   23  C13 UNL     1      -4.022  -0.520  -0.283  1.00  0.00     0.029 C 
BRANCH  23  24
HETATM   24  C14 UNL     1      -4.353  -1.568   0.791  1.00  0.00     0.182 C 
BRANCH  24  25
HETATM   25  N3  UNL     1      -5.703  -1.339   1.279  1.00  0.00    -0.141 NA
HETATM   26  O2  UNL     1      -6.430  -2.243   1.544  1.00  0.00    -0.067 OA
ENDBRANCH  24  25
ENDBRANCH  23  24
ENDBRANCH   6  23
BRANCH  11  27
HETATM   27  O1  UNL     1       2.712  -2.633   1.054  1.00  0.00    -0.359 OA
HETATM   28  C1  UNL     1       3.670  -3.647   0.720  1.00  0.00     0.209 C 
ENDBRANCH  11  27
ENDBRANCH   1   4
TORSDOF 5
