REMARK  6 active torsions:
REMARK  status: ('A' for Active; 'I' for Inactive)
REMARK    1  A    between atoms: O1_2  and  P1_3 
REMARK    2  A    between atoms: C5_9  and  N3_10 
REMARK    3  A    between atoms: N3_10  and  C6_11 
REMARK    4  A    between atoms: C14_21  and  C15_22 
REMARK    5  A    between atoms: C15_22  and  N4_23 
REMARK    6  A    between atoms: C19_27  and  C20_28 
REMARK       I    between atoms: C20_28  and  N5_29 
ROOT
HETATM    1  P1  UNL     1      -1.130   2.432   1.323  1.00  0.00     0.019 P 
HETATM    2  C2  UNL     1       0.249   2.659   2.191  1.00  0.00     0.062 A 
HETATM    3  C3  UNL     1       1.461   1.910   1.942  1.00  0.00     0.074 A 
HETATM    4  N1  UNL     1       2.469   2.288   2.748  1.00  0.00    -0.241 NA
HETATM    5  C4  UNL     1       3.678   1.700   2.657  1.00  0.00     0.236 A 
HETATM    6  N2  UNL     1       3.784   0.747   1.732  1.00  0.00    -0.224 NA
HETATM    7  C5  UNL     1       2.821   0.332   0.907  1.00  0.00     0.142 A 
HETATM    8  C12 UNL     1       1.588   0.925   0.993  1.00  0.00     0.040 A 
HETATM    9  C13 UNL     1       0.434   0.614   0.183  1.00  0.00     0.029 A 
HETATM   10  C14 UNL     1      -0.792   1.126   0.169  1.00  0.00    -0.013 A 
HETATM   11  H4  UNL     1      -2.120   2.163   2.246  1.00  0.00     0.090 HD
ENDROOT
BRANCH  10  12
HETATM   12  C15 UNL     1      -1.703   0.550  -0.829  1.00  0.00     0.159 C 
BRANCH  12  13
HETATM   13  N4  UNL     1      -2.835  -0.142  -0.412  1.00  0.00    -0.396 N 
HETATM   14  C16 UNL     1      -3.930   0.427   0.204  1.00  0.00     0.118 C 
HETATM   15  C17 UNL     1      -4.921  -0.731   0.396  1.00  0.00     0.022 C 
HETATM   16  C18 UNL     1      -4.035  -1.973   0.354  1.00  0.00     0.036 C 
HETATM   17  C19 UNL     1      -2.875  -1.549  -0.534  1.00  0.00     0.171 C 
BRANCH  17  18
HETATM   18  C20 UNL     1      -3.298  -1.865  -1.941  1.00  0.00     0.238 C 
HETATM   19  N5  UNL     1      -3.593  -0.841  -2.889  1.00  0.00    -0.368 N 
HETATM   20  H21 UNL     1      -2.965  -0.439  -3.607  1.00  0.00     0.159 HD
HETATM   21  H22 UNL     1      -4.600  -0.662  -2.609  1.00  0.00     0.159 HD
HETATM   22  O2  UNL     1      -3.332  -3.108  -2.088  1.00  0.00    -0.271 OA
ENDBRANCH  17  18
ENDBRANCH  12  13
ENDBRANCH  10  12
BRANCH   1  23
HETATM   23  O1  UNL     1      -1.494   3.883   0.522  1.00  0.00    -0.369 OA
HETATM   24  C1  UNL     1      -2.794   4.033   0.138  1.00  0.00     0.207 C 
ENDBRANCH   1  23
BRANCH   7  25
HETATM   25  N3  UNL     1       3.042  -0.676  -0.026  1.00  0.00    -0.338 N 
HETATM   26  H7  UNL     1       2.277  -1.030  -0.634  1.00  0.00     0.167 HD
BRANCH  25  27
HETATM   27  C6  UNL     1       4.227  -1.382  -0.331  1.00  0.00     0.074 A 
HETATM   28  C7  UNL     1       5.439  -1.152   0.279  1.00  0.00     0.033 A 
HETATM   29  C8  UNL     1       6.610  -1.816   0.016  1.00  0.00     0.004 A 
HETATM   30  C9  UNL     1       6.604  -2.798  -0.931  1.00  0.00     0.027 A 
HETATM   31  C10 UNL     1       5.441  -3.104  -1.598  1.00  0.00     0.074 A 
HETATM   32 CL1  UNL     1       5.399  -4.354  -2.812  1.00  0.00    -0.081 Cl
HETATM   33  C11 UNL     1       4.312  -2.390  -1.273  1.00  0.00     0.164 A 
HETATM   34  F1  UNL     1       3.177  -2.734  -1.967  1.00  0.00    -0.202 F 
ENDBRANCH  25  27
ENDBRANCH   7  25
TORSDOF 6
