REMARK  7 active torsions:
REMARK  status: ('A' for Active; 'I' for Inactive)
REMARK    1  A    between atoms: O1_2  and  C2_3 
REMARK    2  A    between atoms: C6_9  and  C7_10 
REMARK    3  A    between atoms: C8_11  and  N3_12 
REMARK    4  A    between atoms: N3_12  and  C9_13 
REMARK    5  A    between atoms: C12_16  and  C13_17 
REMARK    6  A    between atoms: C13_17  and  O2_18 
REMARK    7  A    between atoms: C13_17  and  C14_19 
ROOT
HETATM    1  N3  UNL     1       0.384   1.302  -1.277  1.00  0.00    -0.366 N 
HETATM    2  H9  UNL     1       0.759   1.105  -2.224  1.00  0.00     0.165 HD
ENDROOT
BRANCH   1   3
HETATM    3  C8  UNL     1       0.801   2.241  -0.299  1.00  0.00     0.090 C 
HETATM    4  C7  UNL     1       1.566   2.367   0.771  1.00  0.00     0.048 C 
BRANCH   4   5
HETATM    5  C6  UNL     1       2.348   1.257   1.304  1.00  0.00     0.053 C 
HETATM    6  N2  UNL     1       2.269   0.024   0.625  1.00  0.00    -0.243 NA
HETATM    7  C5  UNL     1       2.713  -0.224  -0.559  1.00  0.00     0.233 C 
HETATM    8  N1  UNL     1       3.388   0.320  -1.716  1.00  0.00    -0.254 NA
HETATM    9  C4  UNL     1       4.656   0.616  -1.503  1.00  0.00     0.120 C 
HETATM   10  C3  UNL     1       5.762   0.635  -0.555  1.00  0.00     0.050 C 
HETATM   11  C2  UNL     1       5.862   0.195   0.686  1.00  0.00     0.038 C 
HETATM   12  C23 UNL     1       4.946  -0.509   1.580  1.00  0.00     0.012 C 
HETATM   13  B1  UNL     1       4.347   0.513   2.885  1.00  0.00     0.192 B 
HETATM   14  C22 UNL     1       3.008   1.647   2.397  1.00  0.00    -0.081 C 
BRANCH  11  15
HETATM   15  O1  UNL     1       7.152   0.468   1.205  1.00  0.00    -0.361 OA
HETATM   16  C1  UNL     1       8.280  -0.219   0.689  1.00  0.00     0.209 C 
ENDBRANCH  11  15
ENDBRANCH   4   5
ENDBRANCH   1   3
BRANCH   1  17
HETATM   17  C9  UNL     1      -0.740   0.480  -0.915  1.00  0.00     0.031 A 
HETATM   18  C10 UNL     1      -1.325   0.659   0.338  1.00  0.00     0.030 A 
HETATM   19  C11 UNL     1      -2.421  -0.092   0.779  1.00  0.00     0.012 A 
HETATM   20  C12 UNL     1      -2.929  -1.046  -0.080  1.00  0.00    -0.025 A 
HETATM   21  C20 UNL     1      -2.369  -1.244  -1.325  1.00  0.00     0.012 A 
HETATM   22  C21 UNL     1      -1.295  -0.488  -1.721  1.00  0.00     0.030 A 
BRANCH  20  23
HETATM   23  C13 UNL     1      -4.082  -1.871   0.325  1.00  0.00     0.184 C 
BRANCH  23  24
HETATM   24  O2  UNL     1      -3.977  -2.366   1.623  1.00  0.00    -0.386 OA
HETATM   25  H13 UNL     1      -4.533  -1.866   2.271  1.00  0.00     0.210 HD
ENDBRANCH  23  24
BRANCH  23  26
HETATM   26  C14 UNL     1      -5.375  -1.124   0.148  1.00  0.00    -0.025 A 
HETATM   27  C15 UNL     1      -6.521  -1.709   0.649  1.00  0.00     0.010 A 
HETATM   28  C16 UNL     1      -7.654  -0.955   0.442  1.00  0.00     0.001 A 
HETATM   29  C17 UNL     1      -7.684   0.260  -0.194  1.00  0.00     0.000 A 
HETATM   30  C18 UNL     1      -6.497   0.805  -0.681  1.00  0.00     0.001 A 
HETATM   31  C19 UNL     1      -5.339   0.091  -0.499  1.00  0.00     0.010 A 
ENDBRANCH  23  26
ENDBRANCH  20  23
ENDBRANCH   1  17
TORSDOF 7
