REMARK  5 active torsions:
REMARK  status: ('A' for Active; 'I' for Inactive)
REMARK    1  A    between atoms: C3_3  and  C4_4 
REMARK    2  A    between atoms: C4_4  and  C5_5 
REMARK    3  A    between atoms: C5_5  and  O1_6 
REMARK    4  A    between atoms: C13_17  and  N4_18 
REMARK       I    between atoms: N4_18  and  C14_19 
REMARK    5  A    between atoms: C14_19  and  C15_21 
ROOT
HETATM    1  O1  UNL     1       1.329   1.526  -0.661  1.00  0.00     0.000 OA
HETATM    2  C6  UNL     1       0.217   0.793  -0.198  1.00  0.00     0.032 A 
HETATM    3  C7  UNL     1      -0.831   0.168  -0.037  1.00  0.00    -0.015 C 
HETATM    4  C8  UNL     1       0.047   0.883  -1.118  1.00  0.00     0.314 A 
HETATM    5  N1  UNL     1      -0.442   0.383  -2.292  1.00  0.00    -0.414 NA
HETATM    6  C9  UNL     1      -1.490  -0.577  -2.167  1.00  0.00     0.231 C 
HETATM    7  N2  UNL     1      -2.100  -1.746  -2.095  1.00  0.00    -0.283 NA
HETATM    8  C10 UNL     1      -1.374  -3.043  -2.176  1.00  0.00     0.264 C 
HETATM    9  N3  UNL     1      -0.990  -3.457  -0.779  1.00  0.00    -0.387 N 
HETATM   10  C11 UNL     1      -2.229  -3.183  -0.127  1.00  0.00     0.148 C 
HETATM   11  C12 UNL     1      -2.496  -1.690   0.118  1.00  0.00     0.022 C 
HETATM   12  C13 UNL     1      -2.137  -0.423   0.189  1.00  0.00     0.037 C 
HETATM   13  C17 UNL     1       0.385  -3.955  -0.418  1.00  0.00     0.023 A 
HETATM   14  C18 UNL     1       1.592  -3.351   0.241  1.00  0.00     0.021 A 
HETATM   15  C19 UNL     1       2.003  -2.168   0.851  1.00  0.00     0.004 A 
HETATM   16  C20 UNL     1       1.399  -0.830   1.166  1.00  0.00    -0.036 A 
HETATM   17  C21 UNL     1       0.309  -1.481   0.551  1.00  0.00     0.037 A 
HETATM   18  C22 UNL     1       0.593  -2.818   0.107  1.00  0.00     0.084 A 
HETATM   19  C23 UNL     1       0.535   0.474   1.318  1.00  0.00     0.003 C 
HETATM   20  C24 UNL     1       1.456   1.436   1.918  1.00  0.00     0.011 C 
ENDROOT
BRANCH  12  21
HETATM   21  N4  UNL     1      -3.343   0.371   0.626  1.00  0.00    -0.327 N 
HETATM   22  C14 UNL     1      -4.213   1.336  -0.079  1.00  0.00     0.221 C 
HETATM   23  O2  UNL     1      -3.715   1.492  -1.212  1.00  0.00    -0.273 OA
HETATM   24  H15 UNL     1      -3.067  -0.112   1.456  1.00  0.00     0.169 HD
BRANCH  22  25
HETATM   25  C15 UNL     1      -5.215   1.595   0.965  1.00  0.00     0.098 C 
HETATM   26  C16 UNL     1      -6.527   2.178   0.461  1.00  0.00     0.014 C 
ENDBRANCH  22  25
ENDBRANCH  12  21
BRANCH   1  27
HETATM   27  C5  UNL     1       2.564   0.715  -0.702  1.00  0.00     0.000 C 
BRANCH  27  28
HETATM   28  C4  UNL     1       3.260   1.856  -0.477  1.00  0.00    -0.000 C 
BRANCH  28  29
HETATM   29  C3  UNL     1       4.706   1.410  -0.398  1.00  0.00    -0.004 C 
HETATM   30  C2  UNL     1       5.518   2.505  -0.182  1.00  0.00    -0.031 C 
HETATM   31  C1  UNL     1       6.852   3.194   0.050  1.00  0.00     0.036 C 
ENDBRANCH  28  29
ENDBRANCH  27  28
ENDBRANCH   1  27
TORSDOF 5
