REMARK  8 active torsions:
REMARK  status: ('A' for Active; 'I' for Inactive)
REMARK    1  A    between atoms: N3_9  and  C7_10 
REMARK    2  A    between atoms: C10_13  and  O1_14 
REMARK    3  A    between atoms: O1_14  and  C11_15 
REMARK    4  A    between atoms: C11_15  and  C12_16 
REMARK    5  A    between atoms: C21_25  and  N4_26 
REMARK    6  A    between atoms: N4_26  and  C22_27 
REMARK    7  A    between atoms: C22_27  and  O2_28 
REMARK    8  A    between atoms: C22_27  and  C23_29 
ROOT
HETATM    1  C1  UNL     1      -6.037  -0.224  -0.601  1.00  0.00     0.046 C 
HETATM    2  C2  UNL     1      -4.658  -0.694  -0.337  1.00  0.00    -0.046 C 
HETATM    3  C3  UNL     1      -5.073  -1.896   0.161  1.00  0.00     0.070 C 
HETATM    4  C4  UNL     1      -4.641  -3.190   0.736  1.00  0.00     0.101 C 
HETATM    5  N1  UNL     1      -3.830  -4.129   1.178  1.00  0.00    -0.258 NA
HETATM    6  C5  UNL     1      -2.397  -3.913   1.156  1.00  0.00     0.227 C 
HETATM    7  N2  UNL     1      -2.102  -2.815   0.612  1.00  0.00    -0.263 NA
HETATM    8  C6  UNL     1      -0.867  -2.192   0.372  1.00  0.00     0.279 C 
HETATM    9  N3  UNL     1      -1.053  -0.794  -0.080  1.00  0.00    -0.336 N 
HETATM   10  C20 UNL     1      -2.196  -0.008  -0.492  1.00  0.00     0.122 C 
HETATM   11  C21 UNL     1      -3.491   0.180  -0.650  1.00  0.00     0.048 C 
ENDROOT
BRANCH   9  12
HETATM   12  C7  UNL     1       0.233  -0.140  -0.121  1.00  0.00     0.035 A 
HETATM   13  C8  UNL     1       1.377  -0.770  -0.470  1.00  0.00     0.032 A 
HETATM   14  C9  UNL     1       2.588  -0.153  -0.489  1.00  0.00     0.039 A 
HETATM   15  C10 UNL     1       2.744   1.161  -0.154  1.00  0.00     0.069 A 
HETATM   16  C18 UNL     1       1.574   1.837   0.211  1.00  0.00     0.039 A 
HETATM   17  C19 UNL     1       0.320   1.204   0.232  1.00  0.00     0.032 A 
BRANCH  15  18
HETATM   18  O1  UNL     1       3.757   2.035  -0.071  1.00  0.00    -0.347 OA
BRANCH  18  19
HETATM   19  C11 UNL     1       5.097   1.884  -0.311  1.00  0.00     0.214 C 
BRANCH  19  20
HETATM   20  C12 UNL     1       5.815   0.907   0.525  1.00  0.00    -0.034 A 
HETATM   21  C13 UNL     1       6.161  -0.401   0.353  1.00  0.00     0.009 A 
HETATM   22  C14 UNL     1       6.829  -1.129   1.299  1.00  0.00     0.001 A 
HETATM   23  C15 UNL     1       7.201  -0.582   2.503  1.00  0.00     0.000 A 
HETATM   24  C16 UNL     1       6.873   0.736   2.721  1.00  0.00     0.001 A 
HETATM   25  C17 UNL     1       6.201   1.446   1.753  1.00  0.00     0.009 A 
ENDBRANCH  19  20
ENDBRANCH  18  19
ENDBRANCH  15  18
ENDBRANCH   9  12
BRANCH  11  26
HETATM   26  N4  UNL     1      -3.933   1.397  -1.205  1.00  0.00    -0.357 N 
HETATM   27  H21 UNL     1      -4.389   1.987  -0.450  1.00  0.00     0.162 HD
BRANCH  26  28
HETATM   28  C22 UNL     1      -3.819   1.841  -2.574  1.00  0.00     0.280 C 
BRANCH  28  29
HETATM   29  O2  UNL     1      -4.384   0.941  -3.446  1.00  0.00    -0.370 OA
HETATM   30  H23 UNL     1      -4.751   1.428  -4.232  1.00  0.00     0.212 HD
ENDBRANCH  28  29
BRANCH  28  31
HETATM   31  C23 UNL     1      -4.435   3.190  -2.662  1.00  0.00     0.284 C 
HETATM   32  O3  UNL     1      -5.338   3.250  -3.502  1.00  0.00    -0.302 OA
ENDBRANCH  28  31
ENDBRANCH  26  28
ENDBRANCH  11  26
TORSDOF 8
