REMARK  5 active torsions:
REMARK  status: ('A' for Active; 'I' for Inactive)
REMARK    1  A    between atoms: C6_9  and  N3_10 
REMARK    2  A    between atoms: N3_10  and  C7_11 
REMARK    3  A    between atoms: C10_14  and  O1_15 
REMARK    4  A    between atoms: O1_15  and  C11_16 
REMARK    5  A    between atoms: C11_16  and  C12_17 
ROOT
HETATM    1  C7  UNL     1      -0.584  -1.363   0.415  1.00  0.00     0.032 A 
HETATM    2  C8  UNL     1       0.039  -2.515   0.689  1.00  0.00     0.009 A 
HETATM    3  C9  UNL     1       1.516  -2.377   0.568  1.00  0.00     0.094 A 
HETATM    4  C10 UNL     1       1.639  -0.949   0.178  1.00  0.00     0.052 A 
HETATM    5  C18 UNL     1       0.436  -0.364   0.089  1.00  0.00     0.061 A 
ENDROOT
BRANCH   1   6
HETATM    6  N3  UNL     1      -1.985  -1.113   0.427  1.00  0.00    -0.341 N 
HETATM    7  H6  UNL     1      -2.341  -1.362   1.361  1.00  0.00     0.167 HD
BRANCH   6   8
HETATM    8  C6  UNL     1      -2.611  -0.612  -0.728  1.00  0.00     0.138 A 
HETATM    9  N2  UNL     1      -1.819  -0.399  -1.793  1.00  0.00    -0.224 NA
HETATM   10  C5  UNL     1      -2.351   0.087  -2.953  1.00  0.00     0.236 A 
HETATM   11  N1  UNL     1      -3.667   0.343  -3.005  1.00  0.00    -0.234 NA
HETATM   12  C4  UNL     1      -4.482   0.133  -1.938  1.00  0.00     0.109 A 
HETATM   13  S1  UNL     1      -6.246   0.449  -1.924  1.00  0.00    -0.081 SA
HETATM   14  C19 UNL     1      -3.974  -0.356  -0.753  1.00  0.00     0.028 A 
HETATM   15  C3  UNL     1      -6.562   1.095  -0.260  1.00  0.00     0.054 C 
HETATM   16  C2  UNL     1      -5.825   0.492   0.668  1.00  0.00    -0.073 C 
HETATM   17  C1  UNL     1      -6.090   1.032   2.053  1.00  0.00     0.044 C 
HETATM   18  C20 UNL     1      -4.836  -0.595   0.425  1.00  0.00     0.079 C 
ENDBRANCH   6   8
ENDBRANCH   1   6
BRANCH   4  19
HETATM   19  O1  UNL     1       2.787  -0.215  -0.083  1.00  0.00    -0.351 OA
BRANCH  19  20
HETATM   20  C11 UNL     1       4.076  -0.609   0.355  1.00  0.00     0.214 C 
BRANCH  20  21
HETATM   21  C12 UNL     1       5.115   0.362  -0.066  1.00  0.00    -0.034 A 
HETATM   22  C13 UNL     1       5.331   1.380   0.869  1.00  0.00     0.009 A 
HETATM   23  C14 UNL     1       6.268   2.372   0.636  1.00  0.00     0.001 A 
HETATM   24  C15 UNL     1       6.983   2.333  -0.542  1.00  0.00     0.000 A 
HETATM   25  C16 UNL     1       6.783   1.325  -1.490  1.00  0.00     0.001 A 
HETATM   26  C17 UNL     1       5.835   0.334  -1.239  1.00  0.00     0.009 A 
ENDBRANCH  20  21
ENDBRANCH  19  20
ENDBRANCH   4  19
TORSDOF 5
