REMARK  8 active torsions:
REMARK  status: ('A' for Active; 'I' for Inactive)
REMARK    1  A    between atoms: C2_2  and  C3_3 
REMARK       I    between atoms: C3_3  and  N1_5 
REMARK    2  A    between atoms: N1_5  and  C4_6 
REMARK    3  A    between atoms: C10_12  and  O2_13 
REMARK    4  A    between atoms: C13_18  and  N4_19 
REMARK    5  A    between atoms: N4_19  and  C14_20 
REMARK    6  A    between atoms: C17_23  and  O3_24 
REMARK    7  A    between atoms: O3_24  and  C18_25 
REMARK    8  A    between atoms: C18_25  and  C19_26 
ROOT
HETATM    1  C4  UNL     1       5.205  -0.442  -0.031  1.00  0.00     0.101 C 
HETATM    2  C5  UNL     1       4.101  -0.524   0.685  1.00  0.00    -0.007 C 
HETATM    3  C6  UNL     1       2.642  -0.301   0.386  1.00  0.00     0.066 C 
HETATM    4  C7  UNL     1       2.168   0.839   1.273  1.00  0.00     0.056 A 
HETATM    5  C8  UNL     1       2.574   0.444   2.684  1.00  0.00     0.007 C 
HETATM    6  C9  UNL     1       3.260  -0.646   2.972  1.00  0.00     0.008 C 
HETATM    7  C10 UNL     1       4.224  -0.910   2.106  1.00  0.00     0.084 C 
HETATM    8  C11 UNL     1       2.871   2.091   0.976  1.00  0.00     0.109 A 
HETATM    9  N2  UNL     1       2.407   3.280   0.729  1.00  0.00    -0.257 NA
HETATM   10  C12 UNL     1       0.967   3.380   0.752  1.00  0.00     0.228 A 
HETATM   11  N3  UNL     1       0.297   2.343   0.998  1.00  0.00    -0.256 NA
HETATM   12  C13 UNL     1       0.703   1.008   1.275  1.00  0.00     0.225 A 
ENDROOT
BRANCH  12  13
HETATM   13  N4  UNL     1       0.053   0.176   0.238  1.00  0.00    -0.366 N 
HETATM   14  H15 UNL     1       0.529  -0.437  -0.485  1.00  0.00     0.162 HD
BRANCH  13  15
HETATM   15  C14 UNL     1      -1.372   0.154   0.143  1.00  0.00     0.029 A 
HETATM   16  C15 UNL     1      -2.079  -0.574  -0.785  1.00  0.00     0.032 A 
HETATM   17  C16 UNL     1      -3.444  -0.627  -0.903  1.00  0.00     0.039 A 
HETATM   18  C17 UNL     1      -4.186   0.120  -0.009  1.00  0.00     0.069 A 
HETATM   19  C25 UNL     1      -3.560   0.895   0.974  1.00  0.00     0.039 A 
HETATM   20  C26 UNL     1      -2.189   0.873   1.000  1.00  0.00     0.032 A 
BRANCH  18  21
HETATM   21  O3  UNL     1      -5.588   0.147  -0.030  1.00  0.00    -0.347 OA
BRANCH  21  22
HETATM   22  C18 UNL     1      -6.215  -0.640  -1.027  1.00  0.00     0.214 C 
BRANCH  22  23
HETATM   23  C19 UNL     1      -7.703  -0.527  -0.943  1.00  0.00    -0.034 A 
HETATM   24  C20 UNL     1      -8.464   0.413  -1.605  1.00  0.00     0.009 A 
HETATM   25  C21 UNL     1      -9.828   0.381  -1.419  1.00  0.00     0.001 A 
HETATM   26  C22 UNL     1     -10.474  -0.533  -0.613  1.00  0.00     0.000 A 
HETATM   27  C23 UNL     1      -9.687  -1.461   0.036  1.00  0.00     0.001 A 
HETATM   28  C24 UNL     1      -8.308  -1.462  -0.125  1.00  0.00     0.009 A 
ENDBRANCH  22  23
ENDBRANCH  21  22
ENDBRANCH  18  21
ENDBRANCH  13  15
ENDBRANCH  12  13
BRANCH   1  29
HETATM   29  N1  UNL     1       6.591  -0.642   0.211  1.00  0.00    -0.337 N 
HETATM   30  C3  UNL     1       7.469  -0.438  -0.879  1.00  0.00     0.221 C 
HETATM   31  O1  UNL     1       7.025  -0.093  -2.012  1.00  0.00    -0.273 OA
HETATM   32  H6  UNL     1       6.966  -0.924   1.139  1.00  0.00     0.168 HD
BRANCH  30  33
HETATM   33  C2  UNL     1       8.898  -0.642  -0.639  1.00  0.00     0.098 C 
HETATM   34  C1  UNL     1       9.727  -0.402  -1.879  1.00  0.00     0.014 C 
ENDBRANCH  30  33
ENDBRANCH   1  29
BRANCH   7  35
HETATM   35  O2  UNL     1       5.331  -1.567   2.645  1.00  0.00    -0.359 OA
HETATM   36  H11 UNL     1       5.523  -2.524   2.342  1.00  0.00     0.217 HD
ENDBRANCH   7  35
TORSDOF 8
