REMARK  3 active torsions:
REMARK  status: ('A' for Active; 'I' for Inactive)
REMARK    1  A    between atoms: C2_2  and  C3_3 
REMARK    2  A    between atoms: C2_2  and  N1_5 
REMARK    3  A    between atoms: N1_5  and  C4_6 
ROOT
HETATM    1  C4  UNL     1       2.173   0.205   0.859  1.00  0.00     0.020 C 
HETATM    2  C5  UNL     1       2.007   1.497   1.215  1.00  0.00     0.047 C 
HETATM    3  C6  UNL     1       0.751   2.324   1.129  1.00  0.00    -0.007 C 
HETATM    4  C7  UNL     1      -0.489   2.871   0.958  1.00  0.00     0.064 C 
HETATM    5  C8  UNL     1      -1.906   2.963   0.591  1.00  0.00     0.089 C 
HETATM    6  N2  UNL     1      -2.630   1.993   0.077  1.00  0.00    -0.302 NA
HETATM    7  C9  UNL     1      -4.020   2.224  -0.238  1.00  0.00     0.176 C 
HETATM    8  C10 UNL     1      -4.698   1.040  -0.768  1.00  0.00     0.005 C 
HETATM    9  C11 UNL     1      -4.644  -0.273  -1.137  1.00  0.00    -0.024 A 
HETATM   10  C12 UNL     1      -5.654  -1.262  -1.698  1.00  0.00     0.071 A 
HETATM   11  C13 UNL     1      -4.491  -2.135  -1.659  1.00  0.00     0.015 A 
HETATM   12  C14 UNL     1      -3.591  -1.266  -1.158  1.00  0.00     0.072 A 
HETATM   13  O2  UNL     1      -2.247  -1.368  -0.836  1.00  0.00    -0.346 OA
HETATM   14  C15 UNL     1      -1.655  -2.575  -0.391  1.00  0.00     0.214 C 
HETATM   15  C16 UNL     1      -0.223  -2.368  -0.226  1.00  0.00    -0.033 A 
HETATM   16  C17 UNL     1       0.678  -3.360  -0.511  1.00  0.00     0.009 A 
HETATM   17  C18 UNL     1       2.055  -3.225  -0.367  1.00  0.00     0.002 A 
HETATM   18  C19 UNL     1       2.655  -2.073   0.079  1.00  0.00     0.013 A 
HETATM   19  C20 UNL     1       1.756  -1.112   0.353  1.00  0.00    -0.013 A 
HETATM   20  C21 UNL     1       0.400  -1.232   0.216  1.00  0.00     0.022 A 
ENDROOT
BRANCH   1  21
HETATM   21  N1  UNL     1       3.556   0.302   1.258  1.00  0.00    -0.385 N 
HETATM   22  H6  UNL     1       3.888   0.013   2.229  1.00  0.00     0.160 HD
BRANCH  21  23
HETATM   23  C2  UNL     1       4.567   0.801   0.338  1.00  0.00     0.111 C 
HETATM   24  C1  UNL     1       4.354   2.232  -0.074  1.00  0.00     0.035 C 
BRANCH  23  25
HETATM   25  C3  UNL     1       5.930   0.685   0.921  1.00  0.00     0.415 C 
HETATM   26  O1  UNL     1       6.427   0.295   1.953  1.00  0.00    -0.428 OA
ENDBRANCH  23  25
ENDBRANCH  21  23
ENDBRANCH   1  21
TORSDOF 3
