REMARK  4 active torsions:
REMARK  status: ('A' for Active; 'I' for Inactive)
REMARK    1  A    between atoms: C3_3  and  C4_4 
REMARK    2  A    between atoms: C4_4  and  O1_5 
REMARK    3  A    between atoms: O1_5  and  C5_6 
REMARK    4  A    between atoms: C6_7  and  C7_8 
ROOT
HETATM    1  C7  UNL     1      -0.140   0.488   0.520  1.00  0.00    -0.039 C 
HETATM    2  C8  UNL     1      -0.410   1.765   0.468  1.00  0.00     0.094 C 
HETATM    3  N1  UNL     1      -1.552   2.568   0.590  1.00  0.00    -0.375 N 
HETATM    4  C9  UNL     1      -2.920   2.217   0.535  1.00  0.00     0.084 C 
HETATM    5  C10 UNL     1      -4.196   2.335   0.234  1.00  0.00    -0.006 C 
HETATM    6  C11 UNL     1      -5.193   1.266   0.647  1.00  0.00     0.055 C 
HETATM    7  C12 UNL     1      -5.665   0.603  -0.624  1.00  0.00    -0.027 C 
HETATM    8  C13 UNL     1      -5.365  -0.660  -0.698  1.00  0.00    -0.029 C 
HETATM    9  C14 UNL     1      -4.701  -1.737   0.047  1.00  0.00     0.056 C 
HETATM   10  C15 UNL     1      -3.512  -2.300  -0.637  1.00  0.00     0.273 C 
HETATM   11  N2  UNL     1      -2.307  -1.498  -0.631  1.00  0.00     0.084 N 
HETATM   12  C16 UNL     1      -1.702  -1.516   0.713  1.00  0.00     0.274 C 
HETATM   13  C17 UNL     1      -0.342  -0.923   0.642  1.00  0.00     0.070 C 
HETATM   14  H9  UNL     1      -1.929   3.503   0.736  1.00  0.00     0.164 HD
HETATM   15  H20 UNL     1      -2.571  -0.492  -0.778  1.00  0.00     0.315 HD
ENDROOT
BRANCH   1  16
HETATM   16  C6  UNL     1       1.345   0.567   0.282  1.00  0.00     0.032 C 
HETATM   17  C5  UNL     1       2.370  -0.310   0.183  1.00  0.00     0.135 C 
BRANCH  17  18
HETATM   18  O1  UNL     1       3.764  -0.450  -0.026  1.00  0.00    -0.362 OA
BRANCH  18  19
HETATM   19  C4  UNL     1       4.545   0.359   0.851  1.00  0.00     0.186 C 
BRANCH  19  20
HETATM   20  C3  UNL     1       5.986   0.438   0.471  1.00  0.00     0.055 A 
HETATM   21  C2  UNL     1       6.708  -0.831   0.440  1.00  0.00    -0.016 A 
HETATM   22  C1  UNL     1       7.243  -1.020  -0.776  1.00  0.00    -0.004 A 
HETATM   23  C19 UNL     1       6.908   0.124  -1.648  1.00  0.00    -0.004 A 
HETATM   24  C18 UNL     1       6.183   0.952  -0.908  1.00  0.00    -0.016 A 
ENDBRANCH  19  20
ENDBRANCH  18  19
ENDBRANCH  17  18
ENDBRANCH   1  16
TORSDOF 4
