REMARK  5 active torsions:
REMARK  status: ('A' for Active; 'I' for Inactive)
REMARK    1  A    between atoms: O1_2  and  C2_3 
REMARK    2  A    between atoms: C10_14  and  C11_15 
REMARK    3  A    between atoms: C19_23  and  N4_24 
REMARK    4  A    between atoms: N4_24  and  C20_25 
REMARK    5  A    between atoms: C20_25  and  C22_27 
ROOT
HETATM    1  C2  UNL     1      -2.531  -0.401  -0.920  1.00  0.00     0.074 C 
HETATM    2  C3  UNL     1      -3.425  -1.330  -0.520  1.00  0.00     0.054 C 
HETATM    3  C4  UNL     1      -3.414  -2.533   0.347  1.00  0.00     0.120 C 
HETATM    4  N1  UNL     1      -2.559  -3.138   1.037  1.00  0.00    -0.254 NA
HETATM    5  C5  UNL     1      -2.699  -4.296   1.827  1.00  0.00     0.228 C 
HETATM    6  N2  UNL     1      -1.582  -3.865   2.280  1.00  0.00    -0.264 NA
HETATM    7  C6  UNL     1      -0.905  -2.682   1.848  1.00  0.00     0.272 C 
HETATM    8  N3  UNL     1      -0.531  -2.883   0.439  1.00  0.00    -0.371 N 
HETATM    9  C7  UNL     1       0.224  -1.747   0.052  1.00  0.00     0.038 A 
HETATM   10  C8  UNL     1       1.535  -2.045   0.352  1.00  0.00     0.031 A 
HETATM   11  C9  UNL     1       2.646  -1.213   0.155  1.00  0.00     0.014 A 
HETATM   12  C10 UNL     1       2.388   0.024  -0.397  1.00  0.00    -0.025 A 
HETATM   13  C17 UNL     1       1.055   0.310  -0.696  1.00  0.00     0.024 A 
HETATM   14  C18 UNL     1      -0.062  -0.524  -0.498  1.00  0.00    -0.002 A 
HETATM   15  C19 UNL     1      -1.238   0.245  -0.998  1.00  0.00     0.170 C 
HETATM   16  H9  UNL     1      -0.502  -3.404  -0.447  1.00  0.00     0.161 HD
ENDROOT
BRANCH  12  17
HETATM   17  C11 UNL     1       3.523   0.910  -0.616  1.00  0.00    -0.026 A 
HETATM   18  C12 UNL     1       4.737   0.283  -0.919  1.00  0.00     0.012 A 
HETATM   19  C13 UNL     1       5.806   1.132  -1.126  1.00  0.00     0.001 A 
HETATM   20  C14 UNL     1       5.717   2.500  -1.048  1.00  0.00     0.000 A 
HETATM   21  C15 UNL     1       4.524   3.093  -0.751  1.00  0.00     0.001 A 
HETATM   22  C16 UNL     1       3.412   2.284  -0.533  1.00  0.00     0.012 A 
ENDBRANCH  12  17
BRANCH  15  23
HETATM   23  N4  UNL     1      -1.225   1.582  -0.492  1.00  0.00    -0.398 N 
HETATM   24  H19 UNL     1      -0.788   2.225  -1.146  1.00  0.00     0.155 HD
BRANCH  23  25
HETATM   25  C20 UNL     1      -1.404   1.877   0.837  1.00  0.00     0.135 C 
HETATM   26  C21 UNL     1      -2.743   1.411   1.350  1.00  0.00     0.039 C 
BRANCH  25  27
HETATM   27  C22 UNL     1      -0.368   1.450   1.799  1.00  0.00     0.255 C 
HETATM   28  O2  UNL     1      -0.371   1.631   3.012  1.00  0.00    -0.305 OA
ENDBRANCH  25  27
ENDBRANCH  23  25
ENDBRANCH  15  23
BRANCH   1  29
HETATM   29  O1  UNL     1      -3.372   0.361  -1.714  1.00  0.00    -0.358 OA
HETATM   30  C1  UNL     1      -3.191   1.594  -2.310  1.00  0.00     0.209 C 
ENDBRANCH   1  29
TORSDOF 5
