REMARK  2 active torsions:
REMARK  status: ('A' for Active; 'I' for Inactive)
REMARK    1  A    between atoms: N4_14  and  C11_15 
REMARK    2  A    between atoms: C11_15  and  C12_16 
ROOT
HETATM    1  C1  UNL     1      -5.148   2.965  -0.153  1.00  0.00     0.016 C 
HETATM    2  C2  UNL     1      -4.188   2.080  -0.029  1.00  0.00     0.020 C 
HETATM    3  C3  UNL     1      -3.166   1.022   0.165  1.00  0.00     0.028 C 
HETATM    4  C4  UNL     1      -2.009   1.391  -0.433  1.00  0.00     0.033 C 
HETATM    5  C5  UNL     1      -0.670   0.848  -0.608  1.00  0.00     0.054 C 
HETATM    6  C6  UNL     1       0.047  -0.239  -0.242  1.00  0.00     0.141 C 
HETATM    7  N1  UNL     1       0.154  -1.522   0.470  1.00  0.00    -0.263 NA
HETATM    8  C7  UNL     1      -0.999  -2.069   0.736  1.00  0.00     0.073 C 
HETATM    9  C8  UNL     1      -1.974  -1.321   0.243  1.00  0.00     0.148 A 
HETATM   10  C9  UNL     1      -1.611  -1.817  -1.063  1.00  0.00     0.031 A 
HETATM   11  N2  UNL     1      -0.848  -2.211  -1.985  1.00  0.00    -0.248 NA
HETATM   12  C10 UNL     1       0.565  -2.317  -1.961  1.00  0.00     0.255 C 
HETATM   13  N3  UNL     1       1.637  -1.677  -1.508  1.00  0.00    -0.164 NA
HETATM   14  N4  UNL     1       1.343  -0.464  -0.791  1.00  0.00    -0.247 N 
HETATM   15  C18 UNL     1      -3.008  -1.477  -1.197  1.00  0.00     0.085 A 
HETATM   16  C19 UNL     1      -3.764  -0.804  -0.372  1.00  0.00     0.072 C 
HETATM   17  N5  UNL     1      -3.727  -0.127   0.861  1.00  0.00    -0.369 N 
HETATM   18  H17 UNL     1      -3.879  -0.060   1.837  1.00  0.00     0.165 HD
ENDROOT
BRANCH  14  19
HETATM   19  C11 UNL     1       2.226   0.618  -0.542  1.00  0.00     0.191 C 
BRANCH  19  20
HETATM   20  C12 UNL     1       3.422   0.240   0.250  1.00  0.00    -0.038 A 
HETATM   21  C13 UNL     1       3.353   0.333   1.609  1.00  0.00     0.009 A 
HETATM   22  C14 UNL     1       4.426  -0.007   2.411  1.00  0.00     0.001 A 
HETATM   23  C15 UNL     1       5.597  -0.452   1.836  1.00  0.00     0.000 A 
HETATM   24  C16 UNL     1       5.654  -0.543   0.448  1.00  0.00     0.001 A 
HETATM   25  C17 UNL     1       4.580  -0.201  -0.345  1.00  0.00     0.009 A 
ENDBRANCH  19  20
ENDBRANCH  14  19
TORSDOF 2
