REMARK  4 active torsions:
REMARK  status: ('A' for Active; 'I' for Inactive)
REMARK    1  A    between atoms: C2_2  and  C3_3 
REMARK    2  A    between atoms: C3_3  and  C4_4 
REMARK    3  A    between atoms: C4_4  and  C5_6 
REMARK    4  A    between atoms: C23_28  and  N5_29 
ROOT
HETATM    1  C5  UNL     1       1.783   0.643  -1.482  1.00  0.00     0.025 C 
HETATM    2  C6  UNL     1       1.116  -0.264  -0.750  1.00  0.00     0.016 C 
HETATM    3  C7  UNL     1      -0.120  -0.245   0.171  1.00  0.00     0.035 C 
HETATM    4  C8  UNL     1      -0.380   0.959   0.879  1.00  0.00     0.087 A 
HETATM    5  C9  UNL     1       0.196   2.353   0.717  1.00  0.00     0.087 A 
HETATM    6  N1  UNL     1       0.120   2.820   1.843  1.00  0.00    -0.238 NA
HETATM    7  C10 UNL     1      -0.407   2.255   3.013  1.00  0.00     0.256 A 
HETATM    8  N2  UNL     1      -0.925   1.019   3.072  1.00  0.00    -0.160 NA
HETATM    9  N3  UNL     1      -0.971   0.191   1.981  1.00  0.00    -0.233 N 
HETATM   10  C11 UNL     1      -1.556  -1.046   2.160  1.00  0.00     0.059 C 
HETATM   11  C12 UNL     1      -0.940  -1.922   2.839  1.00  0.00     0.031 C 
HETATM   12  C13 UNL     1      -1.286  -3.379   2.457  1.00  0.00     0.019 C 
HETATM   13  C14 UNL     1      -2.179  -3.303   1.502  1.00  0.00     0.086 C 
HETATM   14  N4  UNL     1      -2.984  -2.377   0.848  1.00  0.00    -0.377 N 
HETATM   15  C15 UNL     1      -3.879  -2.489  -0.356  1.00  0.00     0.150 C 
HETATM   16  C16 UNL     1      -3.257  -1.733  -1.470  1.00  0.00    -0.011 C 
HETATM   17  C17 UNL     1      -2.777  -1.327  -2.598  1.00  0.00    -0.023 C 
HETATM   18  C18 UNL     1      -2.340  -0.120  -2.262  1.00  0.00     0.020 C 
HETATM   19  C19 UNL     1      -1.706   1.210  -2.313  1.00  0.00     0.003 C 
HETATM   20  C20 UNL     1      -0.933   2.438  -2.863  1.00  0.00     0.042 C 
HETATM   21  C21 UNL     1       0.218   2.515  -1.771  1.00  0.00    -0.040 C 
HETATM   22  C22 UNL     1       0.557   2.968  -0.543  1.00  0.00     0.039 C 
HETATM   23  C23 UNL     1       1.319   1.700  -2.451  1.00  0.00     0.283 C 
HETATM   24  C24 UNL     1      -2.881  -1.075   1.427  1.00  0.00     0.132 C 
HETATM   25  C25 UNL     1      -4.060  -0.839   2.346  1.00  0.00     0.039 C 
ENDROOT
BRANCH   1  26
HETATM   26  C4  UNL     1       3.211   1.086  -1.283  1.00  0.00     0.158 C 
HETATM   27  O1  UNL     1       4.038   1.885  -1.814  1.00  0.00    -0.293 OA
BRANCH  26  28
HETATM   28  C3  UNL     1       3.844   0.420  -0.159  1.00  0.00     0.083 C 
BRANCH  28  29
HETATM   29  C2  UNL     1       5.274   0.759   0.146  1.00  0.00     0.003 C 
HETATM   30  C1  UNL     1       5.655  -0.095   1.360  1.00  0.00     0.005 C 
ENDBRANCH  28  29
ENDBRANCH  26  28
ENDBRANCH   1  26
BRANCH  23  31
HETATM   31  N5  UNL     1       2.390   2.664  -2.711  1.00  0.00     0.091 N 
HETATM   32  H24 UNL     1       2.819   2.596  -3.642  1.00  0.00     0.314 HD
HETATM   33  H25 UNL     1       2.097   3.661  -2.565  1.00  0.00     0.314 HD
ENDBRANCH  23  31
TORSDOF 4
