REMARK  10 active torsions:
REMARK  status: ('A' for Active; 'I' for Inactive)
REMARK    1  A    between atoms: C2_2  and  C3_3 
REMARK    2  A    between atoms: C3_3  and  N1_4 
REMARK    3  A    between atoms: N1_4  and  C4_5 
REMARK    4  A    between atoms: N2_8  and  C7_9 
REMARK    5  A    between atoms: C7_9  and  N3_10 
REMARK    6  A    between atoms: N3_10  and  C8_11 
REMARK    7  A    between atoms: C11_14  and  N4_15 
REMARK    8  A    between atoms: N4_15  and  C12_16 
REMARK    9  A    between atoms: C12_16  and  C13_17 
REMARK   10  A    between atoms: C23_28  and  O1_29 
ROOT
HETATM    1  N3  UNL     1      -0.065   0.669  -0.600  1.00  0.00    -0.372 N 
HETATM    2  H12 UNL     1      -0.512  -0.132  -1.125  1.00  0.00     0.161 HD
ENDROOT
BRANCH   1   3
HETATM    3  C7  UNL     1      -0.843   1.827  -0.178  1.00  0.00     0.272 C 
BRANCH   3   4
HETATM    4  N2  UNL     1      -2.225   1.703  -0.575  1.00  0.00    -0.255 NA
HETATM    5  C6  UNL     1      -2.914   0.682  -0.241  1.00  0.00     0.124 C 
HETATM    6  C5  UNL     1      -4.312   0.762  -0.757  1.00  0.00     0.122 C 
HETATM    7  N5  UNL     1      -2.211  -0.283   0.528  1.00  0.00    -0.246 NA
HETATM    8  C4  UNL     1      -5.230   0.057   0.170  1.00  0.00     0.283 C 
HETATM    9  C23 UNL     1      -4.953  -1.430   0.071  1.00  0.00     0.080 C 
HETATM   10  C22 UNL     1      -3.854  -2.143   0.319  1.00  0.00     0.053 C 
HETATM   11  C21 UNL     1      -2.601  -1.508   0.780  1.00  0.00     0.121 C 
BRANCH   8  12
HETATM   12  N1  UNL     1      -6.623   0.269  -0.017  1.00  0.00     0.095 N 
HETATM   13  H6  UNL     1      -7.144  -0.408   0.580  1.00  0.00     0.316 HD
BRANCH  12  14
HETATM   14  C3  UNL     1      -7.153   1.557   0.208  1.00  0.00     0.275 C 
BRANCH  14  15
HETATM   15  C2  UNL     1      -6.773   2.615  -0.753  1.00  0.00     0.019 C 
HETATM   16  C1  UNL     1      -7.713   3.261  -1.478  1.00  0.00     0.007 C 
ENDBRANCH  14  15
ENDBRANCH  12  14
ENDBRANCH   8  12
BRANCH   9  17
HETATM   17  O1  UNL     1      -6.027  -2.232  -0.357  1.00  0.00    -0.358 OA
HETATM   18  C24 UNL     1      -6.603  -3.231   0.463  1.00  0.00     0.209 C 
ENDBRANCH   9  17
ENDBRANCH   3   4
ENDBRANCH   1   3
BRANCH   1  19
HETATM   19  C8  UNL     1       1.328   0.526  -0.349  1.00  0.00     0.029 A 
HETATM   20  C9  UNL     1       2.068  -0.586  -0.753  1.00  0.00     0.031 A 
HETATM   21  C10 UNL     1       3.418  -0.699  -0.499  1.00  0.00     0.031 A 
HETATM   22  C11 UNL     1       4.081   0.301   0.172  1.00  0.00     0.028 A 
HETATM   23  C19 UNL     1       3.390   1.414   0.588  1.00  0.00     0.031 A 
HETATM   24  C20 UNL     1       2.029   1.506   0.321  1.00  0.00     0.031 A 
BRANCH  22  25
HETATM   25  N4  UNL     1       5.473   0.173   0.428  1.00  0.00    -0.386 N 
HETATM   26  H15 UNL     1       5.973   0.939   0.938  1.00  0.00     0.160 HD
BRANCH  25  27
HETATM   27  C12 UNL     1       6.176  -1.014  -0.022  1.00  0.00     0.158 C 
BRANCH  27  28
HETATM   28  C13 UNL     1       7.605  -0.889   0.363  1.00  0.00    -0.041 A 
HETATM   29  C14 UNL     1       8.107  -1.335   1.552  1.00  0.00     0.009 A 
HETATM   30  C15 UNL     1       9.423  -1.247   1.966  1.00  0.00     0.001 A 
HETATM   31  C16 UNL     1      10.319  -0.642   1.076  1.00  0.00     0.000 A 
HETATM   32  C17 UNL     1       9.850  -0.178  -0.139  1.00  0.00     0.001 A 
HETATM   33  C18 UNL     1       8.524  -0.292  -0.501  1.00  0.00     0.009 A 
ENDBRANCH  27  28
ENDBRANCH  25  27
ENDBRANCH  22  25
ENDBRANCH   1  19
TORSDOF 10
