REMARK  11 active torsions:
REMARK  status: ('A' for Active; 'I' for Inactive)
REMARK    1  A    between atoms: O1_2  and  C2_3 
REMARK    2  A    between atoms: C2_3  and  C3_4 
REMARK    3  A    between atoms: C3_4  and  C4_5 
REMARK    4  A    between atoms: C4_5  and  N1_6 
REMARK    5  A    between atoms: N1_6  and  C5_7 
REMARK    6  A    between atoms: C5_7  and  N2_8 
REMARK    7  A    between atoms: N2_8  and  C6_9 
REMARK    8  A    between atoms: C6_9  and  C7_10 
REMARK    9  A    between atoms: C10_13  and  N3_14 
REMARK       I    between atoms: N3_14  and  C11_15 
REMARK   10  A    between atoms: C14_19  and  C15_20 
REMARK   11  A    between atoms: C16_21  and  C17_22 
ROOT
HETATM    1  C7  UNL     1       2.370  -0.496  -0.648  1.00  0.00     0.003 C 
HETATM    2  C8  UNL     1       1.169  -1.058  -0.558  1.00  0.00    -0.050 C 
HETATM    3  C9  UNL     1       0.332  -2.260  -0.366  1.00  0.00     0.069 C 
HETATM    4  C10 UNL     1      -0.667  -1.558  -1.260  1.00  0.00     0.122 C 
HETATM    5  C13 UNL     1      -0.115  -0.320  -0.656  1.00  0.00    -0.029 C 
HETATM    6  C14 UNL     1      -0.561   0.888  -0.346  1.00  0.00     0.010 C 
ENDROOT
BRANCH   1   7
HETATM    7  C6  UNL     1       3.658  -1.235  -0.528  1.00  0.00     0.189 C 
BRANCH   7   8
HETATM    8  N2  UNL     1       3.513  -2.638  -0.300  1.00  0.00    -0.226 NA
BRANCH   8   9
HETATM    9  C5  UNL     1       4.062  -3.125   0.740  1.00  0.00     0.091 C 
BRANCH   9  10
HETATM   10  N1  UNL     1       4.466  -3.703   1.797  1.00  0.00    -0.226 NA
BRANCH  10  11
HETATM   11  C4  UNL     1       5.432  -3.029   2.665  1.00  0.00     0.190 C 
BRANCH  11  12
HETATM   12  C3  UNL     1       5.071  -1.639   2.913  1.00  0.00     0.019 C 
BRANCH  12  13
HETATM   13  C2  UNL     1       4.998  -0.348   3.017  1.00  0.00     0.131 C 
BRANCH  13  14
HETATM   14  O1  UNL     1       4.751   0.971   3.207  1.00  0.00    -0.368 OA
HETATM   15  C1  UNL     1       5.585   1.942   2.565  1.00  0.00     0.208 C 
ENDBRANCH  13  14
ENDBRANCH  12  13
ENDBRANCH  11  12
ENDBRANCH  10  11
ENDBRANCH   9  10
ENDBRANCH   8   9
ENDBRANCH   7   8
ENDBRANCH   1   7
BRANCH   4  16
HETATM   16  N3  UNL     1      -2.044  -1.853  -0.981  1.00  0.00    -0.352 N 
HETATM   17  C11 UNL     1      -3.053  -2.223  -1.923  1.00  0.00     0.214 C 
HETATM   18  C12 UNL     1      -4.342  -2.436  -1.196  1.00  0.00     0.117 C 
HETATM   19  O2  UNL     1      -2.452  -2.228  -3.036  1.00  0.00    -0.274 OA
HETATM   20  H14 UNL     1      -2.140  -1.733   0.075  1.00  0.00     0.163 HD
ENDBRANCH   4  16
BRANCH   6  21
HETATM   21  C15 UNL     1      -1.956   1.247  -0.612  1.00  0.00     0.001 C 
HETATM   22  C16 UNL     1      -2.366   2.475  -0.286  1.00  0.00     0.011 C 
BRANCH  22  23
HETATM   23  C17 UNL     1      -3.737   2.895  -0.523  1.00  0.00    -0.036 A 
HETATM   24  C18 UNL     1      -4.723   2.126  -1.099  1.00  0.00     0.011 A 
HETATM   25  C19 UNL     1      -6.026   2.473  -1.343  1.00  0.00     0.001 A 
HETATM   26  C20 UNL     1      -6.329   3.773  -0.938  1.00  0.00     0.000 A 
HETATM   27  C21 UNL     1      -5.444   4.657  -0.348  1.00  0.00     0.001 A 
HETATM   28  C22 UNL     1      -4.170   4.139  -0.178  1.00  0.00     0.011 A 
ENDBRANCH  22  23
ENDBRANCH   6  21
TORSDOF 11
