MODEL 1
REMARK VINA RESULT:      -8.9      0.000      0.000
REMARK  8 active torsions:
REMARK  status: ('A' for Active; 'I' for Inactive)
REMARK    1  A    between atoms: C2_2  and  C3_3 
REMARK    2  A    between atoms: C5_7  and  N3_8 
REMARK    3  A    between atoms: N3_8  and  C6_9 
REMARK    4  A    between atoms: C12_16  and  C13_17 
REMARK    5  A    between atoms: C13_17  and  C14_18 
REMARK       I    between atoms: N4_19  and  C15_20 
REMARK    6  A    between atoms: C15_20  and  C16_22 
REMARK    7  A    between atoms: C16_22  and  O2_23 
REMARK    8  A    between atoms: O2_23  and  C17_24 
ROOT
HETATM    1  C3  UNL     1      21.430  -0.278  53.693  1.00  0.00     0.076 A 
HETATM    2  N1  UNL     1      21.609  -1.003  54.835  1.00  0.00    -0.241 NA
HETATM    3  C4  UNL     1      22.890  -1.291  55.229  1.00  0.00     0.236 A 
HETATM    4  N2  UNL     1      24.002  -0.889  54.534  1.00  0.00    -0.223 NA
HETATM    5  C5  UNL     1      23.839  -0.159  53.379  1.00  0.00     0.150 A 
HETATM    6  C12 UNL     1      22.543   0.096  53.042  1.00  0.00     0.085 A 
ENDROOT
BRANCH   6   7
HETATM    7  C13 UNL     1      22.316   0.784  51.954  1.00  0.00    -0.093 C 
BRANCH   7   8
HETATM    8  C14 UNL     1      22.404   1.527  50.857  1.00  0.00     0.148 C 
HETATM    9  N4  UNL     1      22.919   2.786  50.962  1.00  0.00    -0.328 N 
HETATM   10  C15 UNL     1      23.443   3.721  51.836  1.00  0.00     0.246 C 
HETATM   11  H12 UNL     1      22.879   3.152  49.947  1.00  0.00     0.168 HD
HETATM   12  O1  UNL     1      23.448   3.149  52.983  1.00  0.00    -0.271 OA
BRANCH  10  13
HETATM   13  C16 UNL     1      23.869   5.069  51.409  1.00  0.00     0.278 C 
BRANCH  13  14
HETATM   14  O2  UNL     1      24.086   5.044  50.027  1.00  0.00    -0.342 OA
BRANCH  14  15
HETATM   15  C17 UNL     1      25.330   5.269  49.448  1.00  0.00     0.069 A 
HETATM   16  C18 UNL     1      26.189   4.179  49.491  1.00  0.00     0.040 A 
HETATM   17  C19 UNL     1      27.427   4.367  48.930  1.00  0.00     0.045 A 
HETATM   18  C20 UNL     1      27.894   5.516  48.337  1.00  0.00     0.116 A 
HETATM   19  F1  UNL     1      29.101   5.737  47.781  1.00  0.00    -0.206 F 
HETATM   20  C21 UNL     1      26.990   6.585  48.320  1.00  0.00     0.045 A 
HETATM   21  C22 UNL     1      25.737   6.451  48.866  1.00  0.00     0.040 A 
ENDBRANCH  14  15
ENDBRANCH  13  14
ENDBRANCH  10  13
ENDBRANCH   7   8
ENDBRANCH   6   7
BRANCH   1  22
HETATM   22  C2  UNL     1      20.177  -0.028  53.356  1.00  0.00     0.002 C 
HETATM   23  C1  UNL     1      19.171  -1.114  53.498  1.00  0.00     0.038 C 
ENDBRANCH   1  22
BRANCH   5  24
HETATM   24  N3  UNL     1      24.989   0.239  52.656  1.00  0.00    -0.340 N 
HETATM   25  H6  UNL     1      24.612   0.171  51.661  1.00  0.00     0.167 HD
BRANCH  24  26
HETATM   26  C6  UNL     1      26.295   0.633  52.965  1.00  0.00     0.035 A 
HETATM   27  C7  UNL     1      26.591   1.972  53.137  1.00  0.00     0.029 A 
HETATM   28  C8  UNL     1      27.886   2.286  53.439  1.00  0.00     0.004 A 
HETATM   29  C9  UNL     1      28.850   1.320  53.564  1.00  0.00     0.019 A 
HETATM   30  C10 UNL     1      28.519  -0.021  53.383  1.00  0.00     0.013 A 
HETATM   31 BR1  UNL     1      29.883  -1.354  53.561  1.00  0.00    -0.051 Br
HETATM   32  C11 UNL     1      27.218  -0.400  53.076  1.00  0.00     0.048 A 
ENDBRANCH  24  26
ENDBRANCH   5  24
TORSDOF 8
ENDMDL
MODEL 2
REMARK VINA RESULT:      -8.4      3.117      7.000
REMARK  8 active torsions:
REMARK  status: ('A' for Active; 'I' for Inactive)
REMARK    1  A    between atoms: C2_2  and  C3_3 
REMARK    2  A    between atoms: C5_7  and  N3_8 
REMARK    3  A    between atoms: N3_8  and  C6_9 
REMARK    4  A    between atoms: C12_16  and  C13_17 
REMARK    5  A    between atoms: C13_17  and  C14_18 
REMARK       I    between atoms: N4_19  and  C15_20 
REMARK    6  A    between atoms: C15_20  and  C16_22 
REMARK    7  A    between atoms: C16_22  and  O2_23 
REMARK    8  A    between atoms: O2_23  and  C17_24 
ROOT
HETATM    1  C3  UNL     1      25.805   6.149  48.972  1.00  0.00     0.076 A 
HETATM    2  N1  UNL     1      27.052   6.181  48.420  1.00  0.00    -0.241 NA
HETATM    3  C4  UNL     1      27.850   5.073  48.548  1.00  0.00     0.236 A 
HETATM    4  N2  UNL     1      27.459   3.933  49.203  1.00  0.00    -0.223 NA
HETATM    5  C5  UNL     1      26.205   3.885  49.767  1.00  0.00     0.150 A 
HETATM    6  C12 UNL     1      25.461   5.016  49.604  1.00  0.00     0.085 A 
ENDROOT
BRANCH   6   7
HETATM    7  C13 UNL     1      24.259   5.039  50.118  1.00  0.00    -0.093 C 
BRANCH   7   8
HETATM    8  C14 UNL     1      23.195   4.986  50.911  1.00  0.00     0.148 C 
HETATM    9  N4  UNL     1      22.392   3.884  50.852  1.00  0.00    -0.328 N 
HETATM   10  C15 UNL     1      22.200   2.661  50.237  1.00  0.00     0.246 C 
HETATM   11  H12 UNL     1      21.629   4.099  51.585  1.00  0.00     0.168 HD
HETATM   12  O1  UNL     1      23.178   2.534  49.420  1.00  0.00    -0.271 OA
BRANCH  10  13
HETATM   13  C16 UNL     1      21.056   1.778  50.546  1.00  0.00     0.278 C 
BRANCH  13  14
HETATM   14  O2  UNL     1      20.855   1.788  51.931  1.00  0.00    -0.342 OA
BRANCH  14  15
HETATM   15  C17 UNL     1      21.446   0.870  52.792  1.00  0.00     0.069 A 
HETATM   16  C18 UNL     1      20.705   0.591  53.932  1.00  0.00     0.040 A 
HETATM   17  C19 UNL     1      21.261  -0.310  54.805  1.00  0.00     0.045 A 
HETATM   18  C20 UNL     1      22.466  -0.955  54.662  1.00  0.00     0.116 A 
HETATM   19  F1  UNL     1      23.043  -1.840  55.498  1.00  0.00    -0.206 F 
HETATM   20  C21 UNL     1      23.175  -0.639  53.496  1.00  0.00     0.045 A 
HETATM   21  C22 UNL     1      22.664   0.256  52.588  1.00  0.00     0.040 A 
ENDBRANCH  14  15
ENDBRANCH  13  14
ENDBRANCH  10  13
ENDBRANCH   7   8
ENDBRANCH   6   7
BRANCH   1  22
HETATM   22  C2  UNL     1      25.077   7.242  48.822  1.00  0.00     0.002 C 
HETATM   23  C1  UNL     1      24.982   7.855  47.471  1.00  0.00     0.038 C 
ENDBRANCH   1  22
BRANCH   5  24
HETATM   24  N3  UNL     1      25.812   2.713  50.458  1.00  0.00    -0.340 N 
HETATM   25  H6  UNL     1      25.243   2.234  49.695  1.00  0.00     0.167 HD
BRANCH  24  26
HETATM   26  C6  UNL     1      26.005   2.177  51.735  1.00  0.00     0.035 A 
HETATM   27  C7  UNL     1      25.298   2.680  52.810  1.00  0.00     0.029 A 
HETATM   28  C8  UNL     1      25.535   2.109  54.029  1.00  0.00     0.004 A 
HETATM   29  C9  UNL     1      26.434   1.087  54.181  1.00  0.00     0.019 A 
HETATM   30  C10 UNL     1      27.132   0.603  53.077  1.00  0.00     0.013 A 
HETATM   31 BR1  UNL     1      28.385  -0.826  53.315  1.00  0.00    -0.051 Br
HETATM   32  C11 UNL     1      26.931   1.143  51.813  1.00  0.00     0.048 A 
ENDBRANCH  24  26
ENDBRANCH   5  24
TORSDOF 8
ENDMDL
MODEL 3
REMARK VINA RESULT:      -8.3      2.712      5.321
REMARK  8 active torsions:
REMARK  status: ('A' for Active; 'I' for Inactive)
REMARK    1  A    between atoms: C2_2  and  C3_3 
REMARK    2  A    between atoms: C5_7  and  N3_8 
REMARK    3  A    between atoms: N3_8  and  C6_9 
REMARK    4  A    between atoms: C12_16  and  C13_17 
REMARK    5  A    between atoms: C13_17  and  C14_18 
REMARK       I    between atoms: N4_19  and  C15_20 
REMARK    6  A    between atoms: C15_20  and  C16_22 
REMARK    7  A    between atoms: C16_22  and  O2_23 
REMARK    8  A    between atoms: O2_23  and  C17_24 
ROOT
HETATM    1  C3  UNL     1      24.653  -0.381  53.750  1.00  0.00     0.076 A 
HETATM    2  N1  UNL     1      24.815  -1.205  54.825  1.00  0.00    -0.241 NA
HETATM    3  C4  UNL     1      23.708  -1.544  55.559  1.00  0.00     0.236 A 
HETATM    4  N2  UNL     1      22.444  -1.096  55.269  1.00  0.00    -0.223 NA
HETATM    5  C5  UNL     1      22.263  -0.262  54.190  1.00  0.00     0.150 A 
HETATM    6  C12 UNL     1      23.401   0.036  53.500  1.00  0.00     0.085 A 
ENDROOT
BRANCH   6   7
HETATM    7  C13 UNL     1      23.301   0.826  52.464  1.00  0.00    -0.093 C 
BRANCH   7   8
HETATM    8  C14 UNL     1      23.018   1.391  51.296  1.00  0.00     0.148 C 
HETATM    9  N4  UNL     1      23.329   2.707  51.116  1.00  0.00    -0.328 N 
HETATM   10  C15 UNL     1      23.874   3.829  51.713  1.00  0.00     0.246 C 
HETATM   11  H12 UNL     1      23.004   2.899  50.104  1.00  0.00     0.168 HD
HETATM   12  O1  UNL     1      24.229   3.452  52.885  1.00  0.00    -0.271 OA
BRANCH  10  13
HETATM   13  C16 UNL     1      23.966   5.137  51.032  1.00  0.00     0.278 C 
BRANCH  13  14
HETATM   14  O2  UNL     1      24.343   4.914  49.702  1.00  0.00    -0.342 OA
BRANCH  14  15
HETATM   15  C17 UNL     1      25.558   5.339  49.175  1.00  0.00     0.069 A 
HETATM   16  C18 UNL     1      26.566   4.386  49.212  1.00  0.00     0.040 A 
HETATM   17  C19 UNL     1      27.779   4.773  48.701  1.00  0.00     0.045 A 
HETATM   18  C20 UNL     1      28.090   5.999  48.164  1.00  0.00     0.116 A 
HETATM   19  F1  UNL     1      29.267   6.414  47.658  1.00  0.00    -0.206 F 
HETATM   20  C21 UNL     1      27.039   6.925  48.150  1.00  0.00     0.045 A 
HETATM   21  C22 UNL     1      25.804   6.590  48.648  1.00  0.00     0.040 A 
ENDBRANCH  14  15
ENDBRANCH  13  14
ENDBRANCH  10  13
ENDBRANCH   7   8
ENDBRANCH   6   7
BRANCH   1  22
HETATM   22  C2  UNL     1      25.750  -0.082  53.077  1.00  0.00     0.002 C 
HETATM   23  C1  UNL     1      26.793  -1.130  52.916  1.00  0.00     0.038 C 
ENDBRANCH   1  22
BRANCH   5  24
HETATM   24  N3  UNL     1      20.960   0.212  53.905  1.00  0.00    -0.340 N 
HETATM   25  H6  UNL     1      21.058   1.222  54.230  1.00  0.00     0.167 HD
BRANCH  24  26
HETATM   26  C6  UNL     1      19.782  -0.321  53.371  1.00  0.00     0.035 A 
HETATM   27  C7  UNL     1      19.171  -1.398  53.985  1.00  0.00     0.029 A 
HETATM   28  C8  UNL     1      18.023  -1.869  53.410  1.00  0.00     0.004 A 
HETATM   29  C9  UNL     1      17.502  -1.302  52.278  1.00  0.00     0.019 A 
HETATM   30  C10 UNL     1      18.142  -0.217  51.683  1.00  0.00     0.013 A 
HETATM   31 BR1  UNL     1      17.395   0.558  50.099  1.00  0.00    -0.051 Br
HETATM   32  C11 UNL     1      19.312   0.305  52.223  1.00  0.00     0.048 A 
ENDBRANCH  24  26
ENDBRANCH   5  24
TORSDOF 8
ENDMDL
MODEL 4
REMARK VINA RESULT:      -7.9      1.837      2.649
REMARK  8 active torsions:
REMARK  status: ('A' for Active; 'I' for Inactive)
REMARK    1  A    between atoms: C2_2  and  C3_3 
REMARK    2  A    between atoms: C5_7  and  N3_8 
REMARK    3  A    between atoms: N3_8  and  C6_9 
REMARK    4  A    between atoms: C12_16  and  C13_17 
REMARK    5  A    between atoms: C13_17  and  C14_18 
REMARK       I    between atoms: N4_19  and  C15_20 
REMARK    6  A    between atoms: C15_20  and  C16_22 
REMARK    7  A    between atoms: C16_22  and  O2_23 
REMARK    8  A    between atoms: O2_23  and  C17_24 
ROOT
HETATM    1  C3  UNL     1      20.298   0.787  51.216  1.00  0.00     0.076 A 
HETATM    2  N1  UNL     1      19.550   0.131  52.149  1.00  0.00    -0.241 NA
HETATM    3  C4  UNL     1      20.089  -0.069  53.393  1.00  0.00     0.236 A 
HETATM    4  N2  UNL     1      21.343   0.356  53.750  1.00  0.00    -0.223 NA
HETATM    5  C5  UNL     1      22.112   1.017  52.820  1.00  0.00     0.150 A 
HETATM    6  C12 UNL     1      21.520   1.186  51.604  1.00  0.00     0.085 A 
ENDROOT
BRANCH   6   7
HETATM    7  C13 UNL     1      22.197   1.805  50.672  1.00  0.00    -0.093 C 
BRANCH   7   8
HETATM    8  C14 UNL     1      23.027   2.146  49.693  1.00  0.00     0.148 C 
HETATM    9  N4  UNL     1      23.760   3.289  49.830  1.00  0.00    -0.328 N 
HETATM   10  C15 UNL     1      24.027   4.366  50.656  1.00  0.00     0.246 C 
HETATM   11  H12 UNL     1      24.337   3.320  48.917  1.00  0.00     0.168 HD
HETATM   12  O1  UNL     1      23.298   4.187  51.694  1.00  0.00    -0.271 OA
BRANCH  10  13
HETATM   13  C16 UNL     1      24.977   5.438  50.295  1.00  0.00     0.278 C 
BRANCH  13  14
HETATM   14  O2  UNL     1      25.729   5.008  49.196  1.00  0.00    -0.342 OA
BRANCH  14  15
HETATM   15  C17 UNL     1      26.910   5.622  48.795  1.00  0.00     0.069 A 
HETATM   16  C18 UNL     1      26.833   7.005  48.694  1.00  0.00     0.040 A 
HETATM   17  C19 UNL     1      27.981   7.644  48.299  1.00  0.00     0.045 A 
HETATM   18  C20 UNL     1      29.185   7.055  47.995  1.00  0.00     0.116 A 
HETATM   19  F1  UNL     1      30.329   7.648  47.601  1.00  0.00    -0.206 F 
HETATM   20  C21 UNL     1      29.210   5.659  48.112  1.00  0.00     0.045 A 
HETATM   21  C22 UNL     1      28.090   4.970  48.505  1.00  0.00     0.040 A 
ENDBRANCH  14  15
ENDBRANCH  13  14
ENDBRANCH  10  13
ENDBRANCH   7   8
ENDBRANCH   6   7
BRANCH   1  22
HETATM   22  C2  UNL     1      19.735   0.952  50.032  1.00  0.00     0.002 C 
HETATM   23  C1  UNL     1      18.380   1.563  49.967  1.00  0.00     0.038 C 
ENDBRANCH   1  22
BRANCH   5  24
HETATM   24  N3  UNL     1      23.413   1.439  53.187  1.00  0.00    -0.340 N 
HETATM   25  H6  UNL     1      23.201   2.435  53.502  1.00  0.00     0.167 HD
BRANCH  24  26
HETATM   26  C6  UNL     1      24.693   0.877  53.202  1.00  0.00     0.035 A 
HETATM   27  C7  UNL     1      24.849  -0.491  53.084  1.00  0.00     0.029 A 
HETATM   28  C8  UNL     1      26.128  -0.974  53.106  1.00  0.00     0.004 A 
HETATM   29  C9  UNL     1      27.207  -0.141  53.240  1.00  0.00     0.019 A 
HETATM   30  C10 UNL     1      27.017   1.234  53.358  1.00  0.00     0.013 A 
HETATM   31 BR1  UNL     1      28.541   2.377  53.546  1.00  0.00    -0.051 Br
HETATM   32  C11 UNL     1      25.740   1.781  53.340  1.00  0.00     0.048 A 
ENDBRANCH  24  26
ENDBRANCH   5  24
TORSDOF 8
ENDMDL
MODEL 5
REMARK VINA RESULT:      -7.9      3.680      6.172
REMARK  8 active torsions:
REMARK  status: ('A' for Active; 'I' for Inactive)
REMARK    1  A    between atoms: C2_2  and  C3_3 
REMARK    2  A    between atoms: C5_7  and  N3_8 
REMARK    3  A    between atoms: N3_8  and  C6_9 
REMARK    4  A    between atoms: C12_16  and  C13_17 
REMARK    5  A    between atoms: C13_17  and  C14_18 
REMARK       I    between atoms: N4_19  and  C15_20 
REMARK    6  A    between atoms: C15_20  and  C16_22 
REMARK    7  A    between atoms: C16_22  and  O2_23 
REMARK    8  A    between atoms: O2_23  and  C17_24 
ROOT
HETATM    1  C3  UNL     1      23.608   5.570  49.444  1.00  0.00     0.076 A 
HETATM    2  N1  UNL     1      22.401   5.955  49.947  1.00  0.00    -0.241 NA
HETATM    3  C4  UNL     1      22.062   5.549  51.212  1.00  0.00     0.236 A 
HETATM    4  N2  UNL     1      22.874   4.772  51.998  1.00  0.00    -0.223 NA
HETATM    5  C5  UNL     1      24.095   4.373  51.505  1.00  0.00     0.150 A 
HETATM    6  C12 UNL     1      24.374   4.811  50.244  1.00  0.00     0.085 A 
ENDROOT
BRANCH   6   7
HETATM    7  C13 UNL     1      25.517   4.465  49.714  1.00  0.00    -0.093 C 
BRANCH   7   8
HETATM    8  C14 UNL     1      26.619   3.835  49.323  1.00  0.00     0.148 C 
HETATM    9  N4  UNL     1      27.647   4.574  48.814  1.00  0.00    -0.328 N 
HETATM   10  C15 UNL     1      28.065   5.853  48.493  1.00  0.00     0.246 C 
HETATM   11  H12 UNL     1      28.396   3.829  48.589  1.00  0.00     0.168 HD
HETATM   12  O1  UNL     1      27.097   6.622  48.828  1.00  0.00    -0.271 OA
BRANCH  10  13
HETATM   13  C16 UNL     1      29.383   6.138  47.888  1.00  0.00     0.278 C 
BRANCH  13  14
HETATM   14  O2  UNL     1      30.222   5.044  48.128  1.00  0.00    -0.342 OA
BRANCH  14  15
HETATM   15  C17 UNL     1      31.468   4.895  47.527  1.00  0.00     0.069 A 
HETATM   16  C18 UNL     1      31.657   3.677  46.890  1.00  0.00     0.040 A 
HETATM   17  C19 UNL     1      32.877   3.496  46.288  1.00  0.00     0.045 A 
HETATM   18  C20 UNL     1      33.917   4.393  46.256  1.00  0.00     0.116 A 
HETATM   19  F1  UNL     1      35.126   4.249  45.679  1.00  0.00    -0.206 F 
HETATM   20  C21 UNL     1      33.676   5.607  46.913  1.00  0.00     0.045 A 
HETATM   21  C22 UNL     1      32.472   5.841  47.531  1.00  0.00     0.040 A 
ENDBRANCH  14  15
ENDBRANCH  13  14
ENDBRANCH  10  13
ENDBRANCH   7   8
ENDBRANCH   6   7
BRANCH   1  22
HETATM   22  C2  UNL     1      23.887   5.987  48.221  1.00  0.00     0.002 C 
HETATM   23  C1  UNL     1      22.776   6.109  47.241  1.00  0.00     0.038 C 
ENDBRANCH   1  22
BRANCH   5  24
HETATM   24  N3  UNL     1      24.923   3.556  52.313  1.00  0.00    -0.340 N 
HETATM   25  H6  UNL     1      25.502   4.308  52.798  1.00  0.00     0.167 HD
BRANCH  24  26
HETATM   26  C6  UNL     1      25.083   2.186  52.540  1.00  0.00     0.035 A 
HETATM   27  C7  UNL     1      26.287   1.573  52.251  1.00  0.00     0.029 A 
HETATM   28  C8  UNL     1      26.375   0.232  52.498  1.00  0.00     0.004 A 
HETATM   29  C9  UNL     1      25.318  -0.476  53.007  1.00  0.00     0.019 A 
HETATM   30  C10 UNL     1      24.116   0.171  53.286  1.00  0.00     0.013 A 
HETATM   31 BR1  UNL     1      22.652  -0.839  53.995  1.00  0.00    -0.051 Br
HETATM   32  C11 UNL     1      23.969   1.534  53.057  1.00  0.00     0.048 A 
ENDBRANCH  24  26
ENDBRANCH   5  24
TORSDOF 8
ENDMDL
MODEL 6
REMARK VINA RESULT:      -7.7      3.397      7.220
REMARK  8 active torsions:
REMARK  status: ('A' for Active; 'I' for Inactive)
REMARK    1  A    between atoms: C2_2  and  C3_3 
REMARK    2  A    between atoms: C5_7  and  N3_8 
REMARK    3  A    between atoms: N3_8  and  C6_9 
REMARK    4  A    between atoms: C12_16  and  C13_17 
REMARK    5  A    between atoms: C13_17  and  C14_18 
REMARK       I    between atoms: N4_19  and  C15_20 
REMARK    6  A    between atoms: C15_20  and  C16_22 
REMARK    7  A    between atoms: C16_22  and  O2_23 
REMARK    8  A    between atoms: O2_23  and  C17_24 
ROOT
HETATM    1  C3  UNL     1      26.303   6.593  48.557  1.00  0.00     0.076 A 
HETATM    2  N1  UNL     1      27.590   6.624  48.107  1.00  0.00    -0.241 NA
HETATM    3  C4  UNL     1      28.366   5.506  48.273  1.00  0.00     0.236 A 
HETATM    4  N2  UNL     1      27.915   4.357  48.872  1.00  0.00    -0.223 NA
HETATM    5  C5  UNL     1      26.621   4.310  49.336  1.00  0.00     0.150 A 
HETATM    6  C12 UNL     1      25.901   5.451  49.138  1.00  0.00     0.085 A 
ENDROOT
BRANCH   6   7
HETATM    7  C13 UNL     1      24.663   5.475  49.557  1.00  0.00    -0.093 C 
BRANCH   7   8
HETATM    8  C14 UNL     1      23.396   5.777  49.819  1.00  0.00     0.148 C 
HETATM    9  N4  UNL     1      22.443   4.823  49.614  1.00  0.00    -0.328 N 
HETATM   10  C15 UNL     1      22.219   3.524  49.194  1.00  0.00     0.246 C 
HETATM   11  H12 UNL     1      21.531   5.322  49.905  1.00  0.00     0.168 HD
HETATM   12  O1  UNL     1      23.376   3.057  48.904  1.00  0.00    -0.271 OA
BRANCH  10  13
HETATM   13  C16 UNL     1      20.872   2.921  49.134  1.00  0.00     0.278 C 
BRANCH  13  14
HETATM   14  O2  UNL     1      20.970   1.586  49.543  1.00  0.00    -0.342 OA
BRANCH  14  15
HETATM   15  C17 UNL     1      21.106   1.206  50.874  1.00  0.00     0.069 A 
HETATM   16  C18 UNL     1      20.307   1.918  51.759  1.00  0.00     0.040 A 
HETATM   17  C19 UNL     1      20.418   1.571  53.082  1.00  0.00     0.045 A 
HETATM   18  C20 UNL     1      21.233   0.598  53.610  1.00  0.00     0.116 A 
HETATM   19  F1  UNL     1      21.370   0.233  54.899  1.00  0.00    -0.206 F 
HETATM   20  C21 UNL     1      22.018  -0.090  52.676  1.00  0.00     0.045 A 
HETATM   21  C22 UNL     1      21.946   0.216  51.339  1.00  0.00     0.040 A 
ENDBRANCH  14  15
ENDBRANCH  13  14
ENDBRANCH  10  13
ENDBRANCH   7   8
ENDBRANCH   6   7
BRANCH   1  22
HETATM   22  C2  UNL     1      25.597   7.695  48.374  1.00  0.00     0.002 C 
HETATM   23  C1  UNL     1      26.062   8.677  47.358  1.00  0.00     0.038 C 
ENDBRANCH   1  22
BRANCH   5  24
HETATM   24  N3  UNL     1      26.165   3.129  49.969  1.00  0.00    -0.340 N 
HETATM   25  H6  UNL     1      25.901   2.552  49.113  1.00  0.00     0.167 HD
BRANCH  24  26
HETATM   26  C6  UNL     1      26.027   2.673  51.284  1.00  0.00     0.035 A 
HETATM   27  C7  UNL     1      24.815   2.802  51.936  1.00  0.00     0.029 A 
HETATM   28  C8  UNL     1      24.749   2.336  53.219  1.00  0.00     0.004 A 
HETATM   29  C9  UNL     1      25.833   1.767  53.833  1.00  0.00     0.019 A 
HETATM   30  C10 UNL     1      27.042   1.653  53.150  1.00  0.00     0.013 A 
HETATM   31 BR1  UNL     1      28.544   0.857  54.030  1.00  0.00    -0.051 Br
HETATM   32  C11 UNL     1      27.167   2.109  51.842  1.00  0.00     0.048 A 
ENDBRANCH  24  26
ENDBRANCH   5  24
TORSDOF 8
ENDMDL
MODEL 7
REMARK VINA RESULT:      -7.6      4.228      8.557
REMARK  8 active torsions:
REMARK  status: ('A' for Active; 'I' for Inactive)
REMARK    1  A    between atoms: C2_2  and  C3_3 
REMARK    2  A    between atoms: C5_7  and  N3_8 
REMARK    3  A    between atoms: N3_8  and  C6_9 
REMARK    4  A    between atoms: C12_16  and  C13_17 
REMARK    5  A    between atoms: C13_17  and  C14_18 
REMARK       I    between atoms: N4_19  and  C15_20 
REMARK    6  A    between atoms: C15_20  and  C16_22 
REMARK    7  A    between atoms: C16_22  and  O2_23 
REMARK    8  A    between atoms: O2_23  and  C17_24 
ROOT
HETATM    1  C3  UNL     1      25.077   7.591  47.793  1.00  0.00     0.076 A 
HETATM    2  N1  UNL     1      25.352   8.383  46.716  1.00  0.00    -0.241 NA
HETATM    3  C4  UNL     1      26.656   8.504  46.312  1.00  0.00     0.236 A 
HETATM    4  N2  UNL     1      27.701   7.872  46.936  1.00  0.00    -0.223 NA
HETATM    5  C5  UNL     1      27.442   7.073  48.025  1.00  0.00     0.150 A 
HETATM    6  C12 UNL     1      26.127   6.991  48.375  1.00  0.00     0.085 A 
ENDROOT
BRANCH   6   7
HETATM    7  C13 UNL     1      25.812   6.249  49.404  1.00  0.00    -0.093 C 
BRANCH   7   8
HETATM    8  C14 UNL     1      25.197   5.615  50.396  1.00  0.00     0.148 C 
HETATM    9  N4  UNL     1      25.636   4.371  50.745  1.00  0.00    -0.328 N 
HETATM   10  C15 UNL     1      26.557   3.379  50.460  1.00  0.00     0.246 C 
HETATM   11  H12 UNL     1      24.980   4.099  51.558  1.00  0.00     0.168 HD
HETATM   12  O1  UNL     1      27.271   3.842  49.502  1.00  0.00    -0.271 OA
BRANCH  10  13
HETATM   13  C16 UNL     1      26.601   2.092  51.185  1.00  0.00     0.278 C 
BRANCH  13  14
HETATM   14  O2  UNL     1      25.830   2.215  52.346  1.00  0.00    -0.342 OA
BRANCH  14  15
HETATM   15  C17 UNL     1      24.934   1.240  52.771  1.00  0.00     0.069 A 
HETATM   16  C18 UNL     1      23.667   1.343  52.214  1.00  0.00     0.040 A 
HETATM   17  C19 UNL     1      22.756   0.397  52.613  1.00  0.00     0.045 A 
HETATM   18  C20 UNL     1      22.974  -0.629  53.501  1.00  0.00     0.116 A 
HETATM   19  F1  UNL     1      22.106  -1.572  53.918  1.00  0.00    -0.206 F 
HETATM   20  C21 UNL     1      24.268  -0.688  54.034  1.00  0.00     0.045 A 
HETATM   21  C22 UNL     1      25.219   0.232  53.668  1.00  0.00     0.040 A 
ENDBRANCH  14  15
ENDBRANCH  13  14
ENDBRANCH  10  13
ENDBRANCH   7   8
ENDBRANCH   6   7
BRANCH   1  22
HETATM   22  C2  UNL     1      23.806   7.508  48.143  1.00  0.00     0.002 C 
HETATM   23  C1  UNL     1      23.174   8.676  48.814  1.00  0.00     0.038 C 
ENDBRANCH   1  22
BRANCH   5  24
HETATM   24  N3  UNL     1      28.527   6.436  48.677  1.00  0.00    -0.340 N 
HETATM   25  H6  UNL     1      28.022   6.044  49.530  1.00  0.00     0.167 HD
BRANCH  24  26
HETATM   26  C6  UNL     1      29.894   6.267  48.437  1.00  0.00     0.035 A 
HETATM   27  C7  UNL     1      30.789   7.246  48.825  1.00  0.00     0.029 A 
HETATM   28  C8  UNL     1      32.111   7.016  48.561  1.00  0.00     0.004 A 
HETATM   29  C9  UNL     1      32.530   5.869  47.940  1.00  0.00     0.019 A 
HETATM   30  C10 UNL     1      31.602   4.902  47.561  1.00  0.00     0.013 A 
HETATM   31 BR1  UNL     1      32.213   3.308  46.693  1.00  0.00    -0.051 Br
HETATM   32  C11 UNL     1      30.246   5.081  47.805  1.00  0.00     0.048 A 
ENDBRANCH  24  26
ENDBRANCH   5  24
TORSDOF 8
ENDMDL
MODEL 8
REMARK VINA RESULT:      -7.5      3.723      6.946
REMARK  8 active torsions:
REMARK  status: ('A' for Active; 'I' for Inactive)
REMARK    1  A    between atoms: C2_2  and  C3_3 
REMARK    2  A    between atoms: C5_7  and  N3_8 
REMARK    3  A    between atoms: N3_8  and  C6_9 
REMARK    4  A    between atoms: C12_16  and  C13_17 
REMARK    5  A    between atoms: C13_17  and  C14_18 
REMARK       I    between atoms: N4_19  and  C15_20 
REMARK    6  A    between atoms: C15_20  and  C16_22 
REMARK    7  A    between atoms: C16_22  and  O2_23 
REMARK    8  A    between atoms: O2_23  and  C17_24 
ROOT
HETATM    1  C3  UNL     1      20.561   5.033  49.008  1.00  0.00     0.076 A 
HETATM    2  N1  UNL     1      19.827   4.836  47.876  1.00  0.00    -0.241 NA
HETATM    3  C4  UNL     1      19.472   3.554  47.544  1.00  0.00     0.236 A 
HETATM    4  N2  UNL     1      19.819   2.458  48.291  1.00  0.00    -0.223 NA
HETATM    5  C5  UNL     1      20.562   2.638  49.434  1.00  0.00     0.150 A 
HETATM    6  C12 UNL     1      20.880   3.934  49.711  1.00  0.00     0.085 A 
ENDROOT
BRANCH   6   7
HETATM    7  C13 UNL     1      21.588   4.176  50.783  1.00  0.00    -0.093 C 
BRANCH   7   8
HETATM    8  C14 UNL     1      22.020   4.415  52.016  1.00  0.00     0.148 C 
HETATM    9  N4  UNL     1      23.119   3.742  52.463  1.00  0.00    -0.328 N 
HETATM   10  C15 UNL     1      24.078   2.802  52.132  1.00  0.00     0.246 C 
HETATM   11  H12 UNL     1      23.247   4.123  53.466  1.00  0.00     0.168 HD
HETATM   12  O1  UNL     1      23.816   2.459  50.926  1.00  0.00    -0.271 OA
BRANCH  10  13
HETATM   13  C16 UNL     1      25.133   2.366  53.070  1.00  0.00     0.278 C 
BRANCH  13  14
HETATM   14  O2  UNL     1      26.292   2.095  52.334  1.00  0.00    -0.342 OA
BRANCH  14  15
HETATM   15  C17 UNL     1      27.296   1.244  52.781  1.00  0.00     0.069 A 
HETATM   16  C18 UNL     1      27.039  -0.105  52.578  1.00  0.00     0.040 A 
HETATM   17  C19 UNL     1      28.009  -0.973  53.011  1.00  0.00     0.045 A 
HETATM   18  C20 UNL     1      29.196  -0.641  53.619  1.00  0.00     0.116 A 
HETATM   19  F1  UNL     1      30.168  -1.465  54.059  1.00  0.00    -0.206 F 
HETATM   20  C21 UNL     1      29.407   0.731  53.801  1.00  0.00     0.045 A 
HETATM   21  C22 UNL     1      28.469   1.644  53.386  1.00  0.00     0.040 A 
ENDBRANCH  14  15
ENDBRANCH  13  14
ENDBRANCH  10  13
ENDBRANCH   7   8
ENDBRANCH   6   7
BRANCH   1  22
HETATM   22  C2  UNL     1      20.878   6.286  49.284  1.00  0.00     0.002 C 
HETATM   23  C1  UNL     1      21.741   7.028  48.326  1.00  0.00     0.038 C 
ENDBRANCH   1  22
BRANCH   5  24
HETATM   24  N3  UNL     1      20.932   1.501  50.193  1.00  0.00    -0.340 N 
HETATM   25  H6  UNL     1      21.877   1.286  49.750  1.00  0.00     0.167 HD
BRANCH  24  26
HETATM   26  C6  UNL     1      20.373   0.750  51.232  1.00  0.00     0.035 A 
HETATM   27  C7  UNL     1      19.036   0.403  51.191  1.00  0.00     0.029 A 
HETATM   28  C8  UNL     1      18.555  -0.332  52.238  1.00  0.00     0.004 A 
HETATM   29  C9  UNL     1      19.359  -0.707  53.282  1.00  0.00     0.019 A 
HETATM   30  C10 UNL     1      20.703  -0.340  53.294  1.00  0.00     0.013 A 
HETATM   31 BR1  UNL     1      21.806  -0.874  54.765  1.00  0.00    -0.051 Br
HETATM   32  C11 UNL     1      21.248   0.406  52.256  1.00  0.00     0.048 A 
ENDBRANCH  24  26
ENDBRANCH   5  24
TORSDOF 8
ENDMDL
MODEL 9
REMARK VINA RESULT:      -7.5      3.867      7.792
REMARK  8 active torsions:
REMARK  status: ('A' for Active; 'I' for Inactive)
REMARK    1  A    between atoms: C2_2  and  C3_3 
REMARK    2  A    between atoms: C5_7  and  N3_8 
REMARK    3  A    between atoms: N3_8  and  C6_9 
REMARK    4  A    between atoms: C12_16  and  C13_17 
REMARK    5  A    between atoms: C13_17  and  C14_18 
REMARK       I    between atoms: N4_19  and  C15_20 
REMARK    6  A    between atoms: C15_20  and  C16_22 
REMARK    7  A    between atoms: C16_22  and  O2_23 
REMARK    8  A    between atoms: O2_23  and  C17_24 
ROOT
HETATM    1  C3  UNL     1      25.920   6.486  49.270  1.00  0.00     0.076 A 
HETATM    2  N1  UNL     1      27.098   6.627  48.595  1.00  0.00    -0.241 NA
HETATM    3  C4  UNL     1      27.900   5.525  48.446  1.00  0.00     0.236 A 
HETATM    4  N2  UNL     1      27.581   4.287  48.942  1.00  0.00    -0.223 NA
HETATM    5  C5  UNL     1      26.398   4.128  49.627  1.00  0.00     0.150 A 
HETATM    6  C12 UNL     1      25.645   5.258  49.740  1.00  0.00     0.085 A 
ENDROOT
BRANCH   6   7
HETATM    7  C13 UNL     1      24.510   5.178  50.382  1.00  0.00    -0.093 C 
BRANCH   7   8
HETATM    8  C14 UNL     1      23.501   5.300  51.237  1.00  0.00     0.148 C 
HETATM    9  N4  UNL     1      22.461   4.421  51.147  1.00  0.00    -0.328 N 
HETATM   10  C15 UNL     1      21.959   3.335  50.453  1.00  0.00     0.246 C 
HETATM   11  H12 UNL     1      21.804   4.738  51.943  1.00  0.00     0.168 HD
HETATM   12  O1  UNL     1      22.841   3.061  49.565  1.00  0.00    -0.271 OA
BRANCH  10  13
HETATM   13  C16 UNL     1      20.656   2.713  50.768  1.00  0.00     0.278 C 
BRANCH  13  14
HETATM   14  O2  UNL     1      20.879   1.374  51.109  1.00  0.00    -0.342 OA
BRANCH  14  15
HETATM   15  C17 UNL     1      19.899   0.556  51.660  1.00  0.00     0.069 A 
HETATM   16  C18 UNL     1      18.739   0.459  50.904  1.00  0.00     0.040 A 
HETATM   17  C19 UNL     1      17.750  -0.339  51.420  1.00  0.00     0.045 A 
HETATM   18  C20 UNL     1      17.795  -1.043  52.600  1.00  0.00     0.116 A 
HETATM   19  F1  UNL     1      16.844  -1.831  53.138  1.00  0.00    -0.206 F 
HETATM   20  C21 UNL     1      18.986  -0.911  53.325  1.00  0.00     0.045 A 
HETATM   21  C22 UNL     1      20.009  -0.126  52.854  1.00  0.00     0.040 A 
ENDBRANCH  14  15
ENDBRANCH  13  14
ENDBRANCH  10  13
ENDBRANCH   7   8
ENDBRANCH   6   7
BRANCH   1  22
HETATM   22  C2  UNL     1      25.184   7.577  49.387  1.00  0.00     0.002 C 
HETATM   23  C1  UNL     1      25.827   8.817  49.897  1.00  0.00     0.038 C 
ENDBRANCH   1  22
BRANCH   5  24
HETATM   24  N3  UNL     1      26.081   2.852  50.153  1.00  0.00    -0.340 N 
HETATM   25  H6  UNL     1      25.711   2.378  49.273  1.00  0.00     0.167 HD
BRANCH  24  26
HETATM   26  C6  UNL     1      26.155   2.223  51.400  1.00  0.00     0.035 A 
HETATM   27  C7  UNL     1      27.268   2.403  52.200  1.00  0.00     0.029 A 
HETATM   28  C8  UNL     1      27.274   1.760  53.406  1.00  0.00     0.004 A 
HETATM   29  C9  UNL     1      26.228   0.971  53.805  1.00  0.00     0.019 A 
HETATM   30  C10 UNL     1      25.121   0.808  52.975  1.00  0.00     0.013 A 
HETATM   31 BR1  UNL     1      23.672  -0.301  53.553  1.00  0.00    -0.051 Br
HETATM   32  C11 UNL     1      25.059   1.439  51.738  1.00  0.00     0.048 A 
ENDBRANCH  24  26
ENDBRANCH   5  24
TORSDOF 8
ENDMDL
