MODEL 1
REMARK VINA RESULT:      -9.1      0.000      0.000
REMARK  3 active torsions:
REMARK  status: ('A' for Active; 'I' for Inactive)
REMARK    1  A    between atoms: C2_3  and  C3_4 
REMARK    2  A    between atoms: C8_10  and  N2_11 
REMARK    3  A    between atoms: N2_11  and  C9_12 
ROOT
HETATM    1  C3  UNL     1      27.366   0.452  53.922  1.00  0.00    -0.052 A 
HETATM    2  C4  UNL     1      26.188  -0.071  54.280  1.00  0.00     0.008 A 
HETATM    3  C5  UNL     1      24.966   0.319  53.567  1.00  0.00     0.010 A 
HETATM    4  C6  UNL     1      24.998   1.188  52.563  1.00  0.00    -0.032 A 
HETATM    5  C7  UNL     1      23.707   1.490  51.937  1.00  0.00     0.190 A 
HETATM    6  N1  UNL     1      23.858   2.441  50.856  1.00  0.00    -0.268 NA
HETATM    7  C8  UNL     1      24.984   2.957  50.497  1.00  0.00     0.123 A 
HETATM    8  C18 UNL     1      26.257   2.615  51.168  1.00  0.00     0.058 A 
HETATM    9  C19 UNL     1      26.288   1.754  52.179  1.00  0.00    -0.042 A 
HETATM   10  C20 UNL     1      27.571   1.420  52.843  1.00  0.00     0.077 A 
ENDROOT
BRANCH   7  11
HETATM   11  N2  UNL     1      24.928   3.872  49.414  1.00  0.00    -0.341 N 
HETATM   12  H7  UNL     1      24.146   3.708  48.722  1.00  0.00     0.167 HD
BRANCH  11  13
HETATM   13  C9  UNL     1      25.813   4.953  49.191  1.00  0.00     0.034 A 
HETATM   14  C10 UNL     1      25.542   6.290  49.350  1.00  0.00     0.032 A 
HETATM   15  C11 UNL     1      26.422   7.323  49.120  1.00  0.00     0.035 A 
HETATM   16  C12 UNL     1      27.699   7.019  48.691  1.00  0.00     0.066 A 
HETATM   17  N3  UNL     1      28.608   7.972  48.447  1.00  0.00    -0.260 NA
HETATM   18  C16 UNL     1      28.017   5.691  48.517  1.00  0.00    -0.005 A 
HETATM   19  C13 UNL     1      29.867   7.744  48.026  1.00  0.00     0.117 A 
HETATM   20  C14 UNL     1      30.225   6.412  47.841  1.00  0.00     0.020 A 
HETATM   21  C15 UNL     1      29.296   5.422  48.090  1.00  0.00     0.015 A 
HETATM   22  C17 UNL     1      27.101   4.691  48.761  1.00  0.00     0.043 A 
ENDBRANCH  11  13
ENDBRANCH   7  11
BRANCH   1  23
HETATM   23  C2  UNL     1      28.484  -0.023  54.714  1.00  0.00     0.036 C 
HETATM   24  C1  UNL     1      29.513  -0.584  54.129  1.00  0.00     0.189 C 
HETATM   25  F1  UNL     1      30.120  -0.989  53.003  1.00  0.00    -0.219 F 
ENDBRANCH   1  23
TORSDOF 3
ENDMDL
MODEL 2
REMARK VINA RESULT:      -9.0      2.190      7.106
REMARK  3 active torsions:
REMARK  status: ('A' for Active; 'I' for Inactive)
REMARK    1  A    between atoms: C2_3  and  C3_4 
REMARK    2  A    between atoms: C8_10  and  N2_11 
REMARK    3  A    between atoms: N2_11  and  C9_12 
ROOT
HETATM    1  C3  UNL     1      28.469   6.403  47.906  1.00  0.00    -0.052 A 
HETATM    2  C4  UNL     1      27.558   7.368  47.737  1.00  0.00     0.008 A 
HETATM    3  C5  UNL     1      26.179   7.164  48.195  1.00  0.00     0.010 A 
HETATM    4  C6  UNL     1      25.806   6.032  48.781  1.00  0.00    -0.032 A 
HETATM    5  C7  UNL     1      24.400   5.958  49.191  1.00  0.00     0.190 A 
HETATM    6  N1  UNL     1      24.103   4.689  49.820  1.00  0.00    -0.268 NA
HETATM    7  C8  UNL     1      24.966   3.745  49.991  1.00  0.00     0.123 A 
HETATM    8  C18 UNL     1      26.373   3.876  49.555  1.00  0.00     0.058 A 
HETATM    9  C19 UNL     1      26.806   4.984  48.962  1.00  0.00    -0.042 A 
HETATM   10  C20 UNL     1      28.219   5.102  48.529  1.00  0.00     0.077 A 
ENDROOT
BRANCH   7  11
HETATM   11  N2  UNL     1      24.484   2.573  50.628  1.00  0.00    -0.341 N 
HETATM   12  H7  UNL     1      23.531   2.244  50.309  1.00  0.00     0.167 HD
BRANCH  11  13
HETATM   13  C9  UNL     1      25.154   1.834  51.630  1.00  0.00     0.034 A 
HETATM   14  C10 UNL     1      24.672   0.750  52.321  1.00  0.00     0.032 A 
HETATM   15  C11 UNL     1      25.346   0.052  53.297  1.00  0.00     0.035 A 
HETATM   16  C12 UNL     1      26.625   0.453  53.632  1.00  0.00     0.066 A 
HETATM   17  N3  UNL     1      27.340  -0.179  54.571  1.00  0.00    -0.260 NA
HETATM   18  C16 UNL     1      27.152   1.537  52.965  1.00  0.00    -0.005 A 
HETATM   19  C13 UNL     1      28.589   0.162  54.945  1.00  0.00     0.117 A 
HETATM   20  C14 UNL     1      29.154   1.253  54.291  1.00  0.00     0.020 A 
HETATM   21  C15 UNL     1      28.425   1.910  53.322  1.00  0.00     0.015 A 
HETATM   22  C17 UNL     1      26.437   2.204  51.994  1.00  0.00     0.043 A 
ENDBRANCH  11  13
ENDBRANCH   7  11
BRANCH   1  23
HETATM   23  C2  UNL     1      29.786   6.744  47.405  1.00  0.00     0.036 C 
HETATM   24  C1  UNL     1      30.850   6.491  48.126  1.00  0.00     0.189 C 
HETATM   25  F1  UNL     1      31.389   6.006  49.255  1.00  0.00    -0.219 F 
ENDBRANCH   1  23
TORSDOF 3
ENDMDL
MODEL 3
REMARK VINA RESULT:      -8.9      2.373      3.326
REMARK  3 active torsions:
REMARK  status: ('A' for Active; 'I' for Inactive)
REMARK    1  A    between atoms: C2_3  and  C3_4 
REMARK    2  A    between atoms: C8_10  and  N2_11 
REMARK    3  A    between atoms: N2_11  and  C9_12 
ROOT
HETATM    1  C3  UNL     1      23.462  -0.252  53.436  1.00  0.00    -0.052 A 
HETATM    2  C4  UNL     1      24.699  -0.445  53.907  1.00  0.00     0.008 A 
HETATM    3  C5  UNL     1      25.822   0.323  53.356  1.00  0.00     0.010 A 
HETATM    4  C6  UNL     1      25.641   1.217  52.390  1.00  0.00    -0.032 A 
HETATM    5  C7  UNL     1      26.846   1.914  51.931  1.00  0.00     0.190 A 
HETATM    6  N1  UNL     1      26.535   2.864  50.885  1.00  0.00    -0.268 NA
HETATM    7  C8  UNL     1      25.350   3.065  50.416  1.00  0.00     0.123 A 
HETATM    8  C18 UNL     1      24.170   2.329  50.919  1.00  0.00     0.058 A 
HETATM    9  C19 UNL     1      24.287   1.422  51.882  1.00  0.00    -0.042 A 
HETATM   10  C20 UNL     1      23.096   0.691  52.377  1.00  0.00     0.077 A 
ENDROOT
BRANCH   7  11
HETATM   11  N2  UNL     1      25.246   4.039  49.390  1.00  0.00    -0.341 N 
HETATM   12  H7  UNL     1      24.407   3.941  48.755  1.00  0.00     0.167 HD
BRANCH  11  13
HETATM   13  C9  UNL     1      26.153   5.098  49.153  1.00  0.00     0.034 A 
HETATM   14  C10 UNL     1      25.926   6.439  49.342  1.00  0.00     0.032 A 
HETATM   15  C11 UNL     1      26.827   7.450  49.097  1.00  0.00     0.035 A 
HETATM   16  C12 UNL     1      28.079   7.119  48.619  1.00  0.00     0.066 A 
HETATM   17  N3  UNL     1      29.006   8.050  48.358  1.00  0.00    -0.260 NA
HETATM   18  C16 UNL     1      28.353   5.785  48.413  1.00  0.00    -0.005 A 
HETATM   19  C13 UNL     1      30.242   7.793  47.890  1.00  0.00     0.117 A 
HETATM   20  C14 UNL     1      30.555   6.454  47.672  1.00  0.00     0.020 A 
HETATM   21  C15 UNL     1      29.608   5.487  47.937  1.00  0.00     0.015 A 
HETATM   22  C17 UNL     1      27.418   4.807  48.674  1.00  0.00     0.043 A 
ENDBRANCH  11  13
ENDBRANCH   7  11
BRANCH   1  23
HETATM   23  C2  UNL     1      22.455  -1.078  54.072  1.00  0.00     0.036 C 
HETATM   24  C1  UNL     1      21.440  -0.524  54.686  1.00  0.00     0.189 C 
HETATM   25  F1  UNL     1      20.789   0.586  55.066  1.00  0.00    -0.219 F 
ENDBRANCH   1  23
TORSDOF 3
ENDMDL
MODEL 4
REMARK VINA RESULT:      -8.9      5.227      7.916
REMARK  3 active torsions:
REMARK  status: ('A' for Active; 'I' for Inactive)
REMARK    1  A    between atoms: C2_3  and  C3_4 
REMARK    2  A    between atoms: C8_10  and  N2_11 
REMARK    3  A    between atoms: N2_11  and  C9_12 
ROOT
HETATM    1  C3  UNL     1      18.546  -0.112  51.518  1.00  0.00    -0.052 A 
HETATM    2  C4  UNL     1      18.575  -0.618  52.756  1.00  0.00     0.008 A 
HETATM    3  C5  UNL     1      19.819  -0.582  53.534  1.00  0.00     0.010 A 
HETATM    4  C6  UNL     1      20.931  -0.053  53.036  1.00  0.00    -0.032 A 
HETATM    5  C7  UNL     1      22.102  -0.080  53.918  1.00  0.00     0.190 A 
HETATM    6  N1  UNL     1      23.252   0.523  53.280  1.00  0.00    -0.268 NA
HETATM    7  C8  UNL     1      23.245   1.015  52.088  1.00  0.00     0.123 A 
HETATM    8  C18 UNL     1      22.032   1.014  51.243  1.00  0.00     0.058 A 
HETATM    9  C19 UNL     1      20.890   0.498  51.685  1.00  0.00    -0.042 A 
HETATM   10  C20 UNL     1      19.681   0.502  50.827  1.00  0.00     0.077 A 
ENDROOT
BRANCH   7  11
HETATM   11  N2  UNL     1      24.474   1.563  51.637  1.00  0.00    -0.341 N 
HETATM   12  H7  UNL     1      24.404   2.200  50.796  1.00  0.00     0.167 HD
BRANCH  11  13
HETATM   13  C9  UNL     1      25.748   1.329  52.204  1.00  0.00     0.034 A 
HETATM   14  C10 UNL     1      26.596   2.263  52.745  1.00  0.00     0.032 A 
HETATM   15  C11 UNL     1      27.836   2.007  53.286  1.00  0.00     0.035 A 
HETATM   16  C12 UNL     1      28.294   0.704  53.301  1.00  0.00     0.066 A 
HETATM   17  N3  UNL     1      29.489   0.381  53.810  1.00  0.00    -0.260 NA
HETATM   18  C16 UNL     1      27.477  -0.268  52.768  1.00  0.00    -0.005 A 
HETATM   19  C13 UNL     1      29.994  -0.867  53.854  1.00  0.00     0.117 A 
HETATM   20  C14 UNL     1      29.195  -1.876  53.326  1.00  0.00     0.020 A 
HETATM   21  C15 UNL     1      27.961  -1.554  52.798  1.00  0.00     0.015 A 
HETATM   22  C17 UNL     1      26.242   0.038  52.238  1.00  0.00     0.043 A 
ENDBRANCH  11  13
ENDBRANCH   7  11
BRANCH   1  23
HETATM   23  C2  UNL     1      17.253  -0.217  50.870  1.00  0.00     0.036 C 
HETATM   24  C1  UNL     1      16.191   0.307  51.430  1.00  0.00     0.189 C 
HETATM   25  F1  UNL     1      15.641   0.986  52.448  1.00  0.00    -0.219 F 
ENDBRANCH   1  23
TORSDOF 3
ENDMDL
MODEL 5
REMARK VINA RESULT:      -8.8      2.616      7.987
REMARK  3 active torsions:
REMARK  status: ('A' for Active; 'I' for Inactive)
REMARK    1  A    between atoms: C2_3  and  C3_4 
REMARK    2  A    between atoms: C8_10  and  N2_11 
REMARK    3  A    between atoms: N2_11  and  C9_12 
ROOT
HETATM    1  C3  UNL     1      28.032   6.530  48.424  1.00  0.00    -0.052 A 
HETATM    2  C4  UNL     1      27.394   7.582  48.950  1.00  0.00     0.008 A 
HETATM    3  C5  UNL     1      26.127   7.389  49.665  1.00  0.00     0.010 A 
HETATM    4  C6  UNL     1      25.590   6.182  49.806  1.00  0.00    -0.032 A 
HETATM    5  C7  UNL     1      24.322   6.130  50.542  1.00  0.00     0.190 A 
HETATM    6  N1  UNL     1      23.830   4.772  50.640  1.00  0.00    -0.268 NA
HETATM    7  C8  UNL     1      24.428   3.746  50.139  1.00  0.00     0.123 A 
HETATM    8  C18 UNL     1      25.706   3.861  49.404  1.00  0.00     0.058 A 
HETATM    9  C19 UNL     1      26.292   5.040  49.229  1.00  0.00    -0.042 A 
HETATM   10  C20 UNL     1      27.573   5.141  48.490  1.00  0.00     0.077 A 
ENDROOT
BRANCH   7  11
HETATM   11  N2  UNL     1      23.787   2.496  50.339  1.00  0.00    -0.341 N 
HETATM   12  H7  UNL     1      23.112   2.207  49.579  1.00  0.00     0.167 HD
BRANCH  11  13
HETATM   13  C9  UNL     1      23.971   1.634  51.444  1.00  0.00     0.034 A 
HETATM   14  C10 UNL     1      25.164   1.183  51.953  1.00  0.00     0.032 A 
HETATM   15  C11 UNL     1      25.314   0.338  53.028  1.00  0.00     0.035 A 
HETATM   16  C12 UNL     1      24.181  -0.114  53.676  1.00  0.00     0.066 A 
HETATM   17  N3  UNL     1      24.250  -0.938  54.729  1.00  0.00    -0.260 NA
HETATM   18  C16 UNL     1      22.960   0.311  53.201  1.00  0.00    -0.005 A 
HETATM   19  C13 UNL     1      23.185  -1.415  55.403  1.00  0.00     0.117 A 
HETATM   20  C14 UNL     1      21.934  -1.005  54.952  1.00  0.00     0.020 A 
HETATM   21  C15 UNL     1      21.852  -0.156  53.867  1.00  0.00     0.015 A 
HETATM   22  C17 UNL     1      22.861   1.159  52.120  1.00  0.00     0.043 A 
ENDBRANCH  11  13
ENDBRANCH   7  11
BRANCH   1  23
HETATM   23  C2  UNL     1      29.268   6.871  47.747  1.00  0.00     0.036 C 
HETATM   24  C1  UNL     1      30.418   6.500  48.252  1.00  0.00     0.189 C 
HETATM   25  F1  UNL     1      31.105   5.875  49.220  1.00  0.00    -0.219 F 
ENDBRANCH   1  23
TORSDOF 3
ENDMDL
MODEL 6
REMARK VINA RESULT:      -8.4      5.994     10.485
REMARK  3 active torsions:
REMARK  status: ('A' for Active; 'I' for Inactive)
REMARK    1  A    between atoms: C2_3  and  C3_4 
REMARK    2  A    between atoms: C8_10  and  N2_11 
REMARK    3  A    between atoms: N2_11  and  C9_12 
ROOT
HETATM    1  C3  UNL     1      25.531   0.246  52.571  1.00  0.00    -0.052 A 
HETATM    2  C4  UNL     1      25.206   1.399  51.977  1.00  0.00     0.008 A 
HETATM    3  C5  UNL     1      23.807   1.841  51.949  1.00  0.00     0.010 A 
HETATM    4  C6  UNL     1      22.842   1.117  52.505  1.00  0.00    -0.032 A 
HETATM    5  C7  UNL     1      21.489   1.672  52.407  1.00  0.00     0.190 A 
HETATM    6  N1  UNL     1      20.520   0.809  53.047  1.00  0.00    -0.268 NA
HETATM    7  C8  UNL     1      20.813  -0.307  53.624  1.00  0.00     0.123 A 
HETATM    8  C18 UNL     1      22.198  -0.819  53.691  1.00  0.00     0.058 A 
HETATM    9  C19 UNL     1      23.206  -0.141  53.152  1.00  0.00    -0.042 A 
HETATM   10  C20 UNL     1      24.590  -0.665  53.226  1.00  0.00     0.077 A 
ENDROOT
BRANCH   7  11
HETATM   11  N2  UNL     1      19.723  -1.014  54.195  1.00  0.00    -0.341 N 
HETATM   12  H7  UNL     1      19.835  -1.273  55.213  1.00  0.00     0.167 HD
BRANCH  11  13
HETATM   13  C9  UNL     1      18.534  -1.391  53.528  1.00  0.00     0.034 A 
HETATM   14  C10 UNL     1      17.837  -0.657  52.601  1.00  0.00     0.032 A 
HETATM   15  C11 UNL     1      16.678  -1.048  51.971  1.00  0.00     0.035 A 
HETATM   16  C12 UNL     1      16.144  -2.284  52.277  1.00  0.00     0.066 A 
HETATM   17  N3  UNL     1      15.019  -2.731  51.703  1.00  0.00    -0.260 NA
HETATM   18  C16 UNL     1      16.809  -3.058  53.203  1.00  0.00    -0.005 A 
HETATM   19  C13 UNL     1      14.447  -3.923  51.959  1.00  0.00     0.117 A 
HETATM   20  C14 UNL     1      15.093  -4.732  52.888  1.00  0.00     0.020 A 
HETATM   21  C15 UNL     1      16.253  -4.282  53.485  1.00  0.00     0.015 A 
HETATM   22  C17 UNL     1      17.968  -2.623  53.807  1.00  0.00     0.043 A 
ENDBRANCH  11  13
ENDBRANCH   7  11
BRANCH   1  23
HETATM   23  C2  UNL     1      26.947  -0.063  52.521  1.00  0.00     0.036 C 
HETATM   24  C1  UNL     1      27.695   0.104  53.583  1.00  0.00     0.189 C 
HETATM   25  F1  UNL     1      27.806   0.470  54.869  1.00  0.00    -0.219 F 
ENDBRANCH   1  23
TORSDOF 3
ENDMDL
MODEL 7
REMARK VINA RESULT:      -8.4      4.891      7.535
REMARK  3 active torsions:
REMARK  status: ('A' for Active; 'I' for Inactive)
REMARK    1  A    between atoms: C2_3  and  C3_4 
REMARK    2  A    between atoms: C8_10  and  N2_11 
REMARK    3  A    between atoms: N2_11  and  C9_12 
ROOT
HETATM    1  C3  UNL     1      18.333  -0.367  52.051  1.00  0.00    -0.052 A 
HETATM    2  C4  UNL     1      17.741  -0.004  50.908  1.00  0.00     0.008 A 
HETATM    3  C5  UNL     1      18.472   0.807  49.928  1.00  0.00     0.010 A 
HETATM    4  C6  UNL     1      19.723   1.196  50.148  1.00  0.00    -0.032 A 
HETATM    5  C7  UNL     1      20.337   2.001  49.088  1.00  0.00     0.190 A 
HETATM    6  N1  UNL     1      21.696   2.365  49.427  1.00  0.00    -0.268 NA
HETATM    7  C8  UNL     1      22.285   2.027  50.524  1.00  0.00     0.123 A 
HETATM    8  C18 UNL     1      21.613   1.213  51.559  1.00  0.00     0.058 A 
HETATM    9  C19 UNL     1      20.362   0.796  51.398  1.00  0.00    -0.042 A 
HETATM   10  C20 UNL     1      19.700  -0.020  52.444  1.00  0.00     0.077 A 
ENDROOT
BRANCH   7  11
HETATM   11  N2  UNL     1      23.621   2.482  50.675  1.00  0.00    -0.341 N 
HETATM   12  H7  UNL     1      23.974   3.113  49.905  1.00  0.00     0.167 HD
BRANCH  11  13
HETATM   13  C9  UNL     1      24.493   2.162  51.742  1.00  0.00     0.034 A 
HETATM   14  C10 UNL     1      24.573   2.788  52.961  1.00  0.00     0.032 A 
HETATM   15  C11 UNL     1      25.437   2.459  53.980  1.00  0.00     0.035 A 
HETATM   16  C12 UNL     1      26.314   1.408  53.790  1.00  0.00     0.066 A 
HETATM   17  N3  UNL     1      27.182   1.032  54.737  1.00  0.00    -0.260 NA
HETATM   18  C16 UNL     1      26.270   0.749  52.581  1.00  0.00    -0.005 A 
HETATM   19  C13 UNL     1      28.062   0.019  54.614  1.00  0.00     0.117 A 
HETATM   20  C14 UNL     1      28.046  -0.671  53.406  1.00  0.00     0.020 A 
HETATM   21  C15 UNL     1      27.155  -0.291  52.423  1.00  0.00     0.015 A 
HETATM   22  C17 UNL     1      25.386   1.116  51.590  1.00  0.00     0.043 A 
ENDBRANCH  11  13
ENDBRANCH   7  11
BRANCH   1  23
HETATM   23  C2  UNL     1      17.492  -1.164  52.922  1.00  0.00     0.036 C 
HETATM   24  C1  UNL     1      18.025  -2.066  53.707  1.00  0.00     0.189 C 
HETATM   25  F1  UNL     1      19.118  -2.699  54.161  1.00  0.00    -0.219 F 
ENDBRANCH   1  23
TORSDOF 3
ENDMDL
MODEL 8
REMARK VINA RESULT:      -8.4      4.886      8.967
REMARK  3 active torsions:
REMARK  status: ('A' for Active; 'I' for Inactive)
REMARK    1  A    between atoms: C2_3  and  C3_4 
REMARK    2  A    between atoms: C8_10  and  N2_11 
REMARK    3  A    between atoms: N2_11  and  C9_12 
ROOT
HETATM    1  C3  UNL     1      26.488  -0.143  52.897  1.00  0.00    -0.052 A 
HETATM    2  C4  UNL     1      26.376   1.041  52.286  1.00  0.00     0.008 A 
HETATM    3  C5  UNL     1      25.062   1.684  52.168  1.00  0.00     0.010 A 
HETATM    4  C6  UNL     1      23.967   1.114  52.657  1.00  0.00    -0.032 A 
HETATM    5  C7  UNL     1      22.720   1.862  52.472  1.00  0.00     0.190 A 
HETATM    6  N1  UNL     1      21.594   1.155  53.044  1.00  0.00    -0.268 NA
HETATM    7  C8  UNL     1      21.681   0.012  53.635  1.00  0.00     0.123 A 
HETATM    8  C18 UNL     1      22.969  -0.698  53.792  1.00  0.00     0.058 A 
HETATM    9  C19 UNL     1      24.098  -0.179  53.322  1.00  0.00    -0.042 A 
HETATM   10  C20 UNL     1      25.383  -0.901  53.486  1.00  0.00     0.077 A 
ENDROOT
BRANCH   7  11
HETATM   11  N2  UNL     1      20.464  -0.523  54.131  1.00  0.00    -0.341 N 
HETATM   12  H7  UNL     1      20.468  -0.782  55.156  1.00  0.00     0.167 HD
BRANCH  11  13
HETATM   13  C9  UNL     1      19.282  -0.733  53.385  1.00  0.00     0.034 A 
HETATM   14  C10 UNL     1      18.247  -1.581  53.695  1.00  0.00     0.032 A 
HETATM   15  C11 UNL     1      17.109  -1.771  52.945  1.00  0.00     0.035 A 
HETATM   16  C12 UNL     1      16.964  -1.059  51.771  1.00  0.00     0.066 A 
HETATM   17  N3  UNL     1      15.884  -1.192  50.991  1.00  0.00    -0.260 NA
HETATM   18  C16 UNL     1      17.977  -0.194  51.418  1.00  0.00    -0.005 A 
HETATM   19  C13 UNL     1      15.683  -0.529  49.836  1.00  0.00     0.117 A 
HETATM   20  C14 UNL     1      16.686   0.355  49.448  1.00  0.00     0.020 A 
HETATM   21  C15 UNL     1      17.803   0.500  50.245  1.00  0.00     0.015 A 
HETATM   22  C17 UNL     1      19.099  -0.038  52.203  1.00  0.00     0.043 A 
ENDBRANCH  11  13
ENDBRANCH   7  11
BRANCH   1  23
HETATM   23  C2  UNL     1      27.844  -0.657  52.939  1.00  0.00     0.036 C 
HETATM   24  C1  UNL     1      28.591  -0.458  53.996  1.00  0.00     0.189 C 
HETATM   25  F1  UNL     1      28.734   0.061  55.225  1.00  0.00    -0.219 F 
ENDBRANCH   1  23
TORSDOF 3
ENDMDL
MODEL 9
REMARK VINA RESULT:      -8.2      2.609      7.722
REMARK  3 active torsions:
REMARK  status: ('A' for Active; 'I' for Inactive)
REMARK    1  A    between atoms: C2_3  and  C3_4 
REMARK    2  A    between atoms: C8_10  and  N2_11 
REMARK    3  A    between atoms: N2_11  and  C9_12 
ROOT
HETATM    1  C3  UNL     1      29.176   6.193  47.969  1.00  0.00    -0.052 A 
HETATM    2  C4  UNL     1      28.586   7.366  47.717  1.00  0.00     0.008 A 
HETATM    3  C5  UNL     1      27.150   7.535  47.968  1.00  0.00     0.010 A 
HETATM    4  C6  UNL     1      26.410   6.540  48.446  1.00  0.00    -0.032 A 
HETATM    5  C7  UNL     1      24.990   6.842  48.652  1.00  0.00     0.190 A 
HETATM    6  N1  UNL     1      24.282   5.695  49.177  1.00  0.00    -0.268 NA
HETATM    7  C8  UNL     1      24.831   4.555  49.426  1.00  0.00     0.123 A 
HETATM    8  C18 UNL     1      26.271   4.308  49.197  1.00  0.00     0.058 A 
HETATM    9  C19 UNL     1      27.062   5.263  48.719  1.00  0.00    -0.042 A 
HETATM   10  C20 UNL     1      28.504   5.002  48.494  1.00  0.00     0.077 A 
ENDROOT
BRANCH   7  11
HETATM   11  N2  UNL     1      23.969   3.550  49.938  1.00  0.00    -0.341 N 
HETATM   12  H7  UNL     1      23.007   3.514  49.502  1.00  0.00     0.167 HD
BRANCH  11  13
HETATM   13  C9  UNL     1      24.285   2.624  50.958  1.00  0.00     0.034 A 
HETATM   14  C10 UNL     1      25.534   2.314  51.437  1.00  0.00     0.032 A 
HETATM   15  C11 UNL     1      25.813   1.402  52.429  1.00  0.00     0.035 A 
HETATM   16  C12 UNL     1      24.763   0.721  53.015  1.00  0.00     0.066 A 
HETATM   17  N3  UNL     1      24.959  -0.180  53.986  1.00  0.00    -0.260 NA
HETATM   18  C16 UNL     1      23.491   0.999  52.567  1.00  0.00    -0.005 A 
HETATM   19  C13 UNL     1      23.981  -0.877  54.596  1.00  0.00     0.117 A 
HETATM   20  C14 UNL     1      22.682  -0.621  54.170  1.00  0.00     0.020 A 
HETATM   21  C15 UNL     1      22.469   0.306  53.171  1.00  0.00     0.015 A 
HETATM   22  C17 UNL     1      23.261   1.922  51.571  1.00  0.00     0.043 A 
ENDBRANCH  11  13
ENDBRANCH   7  11
BRANCH   1  23
HETATM   23  C2  UNL     1      30.595   6.172  47.673  1.00  0.00     0.036 C 
HETATM   24  C1  UNL     1      31.463   6.545  48.580  1.00  0.00     0.189 C 
HETATM   25  F1  UNL     1      31.713   6.998  49.818  1.00  0.00    -0.219 F 
ENDBRANCH   1  23
TORSDOF 3
ENDMDL
