MODEL 1
REMARK VINA RESULT:      -7.3      0.000      0.000
REMARK  8 active torsions:
REMARK  status: ('A' for Active; 'I' for Inactive)
REMARK    1  A    between atoms: C3_3  and  C4_4 
REMARK    2  A    between atoms: C5_5  and  C6_6 
REMARK    3  A    between atoms: C7_7  and  N1_8 
REMARK    4  A    between atoms: N1_8  and  C8_9 
REMARK    5  A    between atoms: C8_9  and  C9_10 
REMARK    6  A    between atoms: C9_10  and  C10_11 
REMARK    7  A    between atoms: C10_11  and  N2_13 
REMARK    8  A    between atoms: C15_20  and  N6_21 
ROOT
HETATM    1  C10 UNL     1      24.244  -0.095  53.008  1.00  0.00     0.110 C 
HETATM    2  C11 UNL     1      23.523  -0.735  54.203  1.00  0.00     0.034 C 
ENDROOT
BRANCH   1   3
HETATM    3  C9  UNL     1      24.006   1.361  53.101  1.00  0.00     0.046 C 
BRANCH   3   4
HETATM    4  C8  UNL     1      22.904   1.921  52.257  1.00  0.00     0.121 C 
BRANCH   4   5
HETATM    5  N1  UNL     1      23.249   1.817  50.831  1.00  0.00    -0.399 N 
HETATM    6  H10 UNL     1      23.542   0.892  50.444  1.00  0.00     0.158 HD
BRANCH   5   7
HETATM    7  C7  UNL     1      23.193   2.951  49.973  1.00  0.00     0.083 C 
HETATM    8  C6  UNL     1      24.313   3.539  49.521  1.00  0.00     0.017 C 
BRANCH   8   9
HETATM    9  C5  UNL     1      25.598   3.017  49.913  1.00  0.00     0.001 C 
HETATM   10  C4  UNL     1      26.733   3.637  49.652  1.00  0.00    -0.000 C 
BRANCH  10  11
HETATM   11  C3  UNL     1      26.802   4.905  48.946  1.00  0.00    -0.004 C 
HETATM   12  C2  UNL     1      27.939   5.465  48.502  1.00  0.00    -0.031 C 
HETATM   13  C1  UNL     1      28.007   6.754  47.784  1.00  0.00     0.036 C 
ENDBRANCH  10  11
ENDBRANCH   8   9
ENDBRANCH   5   7
ENDBRANCH   4   5
ENDBRANCH   3   4
ENDBRANCH   1   3
BRANCH   1  14
HETATM   14  N2  UNL     1      25.610  -0.509  53.013  1.00  0.00    -0.245 N 
HETATM   15  N3  UNL     1      26.436  -1.398  52.314  1.00  0.00    -0.167 NA
HETATM   16  C12 UNL     1      27.439  -1.020  53.065  1.00  0.00     0.156 A 
HETATM   17  C13 UNL     1      26.660  -0.058  53.861  1.00  0.00     0.178 A 
HETATM   18  C15 UNL     1      28.878  -1.335  53.204  1.00  0.00     0.398 A 
HETATM   19  N4  UNL     1      27.278   0.584  54.775  1.00  0.00    -0.221 NA
HETATM   20  C14 UNL     1      28.670   0.286  54.916  1.00  0.00     0.232 A 
HETATM   21  N5  UNL     1      29.415  -0.527  54.273  1.00  0.00    -0.241 NA
BRANCH  18  22
HETATM   22  N6  UNL     1      29.109  -2.750  53.420  1.00  0.00     0.109 N 
HETATM   23  H21 UNL     1      29.673  -3.131  52.629  1.00  0.00     0.316 HD
HETATM   24  H22 UNL     1      28.187  -3.235  53.366  1.00  0.00     0.316 HD
ENDBRANCH  18  22
ENDBRANCH   1  14
TORSDOF 8
ENDMDL
MODEL 2
REMARK VINA RESULT:      -7.3      1.271      2.167
REMARK  8 active torsions:
REMARK  status: ('A' for Active; 'I' for Inactive)
REMARK    1  A    between atoms: C3_3  and  C4_4 
REMARK    2  A    between atoms: C5_5  and  C6_6 
REMARK    3  A    between atoms: C7_7  and  N1_8 
REMARK    4  A    between atoms: N1_8  and  C8_9 
REMARK    5  A    between atoms: C8_9  and  C9_10 
REMARK    6  A    between atoms: C9_10  and  C10_11 
REMARK    7  A    between atoms: C10_11  and  N2_13 
REMARK    8  A    between atoms: C15_20  and  N6_21 
ROOT
HETATM    1  C10 UNL     1      24.427   0.136  52.954  1.00  0.00     0.110 C 
HETATM    2  C11 UNL     1      23.394  -0.074  54.070  1.00  0.00     0.034 C 
ENDROOT
BRANCH   1   3
HETATM    3  C9  UNL     1      23.918   1.235  52.107  1.00  0.00     0.046 C 
BRANCH   3   4
HETATM    4  C8  UNL     1      24.115   2.629  52.617  1.00  0.00     0.121 C 
BRANCH   4   5
HETATM    5  N1  UNL     1      25.050   3.361  51.749  1.00  0.00    -0.399 N 
HETATM    6  H10 UNL     1      25.014   4.405  51.727  1.00  0.00     0.158 HD
BRANCH   5   7
HETATM    7  C7  UNL     1      26.000   2.675  50.941  1.00  0.00     0.083 C 
HETATM    8  C6  UNL     1      26.441   3.201  49.786  1.00  0.00     0.017 C 
BRANCH   8   9
HETATM    9  C5  UNL     1      25.944   4.484  49.353  1.00  0.00     0.001 C 
HETATM   10  C4  UNL     1      26.710   5.392  48.778  1.00  0.00    -0.000 C 
BRANCH  10  11
HETATM   11  C3  UNL     1      28.127   5.190  48.523  1.00  0.00    -0.004 C 
HETATM   12  C2  UNL     1      28.951   6.134  48.040  1.00  0.00    -0.031 C 
HETATM   13  C1  UNL     1      30.391   5.928  47.782  1.00  0.00     0.036 C 
ENDBRANCH  10  11
ENDBRANCH   8   9
ENDBRANCH   5   7
ENDBRANCH   4   5
ENDBRANCH   3   4
ENDBRANCH   1   3
BRANCH   1  14
HETATM   14  N2  UNL     1      25.712   0.340  53.542  1.00  0.00    -0.245 N 
HETATM   15  N3  UNL     1      26.331   1.243  54.415  1.00  0.00    -0.167 NA
HETATM   16  C12 UNL     1      27.442   0.562  54.294  1.00  0.00     0.156 A 
HETATM   17  C13 UNL     1      26.889  -0.440  53.369  1.00  0.00     0.178 A 
HETATM   18  C15 UNL     1      28.825   0.629  54.813  1.00  0.00     0.398 A 
HETATM   19  N4  UNL     1      27.675  -1.360  52.961  1.00  0.00    -0.221 NA
HETATM   20  C14 UNL     1      29.015  -1.302  53.459  1.00  0.00     0.232 A 
HETATM   21  N5  UNL     1      29.571  -0.474  54.256  1.00  0.00    -0.241 NA
BRANCH  18  22
HETATM   22  N6  UNL     1      29.452   1.907  54.535  1.00  0.00     0.109 N 
HETATM   23  H21 UNL     1      29.832   1.899  53.562  1.00  0.00     0.316 HD
HETATM   24  H22 UNL     1      30.282   1.997  55.159  1.00  0.00     0.316 HD
ENDBRANCH  18  22
ENDBRANCH   1  14
TORSDOF 8
ENDMDL
MODEL 3
REMARK VINA RESULT:      -7.1      1.653      3.321
REMARK  8 active torsions:
REMARK  status: ('A' for Active; 'I' for Inactive)
REMARK    1  A    between atoms: C3_3  and  C4_4 
REMARK    2  A    between atoms: C5_5  and  C6_6 
REMARK    3  A    between atoms: C7_7  and  N1_8 
REMARK    4  A    between atoms: N1_8  and  C8_9 
REMARK    5  A    between atoms: C8_9  and  C9_10 
REMARK    6  A    between atoms: C9_10  and  C10_11 
REMARK    7  A    between atoms: C10_11  and  N2_13 
REMARK    8  A    between atoms: C15_20  and  N6_21 
ROOT
HETATM    1  C10 UNL     1      24.487   0.118  52.892  1.00  0.00     0.110 C 
HETATM    2  C11 UNL     1      23.440  -0.060  53.999  1.00  0.00     0.034 C 
ENDROOT
BRANCH   1   3
HETATM    3  C9  UNL     1      23.988   1.189  52.004  1.00  0.00     0.046 C 
BRANCH   3   4
HETATM    4  C8  UNL     1      23.985   2.580  52.557  1.00  0.00     0.121 C 
BRANCH   4   5
HETATM    5  N1  UNL     1      25.123   3.343  52.022  1.00  0.00    -0.399 N 
HETATM    6  H10 UNL     1      25.353   4.273  52.437  1.00  0.00     0.158 HD
BRANCH   5   7
HETATM    7  C7  UNL     1      25.912   2.839  50.950  1.00  0.00     0.083 C 
HETATM    8  C6  UNL     1      25.810   3.346  49.711  1.00  0.00     0.017 C 
BRANCH   8   9
HETATM    9  C5  UNL     1      24.883   4.421  49.456  1.00  0.00     0.001 C 
HETATM   10  C4  UNL     1      23.671   4.223  48.976  1.00  0.00    -0.000 C 
BRANCH  10  11
HETATM   11  C3  UNL     1      23.148   2.905  48.656  1.00  0.00    -0.004 C 
HETATM   12  C2  UNL     1      22.003   2.404  49.147  1.00  0.00    -0.031 C 
HETATM   13  C1  UNL     1      21.473   1.065  48.821  1.00  0.00     0.036 C 
ENDBRANCH  10  11
ENDBRANCH   8   9
ENDBRANCH   5   7
ENDBRANCH   4   5
ENDBRANCH   3   4
ENDBRANCH   1   3
BRANCH   1  14
HETATM   14  N2  UNL     1      25.764   0.343  53.489  1.00  0.00    -0.245 N 
HETATM   15  N3  UNL     1      26.369   1.273  54.344  1.00  0.00    -0.167 NA
HETATM   16  C12 UNL     1      27.484   0.593  54.257  1.00  0.00     0.156 A 
HETATM   17  C13 UNL     1      26.946  -0.437  53.354  1.00  0.00     0.178 A 
HETATM   18  C15 UNL     1      28.860   0.680  54.792  1.00  0.00     0.398 A 
HETATM   19  N4  UNL     1      27.740  -1.365  52.982  1.00  0.00    -0.221 NA
HETATM   20  C14 UNL     1      29.073  -1.289  53.496  1.00  0.00     0.232 A 
HETATM   21  N5  UNL     1      29.616  -0.436  54.276  1.00  0.00    -0.241 NA
BRANCH  18  22
HETATM   22  N6  UNL     1      29.486   1.951  54.485  1.00  0.00     0.109 N 
HETATM   23  H21 UNL     1      28.986   2.395  53.682  1.00  0.00     0.316 HD
HETATM   24  H22 UNL     1      30.450   1.756  54.142  1.00  0.00     0.316 HD
ENDBRANCH  18  22
ENDBRANCH   1  14
TORSDOF 8
ENDMDL
MODEL 4
REMARK VINA RESULT:      -7.0      2.522      3.933
REMARK  8 active torsions:
REMARK  status: ('A' for Active; 'I' for Inactive)
REMARK    1  A    between atoms: C3_3  and  C4_4 
REMARK    2  A    between atoms: C5_5  and  C6_6 
REMARK    3  A    between atoms: C7_7  and  N1_8 
REMARK    4  A    between atoms: N1_8  and  C8_9 
REMARK    5  A    between atoms: C8_9  and  C9_10 
REMARK    6  A    between atoms: C9_10  and  C10_11 
REMARK    7  A    between atoms: C10_11  and  N2_13 
REMARK    8  A    between atoms: C15_20  and  N6_21 
ROOT
HETATM    1  C10 UNL     1      24.113   0.092  53.424  1.00  0.00     0.110 C 
HETATM    2  C11 UNL     1      23.934   1.246  52.428  1.00  0.00     0.034 C 
ENDROOT
BRANCH   1   3
HETATM    3  C9  UNL     1      23.001  -0.851  53.184  1.00  0.00     0.046 C 
BRANCH   3   4
HETATM    4  C8  UNL     1      21.924  -0.906  54.223  1.00  0.00     0.121 C 
BRANCH   4   5
HETATM    5  N1  UNL     1      20.672  -0.348  53.689  1.00  0.00    -0.399 N 
HETATM    6  H10 UNL     1      19.893  -0.995  53.435  1.00  0.00     0.158 HD
BRANCH   5   7
HETATM    7  C7  UNL     1      20.504   1.055  53.514  1.00  0.00     0.083 C 
HETATM    8  C6  UNL     1      20.025   1.561  52.365  1.00  0.00     0.017 C 
BRANCH   8   9
HETATM    9  C5  UNL     1      19.674   0.669  51.287  1.00  0.00     0.001 C 
HETATM   10  C4  UNL     1      20.102   0.837  50.051  1.00  0.00    -0.000 C 
BRANCH  10  11
HETATM   11  C3  UNL     1      20.969   1.934  49.652  1.00  0.00    -0.004 C 
HETATM   12  C2  UNL     1      22.229   1.783  49.212  1.00  0.00    -0.031 C 
HETATM   13  C1  UNL     1      23.108   2.898  48.807  1.00  0.00     0.036 C 
ENDBRANCH  10  11
ENDBRANCH   8   9
ENDBRANCH   5   7
ENDBRANCH   4   5
ENDBRANCH   3   4
ENDBRANCH   1   3
BRANCH   1  14
HETATM   14  N2  UNL     1      25.429  -0.443  53.285  1.00  0.00    -0.245 N 
HETATM   15  N3  UNL     1      26.097  -1.386  52.494  1.00  0.00    -0.167 NA
HETATM   16  C12 UNL     1      27.200  -1.117  53.146  1.00  0.00     0.156 A 
HETATM   17  C13 UNL     1      26.595  -0.108  54.029  1.00  0.00     0.178 A 
HETATM   18  C15 UNL     1      28.610  -1.562  53.134  1.00  0.00     0.398 A 
HETATM   19  N4  UNL     1      27.357   0.455  54.886  1.00  0.00    -0.221 NA
HETATM   20  C14 UNL     1      28.722   0.031  54.881  1.00  0.00     0.232 A 
HETATM   21  N5  UNL     1      29.323  -0.831  54.155  1.00  0.00    -0.241 NA
BRANCH  18  22
HETATM   22  N6  UNL     1      28.731  -2.997  53.306  1.00  0.00     0.109 N 
HETATM   23  H21 UNL     1      28.529  -3.471  52.397  1.00  0.00     0.316 HD
HETATM   24  H22 UNL     1      27.976  -3.304  53.956  1.00  0.00     0.316 HD
ENDBRANCH  18  22
ENDBRANCH   1  14
TORSDOF 8
ENDMDL
MODEL 5
REMARK VINA RESULT:      -7.0      2.187      5.208
REMARK  8 active torsions:
REMARK  status: ('A' for Active; 'I' for Inactive)
REMARK    1  A    between atoms: C3_3  and  C4_4 
REMARK    2  A    between atoms: C5_5  and  C6_6 
REMARK    3  A    between atoms: C7_7  and  N1_8 
REMARK    4  A    between atoms: N1_8  and  C8_9 
REMARK    5  A    between atoms: C8_9  and  C9_10 
REMARK    6  A    between atoms: C9_10  and  C10_11 
REMARK    7  A    between atoms: C10_11  and  N2_13 
REMARK    8  A    between atoms: C15_20  and  N6_21 
ROOT
HETATM    1  C10 UNL     1      25.139   2.271  52.366  1.00  0.00     0.110 C 
HETATM    2  C11 UNL     1      25.209   2.798  50.926  1.00  0.00     0.034 C 
ENDROOT
BRANCH   1   3
HETATM    3  C9  UNL     1      23.718   1.971  52.638  1.00  0.00     0.046 C 
BRANCH   3   4
HETATM    4  C8  UNL     1      22.999   1.126  51.633  1.00  0.00     0.121 C 
BRANCH   4   5
HETATM    5  N1  UNL     1      21.565   1.064  51.950  1.00  0.00    -0.399 N 
HETATM    6  H10 UNL     1      20.893   0.748  51.215  1.00  0.00     0.158 HD
BRANCH   5   7
HETATM    7  C7  UNL     1      21.076   1.427  53.236  1.00  0.00     0.083 C 
HETATM    8  C6  UNL     1      20.654   0.498  54.109  1.00  0.00     0.017 C 
BRANCH   8   9
HETATM    9  C5  UNL     1      20.692  -0.895  53.738  1.00  0.00     0.001 C 
HETATM   10  C4  UNL     1      21.586  -1.739  54.217  1.00  0.00    -0.000 C 
BRANCH  10  11
HETATM   11  C3  UNL     1      22.618  -1.352  55.165  1.00  0.00    -0.004 C 
HETATM   12  C2  UNL     1      23.919  -1.221  54.857  1.00  0.00    -0.031 C 
HETATM   13  C1  UNL     1      24.966  -0.827  55.821  1.00  0.00     0.036 C 
ENDBRANCH  10  11
ENDBRANCH   8   9
ENDBRANCH   5   7
ENDBRANCH   4   5
ENDBRANCH   3   4
ENDBRANCH   1   3
BRANCH   1  14
HETATM   14  N2  UNL     1      26.048   1.180  52.507  1.00  0.00    -0.245 N 
HETATM   15  N3  UNL     1      26.369  -0.008  51.837  1.00  0.00    -0.167 NA
HETATM   16  C12 UNL     1      27.281  -0.246  52.745  1.00  0.00     0.156 A 
HETATM   17  C13 UNL     1      27.023   0.975  53.523  1.00  0.00     0.178 A 
HETATM   18  C15 UNL     1      28.281  -1.296  53.037  1.00  0.00     0.398 A 
HETATM   19  N4  UNL     1      27.731   1.167  54.568  1.00  0.00    -0.221 NA
HETATM   20  C14 UNL     1      28.701   0.157  54.858  1.00  0.00     0.232 A 
HETATM   21  N5  UNL     1      28.987  -0.924  54.241  1.00  0.00    -0.241 NA
BRANCH  18  22
HETATM   22  N6  UNL     1      27.679  -2.610  53.142  1.00  0.00     0.109 N 
HETATM   23  H21 UNL     1      27.380  -2.929  52.193  1.00  0.00     0.316 HD
HETATM   24  H22 UNL     1      26.801  -2.515  53.695  1.00  0.00     0.316 HD
ENDBRANCH  18  22
ENDBRANCH   1  14
TORSDOF 8
ENDMDL
MODEL 6
REMARK VINA RESULT:      -6.9      3.229      6.665
REMARK  8 active torsions:
REMARK  status: ('A' for Active; 'I' for Inactive)
REMARK    1  A    between atoms: C3_3  and  C4_4 
REMARK    2  A    between atoms: C5_5  and  C6_6 
REMARK    3  A    between atoms: C7_7  and  N1_8 
REMARK    4  A    between atoms: N1_8  and  C8_9 
REMARK    5  A    between atoms: C8_9  and  C9_10 
REMARK    6  A    between atoms: C9_10  and  C10_11 
REMARK    7  A    between atoms: C10_11  and  N2_13 
REMARK    8  A    between atoms: C15_20  and  N6_21 
ROOT
HETATM    1  C10 UNL     1      24.860   1.943  52.430  1.00  0.00     0.110 C 
HETATM    2  C11 UNL     1      24.756   2.380  50.962  1.00  0.00     0.034 C 
ENDROOT
BRANCH   1   3
HETATM    3  C9  UNL     1      23.498   1.557  52.854  1.00  0.00     0.046 C 
BRANCH   3   4
HETATM    4  C8  UNL     1      22.513   1.248  51.770  1.00  0.00     0.121 C 
BRANCH   4   5
HETATM    5  N1  UNL     1      21.933  -0.088  51.974  1.00  0.00    -0.399 N 
HETATM    6  H10 UNL     1      21.667  -0.661  51.142  1.00  0.00     0.158 HD
BRANCH   5   7
HETATM    7  C7  UNL     1      21.727  -0.612  53.281  1.00  0.00     0.083 C 
HETATM    8  C6  UNL     1      20.494  -0.711  53.806  1.00  0.00     0.017 C 
BRANCH   8   9
HETATM    9  C5  UNL     1      19.356  -0.276  53.035  1.00  0.00     0.001 C 
HETATM   10  C4  UNL     1      18.251  -0.988  52.925  1.00  0.00    -0.000 C 
BRANCH  10  11
HETATM   11  C3  UNL     1      18.070  -2.279  53.569  1.00  0.00    -0.004 C 
HETATM   12  C2  UNL     1      17.106  -3.157  53.248  1.00  0.00    -0.031 C 
HETATM   13  C1  UNL     1      16.923  -4.468  53.904  1.00  0.00     0.036 C 
ENDBRANCH  10  11
ENDBRANCH   8   9
ENDBRANCH   5   7
ENDBRANCH   4   5
ENDBRANCH   3   4
ENDBRANCH   1   3
BRANCH   1  14
HETATM   14  N2  UNL     1      25.863   0.934  52.545  1.00  0.00    -0.245 N 
HETATM   15  N3  UNL     1      26.305  -0.188  51.832  1.00  0.00    -0.167 NA
HETATM   16  C12 UNL     1      27.216  -0.383  52.751  1.00  0.00     0.156 A 
HETATM   17  C13 UNL     1      26.831   0.773  53.575  1.00  0.00     0.178 A 
HETATM   18  C15 UNL     1      28.304  -1.349  53.021  1.00  0.00     0.398 A 
HETATM   19  N4  UNL     1      27.497   0.979  54.645  1.00  0.00    -0.221 NA
HETATM   20  C14 UNL     1      28.550   0.050  54.914  1.00  0.00     0.232 A 
HETATM   21  N5  UNL     1      28.947  -0.970  54.257  1.00  0.00    -0.241 NA
BRANCH  18  22
HETATM   22  N6  UNL     1      27.823  -2.717  53.053  1.00  0.00     0.109 N 
HETATM   23  H21 UNL     1      28.612  -3.364  52.828  1.00  0.00     0.316 HD
HETATM   24  H22 UNL     1      27.137  -2.831  52.276  1.00  0.00     0.316 HD
ENDBRANCH  18  22
ENDBRANCH   1  14
TORSDOF 8
ENDMDL
MODEL 7
REMARK VINA RESULT:      -6.8      1.786      2.621
REMARK  8 active torsions:
REMARK  status: ('A' for Active; 'I' for Inactive)
REMARK    1  A    between atoms: C3_3  and  C4_4 
REMARK    2  A    between atoms: C5_5  and  C6_6 
REMARK    3  A    between atoms: C7_7  and  N1_8 
REMARK    4  A    between atoms: N1_8  and  C8_9 
REMARK    5  A    between atoms: C8_9  and  C9_10 
REMARK    6  A    between atoms: C9_10  and  C10_11 
REMARK    7  A    between atoms: C10_11  and  N2_13 
REMARK    8  A    between atoms: C15_20  and  N6_21 
ROOT
HETATM    1  C10 UNL     1      24.216  -0.080  53.055  1.00  0.00     0.110 C 
HETATM    2  C11 UNL     1      23.514  -0.696  54.272  1.00  0.00     0.034 C 
ENDROOT
BRANCH   1   3
HETATM    3  C9  UNL     1      23.994   1.379  53.132  1.00  0.00     0.046 C 
BRANCH   3   4
HETATM    4  C8  UNL     1      24.647   2.220  52.078  1.00  0.00     0.121 C 
BRANCH   4   5
HETATM    5  N1  UNL     1      24.596   3.640  52.455  1.00  0.00    -0.399 N 
HETATM    6  H10 UNL     1      25.451   4.096  52.844  1.00  0.00     0.158 HD
BRANCH   5   7
HETATM    7  C7  UNL     1      23.404   4.403  52.300  1.00  0.00     0.083 C 
HETATM    8  C6  UNL     1      23.260   5.271  51.284  1.00  0.00     0.017 C 
BRANCH   8   9
HETATM    9  C5  UNL     1      24.331   5.436  50.332  1.00  0.00     0.001 C 
HETATM   10  C4  UNL     1      24.296   4.920  49.118  1.00  0.00    -0.000 C 
BRANCH  10  11
HETATM   11  C3  UNL     1      23.178   4.137  48.619  1.00  0.00    -0.004 C 
HETATM   12  C2  UNL     1      23.128   2.795  48.628  1.00  0.00    -0.031 C 
HETATM   13  C1  UNL     1      21.991   2.001  48.121  1.00  0.00     0.036 C 
ENDBRANCH  10  11
ENDBRANCH   8   9
ENDBRANCH   5   7
ENDBRANCH   4   5
ENDBRANCH   3   4
ENDBRANCH   1   3
BRANCH   1  14
HETATM   14  N2  UNL     1      25.577  -0.508  53.037  1.00  0.00    -0.245 N 
HETATM   15  N3  UNL     1      26.386  -1.395  52.315  1.00  0.00    -0.167 NA
HETATM   16  C12 UNL     1      27.401  -1.039  53.060  1.00  0.00     0.156 A 
HETATM   17  C13 UNL     1      26.642  -0.081  53.879  1.00  0.00     0.178 A 
HETATM   18  C15 UNL     1      28.838  -1.370  53.176  1.00  0.00     0.398 A 
HETATM   19  N4  UNL     1      27.278   0.541  54.795  1.00  0.00    -0.221 NA
HETATM   20  C14 UNL     1      28.668   0.227  54.914  1.00  0.00     0.232 A 
HETATM   21  N5  UNL     1      29.397  -0.584  54.251  1.00  0.00    -0.241 NA
BRANCH  18  22
HETATM   22  N6  UNL     1      29.057  -2.791  53.369  1.00  0.00     0.109 N 
HETATM   23  H21 UNL     1      28.896  -3.031  54.373  1.00  0.00     0.316 HD
HETATM   24  H22 UNL     1      30.066  -2.984  53.193  1.00  0.00     0.316 HD
ENDBRANCH  18  22
ENDBRANCH   1  14
TORSDOF 8
ENDMDL
MODEL 8
REMARK VINA RESULT:      -6.7      2.806      5.096
REMARK  8 active torsions:
REMARK  status: ('A' for Active; 'I' for Inactive)
REMARK    1  A    between atoms: C3_3  and  C4_4 
REMARK    2  A    between atoms: C5_5  and  C6_6 
REMARK    3  A    between atoms: C7_7  and  N1_8 
REMARK    4  A    between atoms: N1_8  and  C8_9 
REMARK    5  A    between atoms: C8_9  and  C9_10 
REMARK    6  A    between atoms: C9_10  and  C10_11 
REMARK    7  A    between atoms: C10_11  and  N2_13 
REMARK    8  A    between atoms: C15_20  and  N6_21 
ROOT
HETATM    1  C10 UNL     1      24.440   0.402  52.823  1.00  0.00     0.110 C 
HETATM    2  C11 UNL     1      23.452  -0.442  53.639  1.00  0.00     0.034 C 
ENDROOT
BRANCH   1   3
HETATM    3  C9  UNL     1      24.374   1.775  53.367  1.00  0.00     0.046 C 
BRANCH   3   4
HETATM    4  C8  UNL     1      23.858   2.842  52.451  1.00  0.00     0.121 C 
BRANCH   4   5
HETATM    5  N1  UNL     1      22.674   2.361  51.723  1.00  0.00    -0.399 N 
HETATM    6  H10 UNL     1      22.731   1.461  51.196  1.00  0.00     0.158 HD
BRANCH   5   7
HETATM    7  C7  UNL     1      21.457   3.097  51.725  1.00  0.00     0.083 C 
HETATM    8  C6  UNL     1      20.361   2.631  52.346  1.00  0.00     0.017 C 
BRANCH   8   9
HETATM    9  C5  UNL     1      20.415   1.359  53.024  1.00  0.00     0.001 C 
HETATM   10  C4  UNL     1      19.825   0.274  52.560  1.00  0.00    -0.000 C 
BRANCH  10  11
HETATM   11  C3  UNL     1      19.064   0.251  51.322  1.00  0.00    -0.004 C 
HETATM   12  C2  UNL     1      17.793  -0.172  51.221  1.00  0.00    -0.031 C 
HETATM   13  C1  UNL     1      17.021  -0.194  49.963  1.00  0.00     0.036 C 
ENDBRANCH  10  11
ENDBRANCH   8   9
ENDBRANCH   5   7
ENDBRANCH   4   5
ENDBRANCH   3   4
ENDBRANCH   1   3
BRANCH   1  14
HETATM   14  N2  UNL     1      25.722  -0.223  52.853  1.00  0.00    -0.245 N 
HETATM   15  N3  UNL     1      26.405  -1.244  52.179  1.00  0.00    -0.167 NA
HETATM   16  C12 UNL     1      27.445  -1.019  52.939  1.00  0.00     0.156 A 
HETATM   17  C13 UNL     1      26.820   0.068  53.710  1.00  0.00     0.178 A 
HETATM   18  C15 UNL     1      28.814  -1.556  53.103  1.00  0.00     0.398 A 
HETATM   19  N4  UNL     1      27.521   0.618  54.625  1.00  0.00    -0.221 NA
HETATM   20  C14 UNL     1      28.846   0.105  54.789  1.00  0.00     0.232 A 
HETATM   21  N5  UNL     1      29.460  -0.827  54.169  1.00  0.00    -0.241 NA
BRANCH  18  22
HETATM   22  N6  UNL     1      28.814  -2.986  53.342  1.00  0.00     0.109 N 
HETATM   23  H21 UNL     1      29.249  -3.471  52.526  1.00  0.00     0.316 HD
HETATM   24  H22 UNL     1      27.822  -3.305  53.361  1.00  0.00     0.316 HD
ENDBRANCH  18  22
ENDBRANCH   1  14
TORSDOF 8
ENDMDL
MODEL 9
REMARK VINA RESULT:      -6.7      2.752      5.853
REMARK  8 active torsions:
REMARK  status: ('A' for Active; 'I' for Inactive)
REMARK    1  A    between atoms: C3_3  and  C4_4 
REMARK    2  A    between atoms: C5_5  and  C6_6 
REMARK    3  A    between atoms: C7_7  and  N1_8 
REMARK    4  A    between atoms: N1_8  and  C8_9 
REMARK    5  A    between atoms: C8_9  and  C9_10 
REMARK    6  A    between atoms: C9_10  and  C10_11 
REMARK    7  A    between atoms: C10_11  and  N2_13 
REMARK    8  A    between atoms: C15_20  and  N6_21 
ROOT
HETATM    1  C10 UNL     1      26.043   3.128  51.014  1.00  0.00     0.110 C 
HETATM    2  C11 UNL     1      26.523   3.012  49.561  1.00  0.00     0.034 C 
ENDROOT
BRANCH   1   3
HETATM    3  C9  UNL     1      24.605   2.785  51.014  1.00  0.00     0.046 C 
BRANCH   3   4
HETATM    4  C8  UNL     1      23.834   3.103  52.257  1.00  0.00     0.121 C 
BRANCH   4   5
HETATM    5  N1  UNL     1      22.632   2.260  52.341  1.00  0.00    -0.399 N 
HETATM    6  H10 UNL     1      21.692   2.715  52.373  1.00  0.00     0.158 HD
BRANCH   5   7
HETATM    7  C7  UNL     1      22.726   0.841  52.379  1.00  0.00     0.083 C 
HETATM    8  C6  UNL     1      21.927   0.069  51.622  1.00  0.00     0.017 C 
BRANCH   8   9
HETATM    9  C5  UNL     1      20.954   0.687  50.756  1.00  0.00     0.001 C 
HETATM   10  C4  UNL     1      19.659   0.669  51.005  1.00  0.00    -0.000 C 
BRANCH  10  11
HETATM   11  C3  UNL     1      19.084   0.026  52.175  1.00  0.00    -0.004 C 
HETATM   12  C2  UNL     1      18.020  -0.793  52.144  1.00  0.00    -0.031 C 
HETATM   13  C1  UNL     1      17.437  -1.445  53.334  1.00  0.00     0.036 C 
ENDBRANCH  10  11
ENDBRANCH   8   9
ENDBRANCH   5   7
ENDBRANCH   4   5
ENDBRANCH   3   4
ENDBRANCH   1   3
BRANCH   1  14
HETATM   14  N2  UNL     1      26.880   2.325  51.846  1.00  0.00    -0.245 N 
HETATM   15  N3  UNL     1      28.030   2.477  52.631  1.00  0.00    -0.167 NA
HETATM   16  C12 UNL     1      27.957   1.208  52.942  1.00  0.00     0.156 A 
HETATM   17  C13 UNL     1      26.748   0.941  52.146  1.00  0.00     0.178 A 
HETATM   18  C15 UNL     1      28.716   0.241  53.764  1.00  0.00     0.398 A 
HETATM   19  N4  UNL     1      26.291  -0.251  52.156  1.00  0.00    -0.221 NA
HETATM   20  C14 UNL     1      27.019  -1.193  52.949  1.00  0.00     0.232 A 
HETATM   21  N5  UNL     1      28.067  -1.045  53.662  1.00  0.00    -0.241 NA
BRANCH  18  22
HETATM   22  N6  UNL     1      30.113   0.178  53.383  1.00  0.00     0.109 N 
HETATM   23  H21 UNL     1      30.557  -0.652  53.835  1.00  0.00     0.316 HD
HETATM   24  H22 UNL     1      30.592   1.009  53.792  1.00  0.00     0.316 HD
ENDBRANCH  18  22
ENDBRANCH   1  14
TORSDOF 8
ENDMDL
