MODEL 1
REMARK VINA RESULT:      -7.4      0.000      0.000
REMARK  1 active torsions:
REMARK  status: ('A' for Active; 'I' for Inactive)
REMARK    1  A    between atoms: C13_17  and  O2_19 
ROOT
HETATM    1  C1  UNL     1      22.451   5.933  49.551  1.00  0.00     0.310 C 
HETATM    2  N1  UNL     1      23.094   5.149  50.561  1.00  0.00     0.090 N 
HETATM    3  C2  UNL     1      23.820   4.030  50.083  1.00  0.00     0.299 C 
HETATM    4  C3  UNL     1      25.044   4.188  49.298  1.00  0.00     0.008 C 
HETATM    5  C4  UNL     1      26.124   3.638  49.909  1.00  0.00     0.072 C 
HETATM    6  C5  UNL     1      26.524   2.924  51.134  1.00  0.00     0.244 C 
HETATM    7  O1  UNL     1      27.350   2.315  51.812  1.00  0.00    -0.268 OA
HETATM    8  N2  UNL     1      25.757   2.677  52.325  1.00  0.00    -0.336 N 
HETATM    9  C6  UNL     1      26.455   1.955  53.343  1.00  0.00     0.083 C 
HETATM   10  C7  UNL     1      26.262   0.853  54.096  1.00  0.00     0.124 C 
HETATM   11  C8  UNL     1      25.017   0.627  53.506  1.00  0.00    -0.095 C 
HETATM   12  C9  UNL     1      23.968   0.455  53.016  1.00  0.00    -0.104 C 
HETATM   13  C10 UNL     1      22.678   0.272  52.412  1.00  0.00     0.118 C 
HETATM   14  C11 UNL     1      22.093   1.585  52.022  1.00  0.00     0.124 A 
HETATM   15  C12 UNL     1      21.617   2.494  51.186  1.00  0.00     0.028 A 
HETATM   16 CL1  UNL     1      22.115   1.003  50.360  1.00  0.00    -0.176 Cl
HETATM   17  C13 UNL     1      21.142   3.868  51.503  1.00  0.00     0.115 C 
HETATM   18  C14 UNL     1      20.016   4.200  50.601  1.00  0.00     0.053 C 
HETATM   19  C15 UNL     1      22.248   4.803  51.675  1.00  0.00     0.315 C 
HETATM   20  H8  UNL     1      24.977   2.647  52.998  1.00  0.00     0.168 HD
ENDROOT
BRANCH  17  21
HETATM   21  O2  UNL     1      20.522   3.722  52.795  1.00  0.00    -0.383 OA
HETATM   22  H17 UNL     1      20.736   4.466  53.380  1.00  0.00     0.211 HD
ENDBRANCH  17  21
TORSDOF 1
ENDMDL
MODEL 2
REMARK VINA RESULT:      -7.4      2.887      4.453
REMARK  1 active torsions:
REMARK  status: ('A' for Active; 'I' for Inactive)
REMARK    1  A    between atoms: C13_17  and  O2_19 
ROOT
HETATM    1  C1  UNL     1      19.515   0.237  52.123  1.00  0.00     0.310 C 
HETATM    2  N1  UNL     1      20.918  -0.028  52.025  1.00  0.00     0.090 N 
HETATM    3  C2  UNL     1      21.701   0.472  53.095  1.00  0.00     0.299 C 
HETATM    4  C3  UNL     1      21.599  -0.082  54.444  1.00  0.00     0.008 C 
HETATM    5  C4  UNL     1      22.769  -0.618  54.873  1.00  0.00     0.072 C 
HETATM    6  C5  UNL     1      24.156  -0.865  54.444  1.00  0.00     0.244 C 
HETATM    7  O1  UNL     1      25.310  -1.231  54.665  1.00  0.00    -0.268 OA
HETATM    8  N2  UNL     1      24.742  -0.694  53.142  1.00  0.00    -0.336 N 
HETATM    9  C6  UNL     1      26.127  -1.039  53.063  1.00  0.00     0.083 C 
HETATM   10  C7  UNL     1      27.275  -0.470  52.640  1.00  0.00     0.124 C 
HETATM   11  C8  UNL     1      26.597   0.688  52.252  1.00  0.00    -0.095 C 
HETATM   12  C9  UNL     1      26.017   1.646  51.915  1.00  0.00    -0.104 C 
HETATM   13  C10 UNL     1      25.284   2.808  51.495  1.00  0.00     0.118 C 
HETATM   14  C11 UNL     1      23.901   2.433  51.086  1.00  0.00     0.124 A 
HETATM   15  C12 UNL     1      22.580   2.440  51.150  1.00  0.00     0.028 A 
HETATM   16 CL1  UNL     1      23.327   3.472  52.387  1.00  0.00    -0.176 Cl
HETATM   17  C13 UNL     1      21.619   1.676  50.310  1.00  0.00     0.115 C 
HETATM   18  C14 UNL     1      20.410   2.504  50.100  1.00  0.00     0.053 C 
HETATM   19  C15 UNL     1      21.495   0.289  50.744  1.00  0.00     0.315 C 
HETATM   20  H8  UNL     1      24.861  -0.458  52.146  1.00  0.00     0.168 HD
ENDROOT
BRANCH  17  21
HETATM   21  O2  UNL     1      22.251   1.647  49.015  1.00  0.00    -0.383 OA
HETATM   22  H17 UNL     1      23.190   1.413  49.080  1.00  0.00     0.211 HD
ENDBRANCH  17  21
TORSDOF 1
ENDMDL
MODEL 3
REMARK VINA RESULT:      -7.1      1.696      2.513
REMARK  1 active torsions:
REMARK  status: ('A' for Active; 'I' for Inactive)
REMARK    1  A    between atoms: C13_17  and  O2_19 
ROOT
HETATM    1  C1  UNL     1      25.299   5.565  50.083  1.00  0.00     0.310 C 
HETATM    2  N1  UNL     1      24.752   4.558  50.940  1.00  0.00     0.090 N 
HETATM    3  C2  UNL     1      24.991   3.223  50.530  1.00  0.00     0.299 C 
HETATM    4  C3  UNL     1      26.333   2.642  50.552  1.00  0.00     0.008 C 
HETATM    5  C4  UNL     1      26.419   1.572  51.383  1.00  0.00     0.072 C 
HETATM    6  C5  UNL     1      25.617   0.764  52.317  1.00  0.00     0.244 C 
HETATM    7  O1  UNL     1      25.470  -0.207  53.058  1.00  0.00    -0.268 OA
HETATM    8  N2  UNL     1      24.290   1.009  52.814  1.00  0.00    -0.336 N 
HETATM    9  C6  UNL     1      23.804   0.022  53.726  1.00  0.00     0.083 C 
HETATM   10  C7  UNL     1      22.715  -0.763  53.860  1.00  0.00     0.124 C 
HETATM   11  C8  UNL     1      22.148  -0.232  52.700  1.00  0.00    -0.095 C 
HETATM   12  C9  UNL     1      21.674   0.232  51.736  1.00  0.00    -0.104 C 
HETATM   13  C10 UNL     1      21.106   0.823  50.557  1.00  0.00     0.118 C 
HETATM   14  C11 UNL     1      21.567   2.232  50.405  1.00  0.00     0.124 A 
HETATM   15  C12 UNL     1      22.178   3.245  49.813  1.00  0.00     0.028 A 
HETATM   16 CL1  UNL     1      22.302   1.737  48.884  1.00  0.00    -0.176 Cl
HETATM   17  C13 UNL     1      22.318   4.642  50.304  1.00  0.00     0.115 C 
HETATM   18  C14 UNL     1      22.274   5.560  49.143  1.00  0.00     0.053 C 
HETATM   19  C15 UNL     1      23.374   4.769  51.302  1.00  0.00     0.315 C 
HETATM   20  H8  UNL     1      23.365   1.438  52.963  1.00  0.00     0.168 HD
ENDROOT
BRANCH  17  21
HETATM   21  O2  UNL     1      21.074   4.887  50.988  1.00  0.00    -0.383 OA
HETATM   22  H17 UNL     1      20.316   4.548  50.486  1.00  0.00     0.211 HD
ENDBRANCH  17  21
TORSDOF 1
ENDMDL
MODEL 4
REMARK VINA RESULT:      -7.1      2.061      2.810
REMARK  1 active torsions:
REMARK  status: ('A' for Active; 'I' for Inactive)
REMARK    1  A    between atoms: C13_17  and  O2_19 
ROOT
HETATM    1  C1  UNL     1      24.646   4.350  50.734  1.00  0.00     0.310 C 
HETATM    2  N1  UNL     1      24.337   3.424  51.780  1.00  0.00     0.090 N 
HETATM    3  C2  UNL     1      24.522   2.058  51.449  1.00  0.00     0.299 C 
HETATM    4  C3  UNL     1      25.853   1.497  51.221  1.00  0.00     0.008 C 
HETATM    5  C4  UNL     1      26.157   0.513  52.104  1.00  0.00     0.072 C 
HETATM    6  C5  UNL     1      25.611  -0.212  53.264  1.00  0.00     0.244 C 
HETATM    7  O1  UNL     1      25.665  -1.109  54.104  1.00  0.00    -0.268 OA
HETATM    8  N2  UNL     1      24.422   0.065  54.024  1.00  0.00    -0.336 N 
HETATM    9  C6  UNL     1      24.184  -0.836  55.107  1.00  0.00     0.083 C 
HETATM   10  C7  UNL     1      23.179  -1.617  55.554  1.00  0.00     0.124 C 
HETATM   11  C8  UNL     1      22.349  -1.205  54.508  1.00  0.00    -0.095 C 
HETATM   12  C9  UNL     1      21.658  -0.842  53.638  1.00  0.00    -0.104 C 
HETATM   13  C10 UNL     1      20.821  -0.371  52.570  1.00  0.00     0.118 C 
HETATM   14  C11 UNL     1      21.191   1.022  52.191  1.00  0.00     0.124 A 
HETATM   15  C12 UNL     1      21.620   1.980  51.387  1.00  0.00     0.028 A 
HETATM   16 CL1  UNL     1      21.582   0.392  50.594  1.00  0.00    -0.176 Cl
HETATM   17  C13 UNL     1      21.821   3.420  51.705  1.00  0.00     0.115 C 
HETATM   18  C14 UNL     1      21.489   4.221  50.505  1.00  0.00     0.053 C 
HETATM   19  C15 UNL     1      23.069   3.653  52.423  1.00  0.00     0.315 C 
HETATM   20  H8  UNL     1      23.540   0.496  54.338  1.00  0.00     0.168 HD
ENDROOT
BRANCH  17  21
HETATM   21  O2  UNL     1      20.754   3.715  52.627  1.00  0.00    -0.383 OA
HETATM   22  H17 UNL     1      20.957   3.398  53.522  1.00  0.00     0.211 HD
ENDBRANCH  17  21
TORSDOF 1
ENDMDL
MODEL 5
REMARK VINA RESULT:      -7.0      2.026      5.807
REMARK  1 active torsions:
REMARK  status: ('A' for Active; 'I' for Inactive)
REMARK    1  A    between atoms: C13_17  and  O2_19 
ROOT
HETATM    1  C1  UNL     1      23.846   0.944  53.337  1.00  0.00     0.310 C 
HETATM    2  N1  UNL     1      24.095   2.316  53.015  1.00  0.00     0.090 N 
HETATM    3  C2  UNL     1      23.444   2.788  51.848  1.00  0.00     0.299 C 
HETATM    4  C3  UNL     1      21.991   2.942  51.789  1.00  0.00     0.008 C 
HETATM    5  C4  UNL     1      21.616   4.227  51.568  1.00  0.00     0.072 C 
HETATM    6  C5  UNL     1      22.170   5.578  51.374  1.00  0.00     0.244 C 
HETATM    7  O1  UNL     1      22.045   6.772  51.106  1.00  0.00    -0.268 OA
HETATM    8  N2  UNL     1      23.528   6.028  51.526  1.00  0.00    -0.336 N 
HETATM    9  C6  UNL     1      23.726   7.420  51.269  1.00  0.00     0.083 C 
HETATM   10  C7  UNL     1      24.529   8.189  50.505  1.00  0.00     0.124 C 
HETATM   11  C8  UNL     1      25.184   7.064  50.000  1.00  0.00    -0.095 C 
HETATM   12  C9  UNL     1      25.737   6.115  49.597  1.00  0.00    -0.104 C 
HETATM   13  C10 UNL     1      26.412   4.939  49.124  1.00  0.00     0.118 C 
HETATM   14  C11 UNL     1      26.396   3.874  50.166  1.00  0.00     0.124 A 
HETATM   15  C12 UNL     1      26.099   2.690  50.678  1.00  0.00     0.028 A 
HETATM   16 CL1  UNL     1      25.485   2.890  49.024  1.00  0.00    -0.176 Cl
HETATM   17  C13 UNL     1      26.411   2.179  52.040  1.00  0.00     0.115 C 
HETATM   18  C14 UNL     1      26.686   0.727  51.950  1.00  0.00     0.053 C 
HETATM   19  C15 UNL     1      25.485   2.692  53.043  1.00  0.00     0.315 C 
HETATM   20  H8  UNL     1      24.545   6.030  51.692  1.00  0.00     0.168 HD
ENDROOT
BRANCH  17  21
HETATM   21  O2  UNL     1      27.697   2.759  52.333  1.00  0.00    -0.383 OA
HETATM   22  H17 UNL     1      27.618   3.690  52.594  1.00  0.00     0.211 HD
ENDBRANCH  17  21
TORSDOF 1
ENDMDL
MODEL 6
REMARK VINA RESULT:      -7.0      1.985      2.851
REMARK  1 active torsions:
REMARK  status: ('A' for Active; 'I' for Inactive)
REMARK    1  A    between atoms: C13_17  and  O2_19 
ROOT
HETATM    1  C1  UNL     1      25.544   7.971  49.251  1.00  0.00     0.310 C 
HETATM    2  N1  UNL     1      25.322   6.859  50.124  1.00  0.00     0.090 N 
HETATM    3  C2  UNL     1      25.346   5.588  49.498  1.00  0.00     0.299 C 
HETATM    4  C3  UNL     1      26.578   5.027  48.947  1.00  0.00     0.008 C 
HETATM    5  C4  UNL     1      26.932   3.864  49.552  1.00  0.00     0.072 C 
HETATM    6  C5  UNL     1      26.509   2.936  50.615  1.00  0.00     0.244 C 
HETATM    7  O1  UNL     1      26.616   1.879  51.235  1.00  0.00    -0.268 OA
HETATM    8  N2  UNL     1      25.473   3.101  51.598  1.00  0.00    -0.336 N 
HETATM    9  C6  UNL     1      25.329   2.002  52.501  1.00  0.00     0.083 C 
HETATM   10  C7  UNL     1      24.342   1.193  52.938  1.00  0.00     0.124 C 
HETATM   11  C8  UNL     1      23.401   1.855  52.147  1.00  0.00    -0.095 C 
HETATM   12  C9  UNL     1      22.618   2.427  51.492  1.00  0.00    -0.104 C 
HETATM   13  C10 UNL     1      21.672   3.152  50.692  1.00  0.00     0.118 C 
HETATM   14  C11 UNL     1      22.091   4.575  50.548  1.00  0.00     0.124 A 
HETATM   15  C12 UNL     1      22.470   5.662  49.895  1.00  0.00     0.028 A 
HETATM   16 CL1  UNL     1      22.188   4.281  48.814  1.00  0.00    -0.176 Cl
HETATM   17  C13 UNL     1      22.831   6.989  50.460  1.00  0.00     0.115 C 
HETATM   18  C14 UNL     1      22.388   8.042  49.518  1.00  0.00     0.053 C 
HETATM   19  C15 UNL     1      24.187   7.006  50.998  1.00  0.00     0.315 C 
HETATM   20  H8  UNL     1      24.685   3.496  52.132  1.00  0.00     0.168 HD
ENDROOT
BRANCH  17  21
HETATM   21  O2  UNL     1      21.941   7.131  51.585  1.00  0.00    -0.383 OA
HETATM   22  H17 UNL     1      21.031   7.312  51.301  1.00  0.00     0.211 HD
ENDBRANCH  17  21
TORSDOF 1
ENDMDL
MODEL 7
REMARK VINA RESULT:      -7.0      3.017      5.821
REMARK  1 active torsions:
REMARK  status: ('A' for Active; 'I' for Inactive)
REMARK    1  A    between atoms: C13_17  and  O2_19 
ROOT
HETATM    1  C1  UNL     1      27.167   2.333  51.527  1.00  0.00     0.310 C 
HETATM    2  N1  UNL     1      26.042   1.495  51.812  1.00  0.00     0.090 N 
HETATM    3  C2  UNL     1      25.172   1.978  52.821  1.00  0.00     0.299 C 
HETATM    4  C3  UNL     1      24.349   3.170  52.618  1.00  0.00     0.008 C 
HETATM    5  C4  UNL     1      23.022   2.901  52.700  1.00  0.00     0.072 C 
HETATM    6  C5  UNL     1      22.075   1.793  52.914  1.00  0.00     0.244 C 
HETATM    7  O1  UNL     1      20.938   1.359  53.089  1.00  0.00    -0.268 OA
HETATM    8  N2  UNL     1      22.338   0.381  52.974  1.00  0.00    -0.336 N 
HETATM    9  C6  UNL     1      21.180  -0.431  53.186  1.00  0.00     0.083 C 
HETATM   10  C7  UNL     1      20.784  -1.402  54.034  1.00  0.00     0.124 C 
HETATM   11  C8  UNL     1      22.008  -1.363  54.705  1.00  0.00    -0.095 C 
HETATM   12  C9  UNL     1      23.042  -1.333  55.250  1.00  0.00    -0.104 C 
HETATM   13  C10 UNL     1      24.324  -1.289  55.896  1.00  0.00     0.118 C 
HETATM   14  C11 UNL     1      25.384  -0.892  54.927  1.00  0.00     0.124 A 
HETATM   15  C12 UNL     1      26.347  -0.128  54.437  1.00  0.00     0.028 A 
HETATM   16 CL1  UNL     1      25.668   0.516  55.945  1.00  0.00    -0.176 Cl
HETATM   17  C13 UNL     1      27.119  -0.323  53.180  1.00  0.00     0.115 C 
HETATM   18  C14 UNL     1      28.504   0.152  53.396  1.00  0.00     0.053 C 
HETATM   19  C15 UNL     1      26.368   0.105  52.005  1.00  0.00     0.315 C 
HETATM   20  H8  UNL     1      22.834  -0.523  52.987  1.00  0.00     0.168 HD
ENDROOT
BRANCH  17  21
HETATM   21  O2  UNL     1      27.252  -1.755  53.083  1.00  0.00    -0.383 OA
HETATM   22  H17 UNL     1      27.424  -2.037  52.171  1.00  0.00     0.211 HD
ENDBRANCH  17  21
TORSDOF 1
ENDMDL
MODEL 8
REMARK VINA RESULT:      -6.8      1.848      4.141
REMARK  1 active torsions:
REMARK  status: ('A' for Active; 'I' for Inactive)
REMARK    1  A    between atoms: C13_17  and  O2_19 
ROOT
HETATM    1  C1  UNL     1      21.614  -0.164  52.817  1.00  0.00     0.310 C 
HETATM    2  N1  UNL     1      22.464   0.592  51.949  1.00  0.00     0.090 N 
HETATM    3  C2  UNL     1      23.363   1.472  52.603  1.00  0.00     0.299 C 
HETATM    4  C3  UNL     1      24.477   0.972  53.408  1.00  0.00     0.008 C 
HETATM    5  C4  UNL     1      25.682   1.363  52.921  1.00  0.00     0.072 C 
HETATM    6  C5  UNL     1      26.294   2.127  51.821  1.00  0.00     0.244 C 
HETATM    7  O1  UNL     1      27.267   2.635  51.266  1.00  0.00    -0.268 OA
HETATM    8  N2  UNL     1      25.672   2.671  50.644  1.00  0.00    -0.336 N 
HETATM    9  C6  UNL     1      26.565   3.357  49.763  1.00  0.00     0.083 C 
HETATM   10  C7  UNL     1      26.642   4.560  49.158  1.00  0.00     0.124 C 
HETATM   11  C8  UNL     1      25.429   4.960  49.723  1.00  0.00    -0.095 C 
HETATM   12  C9  UNL     1      24.404   5.278  50.188  1.00  0.00    -0.104 C 
HETATM   13  C10 UNL     1      23.138   5.644  50.759  1.00  0.00     0.118 C 
HETATM   14  C11 UNL     1      22.281   4.439  50.945  1.00  0.00     0.124 A 
HETATM   15  C12 UNL     1      21.582   3.548  51.630  1.00  0.00     0.028 A 
HETATM   16 CL1  UNL     1      22.306   4.793  52.670  1.00  0.00    -0.176 Cl
HETATM   17  C13 UNL     1      20.869   2.351  51.112  1.00  0.00     0.115 C 
HETATM   18  C14 UNL     1      19.642   2.145  51.914  1.00  0.00     0.053 C 
HETATM   19  C15 UNL     1      21.779   1.238  50.859  1.00  0.00     0.315 C 
HETATM   20  H8  UNL     1      24.960   2.943  49.951  1.00  0.00     0.168 HD
ENDROOT
BRANCH  17  21
HETATM   21  O2  UNL     1      20.377   2.778  49.826  1.00  0.00    -0.383 OA
HETATM   22  H17 UNL     1      20.234   2.027  49.230  1.00  0.00     0.211 HD
ENDBRANCH  17  21
TORSDOF 1
ENDMDL
MODEL 9
REMARK VINA RESULT:      -6.6      3.072      5.169
REMARK  1 active torsions:
REMARK  status: ('A' for Active; 'I' for Inactive)
REMARK    1  A    between atoms: C13_17  and  O2_19 
ROOT
HETATM    1  C1  UNL     1      20.927   6.383  50.498  1.00  0.00     0.310 C 
HETATM    2  N1  UNL     1      22.322   6.583  50.248  1.00  0.00     0.090 N 
HETATM    3  C2  UNL     1      22.777   6.135  48.983  1.00  0.00     0.299 C 
HETATM    4  C3  UNL     1      22.367   6.792  47.743  1.00  0.00     0.008 C 
HETATM    5  C4  UNL     1      23.419   7.312  47.061  1.00  0.00     0.072 C 
HETATM    6  C5  UNL     1      24.882   7.470  47.133  1.00  0.00     0.244 C 
HETATM    7  O1  UNL     1      25.960   7.805  46.645  1.00  0.00    -0.268 OA
HETATM    8  N2  UNL     1      25.768   7.178  48.227  1.00  0.00    -0.336 N 
HETATM    9  C6  UNL     1      27.146   7.459  47.968  1.00  0.00     0.083 C 
HETATM   10  C7  UNL     1      28.328   6.814  48.043  1.00  0.00     0.124 C 
HETATM   11  C8  UNL     1      27.705   5.658  48.520  1.00  0.00    -0.095 C 
HETATM   12  C9  UNL     1      27.175   4.701  48.934  1.00  0.00    -0.104 C 
HETATM   13  C10 UNL     1      26.506   3.542  49.455  1.00  0.00     0.118 C 
HETATM   14  C11 UNL     1      25.297   3.940  50.229  1.00  0.00     0.124 A 
HETATM   15  C12 UNL     1      24.005   3.991  50.508  1.00  0.00     0.028 A 
HETATM   16 CL1  UNL     1      24.352   3.026  49.058  1.00  0.00    -0.176 Cl
HETATM   17  C13 UNL     1      23.336   4.727  51.613  1.00  0.00     0.115 C 
HETATM   18  C14 UNL     1      22.174   3.935  52.076  1.00  0.00     0.053 C 
HETATM   19  C15 UNL     1      23.186   6.147  51.314  1.00  0.00     0.315 C 
HETATM   20  H8  UNL     1      26.123   6.862  49.142  1.00  0.00     0.168 HD
ENDROOT
BRANCH  17  21
HETATM   21  O2  UNL     1      24.276   4.633  52.701  1.00  0.00    -0.383 OA
HETATM   22  H17 UNL     1      25.189   4.568  52.380  1.00  0.00     0.211 HD
ENDBRANCH  17  21
TORSDOF 1
ENDMDL
