MODEL 1
REMARK VINA RESULT:      -7.7      0.000      0.000
REMARK  4 active torsions:
REMARK  status: ('A' for Active; 'I' for Inactive)
REMARK    1  A    between atoms: O1_1  and  C1_2 
REMARK    2  A    between atoms: C6_9  and  N3_10 
REMARK    3  A    between atoms: N3_10  and  C7_11 
REMARK    4  A    between atoms: C10_15  and  C11_16 
ROOT
HETATM    1  C1  UNL     1      28.120  -1.766  53.127  1.00  0.00     0.177 A 
HETATM    2  C2  UNL     1      27.936  -0.469  53.228  1.00  0.00     0.077 A 
HETATM    3  C3  UNL     1      29.112   0.178  53.614  1.00  0.00     0.092 A 
HETATM    4  N1  UNL     1      29.120   1.500  53.769  1.00  0.00    -0.240 NA
HETATM    5  C4  UNL     1      28.034   2.273  53.572  1.00  0.00     0.234 A 
HETATM    6  N2  UNL     1      26.884   1.655  53.196  1.00  0.00    -0.240 NA
HETATM    7  C5  UNL     1      26.823   0.320  53.026  1.00  0.00     0.090 A 
HETATM    8  C6  UNL     1      25.643  -0.156  52.659  1.00  0.00     0.121 C 
HETATM    9  C13 UNL     1      30.064  -0.933  53.736  1.00  0.00     0.152 A 
HETATM   10  N4  UNL     1      29.484  -2.070  53.452  1.00  0.00    -0.234 NA
ENDROOT
BRANCH   8  11
HETATM   11  N3  UNL     1      24.449   0.579  52.429  1.00  0.00    -0.363 N 
HETATM   12  H4  UNL     1      24.523   1.417  51.838  1.00  0.00     0.165 HD
BRANCH  11  13
HETATM   13  C7  UNL     1      23.209   0.197  52.976  1.00  0.00     0.047 C 
HETATM   14  C8  UNL     1      22.941  -0.522  54.030  1.00  0.00     0.045 C 
HETATM   15  C9  UNL     1      21.712  -1.016  54.026  1.00  0.00     0.137 C 
HETATM   16  F1  UNL     1      21.129  -2.048  54.690  1.00  0.00    -0.204 F 
HETATM   17  C10 UNL     1      20.963  -0.186  53.078  1.00  0.00    -0.003 C 
HETATM   18  C12 UNL     1      21.895   0.545  52.449  1.00  0.00     0.041 C 
BRANCH  17  19
HETATM   19  C11 UNL     1      19.499  -0.159  52.860  1.00  0.00     0.156 C 
HETATM   20 CL1  UNL     1      19.079   0.215  51.176  1.00  0.00    -0.125 Cl
ENDBRANCH  17  19
ENDBRANCH  11  13
ENDBRANCH   8  11
BRANCH   1  21
HETATM   21  O1  UNL     1      27.154  -2.706  52.763  1.00  0.00    -0.344 OA
HETATM   22  H1  UNL     1      26.458  -2.456  52.073  1.00  0.00     0.219 HD
ENDBRANCH   1  21
TORSDOF 4
ENDMDL
MODEL 2
REMARK VINA RESULT:      -7.7      5.214      6.369
REMARK  4 active torsions:
REMARK  status: ('A' for Active; 'I' for Inactive)
REMARK    1  A    between atoms: O1_1  and  C1_2 
REMARK    2  A    between atoms: C6_9  and  N3_10 
REMARK    3  A    between atoms: N3_10  and  C7_11 
REMARK    4  A    between atoms: C10_15  and  C11_16 
ROOT
HETATM    1  C1  UNL     1      28.676   1.861  53.677  1.00  0.00     0.177 A 
HETATM    2  C2  UNL     1      27.572   1.248  53.313  1.00  0.00     0.077 A 
HETATM    3  C3  UNL     1      27.327   0.134  54.118  1.00  0.00     0.092 A 
HETATM    4  N1  UNL     1      26.249  -0.617  53.899  1.00  0.00    -0.240 NA
HETATM    5  C4  UNL     1      25.358  -0.361  52.923  1.00  0.00     0.234 A 
HETATM    6  N2  UNL     1      25.586   0.721  52.133  1.00  0.00    -0.240 NA
HETATM    7  C5  UNL     1      26.660   1.512  52.312  1.00  0.00     0.090 A 
HETATM    8  C6  UNL     1      26.766   2.532  51.475  1.00  0.00     0.121 C 
HETATM    9  C13 UNL     1      28.462   0.154  55.048  1.00  0.00     0.152 A 
HETATM   10  N4  UNL     1      29.251   1.164  54.791  1.00  0.00    -0.234 NA
ENDROOT
BRANCH   8  11
HETATM   11  N3  UNL     1      25.879   2.879  50.420  1.00  0.00    -0.363 N 
HETATM   12  H4  UNL     1      25.055   2.278  50.287  1.00  0.00     0.165 HD
BRANCH  11  13
HETATM   13  C7  UNL     1      26.098   3.989  49.582  1.00  0.00     0.047 C 
HETATM   14  C8  UNL     1      27.175   4.366  48.951  1.00  0.00     0.045 C 
HETATM   15  C9  UNL     1      27.150   5.641  48.593  1.00  0.00     0.137 C 
HETATM   16  F1  UNL     1      28.123   6.524  48.251  1.00  0.00    -0.204 F 
HETATM   17  C10 UNL     1      25.735   6.024  48.621  1.00  0.00    -0.003 C 
HETATM   18  C12 UNL     1      25.113   5.004  49.227  1.00  0.00     0.041 C 
BRANCH  17  19
HETATM   19  C11 UNL     1      25.124   7.266  48.094  1.00  0.00     0.156 C 
HETATM   20 CL1  UNL     1      23.622   6.948  47.202  1.00  0.00    -0.125 Cl
ENDBRANCH  17  19
ENDBRANCH  11  13
ENDBRANCH   8  11
BRANCH   1  21
HETATM   21  O1  UNL     1      29.211   3.007  53.085  1.00  0.00    -0.344 OA
HETATM   22  H1  UNL     1      29.739   3.656  53.654  1.00  0.00     0.219 HD
ENDBRANCH   1  21
TORSDOF 4
ENDMDL
MODEL 3
REMARK VINA RESULT:      -7.6      1.580      2.332
REMARK  4 active torsions:
REMARK  status: ('A' for Active; 'I' for Inactive)
REMARK    1  A    between atoms: O1_1  and  C1_2 
REMARK    2  A    between atoms: C6_9  and  N3_10 
REMARK    3  A    between atoms: N3_10  and  C7_11 
REMARK    4  A    between atoms: C10_15  and  C11_16 
ROOT
HETATM    1  C1  UNL     1      27.785   1.668  53.996  1.00  0.00     0.177 A 
HETATM    2  C2  UNL     1      27.390   0.517  53.498  1.00  0.00     0.077 A 
HETATM    3  C3  UNL     1      28.375  -0.461  53.652  1.00  0.00     0.092 A 
HETATM    4  N1  UNL     1      28.156  -1.697  53.207  1.00  0.00    -0.240 NA
HETATM    5  C4  UNL     1      27.014  -2.071  52.601  1.00  0.00     0.234 A 
HETATM    6  N2  UNL     1      26.048  -1.128  52.445  1.00  0.00    -0.240 NA
HETATM    7  C5  UNL     1      26.219   0.136  52.877  1.00  0.00     0.090 A 
HETATM    8  C6  UNL     1      25.203   0.957  52.663  1.00  0.00     0.121 C 
HETATM    9  C13 UNL     1      29.451   0.271  54.332  1.00  0.00     0.152 A 
HETATM   10  N4  UNL     1      29.106   1.516  54.532  1.00  0.00    -0.234 NA
ENDROOT
BRANCH   8  11
HETATM   11  N3  UNL     1      23.965   0.652  52.034  1.00  0.00    -0.363 N 
HETATM   12  H4  UNL     1      23.922   0.759  51.012  1.00  0.00     0.165 HD
BRANCH  11  13
HETATM   13  C7  UNL     1      22.835   0.224  52.757  1.00  0.00     0.047 C 
HETATM   14  C8  UNL     1      22.755  -0.420  53.888  1.00  0.00     0.045 C 
HETATM   15  C9  UNL     1      21.581  -1.006  54.072  1.00  0.00     0.137 C 
HETATM   16  F1  UNL     1      21.171  -2.018  54.879  1.00  0.00    -0.204 F 
HETATM   17  C10 UNL     1      20.658  -0.320  53.163  1.00  0.00    -0.003 C 
HETATM   18  C12 UNL     1      21.443   0.423  52.371  1.00  0.00     0.041 C 
BRANCH  17  19
HETATM   19  C11 UNL     1      19.182  -0.425  53.125  1.00  0.00     0.156 C 
HETATM   20 CL1  UNL     1      18.539  -0.246  51.480  1.00  0.00    -0.125 Cl
ENDBRANCH  17  19
ENDBRANCH  11  13
ENDBRANCH   8  11
BRANCH   1  21
HETATM   21  O1  UNL     1      27.045   2.852  54.007  1.00  0.00    -0.344 OA
HETATM   22  H1  UNL     1      26.275   2.947  54.655  1.00  0.00     0.219 HD
ENDBRANCH   1  21
TORSDOF 4
ENDMDL
MODEL 4
REMARK VINA RESULT:      -7.6      1.312      1.547
REMARK  4 active torsions:
REMARK  status: ('A' for Active; 'I' for Inactive)
REMARK    1  A    between atoms: O1_1  and  C1_2 
REMARK    2  A    between atoms: C6_9  and  N3_10 
REMARK    3  A    between atoms: N3_10  and  C7_11 
REMARK    4  A    between atoms: C10_15  and  C11_16 
ROOT
HETATM    1  C1  UNL     1      28.071  -1.748  53.089  1.00  0.00     0.177 A 
HETATM    2  C2  UNL     1      28.047  -0.437  53.182  1.00  0.00     0.077 A 
HETATM    3  C3  UNL     1      29.257   0.054  53.676  1.00  0.00     0.092 A 
HETATM    4  N1  UNL     1      29.422   1.365  53.841  1.00  0.00    -0.240 NA
HETATM    5  C4  UNL     1      28.467   2.270  53.553  1.00  0.00     0.234 A 
HETATM    6  N2  UNL     1      27.285   1.804  53.073  1.00  0.00    -0.240 NA
HETATM    7  C5  UNL     1      27.067   0.489  52.888  1.00  0.00     0.090 A 
HETATM    8  C6  UNL     1      25.874   0.167  52.415  1.00  0.00     0.121 C 
HETATM    9  C13 UNL     1      30.043  -1.170  53.874  1.00  0.00     0.152 A 
HETATM   10  N4  UNL     1      29.349  -2.223  53.531  1.00  0.00    -0.234 NA
ENDROOT
BRANCH   8  11
HETATM   11  N3  UNL     1      24.809   1.049  52.085  1.00  0.00    -0.363 N 
HETATM   12  H4  UNL     1      25.055   1.906  51.573  1.00  0.00     0.165 HD
BRANCH  11  13
HETATM   13  C7  UNL     1      23.471   0.783  52.434  1.00  0.00     0.047 C 
HETATM   14  C8  UNL     1      22.397   1.499  52.252  1.00  0.00     0.045 C 
HETATM   15  C9  UNL     1      21.395   1.148  53.044  1.00  0.00     0.137 C 
HETATM   16  F1  UNL     1      20.267   1.788  53.446  1.00  0.00    -0.204 F 
HETATM   17  C10 UNL     1      21.713  -0.212  53.491  1.00  0.00    -0.003 C 
HETATM   18  C12 UNL     1      22.982  -0.413  53.109  1.00  0.00     0.041 C 
BRANCH  17  19
HETATM   19  C11 UNL     1      20.828  -1.158  54.207  1.00  0.00     0.156 C 
HETATM   20 CL1  UNL     1      19.200  -1.220  53.500  1.00  0.00    -0.125 Cl
ENDBRANCH  17  19
ENDBRANCH  11  13
ENDBRANCH   8  11
BRANCH   1  21
HETATM   21  O1  UNL     1      27.027  -2.556  52.633  1.00  0.00    -0.344 OA
HETATM   22  H1  UNL     1      26.835  -3.428  53.109  1.00  0.00     0.219 HD
ENDBRANCH   1  21
TORSDOF 4
ENDMDL
MODEL 5
REMARK VINA RESULT:      -7.1      3.385      4.087
REMARK  4 active torsions:
REMARK  status: ('A' for Active; 'I' for Inactive)
REMARK    1  A    between atoms: O1_1  and  C1_2 
REMARK    2  A    between atoms: C6_9  and  N3_10 
REMARK    3  A    between atoms: N3_10  and  C7_11 
REMARK    4  A    between atoms: C10_15  and  C11_16 
ROOT
HETATM    1  C1  UNL     1      28.924   1.274  53.444  1.00  0.00     0.177 A 
HETATM    2  C2  UNL     1      27.758   0.670  53.487  1.00  0.00     0.077 A 
HETATM    3  C3  UNL     1      27.912  -0.717  53.530  1.00  0.00     0.092 A 
HETATM    4  N1  UNL     1      26.838  -1.502  53.577  1.00  0.00    -0.240 NA
HETATM    5  C4  UNL     1      25.577  -1.026  53.587  1.00  0.00     0.234 A 
HETATM    6  N2  UNL     1      25.415   0.322  53.545  1.00  0.00    -0.240 NA
HETATM    7  C5  UNL     1      26.468   1.159  53.497  1.00  0.00     0.090 A 
HETATM    8  C6  UNL     1      26.173   2.449  53.460  1.00  0.00     0.121 C 
HETATM    9  C13 UNL     1      29.371  -0.879  53.507  1.00  0.00     0.152 A 
HETATM   10  N4  UNL     1      29.963   0.286  53.456  1.00  0.00    -0.234 NA
ENDROOT
BRANCH   8  11
HETATM   11  N3  UNL     1      24.880   3.039  53.466  1.00  0.00    -0.363 N 
HETATM   12  H4  UNL     1      24.450   3.209  54.384  1.00  0.00     0.165 HD
BRANCH  11  13
HETATM   13  C7  UNL     1      24.201   3.384  52.282  1.00  0.00     0.047 C 
HETATM   14  C8  UNL     1      23.331   4.329  52.056  1.00  0.00     0.045 C 
HETATM   15  C9  UNL     1      22.605   4.121  50.968  1.00  0.00     0.137 C 
HETATM   16  F1  UNL     1      21.412   4.612  50.545  1.00  0.00    -0.204 F 
HETATM   17  C10 UNL     1      23.369   3.155  50.171  1.00  0.00    -0.003 C 
HETATM   18  C12 UNL     1      24.335   2.719  50.991  1.00  0.00     0.041 C 
BRANCH  17  19
HETATM   19  C11 UNL     1      23.127   2.750  48.768  1.00  0.00     0.156 C 
HETATM   20 CL1  UNL     1      21.878   1.494  48.638  1.00  0.00    -0.125 Cl
ENDBRANCH  17  19
ENDBRANCH  11  13
ENDBRANCH   8  11
BRANCH   1  21
HETATM   21  O1  UNL     1      29.131   2.655  53.394  1.00  0.00    -0.344 OA
HETATM   22  H1  UNL     1      29.126   3.122  52.497  1.00  0.00     0.219 HD
ENDBRANCH   1  21
TORSDOF 4
ENDMDL
MODEL 6
REMARK VINA RESULT:      -7.1      5.328      6.906
REMARK  4 active torsions:
REMARK  status: ('A' for Active; 'I' for Inactive)
REMARK    1  A    between atoms: O1_1  and  C1_2 
REMARK    2  A    between atoms: C6_9  and  N3_10 
REMARK    3  A    between atoms: N3_10  and  C7_11 
REMARK    4  A    between atoms: C10_15  and  C11_16 
ROOT
HETATM    1  C1  UNL     1      26.274   0.997  54.151  1.00  0.00     0.177 A 
HETATM    2  C2  UNL     1      25.154   0.979  53.465  1.00  0.00     0.077 A 
HETATM    3  C3  UNL     1      24.409  -0.168  53.747  1.00  0.00     0.092 A 
HETATM    4  N1  UNL     1      23.237  -0.362  53.145  1.00  0.00    -0.240 NA
HETATM    5  C4  UNL     1      22.714   0.503  52.255  1.00  0.00     0.234 A 
HETATM    6  N2  UNL     1      23.429   1.622  51.972  1.00  0.00    -0.240 NA
HETATM    7  C5  UNL     1      24.618   1.866  52.554  1.00  0.00     0.090 A 
HETATM    8  C6  UNL     1      25.213   2.992  52.191  1.00  0.00     0.121 C 
HETATM    9  C13 UNL     1      25.251  -0.864  54.727  1.00  0.00     0.152 A 
HETATM   10  N4  UNL     1      26.342  -0.184  54.962  1.00  0.00    -0.234 NA
ENDROOT
BRANCH   8  11
HETATM   11  N3  UNL     1      24.738   3.960  51.264  1.00  0.00    -0.363 N 
HETATM   12  H4  UNL     1      23.780   4.306  51.402  1.00  0.00     0.165 HD
BRANCH  11  13
HETATM   13  C7  UNL     1      25.526   4.436  50.199  1.00  0.00     0.047 C 
HETATM   14  C8  UNL     1      26.415   3.821  49.470  1.00  0.00     0.045 C 
HETATM   15  C9  UNL     1      27.238   4.647  48.843  1.00  0.00     0.137 C 
HETATM   16  F1  UNL     1      28.467   4.483  48.288  1.00  0.00    -0.204 F 
HETATM   17  C10 UNL     1      26.550   5.942  48.826  1.00  0.00    -0.003 C 
HETATM   18  C12 UNL     1      25.510   5.790  49.659  1.00  0.00     0.041 C 
BRANCH  17  19
HETATM   19  C11 UNL     1      26.920   7.153  48.059  1.00  0.00     0.156 C 
HETATM   20 CL1  UNL     1      28.565   7.706  48.432  1.00  0.00    -0.125 Cl
ENDBRANCH  17  19
ENDBRANCH  11  13
ENDBRANCH   8  11
BRANCH   1  21
HETATM   21  O1  UNL     1      27.247   1.997  54.106  1.00  0.00    -0.344 OA
HETATM   22  H1  UNL     1      27.581   2.400  54.971  1.00  0.00     0.219 HD
ENDBRANCH   1  21
TORSDOF 4
ENDMDL
MODEL 7
REMARK VINA RESULT:      -7.1      4.201      4.963
REMARK  4 active torsions:
REMARK  status: ('A' for Active; 'I' for Inactive)
REMARK    1  A    between atoms: O1_1  and  C1_2 
REMARK    2  A    between atoms: C6_9  and  N3_10 
REMARK    3  A    between atoms: N3_10  and  C7_11 
REMARK    4  A    between atoms: C10_15  and  C11_16 
ROOT
HETATM    1  C1  UNL     1      28.608   1.886  53.672  1.00  0.00     0.177 A 
HETATM    2  C2  UNL     1      27.531   1.238  53.291  1.00  0.00     0.077 A 
HETATM    3  C3  UNL     1      27.317   0.108  54.082  1.00  0.00     0.092 A 
HETATM    4  N1  UNL     1      26.269  -0.679  53.845  1.00  0.00    -0.240 NA
HETATM    5  C4  UNL     1      25.379  -0.445  52.862  1.00  0.00     0.234 A 
HETATM    6  N2  UNL     1      25.576   0.652  52.085  1.00  0.00    -0.240 NA
HETATM    7  C5  UNL     1      26.620   1.479  52.283  1.00  0.00     0.090 A 
HETATM    8  C6  UNL     1      26.698   2.511  51.457  1.00  0.00     0.121 C 
HETATM    9  C13 UNL     1      28.442   0.159  55.025  1.00  0.00     0.152 A 
HETATM   10  N4  UNL     1      29.197   1.199  54.785  1.00  0.00    -0.234 NA
ENDROOT
BRANCH   8  11
HETATM   11  N3  UNL     1      25.809   2.836  50.396  1.00  0.00    -0.363 N 
HETATM   12  H4  UNL     1      25.841   2.237  49.561  1.00  0.00     0.165 HD
BRANCH  11  13
HETATM   13  C7  UNL     1      24.919   3.925  50.462  1.00  0.00     0.047 C 
HETATM   14  C8  UNL     1      25.106   5.182  50.171  1.00  0.00     0.045 C 
HETATM   15  C9  UNL     1      24.208   5.985  50.721  1.00  0.00     0.137 C 
HETATM   16  F1  UNL     1      24.195   7.318  50.981  1.00  0.00    -0.204 F 
HETATM   17  C10 UNL     1      23.072   5.121  51.060  1.00  0.00    -0.003 C 
HETATM   18  C12 UNL     1      23.528   3.872  50.895  1.00  0.00     0.041 C 
BRANCH  17  19
HETATM   19  C11 UNL     1      21.717   5.536  51.489  1.00  0.00     0.156 C 
HETATM   20 CL1  UNL     1      20.624   4.151  51.690  1.00  0.00    -0.125 Cl
ENDBRANCH  17  19
ENDBRANCH  11  13
ENDBRANCH   8  11
BRANCH   1  21
HETATM   21  O1  UNL     1      29.107   3.056  53.097  1.00  0.00    -0.344 OA
HETATM   22  H1  UNL     1      29.762   3.623  53.620  1.00  0.00     0.219 HD
ENDBRANCH   1  21
TORSDOF 4
ENDMDL
MODEL 8
REMARK VINA RESULT:      -7.0      2.994      3.128
REMARK  4 active torsions:
REMARK  status: ('A' for Active; 'I' for Inactive)
REMARK    1  A    between atoms: O1_1  and  C1_2 
REMARK    2  A    between atoms: C6_9  and  N3_10 
REMARK    3  A    between atoms: N3_10  and  C7_11 
REMARK    4  A    between atoms: C10_15  and  C11_16 
ROOT
HETATM    1  C1  UNL     1      27.264  -1.217  53.073  1.00  0.00     0.177 A 
HETATM    2  C2  UNL     1      27.782  -0.063  53.426  1.00  0.00     0.077 A 
HETATM    3  C3  UNL     1      29.146  -0.187  53.701  1.00  0.00     0.092 A 
HETATM    4  N1  UNL     1      29.846   0.882  54.077  1.00  0.00    -0.240 NA
HETATM    5  C4  UNL     1      29.304   2.107  54.214  1.00  0.00     0.234 A 
HETATM    6  N2  UNL     1      27.978   2.241  53.950  1.00  0.00    -0.240 NA
HETATM    7  C5  UNL     1      27.226   1.192  53.566  1.00  0.00     0.090 A 
HETATM    8  C6  UNL     1      25.949   1.456  53.341  1.00  0.00     0.121 C 
HETATM    9  C13 UNL     1      29.393  -1.613  53.457  1.00  0.00     0.152 A 
HETATM   10  N4  UNL     1      28.293  -2.215  53.090  1.00  0.00    -0.234 NA
ENDROOT
BRANCH   8  11
HETATM   11  N3  UNL     1      25.293   2.712  53.459  1.00  0.00    -0.363 N 
HETATM   12  H4  UNL     1      25.599   3.328  54.222  1.00  0.00     0.165 HD
BRANCH  11  13
HETATM   13  C7  UNL     1      24.267   3.114  52.582  1.00  0.00     0.047 C 
HETATM   14  C8  UNL     1      23.396   4.078  52.693  1.00  0.00     0.045 C 
HETATM   15  C9  UNL     1      22.344   3.925  51.903  1.00  0.00     0.137 C 
HETATM   16  F1  UNL     1      21.091   4.448  51.921  1.00  0.00    -0.204 F 
HETATM   17  C10 UNL     1      22.773   2.984  50.864  1.00  0.00    -0.003 C 
HETATM   18  C12 UNL     1      23.946   2.502  51.298  1.00  0.00     0.041 C 
BRANCH  17  19
HETATM   19  C11 UNL     1      22.067   2.640  49.609  1.00  0.00     0.156 C 
HETATM   20 CL1  UNL     1      21.355   1.015  49.664  1.00  0.00    -0.125 Cl
ENDBRANCH  17  19
ENDBRANCH  11  13
ENDBRANCH   8  11
BRANCH   1  21
HETATM   21  O1  UNL     1      25.929  -1.446  52.731  1.00  0.00    -0.344 OA
HETATM   22  H1  UNL     1      25.419  -0.732  52.228  1.00  0.00     0.219 HD
ENDBRANCH   1  21
TORSDOF 4
ENDMDL
MODEL 9
REMARK VINA RESULT:      -7.0      3.832      4.231
REMARK  4 active torsions:
REMARK  status: ('A' for Active; 'I' for Inactive)
REMARK    1  A    between atoms: O1_1  and  C1_2 
REMARK    2  A    between atoms: C6_9  and  N3_10 
REMARK    3  A    between atoms: N3_10  and  C7_11 
REMARK    4  A    between atoms: C10_15  and  C11_16 
ROOT
HETATM    1  C1  UNL     1      26.796  -0.990  53.139  1.00  0.00     0.177 A 
HETATM    2  C2  UNL     1      27.383   0.153  53.412  1.00  0.00     0.077 A 
HETATM    3  C3  UNL     1      28.756  -0.019  53.599  1.00  0.00     0.092 A 
HETATM    4  N1  UNL     1      29.523   1.031  53.886  1.00  0.00    -0.240 NA
HETATM    5  C4  UNL     1      29.042   2.283  54.012  1.00  0.00     0.234 A 
HETATM    6  N2  UNL     1      27.707   2.463  53.833  1.00  0.00    -0.240 NA
HETATM    7  C5  UNL     1      26.889   1.435  53.541  1.00  0.00     0.090 A 
HETATM    8  C6  UNL     1      25.611   1.745  53.392  1.00  0.00     0.121 C 
HETATM    9  C13 UNL     1      28.929  -1.463  53.394  1.00  0.00     0.152 A 
HETATM   10  N4  UNL     1      27.782  -2.030  53.125  1.00  0.00    -0.234 NA
ENDROOT
BRANCH   8  11
HETATM   11  N3  UNL     1      25.015   3.031  53.506  1.00  0.00    -0.363 N 
HETATM   12  H4  UNL     1      25.195   3.553  54.373  1.00  0.00     0.165 HD
BRANCH  11  13
HETATM   13  C7  UNL     1      24.211   3.584  52.491  1.00  0.00     0.047 C 
HETATM   14  C8  UNL     1      24.179   3.331  51.213  1.00  0.00     0.045 C 
HETATM   15  C9  UNL     1      23.608   4.294  50.504  1.00  0.00     0.137 C 
HETATM   16  F1  UNL     1      23.656   4.625  49.188  1.00  0.00    -0.204 F 
HETATM   17  C10 UNL     1      22.808   5.060  51.465  1.00  0.00    -0.003 C 
HETATM   18  C12 UNL     1      23.192   4.611  52.668  1.00  0.00     0.041 C 
BRANCH  17  19
HETATM   19  C11 UNL     1      21.797   6.101  51.172  1.00  0.00     0.156 C 
HETATM   20 CL1  UNL     1      22.534   7.600  50.568  1.00  0.00    -0.125 Cl
ENDBRANCH  17  19
ENDBRANCH  11  13
ENDBRANCH   8  11
BRANCH   1  21
HETATM   21  O1  UNL     1      25.432  -1.173  52.897  1.00  0.00    -0.344 OA
HETATM   22  H1  UNL     1      24.918  -0.457  52.402  1.00  0.00     0.219 HD
ENDBRANCH   1  21
TORSDOF 4
ENDMDL
