MODEL 1
REMARK VINA RESULT:      -8.8      0.000      0.000
REMARK  4 active torsions:
REMARK  status: ('A' for Active; 'I' for Inactive)
REMARK    1  A    between atoms: C3_3  and  C4_4 
REMARK       I    between atoms: C4_4  and  N1_6 
REMARK    2  A    between atoms: N1_6  and  C5_7 
REMARK    3  A    between atoms: C12_16  and  N4_17 
REMARK    4  A    between atoms: N4_17  and  C13_18 
ROOT
HETATM    1  C5  UNL     1      24.482   3.696  50.837  1.00  0.00     0.035 A 
HETATM    2  C6  UNL     1      23.304   3.749  50.096  1.00  0.00     0.032 A 
HETATM    3  C7  UNL     1      22.226   2.919  50.331  1.00  0.00     0.035 A 
HETATM    4  C8  UNL     1      22.334   1.997  51.354  1.00  0.00     0.069 A 
HETATM    5  N2  UNL     1      21.277   1.177  51.592  1.00  0.00    -0.259 NA
HETATM    6  C9  UNL     1      21.412   0.285  52.600  1.00  0.00     0.142 A 
HETATM    7  C10 UNL     1      22.540   0.152  53.394  1.00  0.00     0.089 A 
HETATM    8  C11 UNL     1      22.577  -0.834  54.441  1.00  0.00     0.103 C 
HETATM    9  N3  UNL     1      22.616  -1.618  55.301  1.00  0.00    -0.191 NA
HETATM   10  C12 UNL     1      23.618   1.007  53.132  1.00  0.00     0.067 A 
HETATM   11  C18 UNL     1      23.492   1.924  52.105  1.00  0.00     0.023 A 
HETATM   12  C19 UNL     1      24.553   2.761  51.851  1.00  0.00     0.045 A 
ENDROOT
BRANCH  10  13
HETATM   13  N4  UNL     1      24.791   0.912  53.915  1.00  0.00    -0.354 N 
HETATM   14  H10 UNL     1      24.991   1.415  54.822  1.00  0.00     0.166 HD
BRANCH  13  15
HETATM   15  C13 UNL     1      25.907   0.088  53.565  1.00  0.00     0.030 A 
HETATM   16  C14 UNL     1      25.899  -1.031  52.850  1.00  0.00     0.008 A 
HETATM   17  C15 UNL     1      27.237  -1.658  52.662  1.00  0.00     0.075 A 
HETATM   18  C16 UNL     1      28.078  -0.669  53.427  1.00  0.00    -0.006 A 
HETATM   19 BR1  UNL     1      29.967  -0.799  53.644  1.00  0.00    -0.055 Br
HETATM   20  C17 UNL     1      27.306   0.303  53.925  1.00  0.00     0.044 A 
ENDBRANCH  13  15
ENDBRANCH  10  13
BRANCH   1  21
HETATM   21  N1  UNL     1      25.484   4.633  50.446  1.00  0.00    -0.324 N 
HETATM   22  C4  UNL     1      26.362   3.988  49.502  1.00  0.00     0.245 C 
HETATM   23  O1  UNL     1      25.991   2.791  49.298  1.00  0.00    -0.268 OA
HETATM   24  H6  UNL     1      25.690   5.644  50.701  1.00  0.00     0.169 HD
BRANCH  22  25
HETATM   25  C3  UNL     1      27.518   4.664  48.885  1.00  0.00     0.070 C 
HETATM   26  C2  UNL     1      27.598   5.895  48.456  1.00  0.00    -0.026 C 
HETATM   27  C1  UNL     1      28.847   6.408  47.860  1.00  0.00     0.036 C 
ENDBRANCH  22  25
ENDBRANCH   1  21
TORSDOF 4
ENDMDL
MODEL 2
REMARK VINA RESULT:      -8.3      2.678      5.834
REMARK  4 active torsions:
REMARK  status: ('A' for Active; 'I' for Inactive)
REMARK    1  A    between atoms: C3_3  and  C4_4 
REMARK       I    between atoms: C4_4  and  N1_6 
REMARK    2  A    between atoms: N1_6  and  C5_7 
REMARK    3  A    between atoms: C12_16  and  N4_17 
REMARK    4  A    between atoms: N4_17  and  C13_18 
ROOT
HETATM    1  C5  UNL     1      24.349   0.296  53.451  1.00  0.00     0.035 A 
HETATM    2  C6  UNL     1      23.209  -0.502  53.396  1.00  0.00     0.032 A 
HETATM    3  C7  UNL     1      21.989  -0.046  52.940  1.00  0.00     0.035 A 
HETATM    4  C8  UNL     1      21.907   1.269  52.523  1.00  0.00     0.069 A 
HETATM    5  N2  UNL     1      20.710   1.725  52.073  1.00  0.00    -0.259 NA
HETATM    6  C9  UNL     1      20.661   3.016  51.670  1.00  0.00     0.142 A 
HETATM    7  C10 UNL     1      21.735   3.891  51.686  1.00  0.00     0.089 A 
HETATM    8  C11 UNL     1      21.572   5.247  51.235  1.00  0.00     0.103 C 
HETATM    9  N3  UNL     1      21.457   6.344  50.859  1.00  0.00    -0.191 NA
HETATM   10  C12 UNL     1      22.961   3.400  52.153  1.00  0.00     0.067 A 
HETATM   11  C18 UNL     1      23.023   2.082  52.567  1.00  0.00     0.023 A 
HETATM   12  C19 UNL     1      24.229   1.604  53.026  1.00  0.00     0.045 A 
ENDROOT
BRANCH  10  13
HETATM   13  N4  UNL     1      24.087   4.253  52.188  1.00  0.00    -0.354 N 
HETATM   14  H10 UNL     1      24.430   4.818  53.013  1.00  0.00     0.166 HD
BRANCH  13  15
HETATM   15  C13 UNL     1      24.947   4.471  51.065  1.00  0.00     0.030 A 
HETATM   16  C14 UNL     1      25.726   3.586  50.454  1.00  0.00     0.008 A 
HETATM   17  C15 UNL     1      26.505   4.130  49.308  1.00  0.00     0.075 A 
HETATM   18  C16 UNL     1      26.029   5.560  49.348  1.00  0.00    -0.006 A 
HETATM   19 BR1  UNL     1      26.601   6.922  48.144  1.00  0.00    -0.055 Br
HETATM   20  C17 UNL     1      25.153   5.724  50.346  1.00  0.00     0.044 A 
ENDBRANCH  13  15
ENDBRANCH  10  13
BRANCH   1  21
HETATM   21  N1  UNL     1      25.517  -0.352  53.951  1.00  0.00    -0.324 N 
HETATM   22  C4  UNL     1      26.503  -0.380  52.899  1.00  0.00     0.245 C 
HETATM   23  O1  UNL     1      26.049   0.174  51.851  1.00  0.00    -0.268 OA
HETATM   24  H6  UNL     1      25.779  -0.788  54.884  1.00  0.00     0.169 HD
BRANCH  22  25
HETATM   25  C3  UNL     1      27.840  -0.979  53.064  1.00  0.00     0.070 C 
HETATM   26  C2  UNL     1      28.883  -0.471  53.664  1.00  0.00    -0.026 C 
HETATM   27  C1  UNL     1      30.154  -1.218  53.734  1.00  0.00     0.036 C 
ENDBRANCH  22  25
ENDBRANCH   1  21
TORSDOF 4
ENDMDL
MODEL 3
REMARK VINA RESULT:      -8.0      3.165      6.630
REMARK  4 active torsions:
REMARK  status: ('A' for Active; 'I' for Inactive)
REMARK    1  A    between atoms: C3_3  and  C4_4 
REMARK       I    between atoms: C4_4  and  N1_6 
REMARK    2  A    between atoms: N1_6  and  C5_7 
REMARK    3  A    between atoms: C12_16  and  N4_17 
REMARK    4  A    between atoms: N4_17  and  C13_18 
ROOT
HETATM    1  C5  UNL     1      21.763   0.620  53.106  1.00  0.00     0.035 A 
HETATM    2  C6  UNL     1      21.902  -0.691  53.555  1.00  0.00     0.032 A 
HETATM    3  C7  UNL     1      23.107  -1.227  53.964  1.00  0.00     0.035 A 
HETATM    4  C8  UNL     1      24.222  -0.412  53.920  1.00  0.00     0.069 A 
HETATM    5  N2  UNL     1      25.411  -0.932  54.321  1.00  0.00    -0.259 NA
HETATM    6  C9  UNL     1      26.485  -0.111  54.267  1.00  0.00     0.142 A 
HETATM    7  C10 UNL     1      26.454   1.207  53.835  1.00  0.00     0.089 A 
HETATM    8  C11 UNL     1      27.658   1.992  53.818  1.00  0.00     0.103 C 
HETATM    9  N3  UNL     1      28.624   2.644  53.812  1.00  0.00    -0.191 NA
HETATM   10  C12 UNL     1      25.218   1.722  53.428  1.00  0.00     0.067 A 
HETATM   11  C18 UNL     1      24.112   0.892  53.478  1.00  0.00     0.023 A 
HETATM   12  C19 UNL     1      22.900   1.403  53.076  1.00  0.00     0.045 A 
ENDROOT
BRANCH  10  13
HETATM   13  N4  UNL     1      25.132   3.060  52.980  1.00  0.00    -0.354 N 
HETATM   14  H10 UNL     1      25.065   3.927  53.580  1.00  0.00     0.166 HD
BRANCH  13  15
HETATM   15  C13 UNL     1      25.125   3.430  51.598  1.00  0.00     0.030 A 
HETATM   16  C14 UNL     1      26.044   3.160  50.679  1.00  0.00     0.008 A 
HETATM   17  C15 UNL     1      25.741   3.690  49.321  1.00  0.00     0.075 A 
HETATM   18  C16 UNL     1      24.419   4.354  49.609  1.00  0.00    -0.006 A 
HETATM   19 BR1  UNL     1      23.373   5.282  48.315  1.00  0.00    -0.055 Br
HETATM   20  C17 UNL     1      24.096   4.193  50.897  1.00  0.00     0.044 A 
ENDBRANCH  13  15
ENDBRANCH  10  13
BRANCH   1  21
HETATM   21  N1  UNL     1      20.440   0.992  52.727  1.00  0.00    -0.324 N 
HETATM   22  C4  UNL     1      20.237   0.604  51.353  1.00  0.00     0.245 C 
HETATM   23  O1  UNL     1      21.283   0.052  50.889  1.00  0.00    -0.268 OA
HETATM   24  H6  UNL     1      19.633   1.467  53.230  1.00  0.00     0.169 HD
BRANCH  22  25
HETATM   25  C3  UNL     1      18.975   0.837  50.628  1.00  0.00     0.070 C 
HETATM   26  C2  UNL     1      17.943   0.043  50.532  1.00  0.00    -0.026 C 
HETATM   27  C1  UNL     1      16.752   0.442  49.756  1.00  0.00     0.036 C 
ENDBRANCH  22  25
ENDBRANCH   1  21
TORSDOF 4
ENDMDL
MODEL 4
REMARK VINA RESULT:      -8.0      2.955      5.788
REMARK  4 active torsions:
REMARK  status: ('A' for Active; 'I' for Inactive)
REMARK    1  A    between atoms: C3_3  and  C4_4 
REMARK       I    between atoms: C4_4  and  N1_6 
REMARK    2  A    between atoms: N1_6  and  C5_7 
REMARK    3  A    between atoms: C12_16  and  N4_17 
REMARK    4  A    between atoms: N4_17  and  C13_18 
ROOT
HETATM    1  C5  UNL     1      24.931  -0.787  53.936  1.00  0.00     0.035 A 
HETATM    2  C6  UNL     1      24.323  -1.258  55.097  1.00  0.00     0.032 A 
HETATM    3  C7  UNL     1      22.985  -1.070  55.380  1.00  0.00     0.035 A 
HETATM    4  C8  UNL     1      22.223  -0.377  54.458  1.00  0.00     0.069 A 
HETATM    5  N2  UNL     1      20.906  -0.189  54.729  1.00  0.00    -0.259 NA
HETATM    6  C9  UNL     1      20.185   0.492  53.808  1.00  0.00     0.142 A 
HETATM    7  C10 UNL     1      20.694   1.002  52.623  1.00  0.00     0.089 A 
HETATM    8  C11 UNL     1      19.836   1.712  51.713  1.00  0.00     0.103 C 
HETATM    9  N3  UNL     1      19.150   2.277  50.960  1.00  0.00    -0.191 NA
HETATM   10  C12 UNL     1      22.054   0.795  52.364  1.00  0.00     0.067 A 
HETATM   11  C18 UNL     1      22.801   0.100  53.298  1.00  0.00     0.023 A 
HETATM   12  C19 UNL     1      24.137  -0.100  53.038  1.00  0.00     0.045 A 
ENDROOT
BRANCH  10  13
HETATM   13  N4  UNL     1      22.621   1.294  51.169  1.00  0.00    -0.354 N 
HETATM   14  H10 UNL     1      22.644   0.813  50.228  1.00  0.00     0.166 HD
BRANCH  13  15
HETATM   15  C13 UNL     1      23.264   2.568  51.074  1.00  0.00     0.030 A 
HETATM   16  C14 UNL     1      23.073   3.634  51.843  1.00  0.00     0.008 A 
HETATM   17  C15 UNL     1      23.903   4.818  51.483  1.00  0.00     0.075 A 
HETATM   18  C16 UNL     1      24.654   4.239  50.311  1.00  0.00    -0.006 A 
HETATM   19 BR1  UNL     1      25.952   5.187  49.287  1.00  0.00    -0.055 Br
HETATM   20  C17 UNL     1      24.276   2.973  50.103  1.00  0.00     0.044 A 
ENDBRANCH  13  15
ENDBRANCH  10  13
BRANCH   1  21
HETATM   21  N1  UNL     1      26.322  -1.079  53.820  1.00  0.00    -0.324 N 
HETATM   22  C4  UNL     1      27.064   0.038  54.349  1.00  0.00     0.245 C 
HETATM   23  O1  UNL     1      26.272   0.943  54.758  1.00  0.00    -0.268 OA
HETATM   24  H6  UNL     1      26.875  -1.906  53.444  1.00  0.00     0.169 HD
BRANCH  22  25
HETATM   25  C3  UNL     1      28.537   0.080  54.389  1.00  0.00     0.070 C 
HETATM   26  C2  UNL     1      29.383  -0.619  53.681  1.00  0.00    -0.026 C 
HETATM   27  C1  UNL     1      30.839  -0.446  53.855  1.00  0.00     0.036 C 
ENDBRANCH  22  25
ENDBRANCH   1  21
TORSDOF 4
ENDMDL
MODEL 5
REMARK VINA RESULT:      -7.8      3.184      4.865
REMARK  4 active torsions:
REMARK  status: ('A' for Active; 'I' for Inactive)
REMARK    1  A    between atoms: C3_3  and  C4_4 
REMARK       I    between atoms: C4_4  and  N1_6 
REMARK    2  A    between atoms: N1_6  and  C5_7 
REMARK    3  A    between atoms: C12_16  and  N4_17 
REMARK    4  A    between atoms: N4_17  and  C13_18 
ROOT
HETATM    1  C5  UNL     1      25.323   3.236  51.252  1.00  0.00     0.035 A 
HETATM    2  C6  UNL     1      26.557   2.591  51.222  1.00  0.00     0.032 A 
HETATM    3  C7  UNL     1      26.781   1.361  51.808  1.00  0.00     0.035 A 
HETATM    4  C8  UNL     1      25.722   0.752  52.453  1.00  0.00     0.069 A 
HETATM    5  N2  UNL     1      25.934  -0.458  53.031  1.00  0.00    -0.259 NA
HETATM    6  C9  UNL     1      24.879  -1.030  53.655  1.00  0.00     0.142 A 
HETATM    7  C10 UNL     1      23.613  -0.472  53.742  1.00  0.00     0.089 A 
HETATM    8  C11 UNL     1      22.560  -1.168  54.431  1.00  0.00     0.103 C 
HETATM    9  N3  UNL     1      21.694  -1.727  54.974  1.00  0.00    -0.191 NA
HETATM   10  C12 UNL     1      23.415   0.776  53.138  1.00  0.00     0.067 A 
HETATM   11  C18 UNL     1      24.487   1.370  52.497  1.00  0.00     0.023 A 
HETATM   12  C19 UNL     1      24.288   2.597  51.906  1.00  0.00     0.045 A 
ENDROOT
BRANCH  10  13
HETATM   13  N4  UNL     1      22.143   1.387  53.197  1.00  0.00    -0.354 N 
HETATM   14  H10 UNL     1      21.827   2.131  53.878  1.00  0.00     0.166 HD
BRANCH  13  15
HETATM   15  C13 UNL     1      21.071   1.066  52.305  1.00  0.00     0.030 A 
HETATM   16  C14 UNL     1      21.028   1.239  50.990  1.00  0.00     0.008 A 
HETATM   17  C15 UNL     1      19.760   0.800  50.345  1.00  0.00     0.075 A 
HETATM   18  C16 UNL     1      19.023   0.313  51.566  1.00  0.00    -0.006 A 
HETATM   19 BR1  UNL     1      17.266  -0.423  51.544  1.00  0.00    -0.055 Br
HETATM   20  C17 UNL     1      19.783   0.474  52.655  1.00  0.00     0.044 A 
ENDBRANCH  13  15
ENDBRANCH  10  13
BRANCH   1  21
HETATM   21  N1  UNL     1      25.286   4.499  50.591  1.00  0.00    -0.324 N 
HETATM   22  C4  UNL     1      24.490   4.361  49.396  1.00  0.00     0.245 C 
HETATM   23  O1  UNL     1      24.062   3.171  49.284  1.00  0.00    -0.268 OA
HETATM   24  H6  UNL     1      25.703   5.455  50.798  1.00  0.00     0.169 HD
BRANCH  22  25
HETATM   25  C3  UNL     1      24.237   5.474  48.463  1.00  0.00     0.070 C 
HETATM   26  C2  UNL     1      24.843   6.629  48.403  1.00  0.00    -0.026 C 
HETATM   27  C1  UNL     1      24.455   7.636  47.395  1.00  0.00     0.036 C 
ENDBRANCH  22  25
ENDBRANCH   1  21
TORSDOF 4
ENDMDL
MODEL 6
REMARK VINA RESULT:      -7.7      2.725      4.877
REMARK  4 active torsions:
REMARK  status: ('A' for Active; 'I' for Inactive)
REMARK    1  A    between atoms: C3_3  and  C4_4 
REMARK       I    between atoms: C4_4  and  N1_6 
REMARK    2  A    between atoms: N1_6  and  C5_7 
REMARK    3  A    between atoms: C12_16  and  N4_17 
REMARK    4  A    between atoms: N4_17  and  C13_18 
ROOT
HETATM    1  C5  UNL     1      24.869   1.497  53.121  1.00  0.00     0.035 A 
HETATM    2  C6  UNL     1      25.399   0.480  53.911  1.00  0.00     0.032 A 
HETATM    3  C7  UNL     1      24.641  -0.555  54.420  1.00  0.00     0.035 A 
HETATM    4  C8  UNL     1      23.292  -0.570  54.125  1.00  0.00     0.069 A 
HETATM    5  N2  UNL     1      22.539  -1.585  54.622  1.00  0.00    -0.259 NA
HETATM    6  C9  UNL     1      21.221  -1.574  54.316  1.00  0.00     0.142 A 
HETATM    7  C10 UNL     1      20.596  -0.610  53.540  1.00  0.00     0.089 A 
HETATM    8  C11 UNL     1      19.185  -0.695  53.276  1.00  0.00     0.103 C 
HETATM    9  N3  UNL     1      18.046  -0.759  53.043  1.00  0.00    -0.191 NA
HETATM   10  C12 UNL     1      21.391   0.427  53.037  1.00  0.00     0.067 A 
HETATM   11  C18 UNL     1      22.740   0.426  53.343  1.00  0.00     0.023 A 
HETATM   12  C19 UNL     1      23.517   1.448  52.848  1.00  0.00     0.045 A 
ENDROOT
BRANCH  10  13
HETATM   13  N4  UNL     1      20.803   1.435  52.240  1.00  0.00    -0.354 N 
HETATM   14  H10 UNL     1      20.059   2.125  52.536  1.00  0.00     0.166 HD
BRANCH  13  15
HETATM   15  C13 UNL     1      21.151   1.661  50.871  1.00  0.00     0.030 A 
HETATM   16  C14 UNL     1      21.237   0.764  49.895  1.00  0.00     0.008 A 
HETATM   17  C15 UNL     1      21.628   1.321  48.570  1.00  0.00     0.075 A 
HETATM   18  C16 UNL     1      21.765   2.773  48.949  1.00  0.00    -0.006 A 
HETATM   19 BR1  UNL     1      22.256   4.162  47.740  1.00  0.00    -0.055 Br
HETATM   20  C17 UNL     1      21.492   2.937  50.249  1.00  0.00     0.044 A 
ENDBRANCH  13  15
ENDBRANCH  10  13
BRANCH   1  21
HETATM   21  N1  UNL     1      25.809   2.478  52.688  1.00  0.00    -0.324 N 
HETATM   22  C4  UNL     1      25.812   2.497  51.246  1.00  0.00     0.245 C 
HETATM   23  O1  UNL     1      24.987   1.645  50.791  1.00  0.00    -0.268 OA
HETATM   24  H6  UNL     1      26.461   3.150  53.191  1.00  0.00     0.169 HD
BRANCH  22  25
HETATM   25  C3  UNL     1      26.669   3.395  50.453  1.00  0.00     0.070 C 
HETATM   26  C2  UNL     1      26.352   4.079  49.387  1.00  0.00    -0.026 C 
HETATM   27  C1  UNL     1      27.348   4.936  48.714  1.00  0.00     0.036 C 
ENDBRANCH  22  25
ENDBRANCH   1  21
TORSDOF 4
ENDMDL
MODEL 7
REMARK VINA RESULT:      -7.6      3.599      7.778
REMARK  4 active torsions:
REMARK  status: ('A' for Active; 'I' for Inactive)
REMARK    1  A    between atoms: C3_3  and  C4_4 
REMARK       I    between atoms: C4_4  and  N1_6 
REMARK    2  A    between atoms: N1_6  and  C5_7 
REMARK    3  A    between atoms: C12_16  and  N4_17 
REMARK    4  A    between atoms: N4_17  and  C13_18 
ROOT
HETATM    1  C5  UNL     1      22.246   0.956  52.787  1.00  0.00     0.035 A 
HETATM    2  C6  UNL     1      23.156   0.048  53.323  1.00  0.00     0.032 A 
HETATM    3  C7  UNL     1      24.510   0.088  53.056  1.00  0.00     0.035 A 
HETATM    4  C8  UNL     1      24.972   1.082  52.214  1.00  0.00     0.069 A 
HETATM    5  N2  UNL     1      26.302   1.128  51.947  1.00  0.00    -0.259 NA
HETATM    6  C9  UNL     1      26.725   2.112  51.120  1.00  0.00     0.142 A 
HETATM    7  C10 UNL     1      25.902   3.062  50.535  1.00  0.00     0.089 A 
HETATM    8  C11 UNL     1      26.458   4.067  49.669  1.00  0.00     0.103 C 
HETATM    9  N3  UNL     1      26.896   4.895  48.976  1.00  0.00    -0.191 NA
HETATM   10  C12 UNL     1      24.534   2.997  50.825  1.00  0.00     0.067 A 
HETATM   11  C18 UNL     1      24.090   1.996  51.669  1.00  0.00     0.023 A 
HETATM   12  C19 UNL     1      22.745   1.935  51.950  1.00  0.00     0.045 A 
ENDROOT
BRANCH  10  13
HETATM   13  N4  UNL     1      23.653   3.944  50.254  1.00  0.00    -0.354 N 
HETATM   14  H10 UNL     1      23.325   4.849  50.690  1.00  0.00     0.166 HD
BRANCH  13  15
HETATM   15  C13 UNL     1      23.066   3.793  48.958  1.00  0.00     0.030 A 
HETATM   16  C14 UNL     1      22.656   2.672  48.377  1.00  0.00     0.008 A 
HETATM   17  C15 UNL     1      22.086   2.851  47.012  1.00  0.00     0.075 A 
HETATM   18  C16 UNL     1      22.237   4.345  46.881  1.00  0.00    -0.006 A 
HETATM   19 BR1  UNL     1      21.710   5.352  45.352  1.00  0.00    -0.055 Br
HETATM   20  C17 UNL     1      22.791   4.850  47.989  1.00  0.00     0.044 A 
ENDBRANCH  13  15
ENDBRANCH  10  13
BRANCH   1  21
HETATM   21  N1  UNL     1      20.890   0.754  53.178  1.00  0.00    -0.324 N 
HETATM   22  C4  UNL     1      20.170   0.211  52.053  1.00  0.00     0.245 C 
HETATM   23  O1  UNL     1      20.945   0.074  51.056  1.00  0.00    -0.268 OA
HETATM   24  H6  UNL     1      20.348   0.917  54.078  1.00  0.00     0.169 HD
BRANCH  22  25
HETATM   25  C3  UNL     1      18.735  -0.122  52.099  1.00  0.00     0.070 C 
HETATM   26  C2  UNL     1      18.126  -0.955  52.899  1.00  0.00    -0.026 C 
HETATM   27  C1  UNL     1      16.668  -1.168  52.803  1.00  0.00     0.036 C 
ENDBRANCH  22  25
ENDBRANCH   1  21
TORSDOF 4
ENDMDL
MODEL 8
REMARK VINA RESULT:      -7.6      2.957      6.396
REMARK  4 active torsions:
REMARK  status: ('A' for Active; 'I' for Inactive)
REMARK    1  A    between atoms: C3_3  and  C4_4 
REMARK       I    between atoms: C4_4  and  N1_6 
REMARK    2  A    between atoms: N1_6  and  C5_7 
REMARK    3  A    between atoms: C12_16  and  N4_17 
REMARK    4  A    between atoms: N4_17  and  C13_18 
ROOT
HETATM    1  C5  UNL     1      24.800   1.292  52.663  1.00  0.00     0.035 A 
HETATM    2  C6  UNL     1      23.691   0.500  52.951  1.00  0.00     0.032 A 
HETATM    3  C7  UNL     1      22.540   0.507  52.190  1.00  0.00     0.035 A 
HETATM    4  C8  UNL     1      22.498   1.344  51.092  1.00  0.00     0.069 A 
HETATM    5  N2  UNL     1      21.369   1.356  50.337  1.00  0.00    -0.259 NA
HETATM    6  C9  UNL     1      21.357   2.186  49.269  1.00  0.00     0.142 A 
HETATM    7  C10 UNL     1      22.406   3.013  48.898  1.00  0.00     0.089 A 
HETATM    8  C11 UNL     1      22.287   3.858  47.739  1.00  0.00     0.103 C 
HETATM    9  N3  UNL     1      22.210   4.537  46.796  1.00  0.00    -0.191 NA
HETATM   10  C12 UNL     1      23.561   2.985  49.688  1.00  0.00     0.067 A 
HETATM   11  C18 UNL     1      23.585   2.140  50.783  1.00  0.00     0.023 A 
HETATM   12  C19 UNL     1      24.721   2.117  51.558  1.00  0.00     0.045 A 
ENDROOT
BRANCH  10  13
HETATM   13  N4  UNL     1      24.659   3.809  49.352  1.00  0.00    -0.354 N 
HETATM   14  H10 UNL     1      25.477   3.555  48.733  1.00  0.00     0.166 HD
BRANCH  13  15
HETATM   15  C13 UNL     1      24.812   5.150  49.825  1.00  0.00     0.030 A 
HETATM   16  C14 UNL     1      24.020   5.813  50.660  1.00  0.00     0.008 A 
HETATM   17  C15 UNL     1      24.456   7.206  50.958  1.00  0.00     0.075 A 
HETATM   18  C16 UNL     1      25.703   7.255  50.113  1.00  0.00    -0.006 A 
HETATM   19 BR1  UNL     1      26.850   8.770  49.969  1.00  0.00    -0.055 Br
HETATM   20  C17 UNL     1      25.879   6.086  49.486  1.00  0.00     0.044 A 
ENDBRANCH  13  15
ENDBRANCH  10  13
BRANCH   1  21
HETATM   21  N1  UNL     1      25.896   1.148  53.564  1.00  0.00    -0.324 N 
HETATM   22  C4  UNL     1      26.837   0.220  52.987  1.00  0.00     0.245 C 
HETATM   23  O1  UNL     1      26.419  -0.191  51.860  1.00  0.00    -0.268 OA
HETATM   24  H6  UNL     1      26.133   1.565  54.513  1.00  0.00     0.169 HD
BRANCH  22  25
HETATM   25  C3  UNL     1      28.095  -0.168  53.649  1.00  0.00     0.070 C 
HETATM   26  C2  UNL     1      29.023  -0.975  53.207  1.00  0.00    -0.026 C 
HETATM   27  C1  UNL     1      30.229  -1.253  54.012  1.00  0.00     0.036 C 
ENDBRANCH  22  25
ENDBRANCH   1  21
TORSDOF 4
ENDMDL
MODEL 9
REMARK VINA RESULT:      -7.5      4.690      7.759
REMARK  4 active torsions:
REMARK  status: ('A' for Active; 'I' for Inactive)
REMARK    1  A    between atoms: C3_3  and  C4_4 
REMARK       I    between atoms: C4_4  and  N1_6 
REMARK    2  A    between atoms: N1_6  and  C5_7 
REMARK    3  A    between atoms: C12_16  and  N4_17 
REMARK    4  A    between atoms: N4_17  and  C13_18 
ROOT
HETATM    1  C5  UNL     1      29.942   7.035  47.908  1.00  0.00     0.035 A 
HETATM    2  C6  UNL     1      30.437   8.255  48.362  1.00  0.00     0.032 A 
HETATM    3  C7  UNL     1      29.665   9.180  49.036  1.00  0.00     0.035 A 
HETATM    4  C8  UNL     1      28.338   8.869  49.264  1.00  0.00     0.069 A 
HETATM    5  N2  UNL     1      27.573   9.773  49.927  1.00  0.00    -0.259 NA
HETATM    6  C9  UNL     1      26.278   9.441  50.136  1.00  0.00     0.142 A 
HETATM    7  C10 UNL     1      25.689   8.255  49.725  1.00  0.00     0.089 A 
HETATM    8  C11 UNL     1      24.300   8.002  50.000  1.00  0.00     0.103 C 
HETATM    9  N3  UNL     1      23.180   7.778  50.228  1.00  0.00    -0.191 NA
HETATM   10  C12 UNL     1      26.497   7.336  49.044  1.00  0.00     0.067 A 
HETATM   11  C18 UNL     1      27.822   7.665  48.825  1.00  0.00     0.023 A 
HETATM   12  C19 UNL     1      28.611   6.759  48.154  1.00  0.00     0.045 A 
ENDROOT
BRANCH  10  13
HETATM   13  N4  UNL     1      25.944   6.111  48.605  1.00  0.00    -0.354 N 
HETATM   14  H10 UNL     1      25.496   5.917  47.668  1.00  0.00     0.166 HD
BRANCH  13  15
HETATM   15  C13 UNL     1      25.919   4.925  49.405  1.00  0.00     0.030 A 
HETATM   16  C14 UNL     1      26.787   3.920  49.396  1.00  0.00     0.008 A 
HETATM   17  C15 UNL     1      26.478   2.823  50.355  1.00  0.00     0.075 A 
HETATM   18  C16 UNL     1      25.216   3.380  50.963  1.00  0.00    -0.006 A 
HETATM   19 BR1  UNL     1      24.198   2.513  52.319  1.00  0.00    -0.055 Br
HETATM   20  C17 UNL     1      24.924   4.563  50.410  1.00  0.00     0.044 A 
ENDBRANCH  13  15
ENDBRANCH  10  13
BRANCH   1  21
HETATM   21  N1  UNL     1      30.891   6.212  47.233  1.00  0.00    -0.324 N 
HETATM   22  C4  UNL     1      31.506   5.342  48.205  1.00  0.00     0.245 C 
HETATM   23  O1  UNL     1      31.030   5.562  49.361  1.00  0.00    -0.268 OA
HETATM   24  H6  UNL     1      31.207   6.124  46.222  1.00  0.00     0.169 HD
BRANCH  22  25
HETATM   25  C3  UNL     1      32.542   4.352  47.859  1.00  0.00     0.070 C 
HETATM   26  C2  UNL     1      33.839   4.506  47.865  1.00  0.00    -0.026 C 
HETATM   27  C1  UNL     1      34.734   3.395  47.485  1.00  0.00     0.036 C 
ENDBRANCH  22  25
ENDBRANCH   1  21
TORSDOF 4
ENDMDL
