MODEL 1
REMARK VINA RESULT:      -7.6      0.000      0.000
REMARK  6 active torsions:
REMARK  status: ('A' for Active; 'I' for Inactive)
REMARK    1  A    between atoms: C2_2  and  O1_3 
REMARK    2  A    between atoms: O1_3  and  C3_4 
REMARK    3  A    between atoms: C8_11  and  N3_12 
REMARK    4  A    between atoms: C9_13  and  C10_14 
REMARK    5  A    between atoms: C13_17  and  O2_18 
REMARK    6  A    between atoms: C14_19  and  O3_20 
ROOT
HETATM    1  C3  UNL     1      22.590   4.602  50.686  1.00  0.00     0.252 C 
HETATM    2  N1  UNL     1      22.070   3.740  49.588  1.00  0.00    -0.362 N 
HETATM    3  C4  UNL     1      22.539   2.429  50.063  1.00  0.00     0.028 C 
HETATM    4  C5  UNL     1      23.784   2.654  50.570  1.00  0.00     0.037 C 
HETATM    5  C6  UNL     1      23.103   3.499  51.596  1.00  0.00     0.088 C 
HETATM    6  C7  UNL     1      24.028   4.027  52.652  1.00  0.00     0.047 C 
HETATM    7  N2  UNL     1      22.036   2.692  52.127  1.00  0.00    -0.384 N 
HETATM    8  C8  UNL     1      22.370   1.475  52.740  1.00  0.00     0.205 C 
HETATM    9  C17 UNL     1      21.556   0.241  52.350  1.00  0.00     0.075 C 
HETATM   10  C18 UNL     1      21.405   0.183  50.840  1.00  0.00    -0.021 C 
HETATM   11  C19 UNL     1      21.672   1.199  49.961  1.00  0.00     0.025 C 
HETATM   12  H7  UNL     1      21.525   3.703  48.664  1.00  0.00     0.162 HD
HETATM   13  H12 UNL     1      21.275   3.244  52.566  1.00  0.00     0.156 HD
ENDROOT
BRANCH   8  14
HETATM   14  N3  UNL     1      23.786   1.135  52.747  1.00  0.00    -0.275 NA
HETATM   15  C9  UNL     1      24.235   0.138  53.430  1.00  0.00     0.124 C 
BRANCH  15  16
HETATM   16  C10 UNL     1      25.648  -0.223  53.454  1.00  0.00    -0.016 A 
HETATM   17  C11 UNL     1      26.141  -1.285  52.735  1.00  0.00     0.016 A 
HETATM   18  C12 UNL     1      27.491  -1.566  52.809  1.00  0.00     0.040 A 
HETATM   19  C13 UNL     1      28.401  -0.841  53.568  1.00  0.00     0.099 A 
HETATM   20  C14 UNL     1      27.891   0.219  54.282  1.00  0.00     0.102 A 
HETATM   21  C16 UNL     1      26.533   0.508  54.214  1.00  0.00     0.052 A 
BRANCH  19  22
HETATM   22  O2  UNL     1      29.739  -1.212  53.569  1.00  0.00    -0.358 OA
HETATM   23  H17 UNL     1      30.401  -0.872  52.892  1.00  0.00     0.217 HD
ENDBRANCH  19  22
BRANCH  20  24
HETATM   24  O3  UNL     1      28.766   0.970  55.055  1.00  0.00    -0.353 OA
HETATM   25  C15 UNL     1      29.467   2.086  54.523  1.00  0.00     0.210 C 
ENDBRANCH  20  24
ENDBRANCH  15  16
ENDBRANCH   8  14
BRANCH   1  26
HETATM   26  O1  UNL     1      21.547   5.236  51.332  1.00  0.00    -0.364 OA
BRANCH  26  27
HETATM   27  C2  UNL     1      20.994   6.262  50.563  1.00  0.00     0.166 C 
HETATM   28  C1  UNL     1      21.913   7.463  50.634  1.00  0.00     0.033 C 
ENDBRANCH  26  27
ENDBRANCH   1  26
TORSDOF 6
ENDMDL
MODEL 2
REMARK VINA RESULT:      -7.5      1.875      3.030
REMARK  6 active torsions:
REMARK  status: ('A' for Active; 'I' for Inactive)
REMARK    1  A    between atoms: C2_2  and  O1_3 
REMARK    2  A    between atoms: O1_3  and  C3_4 
REMARK    3  A    between atoms: C8_11  and  N3_12 
REMARK    4  A    between atoms: C9_13  and  C10_14 
REMARK    5  A    between atoms: C13_17  and  O2_18 
REMARK    6  A    between atoms: C14_19  and  O3_20 
ROOT
HETATM    1  C3  UNL     1      23.306   5.339  50.051  1.00  0.00     0.252 C 
HETATM    2  N1  UNL     1      23.636   4.683  48.754  1.00  0.00    -0.362 N 
HETATM    3  C4  UNL     1      23.399   3.278  49.122  1.00  0.00     0.028 C 
HETATM    4  C5  UNL     1      23.886   3.151  50.389  1.00  0.00     0.037 C 
HETATM    5  C6  UNL     1      22.810   4.107  50.789  1.00  0.00     0.088 C 
HETATM    6  C7  UNL     1      22.729   4.336  52.269  1.00  0.00     0.047 C 
HETATM    7  N2  UNL     1      21.592   3.588  50.226  1.00  0.00    -0.384 N 
HETATM    8  C8  UNL     1      21.179   2.305  50.614  1.00  0.00     0.205 C 
HETATM    9  C17 UNL     1      20.739   1.341  49.511  1.00  0.00     0.075 C 
HETATM   10  C18 UNL     1      21.738   1.380  48.368  1.00  0.00    -0.021 C 
HETATM   11  C19 UNL     1      22.714   2.322  48.178  1.00  0.00     0.025 C 
HETATM   12  H7  UNL     1      23.948   4.824  47.736  1.00  0.00     0.162 HD
HETATM   13  H12 UNL     1      20.849   4.303  50.109  1.00  0.00     0.156 HD
ENDROOT
BRANCH   8  14
HETATM   14  N3  UNL     1      22.060   1.606  51.540  1.00  0.00    -0.275 NA
HETATM   15  C9  UNL     1      21.592   0.845  52.469  1.00  0.00     0.124 C 
BRANCH  15  16
HETATM   16  C10 UNL     1      22.453   0.135  53.409  1.00  0.00    -0.016 A 
HETATM   17  C11 UNL     1      21.942  -0.589  54.459  1.00  0.00     0.016 A 
HETATM   18  C12 UNL     1      22.820  -1.234  55.308  1.00  0.00     0.040 A 
HETATM   19  C13 UNL     1      24.203  -1.205  55.174  1.00  0.00     0.099 A 
HETATM   20  C14 UNL     1      24.697  -0.475  54.118  1.00  0.00     0.102 A 
HETATM   21  C16 UNL     1      23.820   0.178  53.259  1.00  0.00     0.052 A 
BRANCH  19  22
HETATM   22  O2  UNL     1      24.993  -1.891  56.087  1.00  0.00    -0.358 OA
HETATM   23  H17 UNL     1      24.632  -2.271  56.946  1.00  0.00     0.217 HD
ENDBRANCH  19  22
BRANCH  20  24
HETATM   24  O3  UNL     1      26.074  -0.418  53.948  1.00  0.00    -0.353 OA
HETATM   25  C15 UNL     1      26.719  -1.040  52.845  1.00  0.00     0.210 C 
ENDBRANCH  20  24
ENDBRANCH  15  16
ENDBRANCH   8  14
BRANCH   1  26
HETATM   26  O1  UNL     1      22.237   6.198  49.893  1.00  0.00    -0.364 OA
BRANCH  26  27
HETATM   27  C2  UNL     1      22.629   7.539  49.916  1.00  0.00     0.166 C 
HETATM   28  C1  UNL     1      23.827   7.673  50.831  1.00  0.00     0.033 C 
ENDBRANCH  26  27
ENDBRANCH   1  26
TORSDOF 6
ENDMDL
MODEL 3
REMARK VINA RESULT:      -7.4      1.547      2.026
REMARK  6 active torsions:
REMARK  status: ('A' for Active; 'I' for Inactive)
REMARK    1  A    between atoms: C2_2  and  O1_3 
REMARK    2  A    between atoms: O1_3  and  C3_4 
REMARK    3  A    between atoms: C8_11  and  N3_12 
REMARK    4  A    between atoms: C9_13  and  C10_14 
REMARK    5  A    between atoms: C13_17  and  O2_18 
REMARK    6  A    between atoms: C14_19  and  O3_20 
ROOT
HETATM    1  C3  UNL     1      22.894   5.304  49.033  1.00  0.00     0.252 C 
HETATM    2  N1  UNL     1      22.829   4.429  47.830  1.00  0.00    -0.362 N 
HETATM    3  C4  UNL     1      22.965   3.114  48.475  1.00  0.00     0.028 C 
HETATM    4  C5  UNL     1      23.893   3.289  49.458  1.00  0.00     0.037 C 
HETATM    5  C6  UNL     1      22.901   4.211  50.088  1.00  0.00     0.088 C 
HETATM    6  C7  UNL     1      23.329   4.729  51.430  1.00  0.00     0.047 C 
HETATM    7  N2  UNL     1      21.659   3.486  50.129  1.00  0.00    -0.384 N 
HETATM    8  C8  UNL     1      21.621   2.278  50.841  1.00  0.00     0.205 C 
HETATM    9  C17 UNL     1      20.966   1.076  50.160  1.00  0.00     0.075 C 
HETATM   10  C18 UNL     1      21.462   0.967  48.728  1.00  0.00    -0.021 C 
HETATM   11  C19 UNL     1      22.142   1.930  48.032  1.00  0.00     0.025 C 
HETATM   12  H7  UNL     1      22.722   4.385  46.762  1.00  0.00     0.162 HD
HETATM   13  H12 UNL     1      20.822   4.096  50.198  1.00  0.00     0.156 HD
ENDROOT
BRANCH   8  14
HETATM   14  N3  UNL     1      22.877   1.861  51.451  1.00  0.00    -0.275 NA
HETATM   15  C9  UNL     1      22.906   1.292  52.607  1.00  0.00     0.124 C 
BRANCH  15  16
HETATM   16  C10 UNL     1      24.149   0.865  53.240  1.00  0.00    -0.016 A 
HETATM   17  C11 UNL     1      24.352  -0.432  53.646  1.00  0.00     0.016 A 
HETATM   18  C12 UNL     1      25.556  -0.760  54.239  1.00  0.00     0.040 A 
HETATM   19  C13 UNL     1      26.593   0.139  54.455  1.00  0.00     0.099 A 
HETATM   20  C14 UNL     1      26.373   1.433  54.043  1.00  0.00     0.102 A 
HETATM   21  C16 UNL     1      25.164   1.772  53.446  1.00  0.00     0.052 A 
BRANCH  19  22
HETATM   22  O2  UNL     1      27.763  -0.300  55.060  1.00  0.00    -0.358 OA
HETATM   23  H17 UNL     1      27.806  -0.585  56.024  1.00  0.00     0.217 HD
ENDBRANCH  19  22
BRANCH  20  24
HETATM   24  O3  UNL     1      27.384   2.364  54.241  1.00  0.00    -0.353 OA
HETATM   25  C15 UNL     1      28.536   2.407  53.411  1.00  0.00     0.210 C 
ENDBRANCH  20  24
ENDBRANCH  15  16
ENDBRANCH   8  14
BRANCH   1  26
HETATM   26  O1  UNL     1      21.722   6.019  49.169  1.00  0.00    -0.364 OA
BRANCH  26  27
HETATM   27  C2  UNL     1      21.859   7.346  48.754  1.00  0.00     0.166 C 
HETATM   28  C1  UNL     1      22.534   8.126  49.862  1.00  0.00     0.033 C 
ENDBRANCH  26  27
ENDBRANCH   1  26
TORSDOF 6
ENDMDL
MODEL 4
REMARK VINA RESULT:      -7.4      1.933      3.328
REMARK  6 active torsions:
REMARK  status: ('A' for Active; 'I' for Inactive)
REMARK    1  A    between atoms: C2_2  and  O1_3 
REMARK    2  A    between atoms: O1_3  and  C3_4 
REMARK    3  A    between atoms: C8_11  and  N3_12 
REMARK    4  A    between atoms: C9_13  and  C10_14 
REMARK    5  A    between atoms: C13_17  and  O2_18 
REMARK    6  A    between atoms: C14_19  and  O3_20 
ROOT
HETATM    1  C3  UNL     1      21.414   5.964  51.266  1.00  0.00     0.252 C 
HETATM    2  N1  UNL     1      22.697   6.721  51.319  1.00  0.00    -0.362 N 
HETATM    3  C4  UNL     1      23.638   5.599  51.453  1.00  0.00     0.028 C 
HETATM    4  C5  UNL     1      23.033   4.720  52.300  1.00  0.00     0.037 C 
HETATM    5  C6  UNL     1      21.998   4.563  51.234  1.00  0.00     0.088 C 
HETATM    6  C7  UNL     1      20.967   3.519  51.546  1.00  0.00     0.047 C 
HETATM    7  N2  UNL     1      22.722   4.302  50.018  1.00  0.00    -0.384 N 
HETATM    8  C8  UNL     1      23.549   3.170  49.971  1.00  0.00     0.205 C 
HETATM    9  C17 UNL     1      24.960   3.350  49.409  1.00  0.00     0.075 C 
HETATM   10  C18 UNL     1      25.597   4.591  50.010  1.00  0.00    -0.021 C 
HETATM   11  C19 UNL     1      24.948   5.577  50.705  1.00  0.00     0.025 C 
HETATM   12  H7  UNL     1      23.165   7.687  51.291  1.00  0.00     0.162 HD
HETATM   13  H12 UNL     1      22.186   4.526  49.158  1.00  0.00     0.156 HD
ENDROOT
BRANCH   8  14
HETATM   14  N3  UNL     1      23.615   2.380  51.192  1.00  0.00    -0.275 NA
HETATM   15  C9  UNL     1      24.566   1.533  51.395  1.00  0.00     0.124 C 
BRANCH  15  16
HETATM   16  C10 UNL     1      24.653   0.729  52.609  1.00  0.00    -0.016 A 
HETATM   17  C11 UNL     1      23.567   0.059  53.118  1.00  0.00     0.016 A 
HETATM   18  C12 UNL     1      23.727  -0.683  54.273  1.00  0.00     0.040 A 
HETATM   19  C13 UNL     1      24.925  -0.803  54.965  1.00  0.00     0.099 A 
HETATM   20  C14 UNL     1      26.003  -0.126  54.442  1.00  0.00     0.102 A 
HETATM   21  C16 UNL     1      25.850   0.623  53.281  1.00  0.00     0.052 A 
BRANCH  19  22
HETATM   22  O2  UNL     1      24.974  -1.577  56.118  1.00  0.00    -0.358 OA
HETATM   23  H17 UNL     1      24.333  -1.457  56.884  1.00  0.00     0.217 HD
ENDBRANCH  19  22
BRANCH  20  24
HETATM   24  O3  UNL     1      27.220  -0.219  55.104  1.00  0.00    -0.353 OA
HETATM   25  C15 UNL     1      28.455  -0.006  54.434  1.00  0.00     0.210 C 
ENDBRANCH  20  24
ENDBRANCH  15  16
ENDBRANCH   8  14
BRANCH   1  26
HETATM   26  O1  UNL     1      20.776   6.187  50.063  1.00  0.00    -0.364 OA
BRANCH  26  27
HETATM   27  C2  UNL     1      20.926   7.503  49.619  1.00  0.00     0.166 C 
HETATM   28  C1  UNL     1      19.552   8.075  49.345  1.00  0.00     0.033 C 
ENDBRANCH  26  27
ENDBRANCH   1  26
TORSDOF 6
ENDMDL
MODEL 5
REMARK VINA RESULT:      -7.2      2.204      2.949
REMARK  6 active torsions:
REMARK  status: ('A' for Active; 'I' for Inactive)
REMARK    1  A    between atoms: C2_2  and  O1_3 
REMARK    2  A    between atoms: O1_3  and  C3_4 
REMARK    3  A    between atoms: C8_11  and  N3_12 
REMARK    4  A    between atoms: C9_13  and  C10_14 
REMARK    5  A    between atoms: C13_17  and  O2_18 
REMARK    6  A    between atoms: C14_19  and  O3_20 
ROOT
HETATM    1  C3  UNL     1      21.103   2.557  47.876  1.00  0.00     0.252 C 
HETATM    2  N1  UNL     1      19.962   1.757  48.403  1.00  0.00    -0.362 N 
HETATM    3  C4  UNL     1      20.453   1.495  49.764  1.00  0.00     0.028 C 
HETATM    4  C5  UNL     1      21.787   1.248  49.624  1.00  0.00     0.037 C 
HETATM    5  C6  UNL     1      21.897   2.666  49.167  1.00  0.00     0.088 C 
HETATM    6  C7  UNL     1      23.308   3.110  48.921  1.00  0.00     0.047 C 
HETATM    7  N2  UNL     1      21.217   3.454  50.160  1.00  0.00    -0.384 N 
HETATM    8  C8  UNL     1      21.686   3.402  51.481  1.00  0.00     0.205 C 
HETATM    9  C17 UNL     1      20.651   3.214  52.591  1.00  0.00     0.075 C 
HETATM   10  C18 UNL     1      19.681   2.110  52.205  1.00  0.00    -0.021 C 
HETATM   11  C19 UNL     1      19.535   1.561  50.959  1.00  0.00     0.025 C 
HETATM   12  H7  UNL     1      18.995   1.337  48.196  1.00  0.00     0.162 HD
HETATM   13  H12 UNL     1      20.901   4.380  49.812  1.00  0.00     0.156 HD
ENDROOT
BRANCH   8  14
HETATM   14  N3  UNL     1      22.815   2.512  51.719  1.00  0.00    -0.275 NA
HETATM   15  C9  UNL     1      23.339   2.391  52.891  1.00  0.00     0.124 C 
BRANCH  15  16
HETATM   16  C10 UNL     1      24.470   1.508  53.155  1.00  0.00    -0.016 A 
HETATM   17  C11 UNL     1      24.420   0.161  52.888  1.00  0.00     0.016 A 
HETATM   18  C12 UNL     1      25.531  -0.611  53.166  1.00  0.00     0.040 A 
HETATM   19  C13 UNL     1      26.714  -0.117  53.703  1.00  0.00     0.099 A 
HETATM   20  C14 UNL     1      26.746   1.234  53.965  1.00  0.00     0.102 A 
HETATM   21  C16 UNL     1      25.633   2.018  53.688  1.00  0.00     0.052 A 
BRANCH  19  22
HETATM   22  O2  UNL     1      27.771  -0.985  53.943  1.00  0.00    -0.358 OA
HETATM   23  H17 UNL     1      28.112  -1.188  54.868  1.00  0.00     0.217 HD
ENDBRANCH  19  22
BRANCH  20  24
HETATM   24  O3  UNL     1      27.909   1.769  54.503  1.00  0.00    -0.353 OA
HETATM   25  C15 UNL     1      28.849   2.474  53.703  1.00  0.00     0.210 C 
ENDBRANCH  20  24
ENDBRANCH  15  16
ENDBRANCH   8  14
BRANCH   1  26
HETATM   26  O1  UNL     1      20.679   3.824  47.530  1.00  0.00    -0.364 OA
BRANCH  26  27
HETATM   27  C2  UNL     1      20.576   3.989  46.147  1.00  0.00     0.166 C 
HETATM   28  C1  UNL     1      21.926   3.693  45.528  1.00  0.00     0.033 C 
ENDBRANCH  26  27
ENDBRANCH   1  26
TORSDOF 6
ENDMDL
MODEL 6
REMARK VINA RESULT:      -7.2      2.185      3.765
REMARK  6 active torsions:
REMARK  status: ('A' for Active; 'I' for Inactive)
REMARK    1  A    between atoms: C2_2  and  O1_3 
REMARK    2  A    between atoms: O1_3  and  C3_4 
REMARK    3  A    between atoms: C8_11  and  N3_12 
REMARK    4  A    between atoms: C9_13  and  C10_14 
REMARK    5  A    between atoms: C13_17  and  O2_18 
REMARK    6  A    between atoms: C14_19  and  O3_20 
ROOT
HETATM    1  C3  UNL     1      21.348   4.956  51.368  1.00  0.00     0.252 C 
HETATM    2  N1  UNL     1      22.030   6.273  51.517  1.00  0.00    -0.362 N 
HETATM    3  C4  UNL     1      23.430   5.822  51.542  1.00  0.00     0.028 C 
HETATM    4  C5  UNL     1      23.427   4.678  52.283  1.00  0.00     0.037 C 
HETATM    5  C6  UNL     1      22.587   4.095  51.194  1.00  0.00     0.088 C 
HETATM    6  C7  UNL     1      22.288   2.637  51.379  1.00  0.00     0.047 C 
HETATM    7  N2  UNL     1      23.281   4.382  49.966  1.00  0.00    -0.384 N 
HETATM    8  C8  UNL     1      24.581   3.880  49.808  1.00  0.00     0.205 C 
HETATM    9  C17 UNL     1      25.650   4.840  49.286  1.00  0.00     0.075 C 
HETATM   10  C18 UNL     1      25.554   6.164  50.024  1.00  0.00    -0.021 C 
HETATM   11  C19 UNL     1      24.513   6.577  50.812  1.00  0.00     0.025 C 
HETATM   12  H7  UNL     1      21.909   7.336  51.599  1.00  0.00     0.162 HD
HETATM   13  H12 UNL     1      22.669   4.366  49.128  1.00  0.00     0.156 HD
ENDROOT
BRANCH   8  14
HETATM   14  N3  UNL     1      25.115   3.133  50.938  1.00  0.00    -0.275 NA
HETATM   15  C9  UNL     1      26.327   2.692  50.941  1.00  0.00     0.124 C 
BRANCH  15  16
HETATM   16  C10 UNL     1      26.885   1.941  52.060  1.00  0.00    -0.016 A 
HETATM   17  C11 UNL     1      28.050   2.321  52.682  1.00  0.00     0.016 A 
HETATM   18  C12 UNL     1      28.518   1.559  53.735  1.00  0.00     0.040 A 
HETATM   19  C13 UNL     1      27.885   0.420  54.219  1.00  0.00     0.099 A 
HETATM   20  C14 UNL     1      26.720   0.055  53.585  1.00  0.00     0.102 A 
HETATM   21  C16 UNL     1      26.243   0.816  52.524  1.00  0.00     0.052 A 
BRANCH  19  22
HETATM   22  O2  UNL     1      28.444  -0.271  55.286  1.00  0.00    -0.358 OA
HETATM   23  H17 UNL     1      29.245   0.063  55.794  1.00  0.00     0.217 HD
ENDBRANCH  19  22
BRANCH  20  24
HETATM   24  O3  UNL     1      26.055  -1.078  54.037  1.00  0.00    -0.353 OA
HETATM   25  C15 UNL     1      24.851  -0.991  54.786  1.00  0.00     0.210 C 
ENDBRANCH  20  24
ENDBRANCH  15  16
ENDBRANCH   8  14
BRANCH   1  26
HETATM   26  O1  UNL     1      20.634   4.918  50.188  1.00  0.00    -0.364 OA
BRANCH  26  27
HETATM   27  C2  UNL     1      19.290   4.599  50.392  1.00  0.00     0.166 C 
HETATM   28  C1  UNL     1      18.493   5.101  49.207  1.00  0.00     0.033 C 
ENDBRANCH  26  27
ENDBRANCH   1  26
TORSDOF 6
ENDMDL
MODEL 7
REMARK VINA RESULT:      -7.0      2.132      3.964
REMARK  6 active torsions:
REMARK  status: ('A' for Active; 'I' for Inactive)
REMARK    1  A    between atoms: C2_2  and  O1_3 
REMARK    2  A    between atoms: O1_3  and  C3_4 
REMARK    3  A    between atoms: C8_11  and  N3_12 
REMARK    4  A    between atoms: C9_13  and  C10_14 
REMARK    5  A    between atoms: C13_17  and  O2_18 
REMARK    6  A    between atoms: C14_19  and  O3_20 
ROOT
HETATM    1  C3  UNL     1      19.609   1.765  51.502  1.00  0.00     0.252 C 
HETATM    2  N1  UNL     1      19.566   3.167  52.005  1.00  0.00    -0.362 N 
HETATM    3  C4  UNL     1      21.009   3.439  52.097  1.00  0.00     0.028 C 
HETATM    4  C5  UNL     1      21.562   2.288  52.573  1.00  0.00     0.037 C 
HETATM    5  C6  UNL     1      21.110   1.661  51.294  1.00  0.00     0.088 C 
HETATM    6  C7  UNL     1      21.556   0.239  51.130  1.00  0.00     0.047 C 
HETATM    7  N2  UNL     1      21.575   2.529  50.244  1.00  0.00    -0.384 N 
HETATM    8  C8  UNL     1      22.956   2.754  50.136  1.00  0.00     0.205 C 
HETATM    9  C17 UNL     1      23.424   4.198  49.958  1.00  0.00     0.075 C 
HETATM   10  C18 UNL     1      22.698   5.097  50.944  1.00  0.00    -0.021 C 
HETATM   11  C19 UNL     1      21.588   4.766  51.675  1.00  0.00     0.025 C 
HETATM   12  H7  UNL     1      18.944   3.992  52.295  1.00  0.00     0.162 HD
HETATM   13  H12 UNL     1      21.047   2.429  49.357  1.00  0.00     0.156 HD
ENDROOT
BRANCH   8  14
HETATM   14  N3  UNL     1      23.787   2.098  51.137  1.00  0.00    -0.275 NA
HETATM   15  C9  UNL     1      25.060   2.291  51.185  1.00  0.00     0.124 C 
BRANCH  15  16
HETATM   16  C10 UNL     1      25.915   1.647  52.176  1.00  0.00    -0.016 A 
HETATM   17  C11 UNL     1      27.217   2.035  52.377  1.00  0.00     0.016 A 
HETATM   18  C12 UNL     1      27.965   1.376  53.334  1.00  0.00     0.040 A 
HETATM   19  C13 UNL     1      27.487   0.336  54.121  1.00  0.00     0.099 A 
HETATM   20  C14 UNL     1      26.181  -0.040  53.907  1.00  0.00     0.102 A 
HETATM   21  C16 UNL     1      25.422   0.617  52.946  1.00  0.00     0.052 A 
BRANCH  19  22
HETATM   22  O2  UNL     1      28.327  -0.256  55.055  1.00  0.00    -0.358 OA
HETATM   23  H17 UNL     1      28.779  -1.142  54.901  1.00  0.00     0.217 HD
ENDBRANCH  19  22
BRANCH  20  24
HETATM   24  O3  UNL     1      25.663  -1.077  54.672  1.00  0.00    -0.353 OA
HETATM   25  C15 UNL     1      24.305  -1.095  55.088  1.00  0.00     0.210 C 
ENDBRANCH  20  24
ENDBRANCH  15  16
ENDBRANCH   8  14
BRANCH   1  26
HETATM   26  O1  UNL     1      19.002   1.682  50.265  1.00  0.00    -0.364 OA
BRANCH  26  27
HETATM   27  C2  UNL     1      17.910   0.811  50.268  1.00  0.00     0.166 C 
HETATM   28  C1  UNL     1      17.951  -0.003  51.544  1.00  0.00     0.033 C 
ENDBRANCH  26  27
ENDBRANCH   1  26
TORSDOF 6
ENDMDL
MODEL 8
REMARK VINA RESULT:      -6.8      3.693      6.267
REMARK  6 active torsions:
REMARK  status: ('A' for Active; 'I' for Inactive)
REMARK    1  A    between atoms: C2_2  and  O1_3 
REMARK    2  A    between atoms: O1_3  and  C3_4 
REMARK    3  A    between atoms: C8_11  and  N3_12 
REMARK    4  A    between atoms: C9_13  and  C10_14 
REMARK    5  A    between atoms: C13_17  and  O2_18 
REMARK    6  A    between atoms: C14_19  and  O3_20 
ROOT
HETATM    1  C3  UNL     1      21.703   0.646  53.322  1.00  0.00     0.252 C 
HETATM    2  N1  UNL     1      20.384   1.275  53.032  1.00  0.00    -0.362 N 
HETATM    3  C4  UNL     1      20.794   2.243  52.003  1.00  0.00     0.028 C 
HETATM    4  C5  UNL     1      21.994   2.732  52.427  1.00  0.00     0.037 C 
HETATM    5  C6  UNL     1      22.511   1.343  52.240  1.00  0.00     0.088 C 
HETATM    6  C7  UNL     1      23.987   1.214  52.473  1.00  0.00     0.047 C 
HETATM    7  N2  UNL     1      22.106   0.946  50.918  1.00  0.00    -0.384 N 
HETATM    8  C8  UNL     1      22.556   1.711  49.831  1.00  0.00     0.205 C 
HETATM    9  C17 UNL     1      21.527   2.110  48.773  1.00  0.00     0.075 C 
HETATM   10  C18 UNL     1      20.270   2.627  49.452  1.00  0.00    -0.021 C 
HETATM   11  C19 UNL     1      19.952   2.493  50.777  1.00  0.00     0.025 C 
HETATM   12  H7  UNL     1      19.334   1.291  53.257  1.00  0.00     0.162 HD
HETATM   13  H12 UNL     1      22.072  -0.082  50.783  1.00  0.00     0.156 HD
ENDROOT
BRANCH   8  14
HETATM   14  N3  UNL     1      23.376   2.868  50.165  1.00  0.00    -0.275 NA
HETATM   15  C9  UNL     1      23.563   3.825  49.322  1.00  0.00     0.124 C 
BRANCH  15  16
HETATM   16  C10 UNL     1      24.380   4.993  49.631  1.00  0.00    -0.016 A 
HETATM   17  C11 UNL     1      23.989   5.930  50.557  1.00  0.00     0.016 A 
HETATM   18  C12 UNL     1      24.816   7.011  50.796  1.00  0.00     0.040 A 
HETATM   19  C13 UNL     1      26.033   7.221  50.160  1.00  0.00     0.099 A 
HETATM   20  C14 UNL     1      26.409   6.274  49.236  1.00  0.00     0.102 A 
HETATM   21  C16 UNL     1      25.583   5.183  48.989  1.00  0.00     0.052 A 
BRANCH  19  22
HETATM   22  O2  UNL     1      26.785   8.344  50.478  1.00  0.00    -0.358 OA
HETATM   23  H17 UNL     1      27.787   8.374  50.387  1.00  0.00     0.217 HD
ENDBRANCH  19  22
BRANCH  20  24
HETATM   24  O3  UNL     1      27.619   6.445  48.576  1.00  0.00    -0.353 OA
HETATM   25  C15 UNL     1      28.510   5.362  48.351  1.00  0.00     0.210 C 
ENDBRANCH  20  24
ENDBRANCH  15  16
ENDBRANCH   8  14
BRANCH   1  26
HETATM   26  O1  UNL     1      21.667  -0.701  53.024  1.00  0.00    -0.364 OA
BRANCH  26  27
HETATM   27  C2  UNL     1      21.522  -1.493  54.165  1.00  0.00     0.166 C 
HETATM   28  C1  UNL     1      22.697  -1.230  55.082  1.00  0.00     0.033 C 
ENDBRANCH  26  27
ENDBRANCH   1  26
TORSDOF 6
ENDMDL
MODEL 9
REMARK VINA RESULT:      -6.7      2.181      2.793
REMARK  6 active torsions:
REMARK  status: ('A' for Active; 'I' for Inactive)
REMARK    1  A    between atoms: C2_2  and  O1_3 
REMARK    2  A    between atoms: O1_3  and  C3_4 
REMARK    3  A    between atoms: C8_11  and  N3_12 
REMARK    4  A    between atoms: C9_13  and  C10_14 
REMARK    5  A    between atoms: C13_17  and  O2_18 
REMARK    6  A    between atoms: C14_19  and  O3_20 
ROOT
HETATM    1  C3  UNL     1      23.886   5.634  48.225  1.00  0.00     0.252 C 
HETATM    2  N1  UNL     1      22.588   4.942  47.982  1.00  0.00    -0.362 N 
HETATM    3  C4  UNL     1      22.563   4.052  49.152  1.00  0.00     0.028 C 
HETATM    4  C5  UNL     1      23.845   3.615  49.301  1.00  0.00     0.037 C 
HETATM    5  C6  UNL     1      24.189   5.040  49.589  1.00  0.00     0.088 C 
HETATM    6  C7  UNL     1      25.622   5.245  49.984  1.00  0.00     0.047 C 
HETATM    7  N2  UNL     1      23.254   5.476  50.593  1.00  0.00    -0.384 N 
HETATM    8  C8  UNL     1      23.234   4.792  51.818  1.00  0.00     0.205 C 
HETATM    9  C17 UNL     1      21.870   4.385  52.376  1.00  0.00     0.075 C 
HETATM   10  C18 UNL     1      21.031   3.761  51.274  1.00  0.00    -0.021 C 
HETATM   11  C19 UNL     1      21.293   3.811  49.931  1.00  0.00     0.025 C 
HETATM   12  H7  UNL     1      21.731   4.853  47.342  1.00  0.00     0.162 HD
HETATM   13  H12 UNL     1      23.132   6.505  50.630  1.00  0.00     0.156 HD
ENDROOT
BRANCH   8  14
HETATM   14  N3  UNL     1      24.157   3.672  51.936  1.00  0.00    -0.275 NA
HETATM   15  C9  UNL     1      24.198   2.945  53.000  1.00  0.00     0.124 C 
BRANCH  15  16
HETATM   16  C10 UNL     1      25.114   1.818  53.144  1.00  0.00    -0.016 A 
HETATM   17  C11 UNL     1      24.898   0.619  52.506  1.00  0.00     0.016 A 
HETATM   18  C12 UNL     1      25.809  -0.403  52.691  1.00  0.00     0.040 A 
HETATM   19  C13 UNL     1      26.945  -0.304  53.485  1.00  0.00     0.099 A 
HETATM   20  C14 UNL     1      27.145   0.902  54.116  1.00  0.00     0.102 A 
HETATM   21  C16 UNL     1      26.233   1.936  53.935  1.00  0.00     0.052 A 
BRANCH  19  22
HETATM   22  O2  UNL     1      27.795  -1.396  53.601  1.00  0.00    -0.358 OA
HETATM   23  H17 UNL     1      28.413  -1.689  52.862  1.00  0.00     0.217 HD
ENDBRANCH  19  22
BRANCH  20  24
HETATM   24  O3  UNL     1      28.269   1.043  54.920  1.00  0.00    -0.353 OA
HETATM   25  C15 UNL     1      29.430   1.727  54.471  1.00  0.00     0.210 C 
ENDBRANCH  20  24
ENDBRANCH  15  16
ENDBRANCH   8  14
BRANCH   1  26
HETATM   26  O1  UNL     1      23.682   6.989  48.387  1.00  0.00    -0.364 OA
BRANCH  26  27
HETATM   27  C2  UNL     1      24.498   7.752  47.548  1.00  0.00     0.166 C 
HETATM   28  C1  UNL     1      24.768   9.081  48.221  1.00  0.00     0.033 C 
ENDBRANCH  26  27
ENDBRANCH   1  26
TORSDOF 6
ENDMDL
