MODEL 1
REMARK VINA RESULT:      -8.3      0.000      0.000
REMARK  10 active torsions:
REMARK  status: ('A' for Active; 'I' for Inactive)
REMARK    1  A    between atoms: C2_2  and  C3_3 
REMARK    2  A    between atoms: C2_2  and  N4_22 
REMARK    3  A    between atoms: C3_3  and  C4_4 
REMARK    4  A    between atoms: C4_4  and  C5_5 
REMARK    5  A    between atoms: C7_7  and  N1_8 
REMARK    6  A    between atoms: N1_8  and  C8_9 
REMARK       I    between atoms: N4_22  and  C17_23 
REMARK    7  A    between atoms: C17_23  and  C18_25 
REMARK    8  A    between atoms: C18_25  and  C19_26 
REMARK    9  A    between atoms: C19_26  and  C20_27 
REMARK   10  A    between atoms: C20_27  and  N5_28 
ROOT
HETATM    1  C5  UNL     1      23.068   1.573  51.285  1.00  0.00     0.036 A 
HETATM    2  C6  UNL     1      24.123   1.024  51.971  1.00  0.00     0.058 A 
HETATM    3  C7  UNL     1      24.010   0.139  53.015  1.00  0.00     0.057 A 
HETATM    4  C14 UNL     1      22.704  -0.158  53.325  1.00  0.00     0.088 A 
HETATM    5  C15 UNL     1      22.390  -1.079  54.400  1.00  0.00     0.103 C 
HETATM    6  N2  UNL     1      22.145  -1.829  55.282  1.00  0.00    -0.191 NA
HETATM    7  C16 UNL     1      21.612   0.358  52.678  1.00  0.00     0.142 A 
HETATM    8  N3  UNL     1      21.800   1.218  51.666  1.00  0.00    -0.264 NA
ENDROOT
BRANCH   3   9
HETATM    9  N1  UNL     1      25.052  -0.419  53.753  1.00  0.00    -0.355 N 
HETATM   10  H8  UNL     1      24.736  -1.082  54.531  1.00  0.00     0.166 HD
BRANCH   9  11
HETATM   11  C8  UNL     1      26.461  -0.334  53.723  1.00  0.00     0.034 A 
HETATM   12  C9  UNL     1      27.179  -1.400  53.159  1.00  0.00     0.032 A 
HETATM   13  C10 UNL     1      28.554  -1.367  53.104  1.00  0.00     0.046 A 
HETATM   14  C11 UNL     1      29.277  -0.307  53.589  1.00  0.00     0.138 A 
HETATM   15  F1  UNL     1      30.617  -0.431  53.465  1.00  0.00    -0.204 F 
HETATM   16  C12 UNL     1      28.608   0.774  54.156  1.00  0.00     0.074 A 
HETATM   17 CL1  UNL     1      29.563   2.104  54.763  1.00  0.00    -0.081 Cl
HETATM   18  C13 UNL     1      27.247   0.688  54.184  1.00  0.00     0.056 A 
ENDBRANCH   9  11
ENDBRANCH   3   9
BRANCH   1  19
HETATM   19  C4  UNL     1      23.172   2.528  50.144  1.00  0.00     0.065 C 
BRANCH  19  20
HETATM   20  C3  UNL     1      22.888   3.892  50.721  1.00  0.00     0.058 C 
BRANCH  20  21
HETATM   21  C2  UNL     1      24.112   4.588  51.193  1.00  0.00    -0.010 C 
HETATM   22  C1  UNL     1      23.671   5.186  52.272  1.00  0.00     0.058 C 
BRANCH  21  23
HETATM   23  N4  UNL     1      25.335   4.464  50.429  1.00  0.00    -0.334 N 
HETATM   24  C17 UNL     1      25.584   5.513  49.464  1.00  0.00     0.227 C 
HETATM   25  O1  UNL     1      24.642   6.377  49.495  1.00  0.00    -0.273 OA
HETATM   26  H13 UNL     1      25.887   3.640  50.670  1.00  0.00     0.168 HD
BRANCH  24  27
HETATM   27  C18 UNL     1      26.831   5.146  48.833  1.00  0.00     0.098 C 
BRANCH  27  28
HETATM   28  C19 UNL     1      28.132   5.155  48.515  1.00  0.00     0.034 C 
BRANCH  28  29
HETATM   29  C20 UNL     1      29.404   5.843  48.284  1.00  0.00     0.275 C 
BRANCH  29  30
HETATM   30  N5  UNL     1      29.501   7.113  48.977  1.00  0.00     0.079 N 
HETATM   31  C21 UNL     1      30.854   7.626  49.041  1.00  0.00     0.306 C 
HETATM   32  H18 UNL     1      29.011   7.085  49.902  1.00  0.00     0.315 HD
ENDBRANCH  29  30
ENDBRANCH  28  29
ENDBRANCH  27  28
ENDBRANCH  24  27
ENDBRANCH  21  23
ENDBRANCH  20  21
ENDBRANCH  19  20
ENDBRANCH   1  19
TORSDOF 10
ENDMDL
MODEL 2
REMARK VINA RESULT:      -7.7      1.218      1.528
REMARK  10 active torsions:
REMARK  status: ('A' for Active; 'I' for Inactive)
REMARK    1  A    between atoms: C2_2  and  C3_3 
REMARK    2  A    between atoms: C2_2  and  N4_22 
REMARK    3  A    between atoms: C3_3  and  C4_4 
REMARK    4  A    between atoms: C4_4  and  C5_5 
REMARK    5  A    between atoms: C7_7  and  N1_8 
REMARK    6  A    between atoms: N1_8  and  C8_9 
REMARK       I    between atoms: N4_22  and  C17_23 
REMARK    7  A    between atoms: C17_23  and  C18_25 
REMARK    8  A    between atoms: C18_25  and  C19_26 
REMARK    9  A    between atoms: C19_26  and  C20_27 
REMARK   10  A    between atoms: C20_27  and  N5_28 
ROOT
HETATM    1  C5  UNL     1      22.249   2.177  51.624  1.00  0.00     0.036 A 
HETATM    2  C6  UNL     1      23.317   1.341  51.832  1.00  0.00     0.058 A 
HETATM    3  C7  UNL     1      23.350   0.316  52.746  1.00  0.00     0.057 A 
HETATM    4  C14 UNL     1      22.180   0.197  53.459  1.00  0.00     0.088 A 
HETATM    5  C15 UNL     1      22.031  -0.833  54.468  1.00  0.00     0.103 C 
HETATM    6  N2  UNL     1      21.920  -1.676  55.291  1.00  0.00    -0.191 NA
HETATM    7  C16 UNL     1      21.083   1.002  53.296  1.00  0.00     0.142 A 
HETATM    8  N3  UNL     1      21.124   1.984  52.383  1.00  0.00    -0.264 NA
ENDROOT
BRANCH   3   9
HETATM    9  N1  UNL     1      24.422  -0.536  53.007  1.00  0.00    -0.355 N 
HETATM   10  H8  UNL     1      24.170  -1.576  52.998  1.00  0.00     0.166 HD
BRANCH   9  11
HETATM   11  C8  UNL     1      25.798  -0.366  53.274  1.00  0.00     0.034 A 
HETATM   12  C9  UNL     1      26.224   0.859  53.813  1.00  0.00     0.032 A 
HETATM   13  C10 UNL     1      27.553   1.075  54.093  1.00  0.00     0.046 A 
HETATM   14  C11 UNL     1      28.511   0.120  53.865  1.00  0.00     0.138 A 
HETATM   15  F1  UNL     1      29.770   0.491  54.188  1.00  0.00    -0.204 F 
HETATM   16  C12 UNL     1      28.135  -1.111  53.334  1.00  0.00     0.074 A 
HETATM   17 CL1  UNL     1      29.383  -2.301  53.057  1.00  0.00    -0.081 Cl
HETATM   18  C13 UNL     1      26.806  -1.270  53.076  1.00  0.00     0.056 A 
ENDBRANCH   9  11
ENDBRANCH   3   9
BRANCH   1  19
HETATM   19  C4  UNL     1      22.193   3.289  50.631  1.00  0.00     0.065 C 
BRANCH  19  20
HETATM   20  C3  UNL     1      22.399   4.557  51.421  1.00  0.00     0.058 C 
BRANCH  20  21
HETATM   21  C2  UNL     1      23.813   4.765  51.824  1.00  0.00    -0.010 C 
HETATM   22  C1  UNL     1      23.684   5.013  53.104  1.00  0.00     0.058 C 
BRANCH  21  23
HETATM   23  N4  UNL     1      24.855   4.671  50.824  1.00  0.00    -0.334 N 
HETATM   24  C17 UNL     1      25.171   5.898  50.126  1.00  0.00     0.227 C 
HETATM   25  O1  UNL     1      24.446   6.856  50.564  1.00  0.00    -0.273 OA
HETATM   26  H13 UNL     1      25.252   3.735  50.733  1.00  0.00     0.168 HD
BRANCH  24  27
HETATM   27  C18 UNL     1      26.205   5.532  49.185  1.00  0.00     0.098 C 
BRANCH  27  28
HETATM   28  C19 UNL     1      27.372   5.078  48.711  1.00  0.00     0.034 C 
BRANCH  28  29
HETATM   29  C20 UNL     1      28.747   5.276  48.246  1.00  0.00     0.275 C 
BRANCH  29  30
HETATM   30  N5  UNL     1      29.458   6.299  48.987  1.00  0.00     0.079 N 
HETATM   31  C21 UNL     1      30.776   6.578  48.454  1.00  0.00     0.306 C 
HETATM   32  H18 UNL     1      29.447   6.107  50.016  1.00  0.00     0.315 HD
ENDBRANCH  29  30
ENDBRANCH  28  29
ENDBRANCH  27  28
ENDBRANCH  24  27
ENDBRANCH  21  23
ENDBRANCH  20  21
ENDBRANCH  19  20
ENDBRANCH   1  19
TORSDOF 10
ENDMDL
MODEL 3
REMARK VINA RESULT:      -7.7      1.807      2.285
REMARK  10 active torsions:
REMARK  status: ('A' for Active; 'I' for Inactive)
REMARK    1  A    between atoms: C2_2  and  C3_3 
REMARK    2  A    between atoms: C2_2  and  N4_22 
REMARK    3  A    between atoms: C3_3  and  C4_4 
REMARK    4  A    between atoms: C4_4  and  C5_5 
REMARK    5  A    between atoms: C7_7  and  N1_8 
REMARK    6  A    between atoms: N1_8  and  C8_9 
REMARK       I    between atoms: N4_22  and  C17_23 
REMARK    7  A    between atoms: C17_23  and  C18_25 
REMARK    8  A    between atoms: C18_25  and  C19_26 
REMARK    9  A    between atoms: C19_26  and  C20_27 
REMARK   10  A    between atoms: C20_27  and  N5_28 
ROOT
HETATM    1  C5  UNL     1      24.368   3.110  50.230  1.00  0.00     0.036 A 
HETATM    2  C6  UNL     1      25.218   2.762  51.250  1.00  0.00     0.058 A 
HETATM    3  C7  UNL     1      24.959   1.805  52.201  1.00  0.00     0.057 A 
HETATM    4  C14 UNL     1      23.731   1.207  52.037  1.00  0.00     0.088 A 
HETATM    5  C15 UNL     1      23.287   0.169  52.947  1.00  0.00     0.103 C 
HETATM    6  N2  UNL     1      22.933  -0.674  53.697  1.00  0.00    -0.191 NA
HETATM    7  C16 UNL     1      22.842   1.512  51.041  1.00  0.00     0.142 A 
HETATM    8  N3  UNL     1      23.165   2.460  50.146  1.00  0.00    -0.264 NA
ENDROOT
BRANCH   3   9
HETATM    9  N1  UNL     1      25.781   1.442  53.266  1.00  0.00    -0.355 N 
HETATM   10  H8  UNL     1      25.409   1.729  54.228  1.00  0.00     0.166 HD
BRANCH   9  11
HETATM   11  C8  UNL     1      27.011   0.762  53.398  1.00  0.00     0.034 A 
HETATM   12  C9  UNL     1      28.139   1.498  53.795  1.00  0.00     0.032 A 
HETATM   13  C10 UNL     1      29.361   0.882  53.939  1.00  0.00     0.046 A 
HETATM   14  C11 UNL     1      29.533  -0.459  53.708  1.00  0.00     0.138 A 
HETATM   15  F1  UNL     1      30.796  -0.908  53.888  1.00  0.00    -0.204 F 
HETATM   16  C12 UNL     1      28.443  -1.230  53.315  1.00  0.00     0.074 A 
HETATM   17 CL1  UNL     1      28.702  -2.934  53.029  1.00  0.00    -0.081 Cl
HETATM   18  C13 UNL     1      27.257  -0.569  53.188  1.00  0.00     0.056 A 
ENDBRANCH   9  11
ENDBRANCH   3   9
BRANCH   1  19
HETATM   19  C4  UNL     1      24.637   4.139  49.184  1.00  0.00     0.065 C 
BRANCH  19  20
HETATM   20  C3  UNL     1      24.116   5.439  49.743  1.00  0.00     0.058 C 
BRANCH  20  21
HETATM   21  C2  UNL     1      25.197   6.360  50.175  1.00  0.00    -0.010 C 
HETATM   22  C1  UNL     1      24.534   7.208  50.922  1.00  0.00     0.058 C 
BRANCH  21  23
HETATM   23  N4  UNL     1      26.549   6.132  49.708  1.00  0.00    -0.334 N 
HETATM   24  C17 UNL     1      26.859   6.659  48.398  1.00  0.00     0.227 C 
HETATM   25  O1  UNL     1      25.841   7.255  47.907  1.00  0.00    -0.273 OA
HETATM   26  H13 UNL     1      27.131   5.621  50.373  1.00  0.00     0.168 HD
BRANCH  24  27
HETATM   27  C18 UNL     1      28.235   6.282  48.165  1.00  0.00     0.098 C 
BRANCH  27  28
HETATM   28  C19 UNL     1      29.340   5.527  48.094  1.00  0.00     0.034 C 
BRANCH  28  29
HETATM   29  C20 UNL     1      30.760   5.335  47.794  1.00  0.00     0.275 C 
BRANCH  29  30
HETATM   30  N5  UNL     1      31.613   6.340  48.399  1.00  0.00     0.079 N 
HETATM   31  C21 UNL     1      31.938   6.056  49.781  1.00  0.00     0.306 C 
HETATM   32  H18 UNL     1      31.243   7.306  48.238  1.00  0.00     0.315 HD
ENDBRANCH  29  30
ENDBRANCH  28  29
ENDBRANCH  27  28
ENDBRANCH  24  27
ENDBRANCH  21  23
ENDBRANCH  20  21
ENDBRANCH  19  20
ENDBRANCH   1  19
TORSDOF 10
ENDMDL
MODEL 4
REMARK VINA RESULT:      -7.7      3.443      5.062
REMARK  10 active torsions:
REMARK  status: ('A' for Active; 'I' for Inactive)
REMARK    1  A    between atoms: C2_2  and  C3_3 
REMARK    2  A    between atoms: C2_2  and  N4_22 
REMARK    3  A    between atoms: C3_3  and  C4_4 
REMARK    4  A    between atoms: C4_4  and  C5_5 
REMARK    5  A    between atoms: C7_7  and  N1_8 
REMARK    6  A    between atoms: N1_8  and  C8_9 
REMARK       I    between atoms: N4_22  and  C17_23 
REMARK    7  A    between atoms: C17_23  and  C18_25 
REMARK    8  A    between atoms: C18_25  and  C19_26 
REMARK    9  A    between atoms: C19_26  and  C20_27 
REMARK   10  A    between atoms: C20_27  and  N5_28 
ROOT
HETATM    1  C5  UNL     1      25.501   2.622  50.781  1.00  0.00     0.036 A 
HETATM    2  C6  UNL     1      24.677   1.834  51.545  1.00  0.00     0.058 A 
HETATM    3  C7  UNL     1      25.075   1.103  52.638  1.00  0.00     0.057 A 
HETATM    4  C14 UNL     1      26.417   1.231  52.907  1.00  0.00     0.088 A 
HETATM    5  C15 UNL     1      27.017   0.533  54.027  1.00  0.00     0.103 C 
HETATM    6  N2  UNL     1      27.497  -0.045  54.941  1.00  0.00    -0.191 NA
HETATM    7  C16 UNL     1      27.288   2.000  52.180  1.00  0.00     0.142 A 
HETATM    8  N3  UNL     1      26.826   2.688  51.125  1.00  0.00    -0.264 NA
ENDROOT
BRANCH   3   9
HETATM    9  N1  UNL     1      24.277   0.272  53.422  1.00  0.00    -0.355 N 
HETATM   10  H8  UNL     1      24.796  -0.205  54.228  1.00  0.00     0.166 HD
BRANCH   9  11
HETATM   11  C8  UNL     1      22.915  -0.099  53.427  1.00  0.00     0.034 A 
HETATM   12  C9  UNL     1      22.483  -1.033  54.383  1.00  0.00     0.032 A 
HETATM   13  C10 UNL     1      21.166  -1.427  54.430  1.00  0.00     0.046 A 
HETATM   14  C11 UNL     1      20.226  -0.935  53.562  1.00  0.00     0.138 A 
HETATM   15  F1  UNL     1      18.979  -1.428  53.737  1.00  0.00    -0.204 F 
HETATM   16  C12 UNL     1      20.607  -0.006  52.598  1.00  0.00     0.074 A 
HETATM   17 CL1  UNL     1      19.381   0.598  51.509  1.00  0.00    -0.081 Cl
HETATM   18  C13 UNL     1      21.923   0.349  52.597  1.00  0.00     0.056 A 
ENDBRANCH   9  11
ENDBRANCH   3   9
BRANCH   1  19
HETATM   19  C4  UNL     1      25.084   3.429  49.598  1.00  0.00     0.065 C 
BRANCH  19  20
HETATM   20  C3  UNL     1      24.542   4.722  50.152  1.00  0.00     0.058 C 
BRANCH  20  21
HETATM   21  C2  UNL     1      25.490   5.856  50.010  1.00  0.00    -0.010 C 
HETATM   22  C1  UNL     1      24.722   6.875  50.309  1.00  0.00     0.058 C 
BRANCH  21  23
HETATM   23  N4  UNL     1      26.855   5.591  49.609  1.00  0.00    -0.334 N 
HETATM   24  C17 UNL     1      27.290   6.237  48.390  1.00  0.00     0.227 C 
HETATM   25  O1  UNL     1      26.347   6.950  47.905  1.00  0.00    -0.273 OA
HETATM   26  H13 UNL     1      27.357   4.973  50.248  1.00  0.00     0.168 HD
BRANCH  24  27
HETATM   27  C18 UNL     1      28.654   5.797  48.206  1.00  0.00     0.098 C 
BRANCH  27  28
HETATM   28  C19 UNL     1      29.981   5.706  48.368  1.00  0.00     0.034 C 
BRANCH  28  29
HETATM   29  C20 UNL     1      31.306   6.300  48.561  1.00  0.00     0.275 C 
BRANCH  29  30
HETATM   30  N5  UNL     1      32.292   5.352  49.043  1.00  0.00     0.079 N 
HETATM   31  C21 UNL     1      33.646   5.690  48.653  1.00  0.00     0.306 C 
HETATM   32  H18 UNL     1      32.019   4.366  48.822  1.00  0.00     0.315 HD
ENDBRANCH  29  30
ENDBRANCH  28  29
ENDBRANCH  27  28
ENDBRANCH  24  27
ENDBRANCH  21  23
ENDBRANCH  20  21
ENDBRANCH  19  20
ENDBRANCH   1  19
TORSDOF 10
ENDMDL
MODEL 5
REMARK VINA RESULT:      -7.6      3.437      5.613
REMARK  10 active torsions:
REMARK  status: ('A' for Active; 'I' for Inactive)
REMARK    1  A    between atoms: C2_2  and  C3_3 
REMARK    2  A    between atoms: C2_2  and  N4_22 
REMARK    3  A    between atoms: C3_3  and  C4_4 
REMARK    4  A    between atoms: C4_4  and  C5_5 
REMARK    5  A    between atoms: C7_7  and  N1_8 
REMARK    6  A    between atoms: N1_8  and  C8_9 
REMARK       I    between atoms: N4_22  and  C17_23 
REMARK    7  A    between atoms: C17_23  and  C18_25 
REMARK    8  A    between atoms: C18_25  and  C19_26 
REMARK    9  A    between atoms: C19_26  and  C20_27 
REMARK   10  A    between atoms: C20_27  and  N5_28 
ROOT
HETATM    1  C5  UNL     1      24.133  -0.251  53.904  1.00  0.00     0.036 A 
HETATM    2  C6  UNL     1      23.588   0.673  53.048  1.00  0.00     0.058 A 
HETATM    3  C7  UNL     1      22.257   0.755  52.719  1.00  0.00     0.057 A 
HETATM    4  C14 UNL     1      21.492  -0.204  53.341  1.00  0.00     0.088 A 
HETATM    5  C15 UNL     1      20.062  -0.270  53.115  1.00  0.00     0.103 C 
HETATM    6  N2  UNL     1      18.895  -0.317  52.921  1.00  0.00    -0.191 NA
HETATM    7  C16 UNL     1      21.979  -1.151  54.203  1.00  0.00     0.142 A 
HETATM    8  N3  UNL     1      23.293  -1.170  54.477  1.00  0.00    -0.264 NA
ENDROOT
BRANCH   3   9
HETATM    9  N1  UNL     1      21.669   1.659  51.836  1.00  0.00    -0.355 N 
HETATM   10  H8  UNL     1      20.872   2.234  52.259  1.00  0.00     0.166 HD
BRANCH   9  11
HETATM   11  C8  UNL     1      21.876   2.025  50.488  1.00  0.00     0.034 A 
HETATM   12  C9  UNL     1      21.595   1.077  49.491  1.00  0.00     0.032 A 
HETATM   13  C10 UNL     1      21.779   1.384  48.163  1.00  0.00     0.046 A 
HETATM   14  C11 UNL     1      22.238   2.611  47.755  1.00  0.00     0.138 A 
HETATM   15  F1  UNL     1      22.370   2.750  46.416  1.00  0.00    -0.204 F 
HETATM   16  C12 UNL     1      22.528   3.583  48.707  1.00  0.00     0.074 A 
HETATM   17 CL1  UNL     1      23.111   5.132  48.149  1.00  0.00    -0.081 Cl
HETATM   18  C13 UNL     1      22.327   3.225  50.008  1.00  0.00     0.056 A 
ENDBRANCH   9  11
ENDBRANCH   3   9
BRANCH   1  19
HETATM   19  C4  UNL     1      25.573  -0.349  54.280  1.00  0.00     0.065 C 
BRANCH  19  20
HETATM   20  C3  UNL     1      26.057   1.071  54.430  1.00  0.00     0.058 C 
BRANCH  20  21
HETATM   21  C2  UNL     1      27.224   1.380  53.566  1.00  0.00    -0.010 C 
HETATM   22  C1  UNL     1      28.104   0.510  53.997  1.00  0.00     0.058 C 
BRANCH  21  23
HETATM   23  N4  UNL     1      27.121   2.448  52.594  1.00  0.00    -0.334 N 
HETATM   24  C17 UNL     1      26.700   2.054  51.268  1.00  0.00     0.227 C 
HETATM   25  O1  UNL     1      26.482   0.796  51.227  1.00  0.00    -0.273 OA
HETATM   26  H13 UNL     1      27.357   3.367  52.969  1.00  0.00     0.168 HD
BRANCH  24  27
HETATM   27  C18 UNL     1      26.701   3.279  50.501  1.00  0.00     0.098 C 
BRANCH  27  28
HETATM   28  C19 UNL     1      26.504   4.129  49.484  1.00  0.00     0.034 C 
BRANCH  28  29
HETATM   29  C20 UNL     1      26.871   5.300  48.685  1.00  0.00     0.275 C 
BRANCH  29  30
HETATM   30  N5  UNL     1      28.152   5.867  49.058  1.00  0.00     0.079 N 
HETATM   31  C21 UNL     1      28.911   6.356  47.925  1.00  0.00     0.306 C 
HETATM   32  H18 UNL     1      28.690   5.225  49.686  1.00  0.00     0.315 HD
ENDBRANCH  29  30
ENDBRANCH  28  29
ENDBRANCH  27  28
ENDBRANCH  24  27
ENDBRANCH  21  23
ENDBRANCH  20  21
ENDBRANCH  19  20
ENDBRANCH   1  19
TORSDOF 10
ENDMDL
MODEL 6
REMARK VINA RESULT:      -7.5      1.981      2.271
REMARK  10 active torsions:
REMARK  status: ('A' for Active; 'I' for Inactive)
REMARK    1  A    between atoms: C2_2  and  C3_3 
REMARK    2  A    between atoms: C2_2  and  N4_22 
REMARK    3  A    between atoms: C3_3  and  C4_4 
REMARK    4  A    between atoms: C4_4  and  C5_5 
REMARK    5  A    between atoms: C7_7  and  N1_8 
REMARK    6  A    between atoms: N1_8  and  C8_9 
REMARK       I    between atoms: N4_22  and  C17_23 
REMARK    7  A    between atoms: C17_23  and  C18_25 
REMARK    8  A    between atoms: C18_25  and  C19_26 
REMARK    9  A    between atoms: C19_26  and  C20_27 
REMARK   10  A    between atoms: C20_27  and  N5_28 
ROOT
HETATM    1  C5  UNL     1      23.286   2.041  50.465  1.00  0.00     0.036 A 
HETATM    2  C6  UNL     1      24.286   1.895  51.394  1.00  0.00     0.058 A 
HETATM    3  C7  UNL     1      24.205   1.120  52.526  1.00  0.00     0.057 A 
HETATM    4  C14 UNL     1      22.992   0.485  52.653  1.00  0.00     0.088 A 
HETATM    5  C15 UNL     1      22.726  -0.379  53.786  1.00  0.00     0.103 C 
HETATM    6  N2  UNL     1      22.517  -1.079  54.717  1.00  0.00    -0.191 NA
HETATM    7  C16 UNL     1      21.958   0.593  51.761  1.00  0.00     0.142 A 
HETATM    8  N3  UNL     1      22.110   1.369  50.676  1.00  0.00    -0.264 NA
ENDROOT
BRANCH   3   9
HETATM    9  N1  UNL     1      25.185   0.967  53.504  1.00  0.00    -0.355 N 
HETATM   10  H8  UNL     1      24.839   1.125  54.504  1.00  0.00     0.166 HD
BRANCH   9  11
HETATM   11  C8  UNL     1      26.557   0.634  53.507  1.00  0.00     0.034 A 
HETATM   12  C9  UNL     1      27.492   1.669  53.671  1.00  0.00     0.032 A 
HETATM   13  C10 UNL     1      28.841   1.398  53.682  1.00  0.00     0.046 A 
HETATM   14  C11 UNL     1      29.330   0.124  53.537  1.00  0.00     0.138 A 
HETATM   15  F1  UNL     1      30.678   0.028  53.564  1.00  0.00    -0.204 F 
HETATM   16  C12 UNL     1      28.441  -0.934  53.374  1.00  0.00     0.074 A 
HETATM   17 CL1  UNL     1      29.101  -2.541  53.191  1.00  0.00    -0.081 Cl
HETATM   18  C13 UNL     1      27.117  -0.608  53.371  1.00  0.00     0.056 A 
ENDBRANCH   9  11
ENDBRANCH   3   9
BRANCH   1  19
HETATM   19  C4  UNL     1      23.359   2.870  49.227  1.00  0.00     0.065 C 
BRANCH  19  20
HETATM   20  C3  UNL     1      24.408   3.919  49.496  1.00  0.00     0.058 C 
BRANCH  20  21
HETATM   21  C2  UNL     1      23.998   5.276  49.053  1.00  0.00    -0.010 C 
HETATM   22  C1  UNL     1      22.729   5.089  48.786  1.00  0.00     0.058 C 
BRANCH  21  23
HETATM   23  N4  UNL     1      24.984   6.335  49.013  1.00  0.00    -0.334 N 
HETATM   24  C17 UNL     1      25.159   7.080  50.241  1.00  0.00     0.227 C 
HETATM   25  O1  UNL     1      24.386   6.623  51.151  1.00  0.00    -0.273 OA
HETATM   26  H13 UNL     1      25.449   6.427  48.110  1.00  0.00     0.168 HD
BRANCH  24  27
HETATM   27  C18 UNL     1      26.162   8.072  49.930  1.00  0.00     0.098 C 
BRANCH  27  28
HETATM   28  C19 UNL     1      27.351   8.690  49.882  1.00  0.00     0.034 C 
BRANCH  28  29
HETATM   29  C20 UNL     1      28.224   9.786  49.457  1.00  0.00     0.275 C 
BRANCH  29  30
HETATM   30  N5  UNL     1      29.515   9.776  50.117  1.00  0.00     0.079 N 
HETATM   31  C21 UNL     1      30.605   9.415  49.233  1.00  0.00     0.306 C 
HETATM   32  H18 UNL     1      29.488   9.226  51.007  1.00  0.00     0.315 HD
ENDBRANCH  29  30
ENDBRANCH  28  29
ENDBRANCH  27  28
ENDBRANCH  24  27
ENDBRANCH  21  23
ENDBRANCH  20  21
ENDBRANCH  19  20
ENDBRANCH   1  19
TORSDOF 10
ENDMDL
MODEL 7
REMARK VINA RESULT:      -7.5      3.516      8.280
REMARK  10 active torsions:
REMARK  status: ('A' for Active; 'I' for Inactive)
REMARK    1  A    between atoms: C2_2  and  C3_3 
REMARK    2  A    between atoms: C2_2  and  N4_22 
REMARK    3  A    between atoms: C3_3  and  C4_4 
REMARK    4  A    between atoms: C4_4  and  C5_5 
REMARK    5  A    between atoms: C7_7  and  N1_8 
REMARK    6  A    between atoms: N1_8  and  C8_9 
REMARK       I    between atoms: N4_22  and  C17_23 
REMARK    7  A    between atoms: C17_23  and  C18_25 
REMARK    8  A    between atoms: C18_25  and  C19_26 
REMARK    9  A    between atoms: C19_26  and  C20_27 
REMARK   10  A    between atoms: C20_27  and  N5_28 
ROOT
HETATM    1  C5  UNL     1      27.237   5.058  48.863  1.00  0.00     0.036 A 
HETATM    2  C6  UNL     1      28.513   5.067  48.356  1.00  0.00     0.058 A 
HETATM    3  C7  UNL     1      29.195   6.191  47.957  1.00  0.00     0.057 A 
HETATM    4  C14 UNL     1      28.462   7.344  48.112  1.00  0.00     0.088 A 
HETATM    5  C15 UNL     1      29.022   8.630  47.745  1.00  0.00     0.103 C 
HETATM    6  N2  UNL     1      29.487   9.674  47.439  1.00  0.00    -0.191 NA
HETATM    7  C16 UNL     1      27.187   7.397  48.610  1.00  0.00     0.142 A 
HETATM    8  N3  UNL     1      26.584   6.257  48.981  1.00  0.00    -0.264 NA
ENDROOT
BRANCH   3   9
HETATM    9  N1  UNL     1      30.477   6.239  47.413  1.00  0.00    -0.355 N 
HETATM   10  H8  UNL     1      30.623   7.020  46.696  1.00  0.00     0.166 HD
BRANCH   9  11
HETATM   11  C8  UNL     1      31.669   5.503  47.586  1.00  0.00     0.034 A 
HETATM   12  C9  UNL     1      31.703   4.176  47.127  1.00  0.00     0.032 A 
HETATM   13  C10 UNL     1      32.840   3.415  47.271  1.00  0.00     0.046 A 
HETATM   14  C11 UNL     1      33.978   3.909  47.857  1.00  0.00     0.138 A 
HETATM   15  F1  UNL     1      35.006   3.033  47.926  1.00  0.00    -0.204 F 
HETATM   16  C12 UNL     1      33.992   5.219  48.324  1.00  0.00     0.074 A 
HETATM   17 CL1  UNL     1      35.459   5.812  49.065  1.00  0.00    -0.081 Cl
HETATM   18  C13 UNL     1      32.839   5.927  48.156  1.00  0.00     0.056 A 
ENDBRANCH   9  11
ENDBRANCH   3   9
BRANCH   1  19
HETATM   19  C4  UNL     1      26.485   3.850  49.310  1.00  0.00     0.065 C 
BRANCH  19  20
HETATM   20  C3  UNL     1      25.082   4.321  49.597  1.00  0.00     0.058 C 
BRANCH  20  21
HETATM   21  C2  UNL     1      24.615   3.956  50.958  1.00  0.00    -0.010 C 
HETATM   22  C1  UNL     1      23.384   4.404  50.940  1.00  0.00     0.058 C 
BRANCH  21  23
HETATM   23  N4  UNL     1      25.528   3.292  51.865  1.00  0.00    -0.334 N 
HETATM   24  C17 UNL     1      25.274   1.888  52.099  1.00  0.00     0.227 C 
HETATM   25  O1  UNL     1      24.264   1.500  51.418  1.00  0.00    -0.273 OA
HETATM   26  H13 UNL     1      26.256   3.905  52.233  1.00  0.00     0.168 HD
BRANCH  24  27
HETATM   27  C18 UNL     1      26.293   1.480  53.039  1.00  0.00     0.098 C 
BRANCH  27  28
HETATM   28  C19 UNL     1      27.458   1.452  53.701  1.00  0.00     0.034 C 
BRANCH  28  29
HETATM   29  C20 UNL     1      28.840   1.889  53.909  1.00  0.00     0.275 C 
BRANCH  29  30
HETATM   30  N5  UNL     1      29.817   0.871  53.575  1.00  0.00     0.079 N 
HETATM   31  C21 UNL     1      29.408  -0.463  53.965  1.00  0.00     0.306 C 
HETATM   32  H18 UNL     1      30.776   1.135  53.901  1.00  0.00     0.315 HD
ENDBRANCH  29  30
ENDBRANCH  28  29
ENDBRANCH  27  28
ENDBRANCH  24  27
ENDBRANCH  21  23
ENDBRANCH  20  21
ENDBRANCH  19  20
ENDBRANCH   1  19
TORSDOF 10
ENDMDL
MODEL 8
REMARK VINA RESULT:      -7.4      3.563      6.234
REMARK  10 active torsions:
REMARK  status: ('A' for Active; 'I' for Inactive)
REMARK    1  A    between atoms: C2_2  and  C3_3 
REMARK    2  A    between atoms: C2_2  and  N4_22 
REMARK    3  A    between atoms: C3_3  and  C4_4 
REMARK    4  A    between atoms: C4_4  and  C5_5 
REMARK    5  A    between atoms: C7_7  and  N1_8 
REMARK    6  A    between atoms: N1_8  and  C8_9 
REMARK       I    between atoms: N4_22  and  C17_23 
REMARK    7  A    between atoms: C17_23  and  C18_25 
REMARK    8  A    between atoms: C18_25  and  C19_26 
REMARK    9  A    between atoms: C19_26  and  C20_27 
REMARK   10  A    between atoms: C20_27  and  N5_28 
ROOT
HETATM    1  C5  UNL     1      22.985   1.666  51.285  1.00  0.00     0.036 A 
HETATM    2  C6  UNL     1      24.035   1.176  52.020  1.00  0.00     0.058 A 
HETATM    3  C7  UNL     1      23.924   0.278  53.054  1.00  0.00     0.057 A 
HETATM    4  C14 UNL     1      22.624  -0.098  53.297  1.00  0.00     0.088 A 
HETATM    5  C15 UNL     1      22.313  -1.044  54.352  1.00  0.00     0.103 C 
HETATM    6  N2  UNL     1      22.070  -1.813  55.217  1.00  0.00    -0.191 NA
HETATM    7  C16 UNL     1      21.536   0.358  52.600  1.00  0.00     0.142 A 
HETATM    8  N3  UNL     1      21.723   1.235  51.601  1.00  0.00    -0.264 NA
ENDROOT
BRANCH   3   9
HETATM    9  N1  UNL     1      24.960  -0.223  53.840  1.00  0.00    -0.355 N 
HETATM   10  H8  UNL     1      24.636  -0.763  54.705  1.00  0.00     0.166 HD
BRANCH   9  11
HETATM   11  C8  UNL     1      26.370  -0.205  53.772  1.00  0.00     0.034 A 
HETATM   12  C9  UNL     1      27.020  -1.291  53.163  1.00  0.00     0.032 A 
HETATM   13  C10 UNL     1      28.392  -1.322  53.071  1.00  0.00     0.046 A 
HETATM   14  C11 UNL     1      29.179  -0.310  53.560  1.00  0.00     0.138 A 
HETATM   15  F1  UNL     1      30.508  -0.496  53.395  1.00  0.00    -0.204 F 
HETATM   16  C12 UNL     1      28.579   0.787  54.170  1.00  0.00     0.074 A 
HETATM   17 CL1  UNL     1      29.614   2.055  54.781  1.00  0.00    -0.081 Cl
HETATM   18  C13 UNL     1      27.217   0.766  54.234  1.00  0.00     0.056 A 
ENDBRANCH   9  11
ENDBRANCH   3   9
BRANCH   1  19
HETATM   19  C4  UNL     1      23.088   2.634  50.155  1.00  0.00     0.065 C 
BRANCH  19  20
HETATM   20  C3  UNL     1      21.991   2.259  49.191  1.00  0.00     0.058 C 
BRANCH  20  21
HETATM   21  C2  UNL     1      20.974   3.328  49.025  1.00  0.00    -0.010 C 
HETATM   22  C1  UNL     1      21.616   4.182  48.267  1.00  0.00     0.058 C 
BRANCH  21  23
HETATM   23  N4  UNL     1      19.688   3.188  49.676  1.00  0.00    -0.334 N 
HETATM   24  C17 UNL     1      19.475   4.026  50.835  1.00  0.00     0.227 C 
HETATM   25  O1  UNL     1      20.500   4.759  51.048  1.00  0.00    -0.273 OA
HETATM   26  H13 UNL     1      19.075   2.507  49.227  1.00  0.00     0.168 HD
BRANCH  24  27
HETATM   27  C18 UNL     1      18.151   3.681  51.301  1.00  0.00     0.098 C 
BRANCH  27  28
HETATM   28  C19 UNL     1      16.989   3.759  51.963  1.00  0.00     0.034 C 
BRANCH  28  29
HETATM   29  C20 UNL     1      15.632   4.281  52.141  1.00  0.00     0.275 C 
BRANCH  29  30
HETATM   30  N5  UNL     1      15.205   4.299  53.526  1.00  0.00     0.079 N 
HETATM   31  C21 UNL     1      13.765   4.358  53.679  1.00  0.00     0.306 C 
HETATM   32  H18 UNL     1      15.722   5.022  54.079  1.00  0.00     0.315 HD
ENDBRANCH  29  30
ENDBRANCH  28  29
ENDBRANCH  27  28
ENDBRANCH  24  27
ENDBRANCH  21  23
ENDBRANCH  20  21
ENDBRANCH  19  20
ENDBRANCH   1  19
TORSDOF 10
ENDMDL
MODEL 9
REMARK VINA RESULT:      -7.4      3.698      6.346
REMARK  10 active torsions:
REMARK  status: ('A' for Active; 'I' for Inactive)
REMARK    1  A    between atoms: C2_2  and  C3_3 
REMARK    2  A    between atoms: C2_2  and  N4_22 
REMARK    3  A    between atoms: C3_3  and  C4_4 
REMARK    4  A    between atoms: C4_4  and  C5_5 
REMARK    5  A    between atoms: C7_7  and  N1_8 
REMARK    6  A    between atoms: N1_8  and  C8_9 
REMARK       I    between atoms: N4_22  and  C17_23 
REMARK    7  A    between atoms: C17_23  and  C18_25 
REMARK    8  A    between atoms: C18_25  and  C19_26 
REMARK    9  A    between atoms: C19_26  and  C20_27 
REMARK   10  A    between atoms: C20_27  and  N5_28 
ROOT
HETATM    1  C5  UNL     1      22.906   2.010  51.909  1.00  0.00     0.036 A 
HETATM    2  C6  UNL     1      23.973   1.193  52.186  1.00  0.00     0.058 A 
HETATM    3  C7  UNL     1      23.953   0.140  53.068  1.00  0.00     0.057 A 
HETATM    4  C14 UNL     1      22.728  -0.029  53.670  1.00  0.00     0.088 A 
HETATM    5  C15 UNL     1      22.517  -1.095  54.630  1.00  0.00     0.103 C 
HETATM    6  N2  UNL     1      22.356  -1.966  55.415  1.00  0.00    -0.191 NA
HETATM    7  C16 UNL     1      21.628   0.754  53.434  1.00  0.00     0.142 A 
HETATM    8  N3  UNL     1      21.724   1.766  52.558  1.00  0.00    -0.264 NA
ENDROOT
BRANCH   3   9
HETATM    9  N1  UNL     1      25.019  -0.695  53.397  1.00  0.00    -0.355 N 
HETATM   10  H8  UNL     1      24.733  -1.690  53.667  1.00  0.00     0.166 HD
BRANCH   9  11
HETATM   11  C8  UNL     1      26.423  -0.554  53.455  1.00  0.00     0.034 A 
HETATM   12  C9  UNL     1      27.216  -1.611  52.979  1.00  0.00     0.032 A 
HETATM   13  C10 UNL     1      28.589  -1.524  53.012  1.00  0.00     0.046 A 
HETATM   14  C11 UNL     1      29.238  -0.419  53.501  1.00  0.00     0.138 A 
HETATM   15  F1  UNL     1      30.587  -0.493  53.469  1.00  0.00    -0.204 F 
HETATM   16  C12 UNL     1      28.493   0.654  53.982  1.00  0.00     0.074 A 
HETATM   17 CL1  UNL     1      29.355   2.043  54.598  1.00  0.00    -0.081 Cl
HETATM   18  C13 UNL     1      27.138   0.514  53.925  1.00  0.00     0.056 A 
ENDBRANCH   9  11
ENDBRANCH   3   9
BRANCH   1  19
HETATM   19  C4  UNL     1      22.908   3.152  50.949  1.00  0.00     0.065 C 
BRANCH  19  20
HETATM   20  C3  UNL     1      21.571   3.829  51.112  1.00  0.00     0.058 C 
BRANCH  20  21
HETATM   21  C2  UNL     1      20.586   3.426  50.076  1.00  0.00    -0.010 C 
HETATM   22  C1  UNL     1      21.037   4.065  49.026  1.00  0.00     0.058 C 
BRANCH  21  23
HETATM   23  N4  UNL     1      19.494   2.548  50.442  1.00  0.00    -0.334 N 
HETATM   24  C17 UNL     1      19.549   1.211  49.893  1.00  0.00     0.227 C 
HETATM   25  O1  UNL     1      20.601   1.067  49.181  1.00  0.00    -0.273 OA
HETATM   26  H13 UNL     1      18.808   2.985  51.058  1.00  0.00     0.168 HD
BRANCH  24  27
HETATM   27  C18 UNL     1      18.355   0.562  50.384  1.00  0.00     0.098 C 
BRANCH  27  28
HETATM   28  C19 UNL     1      17.543  -0.146  51.180  1.00  0.00     0.034 C 
BRANCH  28  29
HETATM   29  C20 UNL     1      16.326  -0.301  51.980  1.00  0.00     0.275 C 
BRANCH  29  30
HETATM   30  N5  UNL     1      16.500  -1.177  53.122  1.00  0.00     0.079 N 
HETATM   31  C21 UNL     1      17.888  -1.488  53.396  1.00  0.00     0.306 C 
HETATM   32  H18 UNL     1      15.879  -2.017  53.061  1.00  0.00     0.315 HD
ENDBRANCH  29  30
ENDBRANCH  28  29
ENDBRANCH  27  28
ENDBRANCH  24  27
ENDBRANCH  21  23
ENDBRANCH  20  21
ENDBRANCH  19  20
ENDBRANCH   1  19
TORSDOF 10
ENDMDL
