MODEL 1
REMARK VINA RESULT:      -7.8      0.000      0.000
REMARK  6 active torsions:
REMARK  status: ('A' for Active; 'I' for Inactive)
REMARK    1  A    between atoms: O1_2  and  C2_3 
REMARK    2  A    between atoms: C5_6  and  N1_7 
REMARK    3  A    between atoms: N1_7  and  C6_8 
REMARK    4  A    between atoms: C9_11  and  O2_12 
REMARK    5  A    between atoms: C11_14  and  O3_15 
REMARK    6  A    between atoms: C17_23  and  O4_24 
ROOT
HETATM    1  C2  UNL     1      24.636  -0.396  53.579  1.00  0.00     0.102 A 
HETATM    2  C3  UNL     1      25.295   0.475  52.736  1.00  0.00     0.057 A 
HETATM    3  C4  UNL     1      26.490   1.109  52.991  1.00  0.00     0.042 A 
HETATM    4  C5  UNL     1      27.105   1.972  52.112  1.00  0.00     0.142 A 
HETATM    5  N2  UNL     1      28.257   2.474  52.566  1.00  0.00    -0.224 NA
HETATM    6  C14 UNL     1      28.831   2.220  53.745  1.00  0.00     0.236 A 
HETATM    7  N3  UNL     1      28.196   1.361  54.592  1.00  0.00    -0.241 NA
HETATM    8  C15 UNL     1      27.018   0.796  54.225  1.00  0.00     0.075 A 
HETATM    9  C16 UNL     1      26.411  -0.065  55.112  1.00  0.00     0.072 A 
HETATM   10  C17 UNL     1      25.213  -0.671  54.800  1.00  0.00     0.101 A 
ENDROOT
BRANCH   4  11
HETATM   11  N1  UNL     1      26.511   2.242  50.859  1.00  0.00    -0.340 N 
HETATM   12  H5  UNL     1      26.278   1.496  50.201  1.00  0.00     0.167 HD
BRANCH  11  13
HETATM   13  C6  UNL     1      26.158   3.504  50.326  1.00  0.00     0.036 A 
HETATM   14  C7  UNL     1      26.890   4.150  49.371  1.00  0.00     0.032 A 
HETATM   15  C8  UNL     1      26.576   5.372  48.822  1.00  0.00     0.042 A 
HETATM   16  C9  UNL     1      25.441   6.034  49.237  1.00  0.00     0.101 A 
HETATM   17  C11 UNL     1      24.670   5.428  50.197  1.00  0.00     0.103 A 
HETATM   18  C13 UNL     1      25.037   4.208  50.706  1.00  0.00     0.069 A 
BRANCH  16  19
HETATM   19  O2  UNL     1      25.052   7.255  48.746  1.00  0.00    -0.353 OA
HETATM   20  C10 UNL     1      25.052   7.593  47.375  1.00  0.00     0.210 C 
ENDBRANCH  16  19
BRANCH  17  21
HETATM   21  O3  UNL     1      23.523   6.068  50.636  1.00  0.00    -0.353 OA
HETATM   22  C12 UNL     1      22.605   5.463  51.524  1.00  0.00     0.210 C 
ENDBRANCH  17  21
ENDBRANCH  11  13
ENDBRANCH   4  11
BRANCH   1  23
HETATM   23  O1  UNL     1      23.430  -0.999  53.247  1.00  0.00    -0.353 OA
HETATM   24  C1  UNL     1      22.232  -0.221  53.225  1.00  0.00     0.210 C 
ENDBRANCH   1  23
BRANCH  10  25
HETATM   25  O4  UNL     1      24.649  -1.529  55.732  1.00  0.00    -0.358 OA
HETATM   26  H17 UNL     1      24.160  -1.119  56.535  1.00  0.00     0.217 HD
ENDBRANCH  10  25
TORSDOF 6
ENDMDL
MODEL 2
REMARK VINA RESULT:      -7.4      2.524      4.405
REMARK  6 active torsions:
REMARK  status: ('A' for Active; 'I' for Inactive)
REMARK    1  A    between atoms: O1_2  and  C2_3 
REMARK    2  A    between atoms: C5_6  and  N1_7 
REMARK    3  A    between atoms: N1_7  and  C6_8 
REMARK    4  A    between atoms: C9_11  and  O2_12 
REMARK    5  A    between atoms: C11_14  and  O3_15 
REMARK    6  A    between atoms: C17_23  and  O4_24 
ROOT
HETATM    1  C2  UNL     1      24.020  -0.721  54.216  1.00  0.00     0.102 A 
HETATM    2  C3  UNL     1      23.661   0.019  53.108  1.00  0.00     0.057 A 
HETATM    3  C4  UNL     1      22.379   0.289  52.689  1.00  0.00     0.042 A 
HETATM    4  C5  UNL     1      22.076   1.035  51.571  1.00  0.00     0.142 A 
HETATM    5  N2  UNL     1      20.765   1.170  51.351  1.00  0.00    -0.224 NA
HETATM    6  C14 UNL     1      19.774   0.666  52.091  1.00  0.00     0.236 A 
HETATM    7  N3  UNL     1      20.108  -0.067  53.191  1.00  0.00    -0.241 NA
HETATM    8  C15 UNL     1      21.413  -0.264  53.502  1.00  0.00     0.075 A 
HETATM    9  C16 UNL     1      21.704  -1.012  54.621  1.00  0.00     0.072 A 
HETATM   10  C17 UNL     1      23.010  -1.249  54.992  1.00  0.00     0.101 A 
ENDROOT
BRANCH   4  11
HETATM   11  N1  UNL     1      23.117   1.580  50.786  1.00  0.00    -0.340 N 
HETATM   12  H5  UNL     1      23.639   1.014  50.115  1.00  0.00     0.167 HD
BRANCH  11  13
HETATM   13  C6  UNL     1      23.589   2.913  50.786  1.00  0.00     0.036 A 
HETATM   14  C7  UNL     1      23.193   3.852  51.695  1.00  0.00     0.032 A 
HETATM   15  C8  UNL     1      23.635   5.155  51.735  1.00  0.00     0.042 A 
HETATM   16  C9  UNL     1      24.552   5.592  50.803  1.00  0.00     0.101 A 
HETATM   17  C11 UNL     1      24.982   4.687  49.866  1.00  0.00     0.103 A 
HETATM   18  C13 UNL     1      24.503   3.402  49.879  1.00  0.00     0.069 A 
BRANCH  16  19
HETATM   19  O2  UNL     1      25.046   6.872  50.767  1.00  0.00    -0.353 OA
HETATM   20  C10 UNL     1      24.289   8.003  50.394  1.00  0.00     0.210 C 
ENDBRANCH  16  19
BRANCH  17  21
HETATM   21  O3  UNL     1      25.903   5.095  48.915  1.00  0.00    -0.353 OA
HETATM   22  C12 UNL     1      27.242   4.645  48.909  1.00  0.00     0.210 C 
ENDBRANCH  17  21
ENDBRANCH  11  13
ENDBRANCH   4  11
BRANCH   1  23
HETATM   23  O1  UNL     1      25.341  -0.949  54.575  1.00  0.00    -0.353 OA
HETATM   24  C1  UNL     1      26.246   0.151  54.682  1.00  0.00     0.210 C 
ENDBRANCH   1  23
BRANCH  10  25
HETATM   25  O4  UNL     1      23.242  -2.009  56.129  1.00  0.00    -0.358 OA
HETATM   26  H17 UNL     1      23.715  -1.563  56.922  1.00  0.00     0.217 HD
ENDBRANCH  10  25
TORSDOF 6
ENDMDL
MODEL 3
REMARK VINA RESULT:      -7.4      1.734      3.050
REMARK  6 active torsions:
REMARK  status: ('A' for Active; 'I' for Inactive)
REMARK    1  A    between atoms: O1_2  and  C2_3 
REMARK    2  A    between atoms: C5_6  and  N1_7 
REMARK    3  A    between atoms: N1_7  and  C6_8 
REMARK    4  A    between atoms: C9_11  and  O2_12 
REMARK    5  A    between atoms: C11_14  and  O3_15 
REMARK    6  A    between atoms: C17_23  and  O4_24 
ROOT
HETATM    1  C2  UNL     1      26.009  -0.152  54.444  1.00  0.00     0.102 A 
HETATM    2  C3  UNL     1      25.894   0.674  53.345  1.00  0.00     0.057 A 
HETATM    3  C4  UNL     1      24.754   0.896  52.607  1.00  0.00     0.042 A 
HETATM    4  C5  UNL     1      24.695   1.733  51.516  1.00  0.00     0.142 A 
HETATM    5  N2  UNL     1      23.486   1.797  50.949  1.00  0.00    -0.224 NA
HETATM    6  C14 UNL     1      22.386   1.147  51.337  1.00  0.00     0.236 A 
HETATM    7  N3  UNL     1      22.478   0.326  52.422  1.00  0.00    -0.241 NA
HETATM    8  C15 UNL     1      23.663   0.190  53.068  1.00  0.00     0.075 A 
HETATM    9  C16 UNL     1      23.711  -0.650  54.158  1.00  0.00     0.072 A 
HETATM   10  C17 UNL     1      24.884  -0.832  54.859  1.00  0.00     0.101 A 
ENDROOT
BRANCH   4  11
HETATM   11  N1  UNL     1      25.851   2.432  51.101  1.00  0.00    -0.340 N 
HETATM   12  H5  UNL     1      26.791   2.103  51.329  1.00  0.00     0.167 HD
BRANCH  11  13
HETATM   13  C6  UNL     1      25.911   3.629  50.349  1.00  0.00     0.036 A 
HETATM   14  C7  UNL     1      26.919   3.916  49.473  1.00  0.00     0.032 A 
HETATM   15  C8  UNL     1      27.010   5.063  48.717  1.00  0.00     0.042 A 
HETATM   16  C9  UNL     1      26.030   6.026  48.819  1.00  0.00     0.101 A 
HETATM   17  C11 UNL     1      24.994   5.786  49.687  1.00  0.00     0.103 A 
HETATM   18  C13 UNL     1      24.960   4.622  50.413  1.00  0.00     0.069 A 
BRANCH  16  19
HETATM   19  O2  UNL     1      26.039   7.198  48.106  1.00  0.00    -0.353 OA
HETATM   20  C10 UNL     1      26.952   8.252  48.326  1.00  0.00     0.210 C 
ENDBRANCH  16  19
BRANCH  17  21
HETATM   21  O3  UNL     1      23.993   6.735  49.813  1.00  0.00    -0.353 OA
HETATM   22  C12 UNL     1      23.978   7.692  50.853  1.00  0.00     0.210 C 
ENDBRANCH  17  21
ENDBRANCH  11  13
ENDBRANCH   4  11
BRANCH   1  23
HETATM   23  O1  UNL     1      27.200  -0.322  55.138  1.00  0.00    -0.353 OA
HETATM   24  C1  UNL     1      28.416   0.194  54.595  1.00  0.00     0.210 C 
ENDBRANCH   1  23
BRANCH  10  25
HETATM   25  O4  UNL     1      24.872  -1.690  55.948  1.00  0.00    -0.358 OA
HETATM   26  H17 UNL     1      24.173  -2.439  55.968  1.00  0.00     0.217 HD
ENDBRANCH  10  25
TORSDOF 6
ENDMDL
MODEL 4
REMARK VINA RESULT:      -7.2      3.066      5.191
REMARK  6 active torsions:
REMARK  status: ('A' for Active; 'I' for Inactive)
REMARK    1  A    between atoms: O1_2  and  C2_3 
REMARK    2  A    between atoms: C5_6  and  N1_7 
REMARK    3  A    between atoms: N1_7  and  C6_8 
REMARK    4  A    between atoms: C9_11  and  O2_12 
REMARK    5  A    between atoms: C11_14  and  O3_15 
REMARK    6  A    between atoms: C17_23  and  O4_24 
ROOT
HETATM    1  C2  UNL     1      27.064   2.104  52.244  1.00  0.00     0.102 A 
HETATM    2  C3  UNL     1      25.883   1.398  52.340  1.00  0.00     0.057 A 
HETATM    3  C4  UNL     1      25.517   0.557  53.365  1.00  0.00     0.042 A 
HETATM    4  C5  UNL     1      24.321  -0.126  53.410  1.00  0.00     0.142 A 
HETATM    5  N2  UNL     1      24.175  -0.888  54.498  1.00  0.00    -0.224 NA
HETATM    6  C14 UNL     1      25.051  -1.033  55.496  1.00  0.00     0.236 A 
HETATM    7  N3  UNL     1      26.225  -0.343  55.421  1.00  0.00    -0.241 NA
HETATM    8  C15 UNL     1      26.471   0.459  54.355  1.00  0.00     0.075 A 
HETATM    9  C16 UNL     1      27.669   1.137  54.320  1.00  0.00     0.072 A 
HETATM   10  C17 UNL     1      27.981   1.967  53.265  1.00  0.00     0.101 A 
ENDROOT
BRANCH   4  11
HETATM   11  N1  UNL     1      23.384   0.027  52.364  1.00  0.00    -0.340 N 
HETATM   12  H5  UNL     1      23.426  -0.541  51.515  1.00  0.00     0.167 HD
BRANCH  11  13
HETATM   13  C6  UNL     1      22.295   0.928  52.307  1.00  0.00     0.036 A 
HETATM   14  C7  UNL     1      21.125   0.738  52.985  1.00  0.00     0.032 A 
HETATM   15  C8  UNL     1      20.047   1.593  52.962  1.00  0.00     0.042 A 
HETATM   16  C9  UNL     1      20.107   2.746  52.210  1.00  0.00     0.101 A 
HETATM   17  C11 UNL     1      21.262   2.984  51.508  1.00  0.00     0.103 A 
HETATM   18  C13 UNL     1      22.302   2.092  51.571  1.00  0.00     0.069 A 
BRANCH  16  19
HETATM   19  O2  UNL     1      19.082   3.654  52.128  1.00  0.00    -0.353 OA
HETATM   20  C10 UNL     1      17.849   3.401  51.490  1.00  0.00     0.210 C 
ENDBRANCH  16  19
BRANCH  17  21
HETATM   21  O3  UNL     1      21.354   4.134  50.741  1.00  0.00    -0.353 OA
HETATM   22  C12 UNL     1      22.554   4.869  50.612  1.00  0.00     0.210 C 
ENDBRANCH  17  21
ENDBRANCH  11  13
ENDBRANCH   4  11
BRANCH   1  23
HETATM   23  O1  UNL     1      27.360   2.937  51.174  1.00  0.00    -0.353 OA
HETATM   24  C1  UNL     1      26.301   3.478  50.382  1.00  0.00     0.210 C 
ENDBRANCH   1  23
BRANCH  10  25
HETATM   25  O4  UNL     1      29.202   2.623  53.284  1.00  0.00    -0.358 OA
HETATM   26  H17 UNL     1      29.582   2.914  54.191  1.00  0.00     0.217 HD
ENDBRANCH  10  25
TORSDOF 6
ENDMDL
MODEL 5
REMARK VINA RESULT:      -7.1      2.653      4.428
REMARK  6 active torsions:
REMARK  status: ('A' for Active; 'I' for Inactive)
REMARK    1  A    between atoms: O1_2  and  C2_3 
REMARK    2  A    between atoms: C5_6  and  N1_7 
REMARK    3  A    between atoms: N1_7  and  C6_8 
REMARK    4  A    between atoms: C9_11  and  O2_12 
REMARK    5  A    between atoms: C11_14  and  O3_15 
REMARK    6  A    between atoms: C17_23  and  O4_24 
ROOT
HETATM    1  C2  UNL     1      24.948  -0.377  54.275  1.00  0.00     0.102 A 
HETATM    2  C3  UNL     1      24.099   0.128  53.312  1.00  0.00     0.057 A 
HETATM    3  C4  UNL     1      22.735  -0.047  53.255  1.00  0.00     0.042 A 
HETATM    4  C5  UNL     1      21.933   0.480  52.268  1.00  0.00     0.142 A 
HETATM    5  N2  UNL     1      20.638   0.183  52.409  1.00  0.00    -0.224 NA
HETATM    6  C14 UNL     1      20.086  -0.546  53.382  1.00  0.00     0.236 A 
HETATM    7  N3  UNL     1      20.908  -1.054  54.344  1.00  0.00    -0.241 NA
HETATM    8  C15 UNL     1      22.242  -0.810  54.291  1.00  0.00     0.075 A 
HETATM    9  C16 UNL     1      23.035  -1.343  55.283  1.00  0.00     0.072 A 
HETATM   10  C17 UNL     1      24.397  -1.133  55.288  1.00  0.00     0.101 A 
ENDROOT
BRANCH   4  11
HETATM   11  N1  UNL     1      22.504   1.261  51.238  1.00  0.00    -0.340 N 
HETATM   12  H5  UNL     1      22.680   0.879  50.306  1.00  0.00     0.167 HD
BRANCH  11  13
HETATM   13  C6  UNL     1      22.908   2.615  51.306  1.00  0.00     0.036 A 
HETATM   14  C7  UNL     1      22.152   3.598  51.877  1.00  0.00     0.032 A 
HETATM   15  C8  UNL     1      22.513   4.923  51.971  1.00  0.00     0.042 A 
HETATM   16  C9  UNL     1      23.724   5.338  51.461  1.00  0.00     0.101 A 
HETATM   17  C11 UNL     1      24.522   4.387  50.874  1.00  0.00     0.103 A 
HETATM   18  C13 UNL     1      24.106   3.082  50.812  1.00  0.00     0.069 A 
BRANCH  16  19
HETATM   19  O2  UNL     1      24.164   6.636  51.509  1.00  0.00    -0.353 OA
HETATM   20  C10 UNL     1      23.626   7.684  50.731  1.00  0.00     0.210 C 
ENDBRANCH  16  19
BRANCH  17  21
HETATM   21  O3  UNL     1      25.746   4.772  50.351  1.00  0.00    -0.353 OA
HETATM   22  C12 UNL     1      25.915   5.134  48.996  1.00  0.00     0.210 C 
ENDBRANCH  17  21
ENDBRANCH  11  13
ENDBRANCH   4  11
BRANCH   1  23
HETATM   23  O1  UNL     1      26.318  -0.154  54.263  1.00  0.00    -0.353 OA
HETATM   24  C1  UNL     1      27.056  -0.341  53.055  1.00  0.00     0.210 C 
ENDBRANCH   1  23
BRANCH  10  25
HETATM   25  O4  UNL     1      25.144  -1.693  56.312  1.00  0.00    -0.358 OA
HETATM   26  H17 UNL     1      25.917  -2.319  56.062  1.00  0.00     0.217 HD
ENDBRANCH  10  25
TORSDOF 6
ENDMDL
MODEL 6
REMARK VINA RESULT:      -7.1      2.034      2.731
REMARK  6 active torsions:
REMARK  status: ('A' for Active; 'I' for Inactive)
REMARK    1  A    between atoms: O1_2  and  C2_3 
REMARK    2  A    between atoms: C5_6  and  N1_7 
REMARK    3  A    between atoms: N1_7  and  C6_8 
REMARK    4  A    between atoms: C9_11  and  O2_12 
REMARK    5  A    between atoms: C11_14  and  O3_15 
REMARK    6  A    between atoms: C17_23  and  O4_24 
ROOT
HETATM    1  C2  UNL     1      21.247   0.265  53.255  1.00  0.00     0.102 A 
HETATM    2  C3  UNL     1      22.194   0.930  52.505  1.00  0.00     0.057 A 
HETATM    3  C4  UNL     1      23.554   0.724  52.540  1.00  0.00     0.042 A 
HETATM    4  C5  UNL     1      24.457   1.418  51.766  1.00  0.00     0.142 A 
HETATM    5  N2  UNL     1      25.728   1.055  51.964  1.00  0.00    -0.224 NA
HETATM    6  C14 UNL     1      26.171   0.120  52.809  1.00  0.00     0.236 A 
HETATM    7  N3  UNL     1      25.250  -0.549  53.560  1.00  0.00    -0.241 NA
HETATM    8  C15 UNL     1      23.932  -0.255  53.434  1.00  0.00     0.075 A 
HETATM    9  C16 UNL     1      23.037  -0.955  54.213  1.00  0.00     0.072 A 
HETATM   10  C17 UNL     1      21.685  -0.704  54.133  1.00  0.00     0.101 A 
ENDROOT
BRANCH   4  11
HETATM   11  N1  UNL     1      24.000   2.403  50.863  1.00  0.00    -0.340 N 
HETATM   12  H5  UNL     1      23.079   2.346  50.424  1.00  0.00     0.167 HD
BRANCH  11  13
HETATM   13  C6  UNL     1      24.684   3.565  50.435  1.00  0.00     0.036 A 
HETATM   14  C7  UNL     1      25.749   3.539  49.581  1.00  0.00     0.032 A 
HETATM   15  C8  UNL     1      26.435   4.646  49.134  1.00  0.00     0.042 A 
HETATM   16  C9  UNL     1      26.053   5.901  49.556  1.00  0.00     0.101 A 
HETATM   17  C11 UNL     1      24.988   5.982  50.417  1.00  0.00     0.103 A 
HETATM   18  C13 UNL     1      24.345   4.841  50.826  1.00  0.00     0.069 A 
BRANCH  16  19
HETATM   19  O2  UNL     1      26.679   7.057  49.163  1.00  0.00    -0.353 OA
HETATM   20  C10 UNL     1      26.801   7.474  47.820  1.00  0.00     0.210 C 
ENDBRANCH  16  19
BRANCH  17  21
HETATM   21  O3  UNL     1      24.579   7.229  50.860  1.00  0.00    -0.353 OA
HETATM   22  C12 UNL     1      23.297   7.754  50.582  1.00  0.00     0.210 C 
ENDBRANCH  17  21
ENDBRANCH  11  13
ENDBRANCH   4  11
BRANCH   1  23
HETATM   23  O1  UNL     1      19.888   0.531  53.161  1.00  0.00    -0.353 OA
HETATM   24  C1  UNL     1      19.114  -0.088  52.133  1.00  0.00     0.210 C 
ENDBRANCH   1  23
BRANCH  10  25
HETATM   25  O4  UNL     1      20.832  -1.440  54.941  1.00  0.00    -0.358 OA
HETATM   26  H17 UNL     1      21.220  -1.882  55.781  1.00  0.00     0.217 HD
ENDBRANCH  10  25
TORSDOF 6
ENDMDL
MODEL 7
REMARK VINA RESULT:      -7.1      2.379      3.810
REMARK  6 active torsions:
REMARK  status: ('A' for Active; 'I' for Inactive)
REMARK    1  A    between atoms: O1_2  and  C2_3 
REMARK    2  A    between atoms: C5_6  and  N1_7 
REMARK    3  A    between atoms: N1_7  and  C6_8 
REMARK    4  A    between atoms: C9_11  and  O2_12 
REMARK    5  A    between atoms: C11_14  and  O3_15 
REMARK    6  A    between atoms: C17_23  and  O4_24 
ROOT
HETATM    1  C2  UNL     1      25.090  -0.572  54.088  1.00  0.00     0.102 A 
HETATM    2  C3  UNL     1      24.414   0.073  53.074  1.00  0.00     0.057 A 
HETATM    3  C4  UNL     1      23.051   0.240  52.981  1.00  0.00     0.042 A 
HETATM    4  C5  UNL     1      22.426   0.894  51.942  1.00  0.00     0.142 A 
HETATM    5  N2  UNL     1      21.095   0.938  52.055  1.00  0.00    -0.224 NA
HETATM    6  C14 UNL     1      20.359   0.425  53.045  1.00  0.00     0.236 A 
HETATM    7  N3  UNL     1      21.009  -0.216  54.058  1.00  0.00    -0.241 NA
HETATM    8  C15 UNL     1      22.362  -0.316  54.037  1.00  0.00     0.075 A 
HETATM    9  C16 UNL     1      22.977  -0.971  55.080  1.00  0.00     0.072 A 
HETATM   10  C17 UNL     1      24.347  -1.108  55.119  1.00  0.00     0.101 A 
ENDROOT
BRANCH   4  11
HETATM   11  N1  UNL     1      23.194   1.447  50.894  1.00  0.00    -0.340 N 
HETATM   12  H5  UNL     1      23.472   0.896  50.079  1.00  0.00     0.167 HD
BRANCH  11  13
HETATM   13  C6  UNL     1      23.685   2.770  50.790  1.00  0.00     0.036 A 
HETATM   14  C7  UNL     1      24.923   3.077  50.304  1.00  0.00     0.032 A 
HETATM   15  C8  UNL     1      25.434   4.350  50.178  1.00  0.00     0.042 A 
HETATM   16  C9  UNL     1      24.670   5.431  50.560  1.00  0.00     0.101 A 
HETATM   17  C11 UNL     1      23.416   5.176  51.056  1.00  0.00     0.103 A 
HETATM   18  C13 UNL     1      22.964   3.885  51.157  1.00  0.00     0.069 A 
BRANCH  16  19
HETATM   19  O2  UNL     1      25.096   6.732  50.470  1.00  0.00    -0.353 OA
HETATM   20  C10 UNL     1      26.118   7.172  49.602  1.00  0.00     0.210 C 
ENDBRANCH  16  19
BRANCH  17  21
HETATM   21  O3  UNL     1      22.623   6.241  51.450  1.00  0.00    -0.353 OA
HETATM   22  C12 UNL     1      21.522   6.694  50.688  1.00  0.00     0.210 C 
ENDBRANCH  17  21
ENDBRANCH  11  13
ENDBRANCH   4  11
BRANCH   1  23
HETATM   23  O1  UNL     1      26.472  -0.699  54.111  1.00  0.00    -0.353 OA
HETATM   24  C1  UNL     1      27.276   0.390  54.569  1.00  0.00     0.210 C 
ENDBRANCH   1  23
BRANCH  10  25
HETATM   25  O4  UNL     1      24.911  -1.778  56.194  1.00  0.00    -0.358 OA
HETATM   26  H17 UNL     1      24.468  -2.646  56.511  1.00  0.00     0.217 HD
ENDBRANCH  10  25
TORSDOF 6
ENDMDL
MODEL 8
REMARK VINA RESULT:      -7.0      2.824      6.505
REMARK  6 active torsions:
REMARK  status: ('A' for Active; 'I' for Inactive)
REMARK    1  A    between atoms: O1_2  and  C2_3 
REMARK    2  A    between atoms: C5_6  and  N1_7 
REMARK    3  A    between atoms: N1_7  and  C6_8 
REMARK    4  A    between atoms: C9_11  and  O2_12 
REMARK    5  A    between atoms: C11_14  and  O3_15 
REMARK    6  A    between atoms: C17_23  and  O4_24 
ROOT
HETATM    1  C2  UNL     1      21.969   1.208  50.405  1.00  0.00     0.102 A 
HETATM    2  C3  UNL     1      22.975   1.876  51.071  1.00  0.00     0.057 A 
HETATM    3  C4  UNL     1      23.720   2.925  50.582  1.00  0.00     0.042 A 
HETATM    4  C5  UNL     1      24.716   3.558  51.292  1.00  0.00     0.142 A 
HETATM    5  N2  UNL     1      25.310   4.550  50.621  1.00  0.00    -0.224 NA
HETATM    6  C14 UNL     1      25.029   4.958  49.381  1.00  0.00     0.236 A 
HETATM    7  N3  UNL     1      24.037   4.310  48.706  1.00  0.00    -0.241 NA
HETATM    8  C15 UNL     1      23.372   3.286  49.298  1.00  0.00     0.075 A 
HETATM    9  C16 UNL     1      22.378   2.661  48.579  1.00  0.00     0.072 A 
HETATM   10  C17 UNL     1      21.665   1.614  49.123  1.00  0.00     0.101 A 
ENDROOT
BRANCH   4  11
HETATM   11  N1  UNL     1      25.017   3.141  52.608  1.00  0.00    -0.340 N 
HETATM   12  H5  UNL     1      24.589   3.582  53.424  1.00  0.00     0.167 HD
BRANCH  11  13
HETATM   13  C6  UNL     1      25.900   2.110  53.005  1.00  0.00     0.036 A 
HETATM   14  C7  UNL     1      27.250   2.156  52.803  1.00  0.00     0.032 A 
HETATM   15  C8  UNL     1      28.144   1.180  53.182  1.00  0.00     0.042 A 
HETATM   16  C9  UNL     1      27.685   0.047  53.819  1.00  0.00     0.101 A 
HETATM   17  C11 UNL     1      26.335  -0.049  54.045  1.00  0.00     0.103 A 
HETATM   18  C13 UNL     1      25.496   0.959  53.643  1.00  0.00     0.069 A 
BRANCH  16  19
HETATM   19  O2  UNL     1      28.502  -0.975  54.231  1.00  0.00    -0.353 OA
HETATM   20  C10 UNL     1      29.620  -1.438  53.503  1.00  0.00     0.210 C 
ENDBRANCH  16  19
BRANCH  17  21
HETATM   21  O3  UNL     1      25.843  -1.176  54.683  1.00  0.00    -0.353 OA
HETATM   22  C12 UNL     1      24.675  -1.152  55.478  1.00  0.00     0.210 C 
ENDBRANCH  17  21
ENDBRANCH  11  13
ENDBRANCH   4  11
BRANCH   1  23
HETATM   23  O1  UNL     1      21.261   0.156  50.969  1.00  0.00    -0.353 OA
HETATM   24  C1  UNL     1      20.163   0.428  51.842  1.00  0.00     0.210 C 
ENDBRANCH   1  23
BRANCH  10  25
HETATM   25  O4  UNL     1      20.676   1.023  48.352  1.00  0.00    -0.358 OA
HETATM   26  H17 UNL     1      20.005   1.632  47.873  1.00  0.00     0.217 HD
ENDBRANCH  10  25
TORSDOF 6
ENDMDL
MODEL 9
REMARK VINA RESULT:      -7.0      2.607      4.108
REMARK  6 active torsions:
REMARK  status: ('A' for Active; 'I' for Inactive)
REMARK    1  A    between atoms: O1_2  and  C2_3 
REMARK    2  A    between atoms: C5_6  and  N1_7 
REMARK    3  A    between atoms: N1_7  and  C6_8 
REMARK    4  A    between atoms: C9_11  and  O2_12 
REMARK    5  A    between atoms: C11_14  and  O3_15 
REMARK    6  A    between atoms: C17_23  and  O4_24 
ROOT
HETATM    1  C2  UNL     1      26.828   0.801  53.138  1.00  0.00     0.102 A 
HETATM    2  C3  UNL     1      25.670   1.137  52.469  1.00  0.00     0.057 A 
HETATM    3  C4  UNL     1      24.410   0.643  52.720  1.00  0.00     0.042 A 
HETATM    4  C5  UNL     1      23.284   1.014  52.018  1.00  0.00     0.142 A 
HETATM    5  N2  UNL     1      22.167   0.407  52.430  1.00  0.00    -0.224 NA
HETATM    6  C14 UNL     1      22.059  -0.485  53.418  1.00  0.00     0.236 A 
HETATM    7  N3  UNL     1      23.193  -0.830  54.093  1.00  0.00    -0.241 NA
HETATM    8  C15 UNL     1      24.381  -0.271  53.751  1.00  0.00     0.075 A 
HETATM    9  C16 UNL     1      25.499  -0.649  54.459  1.00  0.00     0.072 A 
HETATM   10  C17 UNL     1      26.736  -0.119  54.162  1.00  0.00     0.101 A 
ENDROOT
BRANCH   4  11
HETATM   11  N1  UNL     1      23.385   1.963  50.976  1.00  0.00    -0.340 N 
HETATM   12  H5  UNL     1      23.810   1.732  50.076  1.00  0.00     0.167 HD
BRANCH  11  13
HETATM   13  C6  UNL     1      22.948   3.308  50.990  1.00  0.00     0.036 A 
HETATM   14  C7  UNL     1      21.649   3.679  50.788  1.00  0.00     0.032 A 
HETATM   15  C8  UNL     1      21.182   4.974  50.802  1.00  0.00     0.042 A 
HETATM   16  C9  UNL     1      22.058   6.012  51.034  1.00  0.00     0.101 A 
HETATM   17  C11 UNL     1      23.377   5.692  51.242  1.00  0.00     0.103 A 
HETATM   18  C13 UNL     1      23.780   4.382  51.216  1.00  0.00     0.069 A 
BRANCH  16  19
HETATM   19  O2  UNL     1      21.682   7.331  51.065  1.00  0.00    -0.353 OA
HETATM   20  C10 UNL     1      21.171   8.035  49.954  1.00  0.00     0.210 C 
ENDBRANCH  16  19
BRANCH  17  21
HETATM   21  O3  UNL     1      24.283   6.713  51.477  1.00  0.00    -0.353 OA
HETATM   22  C12 UNL     1      25.180   7.179  50.489  1.00  0.00     0.210 C 
ENDBRANCH  17  21
ENDBRANCH  11  13
ENDBRANCH   4  11
BRANCH   1  23
HETATM   23  O1  UNL     1      28.065   1.347  52.825  1.00  0.00    -0.353 OA
HETATM   24  C1  UNL     1      28.553   2.467  53.565  1.00  0.00     0.210 C 
ENDBRANCH   1  23
BRANCH  10  25
HETATM   25  O4  UNL     1      27.827  -0.537  54.908  1.00  0.00    -0.358 OA
HETATM   26  H17 UNL     1      28.339   0.164  55.454  1.00  0.00     0.217 HD
ENDBRANCH  10  25
TORSDOF 6
ENDMDL
