MODEL 1
REMARK VINA RESULT:      -7.9      0.000      0.000
REMARK  2 active torsions:
REMARK  status: ('A' for Active; 'I' for Inactive)
REMARK    1  A    between atoms: C11_16  and  C12_17 
REMARK    2  A    between atoms: C12_17  and  N4_18 
ROOT
HETATM    1  F1  UNL     1      26.219  -1.934  53.228  1.00  0.00    -0.204 F 
HETATM    2  C1  UNL     1      26.377  -0.600  53.088  1.00  0.00     0.139 C 
HETATM    3  C2  UNL     1      27.642  -0.135  53.036  1.00  0.00     0.063 C 
HETATM    4  C3  UNL     1      28.092   1.267  52.888  1.00  0.00     0.116 C 
HETATM    5  N1  UNL     1      27.536   2.254  52.329  1.00  0.00    -0.273 NA
HETATM    6  C4  UNL     1      26.477   2.851  51.613  1.00  0.00     0.237 C 
HETATM    7  N2  UNL     1      26.650   2.739  50.165  1.00  0.00    -0.258 NA
HETATM    8  C5  UNL     1      26.698   3.784  49.444  1.00  0.00     0.189 C 
HETATM    9  N3  UNL     1      26.707   5.122  48.962  1.00  0.00    -0.400 NA
HETATM   10  C6  UNL     1      25.947   6.074  49.429  1.00  0.00     0.326 C 
HETATM   11  C7  UNL     1      25.217   7.299  49.771  1.00  0.00     0.001 C 
HETATM   12  C8  UNL     1      24.320   7.223  50.745  1.00  0.00    -0.003 C 
HETATM   13  C9  UNL     1      24.095   5.889  51.443  1.00  0.00     0.194 C 
HETATM   14  O1  UNL     1      22.810   5.531  51.291  1.00  0.00    -0.387 OA
HETATM   15  C10 UNL     1      22.394   4.350  51.771  1.00  0.00     0.173 C 
HETATM   16  C11 UNL     1      22.771   3.100  51.076  1.00  0.00     0.024 C 
HETATM   17  C13 UNL     1      24.179   2.762  50.815  1.00  0.00     0.020 C 
HETATM   18  C14 UNL     1      25.081   2.612  52.023  1.00  0.00     0.056 C 
HETATM   19  C15 UNL     1      24.776   1.270  52.591  1.00  0.00     0.009 C 
HETATM   20  C16 UNL     1      25.050   0.052  53.026  1.00  0.00     0.069 C 
HETATM   21 CL1  UNL     1      23.695  -0.884  53.583  1.00  0.00    -0.081 Cl
ENDROOT
BRANCH  16  22
HETATM   22  C12 UNL     1      22.133   3.247  49.656  1.00  0.00     0.105 C 
BRANCH  22  23
HETATM   23  N4  UNL     1      23.147   3.696  48.723  1.00  0.00    -0.265 NA
HETATM   24  I1  UNL     1      22.345   5.227  47.557  1.00  0.00     0.017 I 
HETATM   25  H15 UNL     1      23.957   4.031  49.282  1.00  0.00     0.133 HD
ENDBRANCH  22  23
ENDBRANCH  16  22
TORSDOF 2
ENDMDL
MODEL 2
REMARK VINA RESULT:      -7.8      3.430      5.157
REMARK  2 active torsions:
REMARK  status: ('A' for Active; 'I' for Inactive)
REMARK    1  A    between atoms: C11_16  and  C12_17 
REMARK    2  A    between atoms: C12_17  and  N4_18 
ROOT
HETATM    1  F1  UNL     1      19.817  -0.582  53.856  1.00  0.00    -0.204 F 
HETATM    2  C1  UNL     1      20.393   0.195  52.913  1.00  0.00     0.139 C 
HETATM    3  C2  UNL     1      19.586   1.039  52.236  1.00  0.00     0.063 C 
HETATM    4  C3  UNL     1      19.956   1.989  51.164  1.00  0.00     0.116 C 
HETATM    5  N1  UNL     1      21.043   2.594  50.940  1.00  0.00    -0.273 NA
HETATM    6  C4  UNL     1      22.384   2.906  51.245  1.00  0.00     0.237 C 
HETATM    7  N2  UNL     1      22.498   4.039  52.162  1.00  0.00    -0.258 NA
HETATM    8  C5  UNL     1      23.146   5.076  51.821  1.00  0.00     0.189 C 
HETATM    9  N3  UNL     1      23.924   6.045  51.128  1.00  0.00    -0.400 NA
HETATM   10  C6  UNL     1      24.939   5.757  50.361  1.00  0.00     0.326 C 
HETATM   11  C7  UNL     1      26.095   5.701  49.461  1.00  0.00     0.001 C 
HETATM   12  C8  UNL     1      26.592   4.503  49.180  1.00  0.00    -0.003 C 
HETATM   13  C9  UNL     1      25.950   3.270  49.801  1.00  0.00     0.194 C 
HETATM   14  O1  UNL     1      26.872   2.621  50.529  1.00  0.00    -0.387 OA
HETATM   15  C10 UNL     1      26.514   1.533  51.226  1.00  0.00     0.173 C 
HETATM   16  C11 UNL     1      25.716   1.680  52.463  1.00  0.00     0.024 C 
HETATM   17  C13 UNL     1      24.428   2.391  52.464  1.00  0.00     0.020 C 
HETATM   18  C14 UNL     1      23.337   1.830  51.574  1.00  0.00     0.056 C 
HETATM   19  C15 UNL     1      22.786   0.655  52.303  1.00  0.00     0.009 C 
HETATM   20  C16 UNL     1      21.844  -0.091  52.855  1.00  0.00     0.069 C 
HETATM   21 CL1  UNL     1      22.377  -1.571  53.596  1.00  0.00    -0.081 Cl
ENDROOT
BRANCH  16  22
HETATM   22  C12 UNL     1      26.631   2.526  53.407  1.00  0.00     0.105 C 
BRANCH  22  23
HETATM   23  N4  UNL     1      28.017   2.329  53.027  1.00  0.00    -0.265 NA
HETATM   24  I1  UNL     1      28.802   0.769  54.165  1.00  0.00     0.017 I 
HETATM   25  H15 UNL     1      28.032   2.104  52.013  1.00  0.00     0.133 HD
ENDBRANCH  22  23
ENDBRANCH  16  22
TORSDOF 2
ENDMDL
MODEL 3
REMARK VINA RESULT:      -7.3      3.201      5.075
REMARK  2 active torsions:
REMARK  status: ('A' for Active; 'I' for Inactive)
REMARK    1  A    between atoms: C11_16  and  C12_17 
REMARK    2  A    between atoms: C12_17  and  N4_18 
ROOT
HETATM    1  F1  UNL     1      23.100  -1.343  55.817  1.00  0.00    -0.204 F 
HETATM    2  C1  UNL     1      22.453  -0.939  54.702  1.00  0.00     0.139 C 
HETATM    3  C2  UNL     1      21.139  -1.230  54.616  1.00  0.00     0.063 C 
HETATM    4  C3  UNL     1      20.204  -0.907  53.515  1.00  0.00     0.116 C 
HETATM    5  N1  UNL     1      20.212   0.043  52.683  1.00  0.00    -0.273 NA
HETATM    6  C4  UNL     1      20.767   1.217  52.132  1.00  0.00     0.237 C 
HETATM    7  N2  UNL     1      20.272   2.428  52.785  1.00  0.00    -0.258 NA
HETATM    8  C5  UNL     1      19.675   3.321  52.108  1.00  0.00     0.189 C 
HETATM    9  N3  UNL     1      19.071   4.087  51.073  1.00  0.00    -0.400 NA
HETATM   10  C6  UNL     1      19.543   4.179  49.860  1.00  0.00     0.326 C 
HETATM   11  C7  UNL     1      19.860   4.442  48.452  1.00  0.00     0.001 C 
HETATM   12  C8  UNL     1      20.948   3.869  47.954  1.00  0.00    -0.003 C 
HETATM   13  C9  UNL     1      21.800   2.987  48.856  1.00  0.00     0.194 C 
HETATM   14  O1  UNL     1      23.041   3.497  48.912  1.00  0.00    -0.387 OA
HETATM   15  C10 UNL     1      23.955   2.918  49.706  1.00  0.00     0.173 C 
HETATM   16  C11 UNL     1      23.873   3.094  51.172  1.00  0.00     0.024 C 
HETATM   17  C13 UNL     1      22.657   2.738  51.919  1.00  0.00     0.020 C 
HETATM   18  C14 UNL     1      22.214   1.290  51.855  1.00  0.00     0.056 C 
HETATM   19  C15 UNL     1      23.107   0.552  52.790  1.00  0.00     0.009 C 
HETATM   20  C16 UNL     1      23.402  -0.243  53.804  1.00  0.00     0.069 C 
HETATM   21 CL1  UNL     1      25.094  -0.491  54.115  1.00  0.00    -0.081 Cl
ENDROOT
BRANCH  16  22
HETATM   22  C12 UNL     1      24.023   4.636  51.379  1.00  0.00     0.105 C 
BRANCH  22  23
HETATM   23  N4  UNL     1      22.718   5.210  51.640  1.00  0.00    -0.265 NA
HETATM   24  I1  UNL     1      22.506   6.930  50.481  1.00  0.00     0.017 I 
HETATM   25  H15 UNL     1      22.008   4.495  51.390  1.00  0.00     0.133 HD
ENDBRANCH  22  23
ENDBRANCH  16  22
TORSDOF 2
ENDMDL
MODEL 4
REMARK VINA RESULT:      -7.2      2.683      4.099
REMARK  2 active torsions:
REMARK  status: ('A' for Active; 'I' for Inactive)
REMARK    1  A    between atoms: C11_16  and  C12_17 
REMARK    2  A    between atoms: C12_17  and  N4_18 
ROOT
HETATM    1  F1  UNL     1      27.329   0.668  55.253  1.00  0.00    -0.204 F 
HETATM    2  C1  UNL     1      26.429   0.629  54.247  1.00  0.00     0.139 C 
HETATM    3  C2  UNL     1      25.480  -0.327  54.309  1.00  0.00     0.063 C 
HETATM    4  C3  UNL     1      24.385  -0.588  53.348  1.00  0.00     0.116 C 
HETATM    5  N1  UNL     1      23.773   0.194  52.567  1.00  0.00    -0.273 NA
HETATM    6  C4  UNL     1      23.533   1.467  52.009  1.00  0.00     0.237 C 
HETATM    7  N2  UNL     1      22.553   2.236  52.776  1.00  0.00    -0.258 NA
HETATM    8  C5  UNL     1      21.487   2.648  52.221  1.00  0.00     0.189 C 
HETATM    9  N3  UNL     1      20.439   2.940  51.306  1.00  0.00    -0.400 NA
HETATM   10  C6  UNL     1      20.626   3.240  50.050  1.00  0.00     0.326 C 
HETATM   11  C7  UNL     1      20.566   3.596  48.629  1.00  0.00     0.001 C 
HETATM   12  C8  UNL     1      21.716   3.688  47.974  1.00  0.00    -0.003 C 
HETATM   13  C9  UNL     1      23.017   3.430  48.721  1.00  0.00     0.194 C 
HETATM   14  O1  UNL     1      23.784   4.529  48.649  1.00  0.00    -0.387 OA
HETATM   15  C10 UNL     1      24.959   4.556  49.296  1.00  0.00     0.173 C 
HETATM   16  C11 UNL     1      24.985   4.698  50.768  1.00  0.00     0.024 C 
HETATM   17  C13 UNL     1      24.261   3.761  51.641  1.00  0.00     0.020 C 
HETATM   18  C14 UNL     1      24.663   2.302  51.561  1.00  0.00     0.056 C 
HETATM   19  C15 UNL     1      25.924   2.188  52.343  1.00  0.00     0.009 C 
HETATM   20  C16 UNL     1      26.729   1.704  53.274  1.00  0.00     0.069 C 
HETATM   21 CL1  UNL     1      28.312   2.417  53.363  1.00  0.00    -0.081 Cl
ENDROOT
BRANCH  16  22
HETATM   22  C12 UNL     1      24.307   6.082  51.029  1.00  0.00     0.105 C 
BRANCH  22  23
HETATM   23  N4  UNL     1      22.943   5.868  51.470  1.00  0.00    -0.265 NA
HETATM   24  I1  UNL     1      21.695   7.170  50.425  1.00  0.00     0.017 I 
HETATM   25  H15 UNL     1      22.705   4.876  51.274  1.00  0.00     0.133 HD
ENDBRANCH  22  23
ENDBRANCH  16  22
TORSDOF 2
ENDMDL
MODEL 5
REMARK VINA RESULT:      -6.9      2.827      4.483
REMARK  2 active torsions:
REMARK  status: ('A' for Active; 'I' for Inactive)
REMARK    1  A    between atoms: C11_16  and  C12_17 
REMARK    2  A    between atoms: C12_17  and  N4_18 
ROOT
HETATM    1  F1  UNL     1      25.623  -0.588  54.800  1.00  0.00    -0.204 F 
HETATM    2  C1  UNL     1      24.675  -0.328  53.874  1.00  0.00     0.139 C 
HETATM    3  C2  UNL     1      23.490  -0.956  54.017  1.00  0.00     0.063 C 
HETATM    4  C3  UNL     1      22.293  -0.851  53.153  1.00  0.00     0.116 C 
HETATM    5  N1  UNL     1      21.883   0.098  52.428  1.00  0.00    -0.273 NA
HETATM    6  C4  UNL     1      21.994   1.399  51.893  1.00  0.00     0.237 C 
HETATM    7  N2  UNL     1      21.357   2.407  52.740  1.00  0.00    -0.258 NA
HETATM    8  C5  UNL     1      20.424   3.134  52.279  1.00  0.00     0.189 C 
HETATM    9  N3  UNL     1      19.442   3.751  51.456  1.00  0.00    -0.400 NA
HETATM   10  C6  UNL     1      19.607   4.014  50.190  1.00  0.00     0.326 C 
HETATM   11  C7  UNL     1      19.542   4.407  48.778  1.00  0.00     0.001 C 
HETATM   12  C8  UNL     1      20.608   4.167  48.027  1.00  0.00    -0.003 C 
HETATM   13  C9  UNL     1      21.827   3.510  48.660  1.00  0.00     0.194 C 
HETATM   14  O1  UNL     1      22.882   4.329  48.523  1.00  0.00    -0.387 OA
HETATM   15  C10 UNL     1      24.059   3.985  49.066  1.00  0.00     0.173 C 
HETATM   16  C11 UNL     1      24.247   4.074  50.531  1.00  0.00     0.024 C 
HETATM   17  C13 UNL     1      23.347   3.377  51.463  1.00  0.00     0.020 C 
HETATM   18  C14 UNL     1      23.282   1.867  51.349  1.00  0.00     0.056 C 
HETATM   19  C15 UNL     1      24.510   1.359  52.020  1.00  0.00     0.009 C 
HETATM   20  C16 UNL     1      25.204   0.632  52.879  1.00  0.00     0.069 C 
HETATM   21 CL1  UNL     1      26.930   0.833  52.832  1.00  0.00    -0.081 Cl
ENDROOT
BRANCH  16  22
HETATM   22  C12 UNL     1      24.042   5.591  50.849  1.00  0.00     0.105 C 
BRANCH  22  23
HETATM   23  N4  UNL     1      22.731   5.781  51.438  1.00  0.00    -0.265 NA
HETATM   24  I1  UNL     1      21.784   7.358  50.458  1.00  0.00     0.017 I 
HETATM   25  H15 UNL     1      22.206   4.892  51.321  1.00  0.00     0.133 HD
ENDBRANCH  22  23
ENDBRANCH  16  22
TORSDOF 2
ENDMDL
MODEL 6
REMARK VINA RESULT:      -6.5      6.237      8.590
REMARK  2 active torsions:
REMARK  status: ('A' for Active; 'I' for Inactive)
REMARK    1  A    between atoms: C11_16  and  C12_17 
REMARK    2  A    between atoms: C12_17  and  N4_18 
ROOT
HETATM    1  F1  UNL     1      25.068   5.277  50.302  1.00  0.00    -0.204 F 
HETATM    2  C1  UNL     1      25.808   5.973  49.412  1.00  0.00     0.139 C 
HETATM    3  C2  UNL     1      25.391   7.220  49.109  1.00  0.00     0.063 C 
HETATM    4  C3  UNL     1      26.011   8.187  48.176  1.00  0.00     0.116 C 
HETATM    5  N1  UNL     1      27.215   8.331  47.821  1.00  0.00    -0.273 NA
HETATM    6  C4  UNL     1      28.579   7.975  47.858  1.00  0.00     0.237 C 
HETATM    7  N2  UNL     1      29.309   8.670  48.917  1.00  0.00    -0.258 NA
HETATM    8  C5  UNL     1      30.307   9.402  48.633  1.00  0.00     0.189 C 
HETATM    9  N3  UNL     1      31.343  10.117  47.970  1.00  0.00    -0.400 NA
HETATM   10  C6  UNL     1      32.011   9.657  46.948  1.00  0.00     0.326 C 
HETATM   11  C7  UNL     1      32.892   9.378  45.809  1.00  0.00     0.001 C 
HETATM   12  C8  UNL     1      32.753   8.206  45.204  1.00  0.00    -0.003 C 
HETATM   13  C9  UNL     1      31.708   7.226  45.717  1.00  0.00     0.194 C 
HETATM   14  O1  UNL     1      32.321   6.087  46.078  1.00  0.00    -0.387 OA
HETATM   15  C10 UNL     1      31.602   5.096  46.625  1.00  0.00     0.173 C 
HETATM   16  C11 UNL     1      31.122   5.218  48.018  1.00  0.00     0.024 C 
HETATM   17  C13 UNL     1      30.306   6.363  48.450  1.00  0.00     0.020 C 
HETATM   18  C14 UNL     1      28.976   6.558  47.751  1.00  0.00     0.056 C 
HETATM   19  C15 UNL     1      28.051   5.562  48.358  1.00  0.00     0.009 C 
HETATM   20  C16 UNL     1      26.953   5.147  48.965  1.00  0.00     0.069 C 
HETATM   21 CL1  UNL     1      26.848   3.439  49.274  1.00  0.00    -0.081 Cl
ENDROOT
BRANCH  16  22
HETATM   22  C12 UNL     1      32.432   5.328  48.863  1.00  0.00     0.105 C 
BRANCH  22  23
HETATM   23  N4  UNL     1      32.868   6.711  48.887  1.00  0.00    -0.265 NA
HETATM   24  I1  UNL     1      34.909   6.770  48.468  1.00  0.00     0.017 I 
HETATM   25  H15 UNL     1      32.319   7.222  48.169  1.00  0.00     0.133 HD
ENDBRANCH  22  23
ENDBRANCH  16  22
TORSDOF 2
ENDMDL
MODEL 7
REMARK VINA RESULT:      -6.4      8.327      9.337
REMARK  2 active torsions:
REMARK  status: ('A' for Active; 'I' for Inactive)
REMARK    1  A    between atoms: C11_16  and  C12_17 
REMARK    2  A    between atoms: C12_17  and  N4_18 
ROOT
HETATM    1  F1  UNL     1      34.172   2.786  46.622  1.00  0.00    -0.204 F 
HETATM    2  C1  UNL     1      33.928   3.949  47.264  1.00  0.00     0.139 C 
HETATM    3  C2  UNL     1      34.975   4.549  47.866  1.00  0.00     0.063 C 
HETATM    4  C3  UNL     1      34.984   5.817  48.630  1.00  0.00     0.116 C 
HETATM    5  N1  UNL     1      34.248   6.839  48.533  1.00  0.00    -0.273 NA
HETATM    6  C4  UNL     1      33.189   7.566  47.950  1.00  0.00     0.237 C 
HETATM    7  N2  UNL     1      33.625   8.361  46.802  1.00  0.00    -0.258 NA
HETATM    8  C5  UNL     1      33.462   9.620  46.798  1.00  0.00     0.189 C 
HETATM    9  N3  UNL     1      33.133  10.965  47.125  1.00  0.00    -0.400 NA
HETATM   10  C6  UNL     1      32.049  11.320  47.756  1.00  0.00     0.326 C 
HETATM   11  C7  UNL     1      30.928  11.971  48.442  1.00  0.00     0.001 C 
HETATM   12  C8  UNL     1      29.951  11.192  48.890  1.00  0.00    -0.003 C 
HETATM   13  C9  UNL     1      30.041   9.689  48.668  1.00  0.00     0.194 C 
HETATM   14  O1  UNL     1      28.976   9.292  47.954  1.00  0.00    -0.387 OA
HETATM   15  C10 UNL     1      28.875   8.007  47.580  1.00  0.00     0.173 C 
HETATM   16  C11 UNL     1      29.732   7.489  46.491  1.00  0.00     0.024 C 
HETATM   17  C13 UNL     1      31.197   7.601  46.550  1.00  0.00     0.020 C 
HETATM   18  C14 UNL     1      31.889   6.912  47.708  1.00  0.00     0.056 C 
HETATM   19  C15 UNL     1      31.929   5.467  47.354  1.00  0.00     0.009 C 
HETATM   20  C16 UNL     1      32.492   4.290  47.142  1.00  0.00     0.069 C 
HETATM   21 CL1  UNL     1      31.424   3.005  46.662  1.00  0.00    -0.081 Cl
ENDROOT
BRANCH  16  22
HETATM   22  C12 UNL     1      29.323   8.344  45.247  1.00  0.00     0.105 C 
BRANCH  22  23
HETATM   23  N4  UNL     1      30.301   9.395  45.050  1.00  0.00    -0.265 NA
HETATM   24  I1  UNL     1      29.289  11.184  44.694  1.00  0.00     0.017 I 
HETATM   25  H15 UNL     1      30.876   9.451  45.913  1.00  0.00     0.133 HD
ENDBRANCH  22  23
ENDBRANCH  16  22
TORSDOF 2
ENDMDL
MODEL 8
REMARK VINA RESULT:      -6.4      3.674      5.436
REMARK  2 active torsions:
REMARK  status: ('A' for Active; 'I' for Inactive)
REMARK    1  A    between atoms: C11_16  and  C12_17 
REMARK    2  A    between atoms: C12_17  and  N4_18 
ROOT
HETATM    1  F1  UNL     1      27.866   2.670  52.323  1.00  0.00    -0.204 F 
HETATM    2  C1  UNL     1      26.781   1.885  52.149  1.00  0.00     0.139 C 
HETATM    3  C2  UNL     1      26.778   0.693  52.782  1.00  0.00     0.063 C 
HETATM    4  C3  UNL     1      25.725  -0.347  52.762  1.00  0.00     0.116 C 
HETATM    5  N1  UNL     1      24.477  -0.249  52.602  1.00  0.00    -0.273 NA
HETATM    6  C4  UNL     1      23.300   0.498  52.383  1.00  0.00     0.237 C 
HETATM    7  N2  UNL     1      22.692   0.958  53.631  1.00  0.00    -0.258 NA
HETATM    8  C5  UNL     1      21.502   0.627  53.924  1.00  0.00     0.189 C 
HETATM    9  N3  UNL     1      20.189   0.079  53.929  1.00  0.00    -0.400 NA
HETATM   10  C6  UNL     1      19.437  -0.027  52.869  1.00  0.00     0.326 C 
HETATM   11  C7  UNL     1      18.410  -0.256  51.846  1.00  0.00     0.001 C 
HETATM   12  C8  UNL     1      18.695   0.108  50.603  1.00  0.00    -0.003 C 
HETATM   13  C9  UNL     1      20.049   0.738  50.307  1.00  0.00     0.194 C 
HETATM   14  O1  UNL     1      19.854   1.962  49.791  1.00  0.00    -0.387 OA
HETATM   15  C10 UNL     1      20.914   2.735  49.512  1.00  0.00     0.173 C 
HETATM   16  C11 UNL     1      21.667   3.376  50.612  1.00  0.00     0.024 C 
HETATM   17  C13 UNL     1      22.239   2.584  51.712  1.00  0.00     0.020 C 
HETATM   18  C14 UNL     1      23.267   1.536  51.336  1.00  0.00     0.056 C 
HETATM   19  C15 UNL     1      24.534   2.279  51.098  1.00  0.00     0.009 C 
HETATM   20  C16 UNL     1      25.815   2.565  51.257  1.00  0.00     0.069 C 
HETATM   21 CL1  UNL     1      26.426   3.892  50.315  1.00  0.00    -0.081 Cl
ENDROOT
BRANCH  16  22
HETATM   22  C12 UNL     1      20.614   4.303  51.303  1.00  0.00     0.105 C 
BRANCH  22  23
HETATM   23  N4  UNL     1      20.420   5.489  50.493  1.00  0.00    -0.265 NA
HETATM   24  I1  UNL     1      22.187   6.595  50.501  1.00  0.00     0.017 I 
HETATM   25  H15 UNL     1      20.175   5.173  49.534  1.00  0.00     0.133 HD
ENDBRANCH  22  23
ENDBRANCH  16  22
TORSDOF 2
ENDMDL
MODEL 9
REMARK VINA RESULT:      -6.3      4.169      6.901
REMARK  2 active torsions:
REMARK  status: ('A' for Active; 'I' for Inactive)
REMARK    1  A    between atoms: C11_16  and  C12_17 
REMARK    2  A    between atoms: C12_17  and  N4_18 
ROOT
HETATM    1  F1  UNL     1      25.161   8.126  47.290  1.00  0.00    -0.204 F 
HETATM    2  C1  UNL     1      24.226   7.326  47.845  1.00  0.00     0.139 C 
HETATM    3  C2  UNL     1      23.054   7.202  47.187  1.00  0.00     0.063 C 
HETATM    4  C3  UNL     1      21.874   6.397  47.572  1.00  0.00     0.116 C 
HETATM    5  N1  UNL     1      21.789   5.335  48.250  1.00  0.00    -0.273 NA
HETATM    6  C4  UNL     1      22.355   4.281  48.998  1.00  0.00     0.237 C 
HETATM    7  N2  UNL     1      22.740   3.146  48.159  1.00  0.00    -0.258 NA
HETATM    8  C5  UNL     1      22.245   1.996  48.371  1.00  0.00     0.189 C 
HETATM    9  N3  UNL     1      21.514   0.887  48.879  1.00  0.00    -0.400 NA
HETATM   10  C6  UNL     1      21.287   0.679  50.147  1.00  0.00     0.326 C 
HETATM   11  C7  UNL     1      20.899   0.225  51.486  1.00  0.00     0.001 C 
HETATM   12  C8  UNL     1      21.283   0.966  52.517  1.00  0.00    -0.003 C 
HETATM   13  C9  UNL     1      22.098   2.226  52.260  1.00  0.00     0.194 C 
HETATM   14  O1  UNL     1      23.274   2.119  52.899  1.00  0.00    -0.387 OA
HETATM   15  C10 UNL     1      24.189   3.091  52.761  1.00  0.00     0.173 C 
HETATM   16  C11 UNL     1      24.945   3.216  51.497  1.00  0.00     0.024 C 
HETATM   17  C13 UNL     1      24.259   3.358  50.204  1.00  0.00     0.020 C 
HETATM   18  C14 UNL     1      23.364   4.569  50.035  1.00  0.00     0.056 C 
HETATM   19  C15 UNL     1      24.279   5.713  49.771  1.00  0.00     0.009 C 
HETATM   20  C16 UNL     1      24.748   6.757  49.108  1.00  0.00     0.069 C 
HETATM   21 CL1  UNL     1      26.137   7.541  49.801  1.00  0.00    -0.081 Cl
ENDROOT
BRANCH  16  22
HETATM   22  C12 UNL     1      25.720   1.863  51.383  1.00  0.00     0.105 C 
BRANCH  22  23
HETATM   23  N4  UNL     1      26.280   1.525  52.677  1.00  0.00    -0.265 NA
HETATM   24  I1  UNL     1      26.501  -0.546  52.783  1.00  0.00     0.017 I 
HETATM   25  H15 UNL     1      27.196   2.008  52.755  1.00  0.00     0.133 HD
ENDBRANCH  22  23
ENDBRANCH  16  22
TORSDOF 2
ENDMDL
