MODEL 1
REMARK VINA RESULT:      -7.4      0.000      0.000
REMARK  4 active torsions:
REMARK  status: ('A' for Active; 'I' for Inactive)
REMARK    1  A    between atoms: N1_3  and  C3_4 
REMARK    2  A    between atoms: N2_5  and  N3_6 
REMARK    3  A    between atoms: N3_6  and  C4_7 
REMARK    4  A    between atoms: C7_10  and  C8_11 
ROOT
HETATM    1  C4  UNL     1      25.895   2.187  53.072  1.00  0.00     0.047 A 
HETATM    2  C5  UNL     1      25.389   2.554  51.906  1.00  0.00     0.005 A 
HETATM    3  C6  UNL     1      24.282   2.170  50.999  1.00  0.00     0.044 A 
HETATM    4  C7  UNL     1      23.523   1.037  51.588  1.00  0.00     0.067 A 
HETATM    5  C14 UNL     1      24.132   0.670  52.886  1.00  0.00     0.022 A 
HETATM    6 CL1  UNL     1      23.163  -0.662  53.477  1.00  0.00    -0.088 Cl
HETATM    7  C15 UNL     1      25.136   1.058  53.652  1.00  0.00     0.051 A 
ENDROOT
BRANCH   1   8
HETATM    8  N3  UNL     1      27.001   2.691  53.811  1.00  0.00    -0.278 N 
HETATM    9  H6  UNL     1      26.762   3.103  54.740  1.00  0.00     0.189 HD
BRANCH   8  10
HETATM   10  N2  UNL     1      28.237   2.551  53.170  1.00  0.00    -0.168 NA
HETATM   11  C3  UNL     1      29.110   1.749  53.681  1.00  0.00     0.254 C 
BRANCH  11  12
HETATM   12  N1  UNL     1      28.855   0.998  54.884  1.00  0.00    -0.257 NA
HETATM   13  C2  UNL     1      28.803  -0.285  54.805  1.00  0.00     0.086 C 
HETATM   14  C1  UNL     1      29.022  -0.848  53.429  1.00  0.00     0.057 C 
ENDBRANCH  11  12
ENDBRANCH   8  10
ENDBRANCH   1   8
BRANCH   4  15
HETATM   15  C8  UNL     1      22.068   1.291  51.704  1.00  0.00    -0.046 A 
HETATM   16  C9  UNL     1      21.661   2.441  52.359  1.00  0.00     0.008 A 
HETATM   17  C10 UNL     1      20.325   2.748  52.508  1.00  0.00     0.004 A 
HETATM   18  C11 UNL     1      19.368   1.909  52.005  1.00  0.00     0.042 A 
HETATM   19  C12 UNL     1      19.739   0.736  51.337  1.00  0.00     0.117 A 
HETATM   20  F1  UNL     1      18.814  -0.117  50.826  1.00  0.00    -0.206 F 
HETATM   21  C13 UNL     1      21.096   0.441  51.195  1.00  0.00     0.050 A 
ENDBRANCH   4  15
TORSDOF 4
ENDMDL
MODEL 2
REMARK VINA RESULT:      -7.3      2.205      2.739
REMARK  4 active torsions:
REMARK  status: ('A' for Active; 'I' for Inactive)
REMARK    1  A    between atoms: N1_3  and  C3_4 
REMARK    2  A    between atoms: N2_5  and  N3_6 
REMARK    3  A    between atoms: N3_6  and  C4_7 
REMARK    4  A    between atoms: C7_10  and  C8_11 
ROOT
HETATM    1  C4  UNL     1      25.455   1.599  53.573  1.00  0.00     0.047 A 
HETATM    2  C5  UNL     1      24.696   0.541  53.338  1.00  0.00     0.005 A 
HETATM    3  C6  UNL     1      23.333   0.231  52.847  1.00  0.00     0.044 A 
HETATM    4  C7  UNL     1      22.620   1.493  52.524  1.00  0.00     0.067 A 
HETATM    5  C14 UNL     1      23.513   2.639  52.805  1.00  0.00     0.022 A 
HETATM    6 CL1  UNL     1      22.572   4.055  52.391  1.00  0.00    -0.088 Cl
HETATM    7  C15 UNL     1      24.739   2.851  53.251  1.00  0.00     0.051 A 
ENDROOT
BRANCH   1   8
HETATM    8  N3  UNL     1      26.787   1.703  54.063  1.00  0.00    -0.278 N 
HETATM    9  H6  UNL     1      27.338   2.501  53.677  1.00  0.00     0.189 HD
BRANCH   8  10
HETATM   10  N2  UNL     1      27.142   0.716  54.987  1.00  0.00    -0.168 NA
HETATM   11  C3  UNL     1      28.351   0.264  54.974  1.00  0.00     0.254 C 
BRANCH  11  12
HETATM   12  N1  UNL     1      29.341   0.741  54.043  1.00  0.00    -0.257 NA
HETATM   13  C2  UNL     1      29.943  -0.116  53.297  1.00  0.00     0.086 C 
HETATM   14  C1  UNL     1      29.522  -1.544  53.499  1.00  0.00     0.057 C 
ENDBRANCH  11  12
ENDBRANCH   8  10
ENDBRANCH   1   8
BRANCH   4  15
HETATM   15  C8  UNL     1      22.075   1.534  51.147  1.00  0.00    -0.046 A 
HETATM   16  C9  UNL     1      20.735   1.229  50.970  1.00  0.00     0.008 A 
HETATM   17  C10 UNL     1      20.154   1.245  49.720  1.00  0.00     0.004 A 
HETATM   18  C11 UNL     1      20.902   1.566  48.620  1.00  0.00     0.042 A 
HETATM   19  C12 UNL     1      22.259   1.880  48.757  1.00  0.00     0.117 A 
HETATM   20  F1  UNL     1      23.028   2.203  47.685  1.00  0.00    -0.206 F 
HETATM   21  C13 UNL     1      22.831   1.859  50.030  1.00  0.00     0.050 A 
ENDBRANCH   4  15
TORSDOF 4
ENDMDL
MODEL 3
REMARK VINA RESULT:      -7.3      2.956      3.531
REMARK  4 active torsions:
REMARK  status: ('A' for Active; 'I' for Inactive)
REMARK    1  A    between atoms: N1_3  and  C3_4 
REMARK    2  A    between atoms: N2_5  and  N3_6 
REMARK    3  A    between atoms: N3_6  and  C4_7 
REMARK    4  A    between atoms: C7_10  and  C8_11 
ROOT
HETATM    1  C4  UNL     1      25.456   1.873  53.085  1.00  0.00     0.047 A 
HETATM    2  C5  UNL     1      24.450   2.731  53.122  1.00  0.00     0.005 A 
HETATM    3  C6  UNL     1      23.851   3.787  52.272  1.00  0.00     0.044 A 
HETATM    4  C7  UNL     1      24.618   3.903  51.005  1.00  0.00     0.067 A 
HETATM    5  C14 UNL     1      25.727   2.923  51.019  1.00  0.00     0.022 A 
HETATM    6 CL1  UNL     1      26.550   3.153  49.492  1.00  0.00    -0.088 Cl
HETATM    7  C15 UNL     1      26.215   1.995  51.823  1.00  0.00     0.051 A 
ENDROOT
BRANCH   1   8
HETATM    8  N3  UNL     1      25.891   0.902  54.029  1.00  0.00    -0.278 N 
HETATM    9  H6  UNL     1      25.280   0.059  54.110  1.00  0.00     0.189 HD
BRANCH   8  10
HETATM   10  N2  UNL     1      27.073   1.235  54.698  1.00  0.00    -0.168 NA
HETATM   11  C3  UNL     1      28.045   0.386  54.695  1.00  0.00     0.254 C 
BRANCH  11  12
HETATM   12  N1  UNL     1      27.952  -0.888  54.028  1.00  0.00    -0.257 NA
HETATM   13  C2  UNL     1      28.991  -1.336  53.416  1.00  0.00     0.086 C 
HETATM   14  C1  UNL     1      30.201  -0.446  53.479  1.00  0.00     0.057 C 
ENDBRANCH  11  12
ENDBRANCH   8  10
ENDBRANCH   1   8
BRANCH   4  15
HETATM   15  C8  UNL     1      23.781   3.783  49.789  1.00  0.00    -0.046 A 
HETATM   16  C9  UNL     1      23.597   4.915  49.013  1.00  0.00     0.008 A 
HETATM   17  C10 UNL     1      22.832   4.883  47.866  1.00  0.00     0.004 A 
HETATM   18  C11 UNL     1      22.234   3.717  47.473  1.00  0.00     0.042 A 
HETATM   19  C12 UNL     1      22.395   2.551  48.230  1.00  0.00     0.117 A 
HETATM   20  F1  UNL     1      21.815   1.378  47.867  1.00  0.00    -0.206 F 
HETATM   21  C13 UNL     1      23.173   2.601  49.388  1.00  0.00     0.050 A 
ENDBRANCH   4  15
TORSDOF 4
ENDMDL
MODEL 4
REMARK VINA RESULT:      -7.3      3.947      7.087
REMARK  4 active torsions:
REMARK  status: ('A' for Active; 'I' for Inactive)
REMARK    1  A    between atoms: N1_3  and  C3_4 
REMARK    2  A    between atoms: N2_5  and  N3_6 
REMARK    3  A    between atoms: N3_6  and  C4_7 
REMARK    4  A    between atoms: C7_10  and  C8_11 
ROOT
HETATM    1  C4  UNL     1      23.972   1.520  51.829  1.00  0.00     0.047 A 
HETATM    2  C5  UNL     1      25.174   1.772  51.335  1.00  0.00     0.005 A 
HETATM    3  C6  UNL     1      26.595   1.616  51.722  1.00  0.00     0.044 A 
HETATM    4  C7  UNL     1      26.681   0.986  53.064  1.00  0.00     0.067 A 
HETATM    5  C14 UNL     1      25.313   0.727  53.565  1.00  0.00     0.022 A 
HETATM    6 CL1  UNL     1      25.541  -0.008  55.137  1.00  0.00    -0.088 Cl
HETATM    7  C15 UNL     1      24.065   0.895  53.164  1.00  0.00     0.051 A 
ENDROOT
BRANCH   1   8
HETATM    8  N3  UNL     1      22.674   1.749  51.292  1.00  0.00    -0.278 N 
HETATM    9  H6  UNL     1      22.502   1.324  50.355  1.00  0.00     0.189 HD
BRANCH   8  10
HETATM   10  N2  UNL     1      21.836   2.510  52.114  1.00  0.00    -0.168 NA
HETATM   11  C3  UNL     1      20.755   1.966  52.563  1.00  0.00     0.254 C 
BRANCH  11  12
HETATM   12  N1  UNL     1      20.386   0.610  52.249  1.00  0.00    -0.257 NA
HETATM   13  C2  UNL     1      20.356  -0.253  53.203  1.00  0.00     0.086 C 
HETATM   14  C1  UNL     1      20.721   0.283  54.558  1.00  0.00     0.057 C 
ENDBRANCH  11  12
ENDBRANCH   8  10
ENDBRANCH   1   8
BRANCH   4  15
HETATM   15  C8  UNL     1      27.528  -0.230  53.098  1.00  0.00    -0.046 A 
HETATM   16  C9  UNL     1      26.987  -1.411  52.620  1.00  0.00     0.008 A 
HETATM   17  C10 UNL     1      27.711  -2.584  52.618  1.00  0.00     0.004 A 
HETATM   18  C11 UNL     1      28.994  -2.599  53.095  1.00  0.00     0.042 A 
HETATM   19  C12 UNL     1      29.576  -1.426  53.588  1.00  0.00     0.117 A 
HETATM   20  F1  UNL     1      30.847  -1.407  54.069  1.00  0.00    -0.206 F 
HETATM   21  C13 UNL     1      28.828  -0.247  53.582  1.00  0.00     0.050 A 
ENDBRANCH   4  15
TORSDOF 4
ENDMDL
MODEL 5
REMARK VINA RESULT:      -7.1      2.070      2.750
REMARK  4 active torsions:
REMARK  status: ('A' for Active; 'I' for Inactive)
REMARK    1  A    between atoms: N1_3  and  C3_4 
REMARK    2  A    between atoms: N2_5  and  N3_6 
REMARK    3  A    between atoms: N3_6  and  C4_7 
REMARK    4  A    between atoms: C7_10  and  C8_11 
ROOT
HETATM    1  C4  UNL     1      24.761  -0.475  53.879  1.00  0.00     0.047 A 
HETATM    2  C5  UNL     1      23.496  -0.827  54.046  1.00  0.00     0.005 A 
HETATM    3  C6  UNL     1      22.143  -0.270  53.815  1.00  0.00     0.044 A 
HETATM    4  C7  UNL     1      22.255   1.084  53.216  1.00  0.00     0.067 A 
HETATM    5  C14 UNL     1      23.687   1.424  53.052  1.00  0.00     0.022 A 
HETATM    6 CL1  UNL     1      23.692   3.024  52.346  1.00  0.00    -0.088 Cl
HETATM    7  C15 UNL     1      24.865   0.873  53.284  1.00  0.00     0.051 A 
ENDROOT
BRANCH   1   8
HETATM    8  N3  UNL     1      25.969  -1.167  54.171  1.00  0.00    -0.278 N 
HETATM    9  H6  UNL     1      26.046  -1.530  55.147  1.00  0.00     0.189 HD
BRANCH   8  10
HETATM   10  N2  UNL     1      26.862  -1.249  53.097  1.00  0.00    -0.168 NA
HETATM   11  C3  UNL     1      28.090  -0.902  53.288  1.00  0.00     0.254 C 
BRANCH  11  12
HETATM   12  N1  UNL     1      28.570  -0.435  54.564  1.00  0.00    -0.257 NA
HETATM   13  C2  UNL     1      28.871   0.809  54.687  1.00  0.00     0.086 C 
HETATM   14  C1  UNL     1      28.677   1.637  53.448  1.00  0.00     0.057 C 
ENDBRANCH  11  12
ENDBRANCH   8  10
ENDBRANCH   1   8
BRANCH   4  15
HETATM   15  C8  UNL     1      21.496   1.242  51.954  1.00  0.00    -0.046 A 
HETATM   16  C9  UNL     1      20.266   1.876  52.011  1.00  0.00     0.008 A 
HETATM   17  C10 UNL     1      19.499   2.062  50.880  1.00  0.00     0.004 A 
HETATM   18  C11 UNL     1      19.948   1.615  49.667  1.00  0.00     0.042 A 
HETATM   19  C12 UNL     1      21.185   0.969  49.567  1.00  0.00     0.117 A 
HETATM   20  F1  UNL     1      21.659   0.514  48.378  1.00  0.00    -0.206 F 
HETATM   21  C13 UNL     1      21.948   0.790  50.722  1.00  0.00     0.050 A 
ENDBRANCH   4  15
TORSDOF 4
ENDMDL
MODEL 6
REMARK VINA RESULT:      -6.9      3.387      4.136
REMARK  4 active torsions:
REMARK  status: ('A' for Active; 'I' for Inactive)
REMARK    1  A    between atoms: N1_3  and  C3_4 
REMARK    2  A    between atoms: N2_5  and  N3_6 
REMARK    3  A    between atoms: N3_6  and  C4_7 
REMARK    4  A    between atoms: C7_10  and  C8_11 
ROOT
HETATM    1  C4  UNL     1      26.428   2.418  53.025  1.00  0.00     0.047 A 
HETATM    2  C5  UNL     1      26.826   2.461  51.764  1.00  0.00     0.005 A 
HETATM    3  C6  UNL     1      26.239   2.619  50.413  1.00  0.00     0.044 A 
HETATM    4  C7  UNL     1      24.767   2.777  50.523  1.00  0.00     0.067 A 
HETATM    5  C14 UNL     1      24.379   2.722  51.951  1.00  0.00     0.022 A 
HETATM    6 CL1  UNL     1      22.641   2.917  51.953  1.00  0.00    -0.088 Cl
HETATM    7  C15 UNL     1      24.962   2.575  53.128  1.00  0.00     0.051 A 
ENDROOT
BRANCH   1   8
HETATM    8  N3  UNL     1      27.163   2.254  54.233  1.00  0.00    -0.278 N 
HETATM    9  H6  UNL     1      27.698   3.095  54.542  1.00  0.00     0.189 HD
BRANCH   8  10
HETATM   10  N2  UNL     1      27.046   0.987  54.812  1.00  0.00    -0.168 NA
HETATM   11  C3  UNL     1      28.075   0.207  54.802  1.00  0.00     0.254 C 
BRANCH  11  12
HETATM   12  N1  UNL     1      29.332   0.597  54.217  1.00  0.00    -0.257 NA
HETATM   13  C2  UNL     1      29.971  -0.265  53.507  1.00  0.00     0.086 C 
HETATM   14  C1  UNL     1      29.303  -1.604  53.377  1.00  0.00     0.057 C 
ENDBRANCH  11  12
ENDBRANCH   8  10
ENDBRANCH   1   8
BRANCH   4  15
HETATM   15  C8  UNL     1      24.246   3.989  49.849  1.00  0.00    -0.046 A 
HETATM   16  C9  UNL     1      23.414   3.816  48.755  1.00  0.00     0.008 A 
HETATM   17  C10 UNL     1      22.889   4.894  48.075  1.00  0.00     0.004 A 
HETATM   18  C11 UNL     1      23.186   6.169  48.475  1.00  0.00     0.042 A 
HETATM   19  C12 UNL     1      24.023   6.385  49.575  1.00  0.00     0.117 A 
HETATM   20  F1  UNL     1      24.338   7.637  49.998  1.00  0.00    -0.206 F 
HETATM   21  C13 UNL     1      24.546   5.282  50.253  1.00  0.00     0.050 A 
ENDBRANCH   4  15
TORSDOF 4
ENDMDL
MODEL 7
REMARK VINA RESULT:      -6.8      4.016      5.537
REMARK  4 active torsions:
REMARK  status: ('A' for Active; 'I' for Inactive)
REMARK    1  A    between atoms: N1_3  and  C3_4 
REMARK    2  A    between atoms: N2_5  and  N3_6 
REMARK    3  A    between atoms: N3_6  and  C4_7 
REMARK    4  A    between atoms: C7_10  and  C8_11 
ROOT
HETATM    1  C4  UNL     1      24.866   1.689  52.150  1.00  0.00     0.047 A 
HETATM    2  C5  UNL     1      26.113   2.032  51.873  1.00  0.00     0.005 A 
HETATM    3  C6  UNL     1      26.858   2.793  50.843  1.00  0.00     0.044 A 
HETATM    4  C7  UNL     1      25.911   3.321  49.828  1.00  0.00     0.067 A 
HETATM    5  C14 UNL     1      24.536   2.907  50.189  1.00  0.00     0.022 A 
HETATM    6 CL1  UNL     1      23.520   3.581  48.933  1.00  0.00    -0.088 Cl
HETATM    7  C15 UNL     1      23.928   2.216  51.137  1.00  0.00     0.051 A 
ENDROOT
BRANCH   1   8
HETATM    8  N3  UNL     1      24.323   0.928  53.223  1.00  0.00    -0.278 N 
HETATM    9  H6  UNL     1      23.765   1.475  53.915  1.00  0.00     0.189 HD
BRANCH   8  10
HETATM   10  N2  UNL     1      24.625  -0.437  53.174  1.00  0.00    -0.168 NA
HETATM   11  C3  UNL     1      25.535  -0.896  53.965  1.00  0.00     0.254 C 
BRANCH  11  12
HETATM   12  N1  UNL     1      26.247  -0.054  54.892  1.00  0.00    -0.257 NA
HETATM   13  C2  UNL     1      27.509   0.120  54.716  1.00  0.00     0.086 C 
HETATM   14  C1  UNL     1      28.093  -0.598  53.533  1.00  0.00     0.057 C 
ENDBRANCH  11  12
ENDBRANCH   8  10
ENDBRANCH   1   8
BRANCH   4  15
HETATM   15  C8  UNL     1      26.017   4.784  49.619  1.00  0.00    -0.046 A 
HETATM   16  C9  UNL     1      26.935   5.241  48.687  1.00  0.00     0.008 A 
HETATM   17  C10 UNL     1      27.093   6.587  48.435  1.00  0.00     0.004 A 
HETATM   18  C11 UNL     1      26.335   7.505  49.111  1.00  0.00     0.042 A 
HETATM   19  C12 UNL     1      25.398   7.083  50.060  1.00  0.00     0.117 A 
HETATM   20  F1  UNL     1      24.631   7.969  50.748  1.00  0.00    -0.206 F 
HETATM   21  C13 UNL     1      25.251   5.716  50.303  1.00  0.00     0.050 A 
ENDBRANCH   4  15
TORSDOF 4
ENDMDL
MODEL 8
REMARK VINA RESULT:      -6.7      2.429      2.933
REMARK  4 active torsions:
REMARK  status: ('A' for Active; 'I' for Inactive)
REMARK    1  A    between atoms: N1_3  and  C3_4 
REMARK    2  A    between atoms: N2_5  and  N3_6 
REMARK    3  A    between atoms: N3_6  and  C4_7 
REMARK    4  A    between atoms: C7_10  and  C8_11 
ROOT
HETATM    1  C4  UNL     1      25.248  -0.136  53.306  1.00  0.00     0.047 A 
HETATM    2  C5  UNL     1      25.688   0.640  52.329  1.00  0.00     0.005 A 
HETATM    3  C6  UNL     1      25.142   1.514  51.265  1.00  0.00     0.044 A 
HETATM    4  C7  UNL     1      23.658   1.508  51.327  1.00  0.00     0.067 A 
HETATM    5  C14 UNL     1      23.223   0.628  52.435  1.00  0.00     0.022 A 
HETATM    6 CL1  UNL     1      21.475   0.701  52.408  1.00  0.00    -0.088 Cl
HETATM    7  C15 UNL     1      23.771  -0.138  53.362  1.00  0.00     0.051 A 
ENDROOT
BRANCH   1   8
HETATM    8  N3  UNL     1      25.948  -0.926  54.261  1.00  0.00    -0.278 N 
HETATM    9  H6  UNL     1      25.970  -1.949  54.057  1.00  0.00     0.189 HD
BRANCH   8  10
HETATM   10  N2  UNL     1      26.498  -0.198  55.321  1.00  0.00    -0.168 NA
HETATM   11  C3  UNL     1      27.769   0.029  55.320  1.00  0.00     0.254 C 
BRANCH  11  12
HETATM   12  N1  UNL     1      28.635  -0.440  54.269  1.00  0.00    -0.257 NA
HETATM   13  C2  UNL     1      29.236   0.430  53.536  1.00  0.00     0.086 C 
HETATM   14  C1  UNL     1      28.947   1.863  53.883  1.00  0.00     0.057 C 
ENDBRANCH  11  12
ENDBRANCH   8  10
ENDBRANCH   1   8
BRANCH   4  15
HETATM   15  C8  UNL     1      23.061   2.861  51.422  1.00  0.00    -0.046 A 
HETATM   16  C9  UNL     1      23.433   3.661  52.490  1.00  0.00     0.008 A 
HETATM   17  C10 UNL     1      22.922   4.932  52.648  1.00  0.00     0.004 A 
HETATM   18  C11 UNL     1      22.027   5.429  51.739  1.00  0.00     0.042 A 
HETATM   19  C12 UNL     1      21.626   4.651  50.647  1.00  0.00     0.117 A 
HETATM   20  F1  UNL     1      20.739   5.115  49.727  1.00  0.00    -0.206 F 
HETATM   21  C13 UNL     1      22.153   3.367  50.502  1.00  0.00     0.050 A 
ENDBRANCH   4  15
TORSDOF 4
ENDMDL
MODEL 9
REMARK VINA RESULT:      -6.7      4.679      7.540
REMARK  4 active torsions:
REMARK  status: ('A' for Active; 'I' for Inactive)
REMARK    1  A    between atoms: N1_3  and  C3_4 
REMARK    2  A    between atoms: N2_5  and  N3_6 
REMARK    3  A    between atoms: N3_6  and  C4_7 
REMARK    4  A    between atoms: C7_10  and  C8_11 
ROOT
HETATM    1  C4  UNL     1      23.711   4.347  51.934  1.00  0.00     0.047 A 
HETATM    2  C5  UNL     1      23.535   3.293  52.714  1.00  0.00     0.005 A 
HETATM    3  C6  UNL     1      24.093   1.933  52.895  1.00  0.00     0.044 A 
HETATM    4  C7  UNL     1      25.169   1.697  51.899  1.00  0.00     0.067 A 
HETATM    5  C14 UNL     1      25.321   2.905  51.056  1.00  0.00     0.022 A 
HETATM    6 CL1  UNL     1      26.602   2.511  49.932  1.00  0.00    -0.088 Cl
HETATM    7  C15 UNL     1      24.781   4.106  50.944  1.00  0.00     0.051 A 
ENDROOT
BRANCH   1   8
HETATM    8  N3  UNL     1      23.057   5.611  51.909  1.00  0.00    -0.278 N 
HETATM    9  H6  UNL     1      22.113   5.629  52.355  1.00  0.00     0.189 HD
BRANCH   8  10
HETATM   10  N2  UNL     1      23.790   6.628  51.290  1.00  0.00    -0.168 NA
HETATM   11  C3  UNL     1      23.148   7.601  50.736  1.00  0.00     0.254 C 
BRANCH  11  12
HETATM   12  N1  UNL     1      21.709   7.674  50.735  1.00  0.00    -0.257 NA
HETATM   13  C2  UNL     1      21.121   8.175  49.706  1.00  0.00     0.086 C 
HETATM   14  C1  UNL     1      22.040   8.632  48.608  1.00  0.00     0.057 C 
ENDBRANCH  11  12
ENDBRANCH   8  10
ENDBRANCH   1   8
BRANCH   4  15
HETATM   15  C8  UNL     1      26.454   1.269  52.499  1.00  0.00    -0.046 A 
HETATM   16  C9  UNL     1      26.800  -0.068  52.406  1.00  0.00     0.008 A 
HETATM   17  C10 UNL     1      27.979  -0.544  52.939  1.00  0.00     0.004 A 
HETATM   18  C11 UNL     1      28.837   0.310  53.577  1.00  0.00     0.042 A 
HETATM   19  C12 UNL     1      28.523   1.669  53.693  1.00  0.00     0.117 A 
HETATM   20  F1  UNL     1      29.353   2.543  54.320  1.00  0.00    -0.206 F 
HETATM   21  C13 UNL     1      27.325   2.134  53.147  1.00  0.00     0.050 A 
ENDBRANCH   4  15
TORSDOF 4
ENDMDL
