MODEL 1
REMARK VINA RESULT:      -7.7      0.000      0.000
REMARK  4 active torsions:
REMARK  status: ('A' for Active; 'I' for Inactive)
REMARK    1  A    between atoms: C2_3  and  C3_4 
REMARK    2  A    between atoms: C3_4  and  C4_5 
REMARK    3  A    between atoms: N5_18  and  C13_19 
REMARK    4  A    between atoms: C13_19  and  C14_20 
ROOT
HETATM    1  N1  UNL     1      29.035  -2.830  53.345  1.00  0.00    -0.197 NA
HETATM    2  C1  UNL     1      29.161  -1.690  53.413  1.00  0.00     0.059 C 
HETATM    3  C2  UNL     1      29.312  -0.231  53.494  1.00  0.00     0.126 C 
ENDROOT
BRANCH   3   4
HETATM    4  C3  UNL     1      27.961   0.351  53.743  1.00  0.00     0.043 C 
BRANCH   4   5
HETATM    5  C4  UNL     1      26.958  -0.004  52.646  1.00  0.00     0.108 A 
HETATM    6  C5  UNL     1      26.697   1.143  51.769  1.00  0.00     0.011 A 
HETATM    7  C6  UNL     1      25.549   1.756  51.555  1.00  0.00    -0.012 A 
HETATM    8  C7  UNL     1      25.518   2.887  50.635  1.00  0.00    -0.012 A 
HETATM    9  C12 UNL     1      24.386   1.270  52.247  1.00  0.00     0.056 A 
HETATM   10  C8  UNL     1      24.394   3.539  50.384  1.00  0.00     0.081 A 
HETATM   11  C16 UNL     1      26.612   3.521  49.839  1.00  0.00     0.062 C 
HETATM   12  S1  UNL     1      22.786   3.144  51.111  1.00  0.00    -0.051 SA
HETATM   13  N5  UNL     1      24.620   4.592  49.461  1.00  0.00    -0.368 N 
HETATM   14  C9  UNL     1      23.102   1.747  52.179  1.00  0.00     0.115 A 
HETATM   15  N2  UNL     1      22.067   1.238  52.856  1.00  0.00    -0.234 NA
HETATM   16  C10 UNL     1      22.286   0.188  53.663  1.00  0.00     0.236 A 
HETATM   17  N3  UNL     1      23.507  -0.361  53.806  1.00  0.00    -0.224 NA
HETATM   18  C11 UNL     1      24.547   0.176  53.104  1.00  0.00     0.139 A 
HETATM   19  N4  UNL     1      25.778  -0.481  53.333  1.00  0.00    -0.366 N 
HETATM   20  H8  UNL     1      25.904  -1.281  53.959  1.00  0.00     0.161 HD
HETATM   21  C15 UNL     1      26.055   4.816  49.351  1.00  0.00     0.128 C 
BRANCH  13  22
HETATM   22  C13 UNL     1      23.664   5.389  48.695  1.00  0.00     0.192 C 
BRANCH  22  23
HETATM   23  C14 UNL     1      23.178   6.573  49.415  1.00  0.00     0.250 C 
HETATM   24  O1  UNL     1      22.911   7.035  50.490  1.00  0.00    -0.305 OA
ENDBRANCH  22  23
ENDBRANCH  13  22
ENDBRANCH   4   5
ENDBRANCH   3   4
TORSDOF 4
ENDMDL
MODEL 2
REMARK VINA RESULT:      -7.6      3.521      6.519
REMARK  4 active torsions:
REMARK  status: ('A' for Active; 'I' for Inactive)
REMARK    1  A    between atoms: C2_3  and  C3_4 
REMARK    2  A    between atoms: C3_4  and  C4_5 
REMARK    3  A    between atoms: N5_18  and  C13_19 
REMARK    4  A    between atoms: C13_19  and  C14_20 
ROOT
HETATM    1  N1  UNL     1      20.650   3.318  47.163  1.00  0.00    -0.197 NA
HETATM    2  C1  UNL     1      21.332   2.628  47.780  1.00  0.00     0.059 C 
HETATM    3  C2  UNL     1      22.199   1.750  48.577  1.00  0.00     0.126 C 
ENDROOT
BRANCH   3   4
HETATM    4  C3  UNL     1      21.333   1.020  49.548  1.00  0.00     0.043 C 
BRANCH   4   5
HETATM    5  C4  UNL     1      21.521   1.508  50.983  1.00  0.00     0.108 A 
HETATM    6  C5  UNL     1      22.934   1.473  51.379  1.00  0.00     0.011 A 
HETATM    7  C6  UNL     1      23.486   0.781  52.355  1.00  0.00    -0.012 A 
HETATM    8  C7  UNL     1      24.924   0.897  52.573  1.00  0.00    -0.012 A 
HETATM    9  C12 UNL     1      22.633  -0.056  53.155  1.00  0.00     0.056 A 
HETATM   10  C8  UNL     1      25.530   0.224  53.538  1.00  0.00     0.081 A 
HETATM   11  C16 UNL     1      25.952   1.705  51.851  1.00  0.00     0.062 C 
HETATM   12  S1  UNL     1      24.706  -0.897  54.691  1.00  0.00    -0.051 SA
HETATM   13  N5  UNL     1      26.921   0.505  53.547  1.00  0.00    -0.368 N 
HETATM   14  C9  UNL     1      22.985  -0.856  54.212  1.00  0.00     0.115 A 
HETATM   15  N2  UNL     1      22.128  -1.609  54.911  1.00  0.00    -0.234 NA
HETATM   16  C10 UNL     1      20.832  -1.591  54.565  1.00  0.00     0.236 A 
HETATM   17  N3  UNL     1      20.376  -0.841  53.543  1.00  0.00    -0.224 NA
HETATM   18  C11 UNL     1      21.269  -0.082  52.846  1.00  0.00     0.139 A 
HETATM   19  N4  UNL     1      20.677   0.662  51.798  1.00  0.00    -0.366 N 
HETATM   20  H8  UNL     1      19.680   0.648  51.566  1.00  0.00     0.161 HD
HETATM   21  C15 UNL     1      27.271   1.172  52.301  1.00  0.00     0.128 C 
BRANCH  13  22
HETATM   22  C13 UNL     1      27.928   0.220  54.567  1.00  0.00     0.192 C 
BRANCH  22  23
HETATM   23  C14 UNL     1      29.278   0.032  54.022  1.00  0.00     0.250 C 
HETATM   24  O1  UNL     1      30.166  -0.752  53.832  1.00  0.00    -0.305 OA
ENDBRANCH  22  23
ENDBRANCH  13  22
ENDBRANCH   4   5
ENDBRANCH   3   4
TORSDOF 4
ENDMDL
MODEL 3
REMARK VINA RESULT:      -7.6      1.798      2.121
REMARK  4 active torsions:
REMARK  status: ('A' for Active; 'I' for Inactive)
REMARK    1  A    between atoms: C2_3  and  C3_4 
REMARK    2  A    between atoms: C3_4  and  C4_5 
REMARK    3  A    between atoms: N5_18  and  C13_19 
REMARK    4  A    between atoms: C13_19  and  C14_20 
ROOT
HETATM    1  N1  UNL     1      29.543   2.266  54.825  1.00  0.00    -0.197 NA
HETATM    2  C1  UNL     1      29.036   1.273  54.549  1.00  0.00     0.059 C 
HETATM    3  C2  UNL     1      28.382   0.003  54.207  1.00  0.00     0.126 C 
ENDROOT
BRANCH   3   4
HETATM    4  C3  UNL     1      26.957   0.096  54.641  1.00  0.00     0.043 C 
BRANCH   4   5
HETATM    5  C4  UNL     1      25.987  -0.437  53.588  1.00  0.00     0.108 A 
HETATM    6  C5  UNL     1      25.565   0.623  52.665  1.00  0.00     0.011 A 
HETATM    7  C6  UNL     1      24.345   1.075  52.453  1.00  0.00    -0.012 A 
HETATM    8  C7  UNL     1      24.152   2.146  51.481  1.00  0.00    -0.012 A 
HETATM    9  C12 UNL     1      23.266   0.482  53.196  1.00  0.00     0.056 A 
HETATM   10  C8  UNL     1      22.950   2.638  51.228  1.00  0.00     0.081 A 
HETATM   11  C16 UNL     1      25.141   2.872  50.628  1.00  0.00     0.062 C 
HETATM   12  S1  UNL     1      21.420   2.082  52.014  1.00  0.00    -0.051 SA
HETATM   13  N5  UNL     1      23.023   3.664  50.252  1.00  0.00    -0.368 N 
HETATM   14  C9  UNL     1      21.931   0.790  53.139  1.00  0.00     0.115 A 
HETATM   15  N2  UNL     1      20.983   0.189  53.866  1.00  0.00    -0.234 NA
HETATM   16  C10 UNL     1      21.348  -0.783  54.715  1.00  0.00     0.236 A 
HETATM   17  N3  UNL     1      22.632  -1.166  54.853  1.00  0.00    -0.224 NA
HETATM   18  C11 UNL     1      23.581  -0.538  54.100  1.00  0.00     0.139 A 
HETATM   19  N4  UNL     1      24.890  -1.023  54.327  1.00  0.00    -0.366 N 
HETATM   20  H8  UNL     1      25.128  -1.769  54.987  1.00  0.00     0.161 HD
HETATM   21  C15 UNL     1      24.415   4.061  50.094  1.00  0.00     0.128 C 
BRANCH  13  22
HETATM   22  C13 UNL     1      21.958   4.295  49.474  1.00  0.00     0.192 C 
BRANCH  22  23
HETATM   23  C14 UNL     1      21.297   5.402  50.176  1.00  0.00     0.250 C 
HETATM   24  O1  UNL     1      21.361   6.165  51.100  1.00  0.00    -0.305 OA
ENDBRANCH  22  23
ENDBRANCH  13  22
ENDBRANCH   4   5
ENDBRANCH   3   4
TORSDOF 4
ENDMDL
MODEL 4
REMARK VINA RESULT:      -7.5      3.209      6.902
REMARK  4 active torsions:
REMARK  status: ('A' for Active; 'I' for Inactive)
REMARK    1  A    between atoms: C2_3  and  C3_4 
REMARK    2  A    between atoms: C3_4  and  C4_5 
REMARK    3  A    between atoms: N5_18  and  C13_19 
REMARK    4  A    between atoms: C13_19  and  C14_20 
ROOT
HETATM    1  N1  UNL     1      17.792  -0.251  50.981  1.00  0.00    -0.197 NA
HETATM    2  C1  UNL     1      18.481  -0.281  51.901  1.00  0.00     0.059 C 
HETATM    3  C2  UNL     1      19.369  -0.318  53.069  1.00  0.00     0.126 C 
ENDROOT
BRANCH   3   4
HETATM    4  C3  UNL     1      20.429   0.712  52.865  1.00  0.00     0.043 C 
BRANCH   4   5
HETATM    5  C4  UNL     1      21.558   0.221  51.960  1.00  0.00     0.108 A 
HETATM    6  C5  UNL     1      22.816   0.083  52.703  1.00  0.00     0.011 A 
HETATM    7  C6  UNL     1      23.956   0.712  52.494  1.00  0.00    -0.012 A 
HETATM    8  C7  UNL     1      25.090   0.419  53.362  1.00  0.00    -0.012 A 
HETATM    9  C12 UNL     1      24.015   1.658  51.412  1.00  0.00     0.056 A 
HETATM   10  C8  UNL     1      26.257   1.021  53.197  1.00  0.00     0.081 A 
HETATM   11  C16 UNL     1      25.210  -0.521  54.518  1.00  0.00     0.062 C 
HETATM   12  S1  UNL     1      26.614   2.250  51.921  1.00  0.00    -0.051 SA
HETATM   13  N5  UNL     1      27.195   0.568  54.160  1.00  0.00    -0.368 N 
HETATM   14  C9  UNL     1      25.083   2.420  51.014  1.00  0.00     0.115 A 
HETATM   15  N2  UNL     1      25.060   3.283  49.992  1.00  0.00    -0.234 NA
HETATM   16  C10 UNL     1      23.919   3.423  49.300  1.00  0.00     0.236 A 
HETATM   17  N3  UNL     1      22.808   2.725  49.604  1.00  0.00    -0.224 NA
HETATM   18  C11 UNL     1      22.857   1.851  50.651  1.00  0.00     0.139 A 
HETATM   19  N4  UNL     1      21.635   1.176  50.876  1.00  0.00    -0.366 N 
HETATM   20  H8  UNL     1      20.784   1.312  50.324  1.00  0.00     0.161 HD
HETATM   21  C15 UNL     1      26.482  -0.153  55.205  1.00  0.00     0.128 C 
BRANCH  13  22
HETATM   22  C13 UNL     1      28.647   0.735  54.205  1.00  0.00     0.192 C 
BRANCH  22  23
HETATM   23  C14 UNL     1      29.388  -0.507  53.957  1.00  0.00     0.250 C 
HETATM   24  O1  UNL     1      29.299  -1.679  53.715  1.00  0.00    -0.305 OA
ENDBRANCH  22  23
ENDBRANCH  13  22
ENDBRANCH   4   5
ENDBRANCH   3   4
TORSDOF 4
ENDMDL
MODEL 5
REMARK VINA RESULT:      -7.3      3.396      5.836
REMARK  4 active torsions:
REMARK  status: ('A' for Active; 'I' for Inactive)
REMARK    1  A    between atoms: C2_3  and  C3_4 
REMARK    2  A    between atoms: C3_4  and  C4_5 
REMARK    3  A    between atoms: N5_18  and  C13_19 
REMARK    4  A    between atoms: C13_19  and  C14_20 
ROOT
HETATM    1  N1  UNL     1      29.130   1.182  54.957  1.00  0.00    -0.197 NA
HETATM    2  C1  UNL     1      28.197   0.764  54.432  1.00  0.00     0.059 C 
HETATM    3  C2  UNL     1      27.001   0.239  53.760  1.00  0.00     0.126 C 
ENDROOT
BRANCH   3   4
HETATM    4  C3  UNL     1      26.760   1.075  52.548  1.00  0.00     0.043 C 
BRANCH   4   5
HETATM    5  C4  UNL     1      25.543   1.987  52.697  1.00  0.00     0.108 A 
HETATM    6  C5  UNL     1      24.356   1.230  53.114  1.00  0.00     0.011 A 
HETATM    7  C6  UNL     1      23.215   1.092  52.470  1.00  0.00    -0.012 A 
HETATM    8  C7  UNL     1      22.160   0.287  53.075  1.00  0.00    -0.012 A 
HETATM    9  C12 UNL     1      23.074   1.748  51.198  1.00  0.00     0.056 A 
HETATM   10  C8  UNL     1      20.994   0.114  52.473  1.00  0.00     0.081 A 
HETATM   11  C16 UNL     1      22.130  -0.458  54.371  1.00  0.00     0.062 C 
HETATM   12  S1  UNL     1      20.544   0.821  50.871  1.00  0.00    -0.051 SA
HETATM   13  N5  UNL     1      20.141  -0.703  53.257  1.00  0.00    -0.368 N 
HETATM   14  C9  UNL     1      21.988   1.743  50.360  1.00  0.00     0.115 A 
HETATM   15  N2  UNL     1      21.933   2.381  49.187  1.00  0.00    -0.234 NA
HETATM   16  C10 UNL     1      23.007   3.079  48.787  1.00  0.00     0.236 A 
HETATM   17  N3  UNL     1      24.128   3.152  49.531  1.00  0.00    -0.224 NA
HETATM   18  C11 UNL     1      24.160   2.492  50.724  1.00  0.00     0.139 A 
HETATM   19  N4  UNL     1      25.385   2.641  51.416  1.00  0.00    -0.366 N 
HETATM   20  H8  UNL     1      26.183   3.183  51.076  1.00  0.00     0.161 HD
HETATM   21  C15 UNL     1      20.934  -1.346  54.295  1.00  0.00     0.128 C 
BRANCH  13  22
HETATM   22  C13 UNL     1      18.703  -0.941  53.140  1.00  0.00     0.192 C 
BRANCH  22  23
HETATM   23  C14 UNL     1      18.259  -2.180  53.789  1.00  0.00     0.250 C 
HETATM   24  O1  UNL     1      17.608  -3.181  53.667  1.00  0.00    -0.305 OA
ENDBRANCH  22  23
ENDBRANCH  13  22
ENDBRANCH   4   5
ENDBRANCH   3   4
TORSDOF 4
ENDMDL
MODEL 6
REMARK VINA RESULT:      -7.2      1.780      4.651
REMARK  4 active torsions:
REMARK  status: ('A' for Active; 'I' for Inactive)
REMARK    1  A    between atoms: C2_3  and  C3_4 
REMARK    2  A    between atoms: C3_4  and  C4_5 
REMARK    3  A    between atoms: N5_18  and  C13_19 
REMARK    4  A    between atoms: C13_19  and  C14_20 
ROOT
HETATM    1  N1  UNL     1      19.150   0.031  52.779  1.00  0.00    -0.197 NA
HETATM    2  C1  UNL     1      19.837  -0.639  53.411  1.00  0.00     0.059 C 
HETATM    3  C2  UNL     1      20.720  -1.499  54.210  1.00  0.00     0.126 C 
ENDROOT
BRANCH   3   4
HETATM    4  C3  UNL     1      22.077  -1.452  53.592  1.00  0.00     0.043 C 
BRANCH   4   5
HETATM    5  C4  UNL     1      22.906  -0.268  54.088  1.00  0.00     0.108 A 
HETATM    6  C5  UNL     1      22.951   0.808  53.091  1.00  0.00     0.011 A 
HETATM    7  C6  UNL     1      24.008   1.308  52.483  1.00  0.00    -0.012 A 
HETATM    8  C7  UNL     1      23.820   2.384  51.518  1.00  0.00    -0.012 A 
HETATM    9  C12 UNL     1      25.296   0.759  52.810  1.00  0.00     0.056 A 
HETATM   10  C8  UNL     1      24.846   2.923  50.878  1.00  0.00     0.081 A 
HETATM   11  C16 UNL     1      22.573   3.070  51.059  1.00  0.00     0.062 C 
HETATM   12  S1  UNL     1      26.572   2.430  51.094  1.00  0.00    -0.051 SA
HETATM   13  N5  UNL     1      24.407   3.945  49.998  1.00  0.00    -0.368 N 
HETATM   14  C9  UNL     1      26.521   1.119  52.307  1.00  0.00     0.115 A 
HETATM   15  N2  UNL     1      27.681   0.558  52.664  1.00  0.00    -0.234 NA
HETATM   16  C10 UNL     1      27.662  -0.427  53.574  1.00  0.00     0.236 A 
HETATM   17  N3  UNL     1      26.516  -0.861  54.133  1.00  0.00    -0.224 NA
HETATM   18  C11 UNL     1      25.345  -0.273  53.754  1.00  0.00     0.139 A 
HETATM   19  N4  UNL     1      24.210  -0.809  54.406  1.00  0.00    -0.366 N 
HETATM   20  H8  UNL     1      24.238  -1.564  55.097  1.00  0.00     0.161 HD
HETATM   21  C15 UNL     1      22.963   3.842  49.844  1.00  0.00     0.128 C 
BRANCH  13  22
HETATM   22  C13 UNL     1      25.175   4.978  49.305  1.00  0.00     0.192 C 
BRANCH  22  23
HETATM   23  C14 UNL     1      25.033   6.313  49.900  1.00  0.00     0.250 C 
HETATM   24  O1  UNL     1      25.483   7.096  50.690  1.00  0.00    -0.305 OA
ENDBRANCH  22  23
ENDBRANCH  13  22
ENDBRANCH   4   5
ENDBRANCH   3   4
TORSDOF 4
ENDMDL
MODEL 7
REMARK VINA RESULT:      -7.1      2.953      6.629
REMARK  4 active torsions:
REMARK  status: ('A' for Active; 'I' for Inactive)
REMARK    1  A    between atoms: C2_3  and  C3_4 
REMARK    2  A    between atoms: C3_4  and  C4_5 
REMARK    3  A    between atoms: N5_18  and  C13_19 
REMARK    4  A    between atoms: C13_19  and  C14_20 
ROOT
HETATM    1  N1  UNL     1      24.252   7.010  47.637  1.00  0.00    -0.197 NA
HETATM    2  C1  UNL     1      25.005   6.512  48.348  1.00  0.00     0.059 C 
HETATM    3  C2  UNL     1      25.961   5.878  49.265  1.00  0.00     0.126 C 
ENDROOT
BRANCH   3   4
HETATM    4  C3  UNL     1      25.185   5.013  50.201  1.00  0.00     0.043 C 
BRANCH   4   5
HETATM    5  C4  UNL     1      25.561   3.537  50.082  1.00  0.00     0.108 A 
HETATM    6  C5  UNL     1      24.496   2.671  50.603  1.00  0.00     0.011 A 
HETATM    7  C6  UNL     1      24.563   1.817  51.605  1.00  0.00    -0.012 A 
HETATM    8  C7  UNL     1      23.371   1.053  51.956  1.00  0.00    -0.012 A 
HETATM    9  C12 UNL     1      25.815   1.688  52.300  1.00  0.00     0.056 A 
HETATM   10  C8  UNL     1      23.381   0.182  52.953  1.00  0.00     0.081 A 
HETATM   11  C16 UNL     1      22.003   1.056  51.354  1.00  0.00     0.062 C 
HETATM   12  S1  UNL     1      24.814  -0.182  53.993  1.00  0.00    -0.051 SA
HETATM   13  N5  UNL     1      22.110  -0.432  53.095  1.00  0.00    -0.368 N 
HETATM   14  C9  UNL     1      26.113   0.871  53.361  1.00  0.00     0.115 A 
HETATM   15  N2  UNL     1      27.308   0.806  53.956  1.00  0.00    -0.234 NA
HETATM   16  C10 UNL     1      28.295   1.590  53.494  1.00  0.00     0.236 A 
HETATM   17  N3  UNL     1      28.114   2.431  52.457  1.00  0.00    -0.224 NA
HETATM   18  C11 UNL     1      26.885   2.478  51.867  1.00  0.00     0.139 A 
HETATM   19  N4  UNL     1      26.814   3.394  50.791  1.00  0.00    -0.366 N 
HETATM   20  H8  UNL     1      27.592   3.976  50.469  1.00  0.00     0.161 HD
HETATM   21  C15 UNL     1      21.136   0.328  52.324  1.00  0.00     0.128 C 
BRANCH  13  22
HETATM   22  C13 UNL     1      21.722  -1.618  53.856  1.00  0.00     0.192 C 
BRANCH  22  23
HETATM   23  C14 UNL     1      20.293  -1.659  54.191  1.00  0.00     0.250 C 
HETATM   24  O1  UNL     1      19.193  -1.932  53.796  1.00  0.00    -0.305 OA
ENDBRANCH  22  23
ENDBRANCH  13  22
ENDBRANCH   4   5
ENDBRANCH   3   4
TORSDOF 4
ENDMDL
MODEL 8
REMARK VINA RESULT:      -6.8      3.157      5.101
REMARK  4 active torsions:
REMARK  status: ('A' for Active; 'I' for Inactive)
REMARK    1  A    between atoms: C2_3  and  C3_4 
REMARK    2  A    between atoms: C3_4  and  C4_5 
REMARK    3  A    between atoms: N5_18  and  C13_19 
REMARK    4  A    between atoms: C13_19  and  C14_20 
ROOT
HETATM    1  N1  UNL     1      26.661   1.753  54.196  1.00  0.00    -0.197 NA
HETATM    2  C1  UNL     1      25.783   2.263  53.657  1.00  0.00     0.059 C 
HETATM    3  C2  UNL     1      24.665   2.910  52.958  1.00  0.00     0.126 C 
ENDROOT
BRANCH   3   4
HETATM    4  C3  UNL     1      24.167   1.959  51.921  1.00  0.00     0.043 C 
BRANCH   4   5
HETATM    5  C4  UNL     1      23.752   2.663  50.630  1.00  0.00     0.108 A 
HETATM    6  C5  UNL     1      24.881   3.380  50.026  1.00  0.00     0.011 A 
HETATM    7  C6  UNL     1      24.990   4.673  49.793  1.00  0.00    -0.012 A 
HETATM    8  C7  UNL     1      26.213   5.175  49.178  1.00  0.00    -0.012 A 
HETATM    9  C12 UNL     1      23.887   5.520  50.159  1.00  0.00     0.056 A 
HETATM   10  C8  UNL     1      26.376   6.464  48.921  1.00  0.00     0.081 A 
HETATM   11  C16 UNL     1      27.445   4.453  48.736  1.00  0.00     0.062 C 
HETATM   12  S1  UNL     1      25.156   7.750  49.276  1.00  0.00    -0.051 SA
HETATM   13  N5  UNL     1      27.641   6.700  48.326  1.00  0.00    -0.368 N 
HETATM   14  C9  UNL     1      23.779   6.879  50.012  1.00  0.00     0.115 A 
HETATM   15  N2  UNL     1      22.715   7.600  50.379  1.00  0.00    -0.234 NA
HETATM   16  C10 UNL     1      21.672   6.963  50.933  1.00  0.00     0.236 A 
HETATM   17  N3  UNL     1      21.669   5.629  51.126  1.00  0.00    -0.224 NA
HETATM   18  C11 UNL     1      22.767   4.916  50.743  1.00  0.00     0.139 A 
HETATM   19  N4  UNL     1      22.652   3.529  50.993  1.00  0.00    -0.366 N 
HETATM   20  H8  UNL     1      21.836   3.080  51.419  1.00  0.00     0.161 HD
HETATM   21  C15 UNL     1      28.467   5.513  48.494  1.00  0.00     0.128 C 
BRANCH  13  22
HETATM   22  C13 UNL     1      28.145   7.887  47.637  1.00  0.00     0.192 C 
BRANCH  22  23
HETATM   23  C14 UNL     1      28.798   8.851  48.531  1.00  0.00     0.250 C 
HETATM   24  O1  UNL     1      28.843   9.290  49.647  1.00  0.00    -0.305 OA
ENDBRANCH  22  23
ENDBRANCH  13  22
ENDBRANCH   4   5
ENDBRANCH   3   4
TORSDOF 4
ENDMDL
MODEL 9
REMARK VINA RESULT:      -6.8      3.310      6.344
REMARK  4 active torsions:
REMARK  status: ('A' for Active; 'I' for Inactive)
REMARK    1  A    between atoms: C2_3  and  C3_4 
REMARK    2  A    between atoms: C3_4  and  C4_5 
REMARK    3  A    between atoms: N5_18  and  C13_19 
REMARK    4  A    between atoms: C13_19  and  C14_20 
ROOT
HETATM    1  N1  UNL     1      15.988  -1.030  49.298  1.00  0.00    -0.197 NA
HETATM    2  C1  UNL     1      16.469  -0.539  50.219  1.00  0.00     0.059 C 
HETATM    3  C2  UNL     1      17.091   0.080  51.397  1.00  0.00     0.126 C 
ENDROOT
BRANCH   3   4
HETATM    4  C3  UNL     1      18.566  -0.112  51.284  1.00  0.00     0.043 C 
BRANCH   4   5
HETATM    5  C4  UNL     1      19.346   0.734  52.289  1.00  0.00     0.108 A 
HETATM    6  C5  UNL     1      20.505   1.378  51.660  1.00  0.00     0.011 A 
HETATM    7  C6  UNL     1      21.780   1.227  51.960  1.00  0.00    -0.012 A 
HETATM    8  C7  UNL     1      22.774   1.972  51.197  1.00  0.00    -0.012 A 
HETATM    9  C12 UNL     1      22.119   0.328  53.030  1.00  0.00     0.056 A 
HETATM   10  C8  UNL     1      24.067   1.858  51.454  1.00  0.00     0.081 A 
HETATM   11  C16 UNL     1      22.607   2.937  50.067  1.00  0.00     0.062 C 
HETATM   12  S1  UNL     1      24.775   0.804  52.741  1.00  0.00    -0.051 SA
HETATM   13  N5  UNL     1      24.827   2.679  50.582  1.00  0.00    -0.368 N 
HETATM   14  C9  UNL     1      23.365   0.017  53.510  1.00  0.00     0.115 A 
HETATM   15  N2  UNL     1      23.601  -0.832  54.515  1.00  0.00    -0.234 NA
HETATM   16  C10 UNL     1      22.555  -1.432  55.104  1.00  0.00     0.236 A 
HETATM   17  N3  UNL     1      21.287  -1.201  54.713  1.00  0.00    -0.224 NA
HETATM   18  C11 UNL     1      21.072  -0.330  53.686  1.00  0.00     0.139 A 
HETATM   19  N4  UNL     1      19.704  -0.166  53.364  1.00  0.00    -0.366 N 
HETATM   20  H8  UNL     1      18.934  -0.644  53.839  1.00  0.00     0.161 HD
HETATM   21  C15 UNL     1      23.970   3.117  49.489  1.00  0.00     0.128 C 
BRANCH  13  22
HETATM   22  C13 UNL     1      26.229   3.085  50.661  1.00  0.00     0.192 C 
BRANCH  22  23
HETATM   23  C14 UNL     1      26.733   3.696  49.425  1.00  0.00     0.250 C 
HETATM   24  O1  UNL     1      27.586   4.387  48.941  1.00  0.00    -0.305 OA
ENDBRANCH  22  23
ENDBRANCH  13  22
ENDBRANCH   4   5
ENDBRANCH   3   4
TORSDOF 4
ENDMDL
