MODEL 1
REMARK VINA RESULT:     -10.2      0.000      0.000
REMARK  3 active torsions:
REMARK  status: ('A' for Active; 'I' for Inactive)
REMARK    1  A    between atoms: O1_2  and  C2_3 
REMARK    2  A    between atoms: C10_12  and  N2_13 
REMARK    3  A    between atoms: N2_13  and  C11_14 
ROOT
HETATM    1  C2  UNL     1      27.207  -0.568  53.437  1.00  0.00     0.069 A 
HETATM    2  C3  UNL     1      27.582   0.661  52.882  1.00  0.00     0.039 A 
HETATM    3  C4  UNL     1      26.636   1.585  52.426  1.00  0.00     0.040 A 
HETATM    4  C5  UNL     1      25.304   1.218  52.551  1.00  0.00     0.086 A 
HETATM    5  C6  UNL     1      24.914   0.004  53.098  1.00  0.00    -0.004 A 
HETATM    6  C7  UNL     1      25.880  -0.886  53.539  1.00  0.00     0.048 A 
HETATM    7  C8  UNL     1      23.621  -0.625  53.347  1.00  0.00     0.161 C 
HETATM    8  N1  UNL     1      22.487   0.095  52.898  1.00  0.00    -0.379 N 
HETATM    9  C9  UNL     1      22.246   1.466  52.630  1.00  0.00     0.129 A 
HETATM   10  C10 UNL     1      20.927   1.878  52.760  1.00  0.00     0.160 A 
HETATM   11  N3  UNL     1      20.506   3.155  52.526  1.00  0.00    -0.222 NA
HETATM   12  C23 UNL     1      21.449   4.044  52.150  1.00  0.00     0.238 A 
HETATM   13  N4  UNL     1      22.763   3.694  52.008  1.00  0.00    -0.215 NA
HETATM   14  C24 UNL     1      23.136   2.423  52.247  1.00  0.00     0.202 A 
HETATM   15  O2  UNL     1      24.502   2.235  52.057  1.00  0.00    -0.289 OA
HETATM   16  H9  UNL     1      21.618  -0.498  52.709  1.00  0.00     0.160 HD
ENDROOT
BRANCH  10  17
HETATM   17  N2  UNL     1      19.985   0.902  53.186  1.00  0.00    -0.338 N 
HETATM   18  H10 UNL     1      19.946   0.738  54.216  1.00  0.00     0.167 HD
BRANCH  17  19
HETATM   19  C11 UNL     1      19.112   0.188  52.341  1.00  0.00     0.046 C 
HETATM   20  C12 UNL     1      18.784   0.503  51.110  1.00  0.00     0.015 C 
HETATM   21  C13 UNL     1      17.588   0.259  50.702  1.00  0.00    -0.011 C 
HETATM   22  C14 UNL     1      16.742  -0.434  51.418  1.00  0.00     0.025 C 
HETATM   23  C15 UNL     1      17.294  -1.379  52.380  1.00  0.00    -0.023 C 
HETATM   24  C16 UNL     1      16.633  -2.599  52.789  1.00  0.00    -0.026 A 
HETATM   25  C22 UNL     1      18.493  -1.046  52.839  1.00  0.00     0.042 C 
HETATM   26  C17 UNL     1      15.380  -2.939  52.312  1.00  0.00     0.012 A 
HETATM   27  C21 UNL     1      17.284  -3.455  53.652  1.00  0.00     0.012 A 
HETATM   28  C18 UNL     1      14.755  -4.131  52.682  1.00  0.00     0.001 A 
HETATM   29  C19 UNL     1      15.443  -4.965  53.552  1.00  0.00     0.000 A 
HETATM   30  C20 UNL     1      16.692  -4.656  54.045  1.00  0.00     0.001 A 
ENDBRANCH  17  19
ENDBRANCH  10  17
BRANCH   1  31
HETATM   31  O1  UNL     1      28.376  -1.199  53.768  1.00  0.00    -0.356 OA
HETATM   32  C1  UNL     1      29.692  -0.802  53.636  1.00  0.00     0.210 C 
ENDBRANCH   1  31
TORSDOF 3
ENDMDL
MODEL 2
REMARK VINA RESULT:     -10.1      1.800      3.349
REMARK  3 active torsions:
REMARK  status: ('A' for Active; 'I' for Inactive)
REMARK    1  A    between atoms: O1_2  and  C2_3 
REMARK    2  A    between atoms: C10_12  and  N2_13 
REMARK    3  A    between atoms: N2_13  and  C11_14 
ROOT
HETATM    1  C2  UNL     1      25.343   3.279  50.061  1.00  0.00     0.069 A 
HETATM    2  C3  UNL     1      26.385   2.611  50.714  1.00  0.00     0.039 A 
HETATM    3  C4  UNL     1      26.154   1.771  51.808  1.00  0.00     0.040 A 
HETATM    4  C5  UNL     1      24.833   1.635  52.214  1.00  0.00     0.086 A 
HETATM    5  C6  UNL     1      23.788   2.290  51.579  1.00  0.00    -0.004 A 
HETATM    6  C7  UNL     1      24.057   3.114  50.499  1.00  0.00     0.048 A 
HETATM    7  C8  UNL     1      22.344   2.329  51.786  1.00  0.00     0.161 C 
HETATM    8  N1  UNL     1      21.859   1.602  52.901  1.00  0.00    -0.379 N 
HETATM    9  C9  UNL     1      22.364   0.504  53.643  1.00  0.00     0.129 A 
HETATM   10  C10 UNL     1      21.408  -0.284  54.269  1.00  0.00     0.160 A 
HETATM   11  N3  UNL     1      21.709  -1.371  55.038  1.00  0.00    -0.222 NA
HETATM   12  C23 UNL     1      23.017  -1.671  55.177  1.00  0.00     0.238 A 
HETATM   13  N4  UNL     1      24.000  -0.930  54.581  1.00  0.00    -0.215 NA
HETATM   14  C24 UNL     1      23.661   0.135  53.832  1.00  0.00     0.202 A 
HETATM   15  O2  UNL     1      24.776   0.776  53.300  1.00  0.00    -0.289 OA
HETATM   16  H9  UNL     1      20.920   1.935  53.287  1.00  0.00     0.160 HD
ENDROOT
BRANCH  10  17
HETATM   17  N2  UNL     1      20.046   0.067  54.062  1.00  0.00    -0.338 N 
HETATM   18  H10 UNL     1      19.678   0.818  54.686  1.00  0.00     0.167 HD
BRANCH  17  19
HETATM   19  C11 UNL     1      19.201  -0.491  53.083  1.00  0.00     0.046 C 
HETATM   20  C12 UNL     1      18.994  -0.028  51.872  1.00  0.00     0.015 C 
HETATM   21  C13 UNL     1      17.822  -0.142  51.353  1.00  0.00    -0.011 C 
HETATM   22  C14 UNL     1      16.878  -0.843  51.926  1.00  0.00     0.025 C 
HETATM   23  C15 UNL     1      17.289  -1.918  52.819  1.00  0.00    -0.023 C 
HETATM   24  C16 UNL     1      16.520  -3.123  53.043  1.00  0.00    -0.026 A 
HETATM   25  C22 UNL     1      18.465  -1.721  53.398  1.00  0.00     0.042 C 
HETATM   26  C17 UNL     1      15.290  -3.320  52.442  1.00  0.00     0.012 A 
HETATM   27  C21 UNL     1      17.042  -4.107  53.855  1.00  0.00     0.012 A 
HETATM   28  C18 UNL     1      14.562  -4.496  52.634  1.00  0.00     0.001 A 
HETATM   29  C19 UNL     1      15.122  -5.463  53.457  1.00  0.00     0.000 A 
HETATM   30  C20 UNL     1      16.345  -5.296  54.072  1.00  0.00     0.001 A 
ENDBRANCH  17  19
ENDBRANCH  10  17
BRANCH   1  31
HETATM   31  O1  UNL     1      25.933   3.996  49.055  1.00  0.00    -0.356 OA
HETATM   32  C1  UNL     1      27.189   4.562  48.957  1.00  0.00     0.210 C 
ENDBRANCH   1  31
TORSDOF 3
ENDMDL
MODEL 3
REMARK VINA RESULT:     -10.0      5.535      8.099
REMARK  3 active torsions:
REMARK  status: ('A' for Active; 'I' for Inactive)
REMARK    1  A    between atoms: O1_2  and  C2_3 
REMARK    2  A    between atoms: C10_12  and  N2_13 
REMARK    3  A    between atoms: N2_13  and  C11_14 
ROOT
HETATM    1  C2  UNL     1      30.963   7.682  47.555  1.00  0.00     0.069 A 
HETATM    2  C3  UNL     1      30.335   8.903  47.826  1.00  0.00     0.039 A 
HETATM    3  C4  UNL     1      29.019   8.970  48.294  1.00  0.00     0.040 A 
HETATM    4  C5  UNL     1      28.365   7.759  48.475  1.00  0.00     0.086 A 
HETATM    5  C6  UNL     1      28.972   6.540  48.211  1.00  0.00    -0.004 A 
HETATM    6  C7  UNL     1      30.277   6.513  47.748  1.00  0.00     0.048 A 
HETATM    7  C8  UNL     1      28.535   5.150  48.310  1.00  0.00     0.161 C 
HETATM    8  N1  UNL     1      27.188   4.952  48.700  1.00  0.00    -0.379 N 
HETATM    9  C9  UNL     1      26.255   5.742  49.420  1.00  0.00     0.129 A 
HETATM   10  C10 UNL     1      25.266   5.035  50.091  1.00  0.00     0.160 A 
HETATM   11  N3  UNL     1      24.276   5.628  50.819  1.00  0.00    -0.222 NA
HETATM   12  C23 UNL     1      24.286   6.975  50.873  1.00  0.00     0.238 A 
HETATM   13  N4  UNL     1      25.238   7.721  50.234  1.00  0.00    -0.215 NA
HETATM   14  C24 UNL     1      26.196   7.098  49.524  1.00  0.00     0.202 A 
HETATM   15  O2  UNL     1      27.081   7.998  48.939  1.00  0.00    -0.289 OA
HETATM   16  H9  UNL     1      26.759   4.022  48.396  1.00  0.00     0.160 HD
ENDROOT
BRANCH  10  17
HETATM   17  N2  UNL     1      25.325   3.617  50.018  1.00  0.00    -0.338 N 
HETATM   18  H10 UNL     1      25.263   3.215  49.057  1.00  0.00     0.167 HD
BRANCH  17  19
HETATM   19  C11 UNL     1      25.487   2.751  51.118  1.00  0.00     0.046 C 
HETATM   20  C12 UNL     1      26.624   2.367  51.651  1.00  0.00     0.015 C 
HETATM   21  C13 UNL     1      26.722   1.172  52.116  1.00  0.00    -0.011 C 
HETATM   22  C14 UNL     1      25.684   0.383  52.219  1.00  0.00     0.025 C 
HETATM   23  C15 UNL     1      24.375   1.011  52.341  1.00  0.00    -0.023 C 
HETATM   24  C16 UNL     1      23.256   0.421  53.045  1.00  0.00    -0.026 A 
HETATM   25  C22 UNL     1      24.292   2.207  51.775  1.00  0.00     0.042 C 
HETATM   26  C17 UNL     1      23.345  -0.830  53.628  1.00  0.00     0.012 A 
HETATM   27  C21 UNL     1      22.085   1.140  53.158  1.00  0.00     0.012 A 
HETATM   28  C18 UNL     1      22.276  -1.385  54.333  1.00  0.00     0.001 A 
HETATM   29  C19 UNL     1      21.115  -0.631  54.425  1.00  0.00     0.000 A 
HETATM   30  C20 UNL     1      20.994   0.618  53.855  1.00  0.00     0.001 A 
ENDBRANCH  17  19
ENDBRANCH  10  17
BRANCH   1  31
HETATM   31  O1  UNL     1      32.223   7.998  47.124  1.00  0.00    -0.356 OA
HETATM   32  C1  UNL     1      33.416   8.113  47.811  1.00  0.00     0.210 C 
ENDBRANCH   1  31
TORSDOF 3
ENDMDL
MODEL 4
REMARK VINA RESULT:     -10.0      4.812     10.472
REMARK  3 active torsions:
REMARK  status: ('A' for Active; 'I' for Inactive)
REMARK    1  A    between atoms: O1_2  and  C2_3 
REMARK    2  A    between atoms: C10_12  and  N2_13 
REMARK    3  A    between atoms: N2_13  and  C11_14 
ROOT
HETATM    1  C2  UNL     1      20.356  -0.455  53.510  1.00  0.00     0.069 A 
HETATM    2  C3  UNL     1      21.168  -0.953  54.535  1.00  0.00     0.039 A 
HETATM    3  C4  UNL     1      22.555  -0.773  54.532  1.00  0.00     0.040 A 
HETATM    4  C5  UNL     1      23.085  -0.075  53.456  1.00  0.00     0.086 A 
HETATM    5  C6  UNL     1      22.295   0.425  52.432  1.00  0.00    -0.004 A 
HETATM    6  C7  UNL     1      20.925   0.228  52.469  1.00  0.00     0.048 A 
HETATM    7  C8  UNL     1      22.576   1.178  51.213  1.00  0.00     0.161 C 
HETATM    8  N1  UNL     1      23.943   1.427  50.942  1.00  0.00    -0.379 N 
HETATM    9  C9  UNL     1      25.103   1.492  51.755  1.00  0.00     0.129 A 
HETATM   10  C10 UNL     1      26.129   2.291  51.272  1.00  0.00     0.160 A 
HETATM   11  N3  UNL     1      27.323   2.459  51.911  1.00  0.00    -0.222 NA
HETATM   12  C23 UNL     1      27.484   1.798  53.076  1.00  0.00     0.238 A 
HETATM   13  N4  UNL     1      26.506   1.000  53.600  1.00  0.00    -0.215 NA
HETATM   14  C24 UNL     1      25.344   0.859  52.937  1.00  0.00     0.202 A 
HETATM   15  O2  UNL     1      24.461   0.015  53.604  1.00  0.00    -0.289 OA
HETATM   16  H9  UNL     1      24.178   1.601  49.913  1.00  0.00     0.160 HD
ENDROOT
BRANCH  10  17
HETATM   17  N2  UNL     1      25.888   2.983  50.053  1.00  0.00    -0.338 N 
HETATM   18  H10 UNL     1      25.582   2.386  49.253  1.00  0.00     0.167 HD
BRANCH  17  19
HETATM   19  C11 UNL     1      26.002   4.375  49.870  1.00  0.00     0.046 C 
HETATM   20  C12 UNL     1      25.148   5.289  50.269  1.00  0.00     0.015 C 
HETATM   21  C13 UNL     1      24.962   6.330  49.536  1.00  0.00    -0.011 C 
HETATM   22  C14 UNL     1      25.708   6.583  48.492  1.00  0.00     0.025 C 
HETATM   23  C15 UNL     1      27.054   6.025  48.480  1.00  0.00    -0.023 C 
HETATM   24  C16 UNL     1      28.178   6.636  47.805  1.00  0.00    -0.026 A 
HETATM   25  C22 UNL     1      27.183   4.906  49.179  1.00  0.00     0.042 C 
HETATM   26  C17 UNL     1      28.037   7.801  47.071  1.00  0.00     0.012 A 
HETATM   27  C21 UNL     1      29.424   6.057  47.922  1.00  0.00     0.012 A 
HETATM   28  C18 UNL     1      29.128   8.407  46.445  1.00  0.00     0.001 A 
HETATM   29  C19 UNL     1      30.364   7.793  46.587  1.00  0.00     0.000 A 
HETATM   30  C20 UNL     1      30.538   6.633  47.310  1.00  0.00     0.001 A 
ENDBRANCH  17  19
ENDBRANCH  10  17
BRANCH   1  31
HETATM   31  O1  UNL     1      19.076  -0.811  53.842  1.00  0.00    -0.356 OA
HETATM   32  C1  UNL     1      18.104  -1.482  53.125  1.00  0.00     0.210 C 
ENDBRANCH   1  31
TORSDOF 3
ENDMDL
MODEL 5
REMARK VINA RESULT:      -9.9      3.387      9.507
REMARK  3 active torsions:
REMARK  status: ('A' for Active; 'I' for Inactive)
REMARK    1  A    between atoms: O1_2  and  C2_3 
REMARK    2  A    between atoms: C10_12  and  N2_13 
REMARK    3  A    between atoms: N2_13  and  C11_14 
ROOT
HETATM    1  C2  UNL     1      16.786   0.021  51.681  1.00  0.00     0.069 A 
HETATM    2  C3  UNL     1      16.671  -0.830  52.786  1.00  0.00     0.039 A 
HETATM    3  C4  UNL     1      17.792  -1.308  53.471  1.00  0.00     0.040 A 
HETATM    4  C5  UNL     1      19.029  -0.895  52.996  1.00  0.00     0.086 A 
HETATM    5  C6  UNL     1      19.162  -0.052  51.902  1.00  0.00    -0.004 A 
HETATM    6  C7  UNL     1      18.027   0.402  51.249  1.00  0.00     0.048 A 
HETATM    7  C8  UNL     1      20.305   0.530  51.206  1.00  0.00     0.161 C 
HETATM    8  N1  UNL     1      21.581   0.132  51.674  1.00  0.00    -0.379 N 
HETATM    9  C9  UNL     1      22.052  -0.373  52.913  1.00  0.00     0.129 A 
HETATM   10  C10 UNL     1      23.387  -0.118  53.194  1.00  0.00     0.160 A 
HETATM   11  N3  UNL     1      24.015  -0.541  54.329  1.00  0.00    -0.222 NA
HETATM   12  C23 UNL     1      23.270  -1.242  55.208  1.00  0.00     0.238 A 
HETATM   13  N4  UNL     1      21.950  -1.519  54.984  1.00  0.00    -0.215 NA
HETATM   14  C24 UNL     1      21.369  -1.086  53.850  1.00  0.00     0.202 A 
HETATM   15  O2  UNL     1      20.028  -1.452  53.778  1.00  0.00    -0.289 OA
HETATM   16  H9  UNL     1      22.373   0.214  50.960  1.00  0.00     0.160 HD
ENDROOT
BRANCH  10  17
HETATM   17  N2  UNL     1      24.112   0.649  52.241  1.00  0.00    -0.338 N 
HETATM   18  H10 UNL     1      24.531   0.104  51.455  1.00  0.00     0.167 HD
BRANCH  17  19
HETATM   19  C11 UNL     1      24.268   2.049  52.270  1.00  0.00     0.046 C 
HETATM   20  C12 UNL     1      23.699   2.882  53.109  1.00  0.00     0.015 C 
HETATM   21  C13 UNL     1      23.348   4.046  52.689  1.00  0.00    -0.011 C 
HETATM   22  C14 UNL     1      23.682   4.483  51.502  1.00  0.00     0.025 C 
HETATM   23  C15 UNL     1      24.878   3.918  50.893  1.00  0.00    -0.023 C 
HETATM   24  C16 UNL     1      25.727   4.630  49.963  1.00  0.00    -0.026 A 
HETATM   25  C22 UNL     1      25.158   2.684  51.290  1.00  0.00     0.042 C 
HETATM   26  C17 UNL     1      25.428   5.915  49.546  1.00  0.00     0.012 A 
HETATM   27  C21 UNL     1      26.876   4.021  49.505  1.00  0.00     0.012 A 
HETATM   28  C18 UNL     1      26.263   6.613  48.673  1.00  0.00     0.001 A 
HETATM   29  C19 UNL     1      27.409   5.966  48.235  1.00  0.00     0.000 A 
HETATM   30  C20 UNL     1      27.736   4.686  48.631  1.00  0.00     0.001 A 
ENDBRANCH  17  19
ENDBRANCH  10  17
BRANCH   1  31
HETATM   31  O1  UNL     1      15.504   0.282  51.276  1.00  0.00    -0.356 OA
HETATM   32  C1  UNL     1      14.833   1.475  51.095  1.00  0.00     0.210 C 
ENDBRANCH   1  31
TORSDOF 3
ENDMDL
MODEL 6
REMARK VINA RESULT:      -9.5      5.483     10.312
REMARK  3 active torsions:
REMARK  status: ('A' for Active; 'I' for Inactive)
REMARK    1  A    between atoms: O1_2  and  C2_3 
REMARK    2  A    between atoms: C10_12  and  N2_13 
REMARK    3  A    between atoms: N2_13  and  C11_14 
ROOT
HETATM    1  C2  UNL     1      26.636  -0.885  52.843  1.00  0.00     0.069 A 
HETATM    2  C3  UNL     1      25.574  -0.799  53.751  1.00  0.00     0.039 A 
HETATM    3  C4  UNL     1      24.718   0.306  53.783  1.00  0.00     0.040 A 
HETATM    4  C5  UNL     1      24.977   1.316  52.867  1.00  0.00     0.086 A 
HETATM    5  C6  UNL     1      26.025   1.247  51.961  1.00  0.00    -0.004 A 
HETATM    6  C7  UNL     1      26.852   0.136  51.958  1.00  0.00     0.048 A 
HETATM    7  C8  UNL     1      26.516   2.136  50.912  1.00  0.00     0.161 C 
HETATM    8  N1  UNL     1      25.847   3.378  50.792  1.00  0.00    -0.379 N 
HETATM    9  C9  UNL     1      24.552   3.828  51.156  1.00  0.00     0.129 A 
HETATM   10  C10 UNL     1      24.051   4.881  50.403  1.00  0.00     0.160 A 
HETATM   11  N3  UNL     1      22.832   5.454  50.621  1.00  0.00    -0.222 NA
HETATM   12  C23 UNL     1      22.095   4.945  51.631  1.00  0.00     0.238 A 
HETATM   13  N4  UNL     1      22.539   3.907  52.402  1.00  0.00    -0.215 NA
HETATM   14  C24 UNL     1      23.748   3.372  52.156  1.00  0.00     0.202 A 
HETATM   15  O2  UNL     1      24.046   2.330  53.029  1.00  0.00    -0.289 OA
HETATM   16  H9  UNL     1      26.418   4.160  50.340  1.00  0.00     0.160 HD
ENDROOT
BRANCH  10  17
HETATM   17  N2  UNL     1      24.863   5.355  49.337  1.00  0.00    -0.338 N 
HETATM   18  H10 UNL     1      24.624   4.980  48.392  1.00  0.00     0.167 HD
BRANCH  17  19
HETATM   19  C11 UNL     1      25.912   6.287  49.462  1.00  0.00     0.046 C 
HETATM   20  C12 UNL     1      25.847   7.464  50.039  1.00  0.00     0.015 C 
HETATM   21  C13 UNL     1      26.531   8.437  49.548  1.00  0.00    -0.011 C 
HETATM   22  C14 UNL     1      27.407   8.253  48.595  1.00  0.00     0.025 C 
HETATM   23  C15 UNL     1      28.005   6.930  48.480  1.00  0.00    -0.023 C 
HETATM   24  C16 UNL     1      29.336   6.684  47.969  1.00  0.00    -0.026 A 
HETATM   25  C22 UNL     1      27.233   5.946  48.920  1.00  0.00     0.042 C 
HETATM   26  C17 UNL     1      30.136   7.713  47.504  1.00  0.00     0.012 A 
HETATM   27  C21 UNL     1      29.826   5.395  47.974  1.00  0.00     0.012 A 
HETATM   28  C18 UNL     1      31.432   7.479  47.040  1.00  0.00     0.001 A 
HETATM   29  C19 UNL     1      31.888   6.169  47.062  1.00  0.00     0.000 A 
HETATM   30  C20 UNL     1      31.116   5.122  47.518  1.00  0.00     0.001 A 
ENDBRANCH  17  19
ENDBRANCH  10  17
BRANCH   1  31
HETATM   31  O1  UNL     1      27.245  -2.085  53.096  1.00  0.00    -0.356 OA
HETATM   32  C1  UNL     1      28.575  -2.458  53.048  1.00  0.00     0.210 C 
ENDBRANCH   1  31
TORSDOF 3
ENDMDL
MODEL 7
REMARK VINA RESULT:      -8.8      6.334     12.322
REMARK  3 active torsions:
REMARK  status: ('A' for Active; 'I' for Inactive)
REMARK    1  A    between atoms: O1_2  and  C2_3 
REMARK    2  A    between atoms: C10_12  and  N2_13 
REMARK    3  A    between atoms: N2_13  and  C11_14 
ROOT
HETATM    1  C2  UNL     1      22.842   1.634  52.370  1.00  0.00     0.069 A 
HETATM    2  C3  UNL     1      21.921   2.682  52.260  1.00  0.00     0.039 A 
HETATM    3  C4  UNL     1      22.258   3.903  51.668  1.00  0.00     0.040 A 
HETATM    4  C5  UNL     1      23.557   4.022  51.194  1.00  0.00     0.086 A 
HETATM    5  C6  UNL     1      24.483   2.994  51.295  1.00  0.00    -0.004 A 
HETATM    6  C7  UNL     1      24.112   1.798  51.888  1.00  0.00     0.048 A 
HETATM    7  C8  UNL     1      25.878   2.845  50.893  1.00  0.00     0.161 C 
HETATM    8  N1  UNL     1      26.483   3.993  50.324  1.00  0.00    -0.379 N 
HETATM    9  C9  UNL     1      25.971   5.138  49.662  1.00  0.00     0.129 A 
HETATM   10  C10 UNL     1      26.838   5.749  48.766  1.00  0.00     0.160 A 
HETATM   11  N3  UNL     1      26.523   6.869  48.053  1.00  0.00    -0.222 NA
HETATM   12  C23 UNL     1      25.294   7.387  48.251  1.00  0.00     0.238 A 
HETATM   13  N4  UNL     1      24.399   6.826  49.119  1.00  0.00    -0.215 NA
HETATM   14  C24 UNL     1      24.749   5.723  49.805  1.00  0.00     0.202 A 
HETATM   15  O2  UNL     1      23.728   5.282  50.641  1.00  0.00    -0.289 OA
HETATM   16  H9  UNL     1      27.548   4.031  50.401  1.00  0.00     0.160 HD
ENDROOT
BRANCH  10  17
HETATM   17  N2  UNL     1      28.109   5.139  48.582  1.00  0.00    -0.338 N 
HETATM   18  H10 UNL     1      28.120   4.098  48.657  1.00  0.00     0.167 HD
BRANCH  17  19
HETATM   19  C11 UNL     1      29.305   5.822  48.284  1.00  0.00     0.046 C 
HETATM   20  C12 UNL     1      29.499   7.119  48.336  1.00  0.00     0.015 C 
HETATM   21  C13 UNL     1      30.277   7.667  47.471  1.00  0.00    -0.011 C 
HETATM   22  C14 UNL     1      31.002   6.958  46.645  1.00  0.00     0.025 C 
HETATM   23  C15 UNL     1      31.356   5.606  47.057  1.00  0.00    -0.023 C 
HETATM   24  C16 UNL     1      32.565   4.925  46.646  1.00  0.00    -0.026 A 
HETATM   25  C22 UNL     1      30.484   5.045  47.883  1.00  0.00     0.042 C 
HETATM   26  C17 UNL     1      33.468   5.512  45.778  1.00  0.00     0.012 A 
HETATM   27  C21 UNL     1      32.832   3.673  47.156  1.00  0.00     0.012 A 
HETATM   28  C18 UNL     1      34.649   4.867  45.406  1.00  0.00     0.001 A 
HETATM   29  C19 UNL     1      34.882   3.609  45.942  1.00  0.00     0.000 A 
HETATM   30  C20 UNL     1      34.002   2.996  46.808  1.00  0.00     0.001 A 
ENDBRANCH  17  19
ENDBRANCH  10  17
BRANCH   1  31
HETATM   31  O1  UNL     1      22.172   0.613  52.989  1.00  0.00    -0.356 OA
HETATM   32  C1  UNL     1      21.028   0.614  53.763  1.00  0.00     0.210 C 
ENDBRANCH   1  31
TORSDOF 3
ENDMDL
MODEL 8
REMARK VINA RESULT:      -8.7     10.039     13.581
REMARK  3 active torsions:
REMARK  status: ('A' for Active; 'I' for Inactive)
REMARK    1  A    between atoms: O1_2  and  C2_3 
REMARK    2  A    between atoms: C10_12  and  N2_13 
REMARK    3  A    between atoms: N2_13  and  C11_14 
ROOT
HETATM    1  C2  UNL     1      33.257   6.072  40.796  1.00  0.00     0.069 A 
HETATM    2  C3  UNL     1      34.034   4.929  41.019  1.00  0.00     0.039 A 
HETATM    3  C4  UNL     1      34.209   4.391  42.298  1.00  0.00     0.040 A 
HETATM    4  C5  UNL     1      33.572   5.053  43.338  1.00  0.00     0.086 A 
HETATM    5  C6  UNL     1      32.799   6.187  43.136  1.00  0.00    -0.004 A 
HETATM    6  C7  UNL     1      32.648   6.690  41.855  1.00  0.00     0.048 A 
HETATM    7  C8  UNL     1      32.034   7.060  44.020  1.00  0.00     0.161 C 
HETATM    8  N1  UNL     1      32.113   6.763  45.403  1.00  0.00    -0.379 N 
HETATM    9  C9  UNL     1      32.416   5.584  46.131  1.00  0.00     0.129 A 
HETATM   10  C10 UNL     1      31.860   5.505  47.400  1.00  0.00     0.160 A 
HETATM   11  N3  UNL     1      32.056   4.455  48.249  1.00  0.00    -0.222 NA
HETATM   12  C23 UNL     1      32.839   3.452  47.800  1.00  0.00     0.238 A 
HETATM   13  N4  UNL     1      33.410   3.476  46.558  1.00  0.00    -0.215 NA
HETATM   14  C24 UNL     1      33.193   4.532  45.752  1.00  0.00     0.202 A 
HETATM   15  O2  UNL     1      33.844   4.399  44.530  1.00  0.00    -0.289 OA
HETATM   16  H9  UNL     1      31.911   7.584  46.057  1.00  0.00     0.160 HD
ENDROOT
BRANCH  10  17
HETATM   17  N2  UNL     1      31.023   6.581  47.805  1.00  0.00    -0.338 N 
HETATM   18  H10 UNL     1      31.504   7.354  48.315  1.00  0.00     0.167 HD
BRANCH  17  19
HETATM   19  C11 UNL     1      29.641   6.681  47.545  1.00  0.00     0.046 C 
HETATM   20  C12 UNL     1      29.054   7.559  46.767  1.00  0.00     0.015 C 
HETATM   21  C13 UNL     1      27.893   8.005  47.096  1.00  0.00    -0.011 C 
HETATM   22  C14 UNL     1      27.214   7.497  48.091  1.00  0.00     0.025 C 
HETATM   23  C15 UNL     1      27.494   6.115  48.457  1.00  0.00    -0.023 C 
HETATM   24  C16 UNL     1      26.521   5.217  49.041  1.00  0.00    -0.026 A 
HETATM   25  C22 UNL     1      28.729   5.720  48.177  1.00  0.00     0.042 C 
HETATM   26  C17 UNL     1      25.236   5.636  49.338  1.00  0.00     0.012 A 
HETATM   27  C21 UNL     1      26.879   3.907  49.280  1.00  0.00     0.012 A 
HETATM   28  C18 UNL     1      24.288   4.762  49.873  1.00  0.00     0.001 A 
HETATM   29  C19 UNL     1      24.687   3.452  50.098  1.00  0.00     0.000 A 
HETATM   30  C20 UNL     1      25.959   3.004  49.814  1.00  0.00     0.001 A 
ENDBRANCH  17  19
ENDBRANCH  10  17
BRANCH   1  31
HETATM   31  O1  UNL     1      33.308   6.301  39.448  1.00  0.00    -0.356 OA
HETATM   32  C1  UNL     1      32.365   6.111  38.456  1.00  0.00     0.210 C 
ENDBRANCH   1  31
TORSDOF 3
ENDMDL
MODEL 9
REMARK VINA RESULT:      -8.7      4.657      8.603
REMARK  3 active torsions:
REMARK  status: ('A' for Active; 'I' for Inactive)
REMARK    1  A    between atoms: O1_2  and  C2_3 
REMARK    2  A    between atoms: C10_12  and  N2_13 
REMARK    3  A    between atoms: N2_13  and  C11_14 
ROOT
HETATM    1  C2  UNL     1      20.382   7.299  48.239  1.00  0.00     0.069 A 
HETATM    2  C3  UNL     1      21.224   8.382  47.958  1.00  0.00     0.039 A 
HETATM    3  C4  UNL     1      22.610   8.306  48.132  1.00  0.00     0.040 A 
HETATM    4  C5  UNL     1      23.108   7.098  48.600  1.00  0.00     0.086 A 
HETATM    5  C6  UNL     1      22.289   6.015  48.883  1.00  0.00    -0.004 A 
HETATM    6  C7  UNL     1      20.920   6.128  48.699  1.00  0.00     0.048 A 
HETATM    7  C8  UNL     1      22.533   4.661  49.372  1.00  0.00     0.161 C 
HETATM    8  N1  UNL     1      23.877   4.355  49.697  1.00  0.00    -0.379 N 
HETATM    9  C9  UNL     1      25.126   4.890  49.288  1.00  0.00     0.129 A 
HETATM   10  C10 UNL     1      26.201   4.015  49.353  1.00  0.00     0.160 A 
HETATM   11  N3  UNL     1      27.478   4.359  49.015  1.00  0.00    -0.222 NA
HETATM   12  C23 UNL     1      27.673   5.628  48.600  1.00  0.00     0.238 A 
HETATM   13  N4  UNL     1      26.650   6.530  48.515  1.00  0.00    -0.215 NA
HETATM   14  C24 UNL     1      25.406   6.152  48.859  1.00  0.00     0.202 A 
HETATM   15  O2  UNL     1      24.486   7.186  48.715  1.00  0.00    -0.289 OA
HETATM   16  H9  UNL     1      24.005   3.561  50.401  1.00  0.00     0.160 HD
ENDROOT
BRANCH  10  17
HETATM   17  N2  UNL     1      25.926   2.685  49.773  1.00  0.00    -0.338 N 
HETATM   18  H10 UNL     1      25.673   2.018  49.010  1.00  0.00     0.167 HD
BRANCH  17  19
HETATM   19  C11 UNL     1      25.999   2.218  51.100  1.00  0.00     0.046 C 
HETATM   20  C12 UNL     1      27.070   2.183  51.859  1.00  0.00     0.015 C 
HETATM   21  C13 UNL     1      27.216   1.208  52.685  1.00  0.00    -0.011 C 
HETATM   22  C14 UNL     1      26.264   0.340  52.905  1.00  0.00     0.025 C 
HETATM   23  C15 UNL     1      24.894   0.773  52.666  1.00  0.00    -0.023 C 
HETATM   24  C16 UNL     1      23.745   0.259  53.379  1.00  0.00    -0.026 A 
HETATM   25  C22 UNL     1      24.778   1.721  51.746  1.00  0.00     0.042 C 
HETATM   26  C17 UNL     1      23.869  -0.735  54.333  1.00  0.00     0.012 A 
HETATM   27  C21 UNL     1      22.502   0.796  53.119  1.00  0.00     0.012 A 
HETATM   28  C18 UNL     1      22.765  -1.210  55.043  1.00  0.00     0.001 A 
HETATM   29  C19 UNL     1      21.532  -0.644  54.753  1.00  0.00     0.000 A 
HETATM   30  C20 UNL     1      21.374   0.348  53.808  1.00  0.00     0.001 A 
ENDBRANCH  17  19
ENDBRANCH  10  17
BRANCH   1  31
HETATM   31  O1  UNL     1      19.114   7.730  47.955  1.00  0.00    -0.356 OA
HETATM   32  C1  UNL     1      18.657   8.914  47.408  1.00  0.00     0.210 C 
ENDBRANCH   1  31
TORSDOF 3
ENDMDL
