MODEL 1
REMARK VINA RESULT:      -8.2      0.000      0.000
REMARK  2 active torsions:
REMARK  status: ('A' for Active; 'I' for Inactive)
REMARK    1  A    between atoms: C6_7  and  N2_8 
REMARK       I    between atoms: N2_8  and  C7_9 
REMARK    2  A    between atoms: C7_9  and  C8_11 
ROOT
HETATM    1  C1  UNL     1      29.286  -1.935  53.265  1.00  0.00     0.037 C 
HETATM    2  C2  UNL     1      28.439  -1.085  53.389  1.00  0.00    -0.002 C 
HETATM    3  N1  UNL     1      27.453  -0.085  53.509  1.00  0.00    -0.320 N 
HETATM    4  C3  UNL     1      26.164  -0.317  54.123  1.00  0.00     0.173 C 
HETATM    5  C4  UNL     1      25.067   0.312  53.348  1.00  0.00    -0.031 A 
HETATM    6  C5  UNL     1      23.833  -0.299  53.346  1.00  0.00     0.039 A 
HETATM    7  C6  UNL     1      22.754   0.196  52.666  1.00  0.00     0.035 A 
HETATM    8  C11 UNL     1      23.025   1.359  51.985  1.00  0.00     0.030 A 
HETATM    9  C12 UNL     1      24.239   2.006  51.955  1.00  0.00     0.010 A 
HETATM   10  C13 UNL     1      25.289   1.459  52.662  1.00  0.00    -0.047 A 
HETATM   11  C14 UNL     1      26.606   2.088  52.677  1.00  0.00     0.080 C 
HETATM   12  C15 UNL     1      27.754   1.210  52.997  1.00  0.00     0.204 C 
HETATM   13  C16 UNL     1      28.709   1.933  53.873  1.00  0.00     0.085 C 
HETATM   14  N3  UNL     1      29.465   2.483  54.557  1.00  0.00    -0.195 NA
ENDROOT
BRANCH   7  15
HETATM   15  N2  UNL     1      21.512  -0.478  52.703  1.00  0.00    -0.324 N 
HETATM   16  C7  UNL     1      20.416  -0.339  53.566  1.00  0.00     0.245 C 
HETATM   17  O1  UNL     1      20.491   0.513  54.478  1.00  0.00    -0.268 OA
HETATM   18  H5  UNL     1      21.350  -1.220  51.971  1.00  0.00     0.169 HD
BRANCH  16  19
HETATM   19  C8  UNL     1      19.201  -1.133  53.450  1.00  0.00     0.070 C 
HETATM   20  C9  UNL     1      18.162  -0.688  52.764  1.00  0.00    -0.026 C 
HETATM   21  C10 UNL     1      16.939  -1.495  52.651  1.00  0.00     0.036 C 
ENDBRANCH  16  19
ENDBRANCH   7  15
TORSDOF 2
ENDMDL
MODEL 2
REMARK VINA RESULT:      -8.0      3.570      7.550
REMARK  2 active torsions:
REMARK  status: ('A' for Active; 'I' for Inactive)
REMARK    1  A    between atoms: C6_7  and  N2_8 
REMARK       I    between atoms: N2_8  and  C7_9 
REMARK    2  A    between atoms: C7_9  and  C8_11 
ROOT
HETATM    1  C1  UNL     1      19.845   0.131  51.585  1.00  0.00     0.037 C 
HETATM    2  C2  UNL     1      20.944   0.316  52.046  1.00  0.00    -0.002 C 
HETATM    3  N1  UNL     1      22.237   0.511  52.573  1.00  0.00    -0.320 N 
HETATM    4  C3  UNL     1      22.896   1.799  52.590  1.00  0.00     0.173 C 
HETATM    5  C4  UNL     1      24.323   1.689  52.200  1.00  0.00    -0.031 A 
HETATM    6  C5  UNL     1      24.903   2.746  51.535  1.00  0.00     0.039 A 
HETATM    7  C6  UNL     1      26.209   2.749  51.130  1.00  0.00     0.035 A 
HETATM    8  C11 UNL     1      26.883   1.594  51.452  1.00  0.00     0.030 A 
HETATM    9  C12 UNL     1      26.348   0.512  52.113  1.00  0.00     0.010 A 
HETATM   10  C13 UNL     1      25.025   0.568  52.497  1.00  0.00    -0.047 A 
HETATM   11  C14 UNL     1      24.389  -0.539  53.202  1.00  0.00     0.080 C 
HETATM   12  C15 UNL     1      22.914  -0.622  53.109  1.00  0.00     0.204 C 
HETATM   13  C16 UNL     1      22.351  -1.020  54.423  1.00  0.00     0.085 C 
HETATM   14  N3  UNL     1      21.896  -1.330  55.442  1.00  0.00    -0.195 NA
ENDROOT
BRANCH   7  15
HETATM   15  N2  UNL     1      26.747   3.865  50.451  1.00  0.00    -0.324 N 
HETATM   16  C7  UNL     1      26.219   4.658  49.421  1.00  0.00     0.245 C 
HETATM   17  O1  UNL     1      25.080   4.376  48.990  1.00  0.00    -0.268 OA
HETATM   18  H5  UNL     1      27.710   4.183  50.743  1.00  0.00     0.169 HD
BRANCH  16  19
HETATM   19  C8  UNL     1      26.930   5.785  48.835  1.00  0.00     0.070 C 
HETATM   20  C9  UNL     1      28.148   5.636  48.340  1.00  0.00    -0.026 C 
HETATM   21  C10 UNL     1      28.860   6.777  47.750  1.00  0.00     0.036 C 
ENDBRANCH  16  19
ENDBRANCH   7  15
TORSDOF 2
ENDMDL
MODEL 3
REMARK VINA RESULT:      -7.8      2.723      7.536
REMARK  2 active torsions:
REMARK  status: ('A' for Active; 'I' for Inactive)
REMARK    1  A    between atoms: C6_7  and  N2_8 
REMARK       I    between atoms: N2_8  and  C7_9 
REMARK    2  A    between atoms: C7_9  and  C8_11 
ROOT
HETATM    1  C1  UNL     1      20.817   2.382  48.219  1.00  0.00     0.037 C 
HETATM    2  C2  UNL     1      20.958   2.241  49.408  1.00  0.00    -0.002 C 
HETATM    3  N1  UNL     1      21.112   2.054  50.797  1.00  0.00    -0.320 N 
HETATM    4  C3  UNL     1      22.361   2.281  51.490  1.00  0.00     0.173 C 
HETATM    5  C4  UNL     1      22.640   1.212  52.481  1.00  0.00    -0.031 A 
HETATM    6  C5  UNL     1      23.952   0.873  52.726  1.00  0.00     0.039 A 
HETATM    7  C6  UNL     1      24.320  -0.097  53.618  1.00  0.00     0.035 A 
HETATM    8  C11 UNL     1      23.252  -0.698  54.241  1.00  0.00     0.030 A 
HETATM    9  C12 UNL     1      21.927  -0.396  54.030  1.00  0.00     0.010 A 
HETATM   10  C13 UNL     1      21.618   0.592  53.119  1.00  0.00    -0.047 A 
HETATM   11  C14 UNL     1      20.236   0.967  52.842  1.00  0.00     0.080 C 
HETATM   12  C15 UNL     1      19.976   1.619  51.539  1.00  0.00     0.204 C 
HETATM   13  C16 UNL     1      18.990   2.715  51.713  1.00  0.00     0.085 C 
HETATM   14  N3  UNL     1      18.221   3.572  51.833  1.00  0.00    -0.195 NA
ENDROOT
BRANCH   7  15
HETATM   15  N2  UNL     1      25.685  -0.399  53.826  1.00  0.00    -0.324 N 
HETATM   16  C7  UNL     1      26.718   0.357  54.399  1.00  0.00     0.245 C 
HETATM   17  O1  UNL     1      26.443   1.504  54.816  1.00  0.00    -0.268 OA
HETATM   18  H5  UNL     1      26.017  -1.347  53.506  1.00  0.00     0.169 HD
BRANCH  16  19
HETATM   19  C8  UNL     1      28.085  -0.126  54.530  1.00  0.00     0.070 C 
HETATM   20  C9  UNL     1      28.761  -0.544  53.473  1.00  0.00    -0.026 C 
HETATM   21  C10 UNL     1      30.140  -1.031  53.612  1.00  0.00     0.036 C 
ENDBRANCH  16  19
ENDBRANCH   7  15
TORSDOF 2
ENDMDL
MODEL 4
REMARK VINA RESULT:      -7.2      2.418      7.589
REMARK  2 active torsions:
REMARK  status: ('A' for Active; 'I' for Inactive)
REMARK    1  A    between atoms: C6_7  and  N2_8 
REMARK       I    between atoms: N2_8  and  C7_9 
REMARK    2  A    between atoms: C7_9  and  C8_11 
ROOT
HETATM    1  C1  UNL     1      18.334  -0.909  53.040  1.00  0.00     0.037 C 
HETATM    2  C2  UNL     1      19.192  -0.183  52.603  1.00  0.00    -0.002 C 
HETATM    3  N1  UNL     1      20.191   0.682  52.113  1.00  0.00    -0.320 N 
HETATM    4  C3  UNL     1      21.492   0.220  51.679  1.00  0.00     0.173 C 
HETATM    5  C4  UNL     1      22.577   1.110  52.160  1.00  0.00    -0.031 A 
HETATM    6  C5  UNL     1      23.804   0.552  52.441  1.00  0.00     0.039 A 
HETATM    7  C6  UNL     1      24.872   1.279  52.889  1.00  0.00     0.035 A 
HETATM    8  C11 UNL     1      24.598   2.619  53.033  1.00  0.00     0.030 A 
HETATM    9  C12 UNL     1      23.390   3.223  52.767  1.00  0.00     0.010 A 
HETATM   10  C13 UNL     1      22.351   2.437  52.316  1.00  0.00    -0.047 A 
HETATM   11  C14 UNL     1      21.042   3.006  52.014  1.00  0.00     0.080 C 
HETATM   12  C15 UNL     1      19.892   2.074  52.049  1.00  0.00     0.204 C 
HETATM   13  C16 UNL     1      18.965   2.379  50.931  1.00  0.00     0.085 C 
HETATM   14  N3  UNL     1      18.232   2.605  50.064  1.00  0.00    -0.195 NA
ENDROOT
BRANCH   7  15
HETATM   15  N2  UNL     1      26.108   0.648  53.160  1.00  0.00    -0.324 N 
HETATM   16  C7  UNL     1      26.852   0.552  54.344  1.00  0.00     0.245 C 
HETATM   17  O1  UNL     1      26.393   1.099  55.371  1.00  0.00    -0.268 OA
HETATM   18  H5  UNL     1      26.578   0.156  52.353  1.00  0.00     0.169 HD
BRANCH  16  19
HETATM   19  C8  UNL     1      28.124  -0.149  54.434  1.00  0.00     0.070 C 
HETATM   20  C9  UNL     1      29.016  -0.065  53.461  1.00  0.00    -0.026 C 
HETATM   21  C10 UNL     1      30.299  -0.775  53.558  1.00  0.00     0.036 C 
ENDBRANCH  16  19
ENDBRANCH   7  15
TORSDOF 2
ENDMDL
MODEL 5
REMARK VINA RESULT:      -7.2      2.528      3.792
REMARK  2 active torsions:
REMARK  status: ('A' for Active; 'I' for Inactive)
REMARK    1  A    between atoms: C6_7  and  N2_8 
REMARK       I    between atoms: N2_8  and  C7_9 
REMARK    2  A    between atoms: C7_9  and  C8_11 
ROOT
HETATM    1  C1  UNL     1      29.041   2.483  53.833  1.00  0.00     0.037 C 
HETATM    2  C2  UNL     1      28.143   1.767  53.462  1.00  0.00    -0.002 C 
HETATM    3  N1  UNL     1      27.086   0.929  53.053  1.00  0.00    -0.320 N 
HETATM    4  C3  UNL     1      26.216   1.241  51.941  1.00  0.00     0.173 C 
HETATM    5  C4  UNL     1      24.796   0.946  52.257  1.00  0.00    -0.031 A 
HETATM    6  C5  UNL     1      23.821   1.732  51.684  1.00  0.00     0.039 A 
HETATM    7  C6  UNL     1      22.485   1.546  51.907  1.00  0.00     0.035 A 
HETATM    8  C11 UNL     1      22.213   0.502  52.759  1.00  0.00     0.030 A 
HETATM    9  C12 UNL     1      23.151  -0.310  53.356  1.00  0.00     0.010 A 
HETATM   10  C13 UNL     1      24.483  -0.074  53.092  1.00  0.00    -0.047 A 
HETATM   11  C14 UNL     1      25.533  -0.893  53.688  1.00  0.00     0.080 C 
HETATM   12  C15 UNL     1      26.878  -0.279  53.779  1.00  0.00     0.204 C 
HETATM   13  C16 UNL     1      27.914  -1.292  53.458  1.00  0.00     0.085 C 
HETATM   14  N3  UNL     1      28.734  -2.071  53.210  1.00  0.00    -0.195 NA
ENDROOT
BRANCH   7  15
HETATM   15  N2  UNL     1      21.531   2.387  51.289  1.00  0.00    -0.324 N 
HETATM   16  C7  UNL     1      20.530   3.201  51.836  1.00  0.00     0.245 C 
HETATM   17  O1  UNL     1      20.414   3.231  53.081  1.00  0.00    -0.268 OA
HETATM   18  H5  UNL     1      21.547   2.430  50.235  1.00  0.00     0.169 HD
BRANCH  16  19
HETATM   19  C8  UNL     1      19.626   4.009  51.030  1.00  0.00     0.070 C 
HETATM   20  C9  UNL     1      20.094   4.915  50.189  1.00  0.00    -0.026 C 
HETATM   21  C10 UNL     1      19.176   5.728  49.378  1.00  0.00     0.036 C 
ENDBRANCH  16  19
ENDBRANCH   7  15
TORSDOF 2
ENDMDL
MODEL 6
REMARK VINA RESULT:      -7.1      1.609      2.708
REMARK  2 active torsions:
REMARK  status: ('A' for Active; 'I' for Inactive)
REMARK    1  A    between atoms: C6_7  and  N2_8 
REMARK       I    between atoms: N2_8  and  C7_9 
REMARK    2  A    between atoms: C7_9  and  C8_11 
ROOT
HETATM    1  C1  UNL     1      27.119   2.822  51.512  1.00  0.00     0.037 C 
HETATM    2  C2  UNL     1      26.800   1.841  52.136  1.00  0.00    -0.002 C 
HETATM    3  N1  UNL     1      26.425   0.708  52.887  1.00  0.00    -0.320 N 
HETATM    4  C3  UNL     1      25.406  -0.223  52.455  1.00  0.00     0.173 C 
HETATM    5  C4  UNL     1      24.513  -0.615  53.574  1.00  0.00    -0.031 A 
HETATM    6  C5  UNL     1      23.197  -0.902  53.291  1.00  0.00     0.039 A 
HETATM    7  C6  UNL     1      22.290  -1.273  54.245  1.00  0.00     0.035 A 
HETATM    8  C11 UNL     1      22.823  -1.329  55.512  1.00  0.00     0.030 A 
HETATM    9  C12 UNL     1      24.129  -1.052  55.844  1.00  0.00     0.010 A 
HETATM   10  C13 UNL     1      24.996  -0.683  54.838  1.00  0.00    -0.047 A 
HETATM   11  C14 UNL     1      26.395  -0.374  55.114  1.00  0.00     0.080 C 
HETATM   12  C15 UNL     1      27.090   0.483  54.127  1.00  0.00     0.204 C 
HETATM   13  C16 UNL     1      28.474  -0.011  53.920  1.00  0.00     0.085 C 
HETATM   14  N3  UNL     1      29.556  -0.384  53.747  1.00  0.00    -0.195 NA
ENDROOT
BRANCH   7  15
HETATM   15  N2  UNL     1      20.951  -1.556  53.891  1.00  0.00    -0.324 N 
HETATM   16  C7  UNL     1      19.877  -0.703  53.602  1.00  0.00     0.245 C 
HETATM   17  O1  UNL     1      20.078   0.531  53.648  1.00  0.00    -0.268 OA
HETATM   18  H5  UNL     1      20.679  -2.573  53.826  1.00  0.00     0.169 HD
BRANCH  16  19
HETATM   19  C8  UNL     1      18.547  -1.181  53.253  1.00  0.00     0.070 C 
HETATM   20  C9  UNL     1      18.139  -2.383  53.624  1.00  0.00    -0.026 C 
HETATM   21  C10 UNL     1      16.796  -2.861  53.269  1.00  0.00     0.036 C 
ENDBRANCH  16  19
ENDBRANCH   7  15
TORSDOF 2
ENDMDL
MODEL 7
REMARK VINA RESULT:      -7.0      2.506      3.588
REMARK  2 active torsions:
REMARK  status: ('A' for Active; 'I' for Inactive)
REMARK    1  A    between atoms: C6_7  and  N2_8 
REMARK       I    between atoms: N2_8  and  C7_9 
REMARK    2  A    between atoms: C7_9  and  C8_11 
ROOT
HETATM    1  C1  UNL     1      28.211   2.375  53.335  1.00  0.00     0.037 C 
HETATM    2  C2  UNL     1      27.233   1.688  53.171  1.00  0.00    -0.002 C 
HETATM    3  N1  UNL     1      26.088   0.883  53.005  1.00  0.00    -0.320 N 
HETATM    4  C3  UNL     1      25.001   1.230  52.115  1.00  0.00     0.173 C 
HETATM    5  C4  UNL     1      23.679   0.971  52.738  1.00  0.00    -0.031 A 
HETATM    6  C5  UNL     1      22.625   1.789  52.397  1.00  0.00     0.039 A 
HETATM    7  C6  UNL     1      21.366   1.639  52.911  1.00  0.00     0.035 A 
HETATM    8  C11 UNL     1      21.261   0.595  53.800  1.00  0.00     0.030 A 
HETATM    9  C12 UNL     1      22.283  -0.248  54.172  1.00  0.00     0.010 A 
HETATM   10  C13 UNL     1      23.530  -0.047  53.619  1.00  0.00    -0.047 A 
HETATM   11  C14 UNL     1      24.662  -0.900  53.965  1.00  0.00     0.080 C 
HETATM   12  C15 UNL     1      26.010  -0.325  53.757  1.00  0.00     0.204 C 
HETATM   13  C16 UNL     1      26.919  -1.364  53.210  1.00  0.00     0.085 C 
HETATM   14  N3  UNL     1      27.641  -2.163  52.784  1.00  0.00    -0.195 NA
ENDROOT
BRANCH   7  15
HETATM   15  N2  UNL     1      20.324   2.511  52.522  1.00  0.00    -0.324 N 
HETATM   16  C7  UNL     1      19.242   2.320  51.652  1.00  0.00     0.245 C 
HETATM   17  O1  UNL     1      19.127   1.207  51.094  1.00  0.00    -0.268 OA
HETATM   18  H5  UNL     1      20.333   3.480  52.940  1.00  0.00     0.169 HD
BRANCH  16  19
HETATM   19  C8  UNL     1      18.253   3.350  51.367  1.00  0.00     0.070 C 
HETATM   20  C9  UNL     1      16.977   3.166  51.662  1.00  0.00    -0.026 C 
HETATM   21  C10 UNL     1      15.984   4.209  51.373  1.00  0.00     0.036 C 
ENDBRANCH  16  19
ENDBRANCH   7  15
TORSDOF 2
ENDMDL
MODEL 8
REMARK VINA RESULT:      -6.9      2.466      4.177
REMARK  2 active torsions:
REMARK  status: ('A' for Active; 'I' for Inactive)
REMARK    1  A    between atoms: C6_7  and  N2_8 
REMARK       I    between atoms: N2_8  and  C7_9 
REMARK    2  A    between atoms: C7_9  and  C8_11 
ROOT
HETATM    1  C1  UNL     1      23.563   5.077  52.566  1.00  0.00     0.037 C 
HETATM    2  C2  UNL     1      23.532   3.872  52.533  1.00  0.00    -0.002 C 
HETATM    3  N1  UNL     1      23.503   2.462  52.518  1.00  0.00    -0.320 N 
HETATM    4  C3  UNL     1      22.396   1.701  51.980  1.00  0.00     0.173 C 
HETATM    5  C4  UNL     1      22.048   0.551  52.850  1.00  0.00    -0.031 A 
HETATM    6  C5  UNL     1      20.733   0.148  52.906  1.00  0.00     0.039 A 
HETATM    7  C6  UNL     1      20.303  -0.899  53.675  1.00  0.00     0.035 A 
HETATM    8  C11 UNL     1      21.313  -1.505  54.385  1.00  0.00     0.030 A 
HETATM    9  C12 UNL     1      22.640  -1.139  54.362  1.00  0.00     0.010 A 
HETATM   10  C13 UNL     1      23.012  -0.076  53.567  1.00  0.00    -0.047 A 
HETATM   11  C14 UNL     1      24.399   0.369  53.492  1.00  0.00     0.080 C 
HETATM   12  C15 UNL     1      24.622   1.769  53.063  1.00  0.00     0.204 C 
HETATM   13  C16 UNL     1      25.795   1.835  52.157  1.00  0.00     0.085 C 
HETATM   14  N3  UNL     1      26.709   1.903  51.449  1.00  0.00    -0.195 NA
ENDROOT
BRANCH   7  15
HETATM   15  N2  UNL     1      18.938  -1.265  53.690  1.00  0.00    -0.324 N 
HETATM   16  C7  UNL     1      17.939  -1.130  52.717  1.00  0.00     0.245 C 
HETATM   17  O1  UNL     1      18.249  -0.603  51.626  1.00  0.00    -0.268 OA
HETATM   18  H5  UNL     1      18.577  -1.719  54.571  1.00  0.00     0.169 HD
BRANCH  16  19
HETATM   19  C8  UNL     1      16.565  -1.571  52.914  1.00  0.00     0.070 C 
HETATM   20  C9  UNL     1      15.677  -1.482  51.938  1.00  0.00    -0.026 C 
HETATM   21  C10 UNL     1      14.293  -1.929  52.142  1.00  0.00     0.036 C 
ENDBRANCH  16  19
ENDBRANCH   7  15
TORSDOF 2
ENDMDL
MODEL 9
REMARK VINA RESULT:      -6.6      3.469      8.029
REMARK  2 active torsions:
REMARK  status: ('A' for Active; 'I' for Inactive)
REMARK    1  A    between atoms: C6_7  and  N2_8 
REMARK       I    between atoms: N2_8  and  C7_9 
REMARK    2  A    between atoms: C7_9  and  C8_11 
ROOT
HETATM    1  C1  UNL     1      19.571   5.951  49.376  1.00  0.00     0.037 C 
HETATM    2  C2  UNL     1      19.626   5.066  50.193  1.00  0.00    -0.002 C 
HETATM    3  N1  UNL     1      19.684   4.015  51.131  1.00  0.00    -0.320 N 
HETATM    4  C3  UNL     1      20.777   3.849  52.064  1.00  0.00     0.173 C 
HETATM    5  C4  UNL     1      21.195   2.430  52.173  1.00  0.00    -0.031 A 
HETATM    6  C5  UNL     1      22.520   2.156  52.429  1.00  0.00     0.039 A 
HETATM    7  C6  UNL     1      23.011   0.885  52.548  1.00  0.00     0.035 A 
HETATM    8  C11 UNL     1      22.053  -0.088  52.385  1.00  0.00     0.030 A 
HETATM    9  C12 UNL     1      20.720   0.135  52.128  1.00  0.00     0.010 A 
HETATM   10  C13 UNL     1      20.284   1.439  52.019  1.00  0.00    -0.047 A 
HETATM   11  C14 UNL     1      18.886   1.753  51.747  1.00  0.00     0.080 C 
HETATM   12  C15 UNL     1      18.611   3.078  51.146  1.00  0.00     0.204 C 
HETATM   13  C16 UNL     1      17.390   3.662  51.755  1.00  0.00     0.085 C 
HETATM   14  N3  UNL     1      16.438   4.130  52.220  1.00  0.00    -0.195 NA
ENDROOT
BRANCH   7  15
HETATM   15  N2  UNL     1      24.383   0.668  52.812  1.00  0.00    -0.324 N 
HETATM   16  C7  UNL     1      25.019  -0.122  53.780  1.00  0.00     0.245 C 
HETATM   17  O1  UNL     1      24.302  -0.769  54.574  1.00  0.00    -0.268 OA
HETATM   18  H5  UNL     1      25.073   1.173  52.194  1.00  0.00     0.169 HD
BRANCH  16  19
HETATM   19  C8  UNL     1      26.466  -0.223  53.904  1.00  0.00     0.070 C 
HETATM   20  C9  UNL     1      27.165  -0.990  53.084  1.00  0.00    -0.026 C 
HETATM   21  C10 UNL     1      28.626  -1.088  53.214  1.00  0.00     0.036 C 
ENDBRANCH  16  19
ENDBRANCH   7  15
TORSDOF 2
ENDMDL
