MODEL 1
REMARK VINA RESULT:      -8.8      0.000      0.000
REMARK  5 active torsions:
REMARK  status: ('A' for Active; 'I' for Inactive)
REMARK       I    between atoms: C1_2  and  N1_3 
REMARK    1  A    between atoms: C1_2  and  C15_18 
REMARK    2  A    between atoms: N1_3  and  C2_4 
REMARK    3  A    between atoms: C5_7  and  C6_8 
REMARK    4  A    between atoms: C6_8  and  O2_9 
REMARK    5  A    between atoms: C6_8  and  C7_10 
ROOT
HETATM    1  C2  UNL     1      26.328   2.369  51.748  1.00  0.00     0.035 A 
HETATM    2  C3  UNL     1      25.329   2.554  52.704  1.00  0.00     0.030 A 
HETATM    3  C4  UNL     1      24.834   1.440  53.369  1.00  0.00     0.012 A 
HETATM    4  C5  UNL     1      25.311   0.169  53.098  1.00  0.00    -0.025 A 
HETATM    5  C13 UNL     1      26.289   0.010  52.160  1.00  0.00     0.012 A 
HETATM    6  C14 UNL     1      26.792   1.102  51.492  1.00  0.00     0.030 A 
ENDROOT
BRANCH   1   7
HETATM    7  N1  UNL     1      26.899   3.444  51.016  1.00  0.00    -0.322 N 
HETATM    8  C1  UNL     1      26.321   3.914  49.808  1.00  0.00     0.272 C 
HETATM    9  O1  UNL     1      25.278   3.322  49.432  1.00  0.00    -0.266 OA
HETATM   10  H1  UNL     1      27.758   3.916  51.346  1.00  0.00     0.169 HD
BRANCH   8  11
HETATM   11  C15 UNL     1      26.820   5.003  48.979  1.00  0.00     0.100 C 
HETATM   12  C16 UNL     1      25.908   5.932  48.740  1.00  0.00     0.035 C 
HETATM   13  C17 UNL     1      26.052   7.170  47.946  1.00  0.00     0.002 C 
HETATM   14  C18 UNL     1      27.203   7.727  47.537  1.00  0.00     0.001 C 
HETATM   15  C19 UNL     1      28.582   7.272  47.759  1.00  0.00     0.017 C 
HETATM   16  C20 UNL     1      29.000   6.071  48.190  1.00  0.00     0.088 C 
HETATM   17  N2  UNL     1      28.166   4.969  48.526  1.00  0.00    -0.361 N 
HETATM   18  H18 UNL     1      28.543   3.999  48.447  1.00  0.00     0.165 HD
ENDBRANCH   8  11
ENDBRANCH   1   7
BRANCH   4  19
HETATM   19  C6  UNL     1      24.659  -0.912  53.911  1.00  0.00     0.184 C 
BRANCH  19  20
HETATM   20  O2  UNL     1      25.124  -0.944  55.210  1.00  0.00    -0.386 OA
HETATM   21  H5  UNL     1      24.908  -1.837  55.606  1.00  0.00     0.210 HD
ENDBRANCH  19  20
BRANCH  19  22
HETATM   22  C7  UNL     1      23.185  -0.737  53.834  1.00  0.00    -0.025 A 
HETATM   23  C8  UNL     1      22.366  -0.874  54.931  1.00  0.00     0.010 A 
HETATM   24  C9  UNL     1      21.003  -0.703  54.809  1.00  0.00     0.001 A 
HETATM   25  C10 UNL     1      20.418  -0.393  53.616  1.00  0.00     0.000 A 
HETATM   26  C11 UNL     1      21.202  -0.247  52.495  1.00  0.00     0.001 A 
HETATM   27  C12 UNL     1      22.565  -0.420  52.622  1.00  0.00     0.010 A 
ENDBRANCH  19  22
ENDBRANCH   4  19
TORSDOF 5
ENDMDL
MODEL 2
REMARK VINA RESULT:      -8.5      4.550      8.639
REMARK  5 active torsions:
REMARK  status: ('A' for Active; 'I' for Inactive)
REMARK       I    between atoms: C1_2  and  N1_3 
REMARK    1  A    between atoms: C1_2  and  C15_18 
REMARK    2  A    between atoms: N1_3  and  C2_4 
REMARK    3  A    between atoms: C5_7  and  C6_8 
REMARK    4  A    between atoms: C6_8  and  O2_9 
REMARK    5  A    between atoms: C6_8  and  C7_10 
ROOT
HETATM    1  C2  UNL     1      22.955  -0.075  52.805  1.00  0.00     0.035 A 
HETATM    2  C3  UNL     1      23.836  -0.347  53.852  1.00  0.00     0.030 A 
HETATM    3  C4  UNL     1      25.066   0.298  53.868  1.00  0.00     0.012 A 
HETATM    4  C5  UNL     1      25.423   1.193  52.873  1.00  0.00    -0.025 A 
HETATM    5  C13 UNL     1      24.546   1.445  51.858  1.00  0.00     0.012 A 
HETATM    6  C14 UNL     1      23.324   0.815  51.826  1.00  0.00     0.030 A 
ENDROOT
BRANCH   1   7
HETATM    7  N1  UNL     1      21.676  -0.683  52.700  1.00  0.00    -0.322 N 
HETATM    8  C1  UNL     1      20.492  -0.001  53.085  1.00  0.00     0.272 C 
HETATM    9  O1  UNL     1      20.649   1.167  53.522  1.00  0.00    -0.266 OA
HETATM   10  H1  UNL     1      21.572  -1.646  52.338  1.00  0.00     0.169 HD
BRANCH   8  11
HETATM   11  C15 UNL     1      19.135  -0.525  53.022  1.00  0.00     0.100 C 
HETATM   12  C16 UNL     1      18.393   0.068  52.100  1.00  0.00     0.035 C 
HETATM   13  C17 UNL     1      16.982  -0.199  51.753  1.00  0.00     0.002 C 
HETATM   14  C18 UNL     1      16.259  -1.271  52.117  1.00  0.00     0.001 C 
HETATM   15  C19 UNL     1      16.661  -2.427  52.929  1.00  0.00     0.017 C 
HETATM   16  C20 UNL     1      17.746  -2.555  53.709  1.00  0.00     0.088 C 
HETATM   17  N2  UNL     1      18.751  -1.569  53.908  1.00  0.00    -0.361 N 
HETATM   18  H18 UNL     1      19.301  -1.570  54.794  1.00  0.00     0.165 HD
ENDBRANCH   8  11
ENDBRANCH   1   7
BRANCH   4  19
HETATM   19  C6  UNL     1      26.787   1.792  53.054  1.00  0.00     0.184 C 
BRANCH  19  20
HETATM   20  O2  UNL     1      26.836   2.673  54.115  1.00  0.00    -0.386 OA
HETATM   21  H5  UNL     1      27.156   3.560  53.781  1.00  0.00     0.210 HD
ENDBRANCH  19  20
BRANCH  19  22
HETATM   22  C7  UNL     1      27.775   0.689  53.178  1.00  0.00    -0.025 A 
HETATM   23  C8  UNL     1      27.485  -0.607  52.819  1.00  0.00     0.010 A 
HETATM   24  C9  UNL     1      28.436  -1.597  52.953  1.00  0.00     0.001 A 
HETATM   25  C10 UNL     1      29.685  -1.338  53.438  1.00  0.00     0.000 A 
HETATM   26  C11 UNL     1      30.015  -0.055  53.808  1.00  0.00     0.001 A 
HETATM   27  C12 UNL     1      29.060   0.932  53.673  1.00  0.00     0.010 A 
ENDBRANCH  19  22
ENDBRANCH   4  19
TORSDOF 5
ENDMDL
MODEL 3
REMARK VINA RESULT:      -8.1      2.481      3.187
REMARK  5 active torsions:
REMARK  status: ('A' for Active; 'I' for Inactive)
REMARK       I    between atoms: C1_2  and  N1_3 
REMARK    1  A    between atoms: C1_2  and  C15_18 
REMARK    2  A    between atoms: N1_3  and  C2_4 
REMARK    3  A    between atoms: C5_7  and  C6_8 
REMARK    4  A    between atoms: C6_8  and  O2_9 
REMARK    5  A    between atoms: C6_8  and  C7_10 
ROOT
HETATM    1  C2  UNL     1      24.470   4.097  50.797  1.00  0.00     0.035 A 
HETATM    2  C3  UNL     1      23.703   4.218  51.956  1.00  0.00     0.030 A 
HETATM    3  C4  UNL     1      22.629   3.357  52.133  1.00  0.00     0.012 A 
HETATM    4  C5  UNL     1      22.313   2.396  51.187  1.00  0.00    -0.025 A 
HETATM    5  C13 UNL     1      23.076   2.293  50.060  1.00  0.00     0.012 A 
HETATM    6  C14 UNL     1      24.144   3.138  49.869  1.00  0.00     0.030 A 
ENDROOT
BRANCH   1   7
HETATM    7  N1  UNL     1      25.588   4.930  50.524  1.00  0.00    -0.322 N 
HETATM    8  C1  UNL     1      25.451   6.158  49.826  1.00  0.00     0.272 C 
HETATM    9  O1  UNL     1      24.284   6.458  49.467  1.00  0.00    -0.266 OA
HETATM   10  H1  UNL     1      26.539   4.661  50.830  1.00  0.00     0.169 HD
BRANCH   8  11
HETATM   11  C15 UNL     1      26.524   7.085  49.493  1.00  0.00     0.100 C 
HETATM   12  C16 UNL     1      27.096   6.819  48.329  1.00  0.00     0.035 C 
HETATM   13  C17 UNL     1      28.207   7.538  47.672  1.00  0.00     0.002 C 
HETATM   14  C18 UNL     1      28.672   8.755  47.996  1.00  0.00     0.001 C 
HETATM   15  C19 UNL     1      28.220   9.668  49.054  1.00  0.00     0.017 C 
HETATM   16  C20 UNL     1      27.423   9.396  50.100  1.00  0.00     0.088 C 
HETATM   17  N2  UNL     1      26.842   8.133  50.399  1.00  0.00    -0.361 N 
HETATM   18  H18 UNL     1      26.601   7.901  51.387  1.00  0.00     0.165 HD
ENDBRANCH   8  11
ENDBRANCH   1   7
BRANCH   4  19
HETATM   19  C6  UNL     1      21.121   1.557  51.546  1.00  0.00     0.184 C 
BRANCH  19  20
HETATM   20  O2  UNL     1      20.649   0.830  50.473  1.00  0.00    -0.386 OA
HETATM   21  H5  UNL     1      19.976   0.168  50.805  1.00  0.00     0.210 HD
ENDBRANCH  19  20
BRANCH  19  22
HETATM   22  C7  UNL     1      21.478   0.701  52.708  1.00  0.00    -0.025 A 
HETATM   23  C8  UNL     1      20.715   0.652  53.852  1.00  0.00     0.010 A 
HETATM   24  C9  UNL     1      21.089  -0.159  54.903  1.00  0.00     0.001 A 
HETATM   25  C10 UNL     1      22.210  -0.935  54.855  1.00  0.00     0.000 A 
HETATM   26  C11 UNL     1      22.999  -0.915  53.728  1.00  0.00     0.001 A 
HETATM   27  C12 UNL     1      22.622  -0.102  52.679  1.00  0.00     0.010 A 
ENDBRANCH  19  22
ENDBRANCH   4  19
TORSDOF 5
ENDMDL
MODEL 4
REMARK VINA RESULT:      -7.9      3.540      7.931
REMARK  5 active torsions:
REMARK  status: ('A' for Active; 'I' for Inactive)
REMARK       I    between atoms: C1_2  and  N1_3 
REMARK    1  A    between atoms: C1_2  and  C15_18 
REMARK    2  A    between atoms: N1_3  and  C2_4 
REMARK    3  A    between atoms: C5_7  and  C6_8 
REMARK    4  A    between atoms: C6_8  and  O2_9 
REMARK    5  A    between atoms: C6_8  and  C7_10 
ROOT
HETATM    1  C2  UNL     1      24.464   2.683  51.723  1.00  0.00     0.035 A 
HETATM    2  C3  UNL     1      24.226   2.944  50.373  1.00  0.00     0.030 A 
HETATM    3  C4  UNL     1      23.585   4.126  50.030  1.00  0.00     0.012 A 
HETATM    4  C5  UNL     1      23.183   5.034  50.995  1.00  0.00    -0.025 A 
HETATM    5  C13 UNL     1      23.425   4.760  52.310  1.00  0.00     0.012 A 
HETATM    6  C14 UNL     1      24.060   3.594  52.668  1.00  0.00     0.030 A 
ENDROOT
BRANCH   1   7
HETATM    7  N1  UNL     1      25.113   1.503  52.175  1.00  0.00    -0.322 N 
HETATM    8  C1  UNL     1      26.527   1.416  52.262  1.00  0.00     0.272 C 
HETATM    9  O1  UNL     1      27.162   2.444  51.916  1.00  0.00    -0.266 OA
HETATM   10  H1  UNL     1      24.568   0.670  52.455  1.00  0.00     0.169 HD
BRANCH   8  11
HETATM   11  C15 UNL     1      27.295   0.262  52.709  1.00  0.00     0.100 C 
HETATM   12  C16 UNL     1      26.772  -0.890  52.320  1.00  0.00     0.035 C 
HETATM   13  C17 UNL     1      27.272  -2.255  52.584  1.00  0.00     0.002 C 
HETATM   14  C18 UNL     1      28.492  -2.585  53.037  1.00  0.00     0.001 C 
HETATM   15  C19 UNL     1      29.619  -1.709  53.382  1.00  0.00     0.017 C 
HETATM   16  C20 UNL     1      29.609  -0.381  53.575  1.00  0.00     0.088 C 
HETATM   17  N2  UNL     1      28.471   0.466  53.481  1.00  0.00    -0.361 N 
HETATM   18  H18 UNL     1      28.449   1.357  54.024  1.00  0.00     0.165 HD
ENDBRANCH   8  11
ENDBRANCH   1   7
BRANCH   4  19
HETATM   19  C6  UNL     1      22.506   6.253  50.439  1.00  0.00     0.184 C 
BRANCH  19  20
HETATM   20  O2  UNL     1      21.789   6.938  51.399  1.00  0.00    -0.386 OA
HETATM   21  H5  UNL     1      21.662   6.340  52.192  1.00  0.00     0.210 HD
ENDBRANCH  19  20
BRANCH  19  22
HETATM   22  C7  UNL     1      23.530   7.101  49.774  1.00  0.00    -0.025 A 
HETATM   23  C8  UNL     1      23.668   7.156  48.406  1.00  0.00     0.010 A 
HETATM   24  C9  UNL     1      24.634   7.958  47.836  1.00  0.00     0.001 A 
HETATM   25  C10 UNL     1      25.479   8.719  48.590  1.00  0.00     0.000 A 
HETATM   26  C11 UNL     1      25.373   8.692  49.961  1.00  0.00     0.001 A 
HETATM   27  C12 UNL     1      24.405   7.888  50.528  1.00  0.00     0.010 A 
ENDBRANCH  19  22
ENDBRANCH   4  19
TORSDOF 5
ENDMDL
MODEL 5
REMARK VINA RESULT:      -7.9      2.502      4.189
REMARK  5 active torsions:
REMARK  status: ('A' for Active; 'I' for Inactive)
REMARK       I    between atoms: C1_2  and  N1_3 
REMARK    1  A    between atoms: C1_2  and  C15_18 
REMARK    2  A    between atoms: N1_3  and  C2_4 
REMARK    3  A    between atoms: C5_7  and  C6_8 
REMARK    4  A    between atoms: C6_8  and  O2_9 
REMARK    5  A    between atoms: C6_8  and  C7_10 
ROOT
HETATM    1  C2  UNL     1      25.159   3.072  50.275  1.00  0.00     0.035 A 
HETATM    2  C3  UNL     1      24.056   2.567  50.963  1.00  0.00     0.030 A 
HETATM    3  C4  UNL     1      24.275   1.677  52.006  1.00  0.00     0.012 A 
HETATM    4  C5  UNL     1      25.555   1.290  52.364  1.00  0.00    -0.025 A 
HETATM    5  C13 UNL     1      26.621   1.795  51.679  1.00  0.00     0.012 A 
HETATM    6  C14 UNL     1      26.423   2.678  50.643  1.00  0.00     0.030 A 
ENDROOT
BRANCH   1   7
HETATM    7  N1  UNL     1      25.039   3.987  49.195  1.00  0.00    -0.322 N 
HETATM    8  C1  UNL     1      25.005   5.390  49.407  1.00  0.00     0.272 C 
HETATM    9  O1  UNL     1      25.087   5.767  50.604  1.00  0.00    -0.266 OA
HETATM   10  H1  UNL     1      24.973   3.653  48.219  1.00  0.00     0.169 HD
BRANCH   8  11
HETATM   11  C15 UNL     1      24.884   6.415  48.379  1.00  0.00     0.100 C 
HETATM   12  C16 UNL     1      26.038   6.988  48.081  1.00  0.00     0.035 C 
HETATM   13  C17 UNL     1      26.299   8.059  47.096  1.00  0.00     0.002 C 
HETATM   14  C18 UNL     1      25.468   8.469  46.124  1.00  0.00     0.001 C 
HETATM   15  C19 UNL     1      24.122   7.984  45.790  1.00  0.00     0.017 C 
HETATM   16  C20 UNL     1      23.313   7.210  46.530  1.00  0.00     0.088 C 
HETATM   17  N2  UNL     1      23.606   6.692  47.822  1.00  0.00    -0.361 N 
HETATM   18  H18 UNL     1      22.823   6.471  48.475  1.00  0.00     0.165 HD
ENDBRANCH   8  11
ENDBRANCH   1   7
BRANCH   4  19
HETATM   19  C6  UNL     1      25.599   0.322  53.512  1.00  0.00     0.184 C 
BRANCH  19  20
HETATM   20  O2  UNL     1      24.479  -0.482  53.563  1.00  0.00    -0.386 OA
HETATM   21  H5  UNL     1      24.047  -0.374  54.459  1.00  0.00     0.210 HD
ENDBRANCH  19  20
BRANCH  19  22
HETATM   22  C7  UNL     1      26.862  -0.457  53.425  1.00  0.00    -0.025 A 
HETATM   23  C8  UNL     1      26.936  -1.675  52.789  1.00  0.00     0.010 A 
HETATM   24  C9  UNL     1      28.132  -2.360  52.735  1.00  0.00     0.001 A 
HETATM   25  C10 UNL     1      29.273  -1.868  53.298  1.00  0.00     0.000 A 
HETATM   26  C11 UNL     1      29.241  -0.653  53.942  1.00  0.00     0.001 A 
HETATM   27  C12 UNL     1      28.042   0.030  53.995  1.00  0.00     0.010 A 
ENDBRANCH  19  22
ENDBRANCH   4  19
TORSDOF 5
ENDMDL
MODEL 6
REMARK VINA RESULT:      -7.8      2.233      3.308
REMARK  5 active torsions:
REMARK  status: ('A' for Active; 'I' for Inactive)
REMARK       I    between atoms: C1_2  and  N1_3 
REMARK    1  A    between atoms: C1_2  and  C15_18 
REMARK    2  A    between atoms: N1_3  and  C2_4 
REMARK    3  A    between atoms: C5_7  and  C6_8 
REMARK    4  A    between atoms: C6_8  and  O2_9 
REMARK    5  A    between atoms: C6_8  and  C7_10 
ROOT
HETATM    1  C2  UNL     1      23.783   3.918  49.880  1.00  0.00     0.035 A 
HETATM    2  C3  UNL     1      23.267   2.833  49.171  1.00  0.00     0.030 A 
HETATM    3  C4  UNL     1      22.445   1.935  49.840  1.00  0.00     0.012 A 
HETATM    4  C5  UNL     1      22.138   2.101  51.180  1.00  0.00    -0.025 A 
HETATM    5  C13 UNL     1      22.653   3.169  51.855  1.00  0.00     0.012 A 
HETATM    6  C14 UNL     1      23.468   4.069  51.208  1.00  0.00     0.030 A 
ENDROOT
BRANCH   1   7
HETATM    7  N1  UNL     1      24.631   4.891  49.286  1.00  0.00    -0.322 N 
HETATM    8  C1  UNL     1      26.041   4.733  49.257  1.00  0.00     0.272 C 
HETATM    9  O1  UNL     1      26.487   3.684  49.788  1.00  0.00    -0.266 OA
HETATM   10  H1  UNL     1      24.240   5.746  48.855  1.00  0.00     0.169 HD
BRANCH   8  11
HETATM   11  C15 UNL     1      27.002   5.662  48.678  1.00  0.00     0.100 C 
HETATM   12  C16 UNL     1      28.213   5.144  48.553  1.00  0.00     0.035 C 
HETATM   13  C17 UNL     1      29.429   5.786  48.012  1.00  0.00     0.002 C 
HETATM   14  C18 UNL     1      29.482   6.922  47.297  1.00  0.00     0.001 C 
HETATM   15  C19 UNL     1      28.385   7.802  46.875  1.00  0.00     0.017 C 
HETATM   16  C20 UNL     1      27.119   7.822  47.322  1.00  0.00     0.088 C 
HETATM   17  N2  UNL     1      26.574   6.970  48.321  1.00  0.00    -0.361 N 
HETATM   18  H18 UNL     1      25.761   7.299  48.887  1.00  0.00     0.165 HD
ENDBRANCH   8  11
ENDBRANCH   1   7
BRANCH   4  19
HETATM   19  C6  UNL     1      21.239   1.034  51.734  1.00  0.00     0.184 C 
BRANCH  19  20
HETATM   20  O2  UNL     1      20.767   0.184  50.755  1.00  0.00    -0.386 OA
HETATM   21  H5  UNL     1      19.885  -0.187  51.049  1.00  0.00     0.210 HD
ENDBRANCH  19  20
BRANCH  19  22
HETATM   22  C7  UNL     1      21.966   0.317  52.814  1.00  0.00    -0.025 A 
HETATM   23  C8  UNL     1      23.330   0.138  52.794  1.00  0.00     0.010 A 
HETATM   24  C9  UNL     1      23.960  -0.535  53.820  1.00  0.00     0.001 A 
HETATM   25  C10 UNL     1      23.269  -1.042  54.882  1.00  0.00     0.000 A 
HETATM   26  C11 UNL     1      21.904  -0.884  54.940  1.00  0.00     0.001 A 
HETATM   27  C12 UNL     1      21.278  -0.211  53.911  1.00  0.00     0.010 A 
ENDBRANCH  19  22
ENDBRANCH   4  19
TORSDOF 5
ENDMDL
MODEL 7
REMARK VINA RESULT:      -7.7      5.027      6.885
REMARK  5 active torsions:
REMARK  status: ('A' for Active; 'I' for Inactive)
REMARK       I    between atoms: C1_2  and  N1_3 
REMARK    1  A    between atoms: C1_2  and  C15_18 
REMARK    2  A    between atoms: N1_3  and  C2_4 
REMARK    3  A    between atoms: C5_7  and  C6_8 
REMARK    4  A    between atoms: C6_8  and  O2_9 
REMARK    5  A    between atoms: C6_8  and  C7_10 
ROOT
HETATM    1  C2  UNL     1      22.541   0.011  52.717  1.00  0.00     0.035 A 
HETATM    2  C3  UNL     1      22.126   0.288  51.414  1.00  0.00     0.030 A 
HETATM    3  C4  UNL     1      20.895   0.901  51.227  1.00  0.00     0.012 A 
HETATM    4  C5  UNL     1      20.086   1.234  52.300  1.00  0.00    -0.025 A 
HETATM    5  C13 UNL     1      20.510   0.955  53.567  1.00  0.00     0.012 A 
HETATM    6  C14 UNL     1      21.727   0.348  53.771  1.00  0.00     0.030 A 
ENDROOT
BRANCH   1   7
HETATM    7  N1  UNL     1      23.783  -0.612  53.012  1.00  0.00    -0.322 N 
HETATM    8  C1  UNL     1      24.983   0.136  53.136  1.00  0.00     0.272 C 
HETATM    9  O1  UNL     1      24.875   1.377  52.968  1.00  0.00    -0.266 OA
HETATM   10  H1  UNL     1      23.846  -1.636  53.146  1.00  0.00     0.169 HD
BRANCH   8  11
HETATM   11  C15 UNL     1      26.305  -0.397  53.433  1.00  0.00     0.100 C 
HETATM   12  C16 UNL     1      26.614  -1.455  52.701  1.00  0.00     0.035 C 
HETATM   13  C17 UNL     1      27.858  -2.252  52.727  1.00  0.00     0.002 C 
HETATM   14  C18 UNL     1      29.019  -1.900  53.304  1.00  0.00     0.001 C 
HETATM   15  C19 UNL     1      29.354  -0.674  54.039  1.00  0.00     0.017 C 
HETATM   16  C20 UNL     1      28.518   0.254  54.528  1.00  0.00     0.088 C 
HETATM   17  N2  UNL     1      27.099   0.233  54.430  1.00  0.00    -0.361 N 
HETATM   18  H18 UNL     1      26.528   0.726  55.151  1.00  0.00     0.165 HD
ENDBRANCH   8  11
ENDBRANCH   1   7
BRANCH   4  19
HETATM   19  C6  UNL     1      18.793   1.888  51.908  1.00  0.00     0.184 C 
BRANCH  19  20
HETATM   20  O2  UNL     1      18.975   2.898  50.985  1.00  0.00    -0.386 OA
HETATM   21  H5  UNL     1      18.079   3.184  50.642  1.00  0.00     0.210 HD
ENDBRANCH  19  20
BRANCH  19  22
HETATM   22  C7  UNL     1      17.857   0.837  51.430  1.00  0.00    -0.025 A 
HETATM   23  C8  UNL     1      17.343  -0.129  52.264  1.00  0.00     0.010 A 
HETATM   24  C9  UNL     1      16.478  -1.085  51.773  1.00  0.00     0.001 A 
HETATM   25  C10 UNL     1      16.100  -1.112  50.463  1.00  0.00     0.000 A 
HETATM   26  C11 UNL     1      16.591  -0.163  49.596  1.00  0.00     0.001 A 
HETATM   27  C12 UNL     1      17.457   0.791  50.091  1.00  0.00     0.010 A 
ENDBRANCH  19  22
ENDBRANCH   4  19
TORSDOF 5
ENDMDL
MODEL 8
REMARK VINA RESULT:      -7.7      2.256      9.332
REMARK  5 active torsions:
REMARK  status: ('A' for Active; 'I' for Inactive)
REMARK       I    between atoms: C1_2  and  N1_3 
REMARK    1  A    between atoms: C1_2  and  C15_18 
REMARK    2  A    between atoms: N1_3  and  C2_4 
REMARK    3  A    between atoms: C5_7  and  C6_8 
REMARK    4  A    between atoms: C6_8  and  O2_9 
REMARK    5  A    between atoms: C6_8  and  C7_10 
ROOT
HETATM    1  C2  UNL     1      25.765   4.505  50.250  1.00  0.00     0.035 A 
HETATM    2  C3  UNL     1      25.306   5.812  50.082  1.00  0.00     0.030 A 
HETATM    3  C4  UNL     1      25.958   6.632  49.172  1.00  0.00     0.012 A 
HETATM    4  C5  UNL     1      27.042   6.177  48.441  1.00  0.00    -0.025 A 
HETATM    5  C13 UNL     1      27.476   4.895  48.619  1.00  0.00     0.012 A 
HETATM    6  C14 UNL     1      26.841   4.068  49.517  1.00  0.00     0.030 A 
ENDROOT
BRANCH   1   7
HETATM    7  N1  UNL     1      25.165   3.590  51.155  1.00  0.00    -0.322 N 
HETATM    8  C1  UNL     1      24.088   2.751  50.765  1.00  0.00     0.272 C 
HETATM    9  O1  UNL     1      23.704   2.871  49.574  1.00  0.00    -0.266 OA
HETATM   10  H1  UNL     1      25.499   3.510  52.130  1.00  0.00     0.169 HD
BRANCH   8  11
HETATM   11  C15 UNL     1      23.401   1.782  51.606  1.00  0.00     0.100 C 
HETATM   12  C16 UNL     1      24.228   1.043  52.327  1.00  0.00     0.035 C 
HETATM   13  C17 UNL     1      23.894  -0.031  53.286  1.00  0.00     0.002 C 
HETATM   14  C18 UNL     1      22.684  -0.285  53.811  1.00  0.00     0.001 C 
HETATM   15  C19 UNL     1      21.411   0.411  53.582  1.00  0.00     0.017 C 
HETATM   16  C20 UNL     1      21.106   1.284  52.609  1.00  0.00     0.088 C 
HETATM   17  N2  UNL     1      21.981   1.720  51.576  1.00  0.00    -0.361 N 
HETATM   18  H18 UNL     1      21.580   2.045  50.669  1.00  0.00     0.165 HD
ENDBRANCH   8  11
ENDBRANCH   1   7
BRANCH   4  19
HETATM   19  C6  UNL     1      27.621   7.200  47.507  1.00  0.00     0.184 C 
BRANCH  19  20
HETATM   20  O2  UNL     1      26.771   8.270  47.311  1.00  0.00    -0.386 OA
HETATM   21  H5  UNL     1      27.202   8.908  46.671  1.00  0.00     0.210 HD
ENDBRANCH  19  20
BRANCH  19  22
HETATM   22  C7  UNL     1      28.952   7.612  48.024  1.00  0.00    -0.025 A 
HETATM   23  C8  UNL     1      29.109   8.637  48.929  1.00  0.00     0.010 A 
HETATM   24  C9  UNL     1      30.366   8.983  49.378  1.00  0.00     0.001 A 
HETATM   25  C10 UNL     1      31.489   8.333  48.954  1.00  0.00     0.000 A 
HETATM   26  C11 UNL     1      31.375   7.303  48.050  1.00  0.00     0.001 A 
HETATM   27  C12 UNL     1      30.115   6.961  47.602  1.00  0.00     0.010 A 
ENDBRANCH  19  22
ENDBRANCH   4  19
TORSDOF 5
ENDMDL
MODEL 9
REMARK VINA RESULT:      -7.7      4.340      6.225
REMARK  5 active torsions:
REMARK  status: ('A' for Active; 'I' for Inactive)
REMARK       I    between atoms: C1_2  and  N1_3 
REMARK    1  A    between atoms: C1_2  and  C15_18 
REMARK    2  A    between atoms: N1_3  and  C2_4 
REMARK    3  A    between atoms: C5_7  and  C6_8 
REMARK    4  A    between atoms: C6_8  and  O2_9 
REMARK    5  A    between atoms: C6_8  and  C7_10 
ROOT
HETATM    1  C2  UNL     1      22.482   1.244  51.756  1.00  0.00     0.035 A 
HETATM    2  C3  UNL     1      21.835   0.524  50.751  1.00  0.00     0.030 A 
HETATM    3  C4  UNL     1      20.448   0.467  50.764  1.00  0.00     0.012 A 
HETATM    4  C5  UNL     1      19.711   1.105  51.747  1.00  0.00    -0.025 A 
HETATM    5  C13 UNL     1      20.362   1.804  52.721  1.00  0.00     0.012 A 
HETATM    6  C14 UNL     1      21.736   1.871  52.724  1.00  0.00     0.030 A 
ENDROOT
BRANCH   1   7
HETATM    7  N1  UNL     1      23.896   1.361  51.830  1.00  0.00    -0.322 N 
HETATM    8  C1  UNL     1      24.669   0.539  52.690  1.00  0.00     0.272 C 
HETATM    9  O1  UNL     1      24.025  -0.295  53.377  1.00  0.00    -0.266 OA
HETATM   10  H1  UNL     1      24.402   2.055  51.254  1.00  0.00     0.169 HD
BRANCH   8  11
HETATM   11  C15 UNL     1      26.116   0.574  52.845  1.00  0.00     0.100 C 
HETATM   12  C16 UNL     1      26.569   1.762  53.209  1.00  0.00     0.035 C 
HETATM   13  C17 UNL     1      27.968   2.169  53.460  1.00  0.00     0.002 C 
HETATM   14  C18 UNL     1      29.020   1.351  53.628  1.00  0.00     0.001 C 
HETATM   15  C19 UNL     1      29.063  -0.117  53.608  1.00  0.00     0.017 C 
HETATM   16  C20 UNL     1      28.127  -0.968  53.162  1.00  0.00     0.088 C 
HETATM   17  N2  UNL     1      26.869  -0.607  52.603  1.00  0.00    -0.361 N 
HETATM   18  H18 UNL     1      26.403  -1.254  51.931  1.00  0.00     0.165 HD
ENDBRANCH   8  11
ENDBRANCH   1   7
BRANCH   4  19
HETATM   19  C6  UNL     1      18.226   0.934  51.601  1.00  0.00     0.184 C 
BRANCH  19  20
HETATM   20  O2  UNL     1      17.811   1.047  50.290  1.00  0.00    -0.386 OA
HETATM   21  H5  UNL     1      18.605   0.931  49.692  1.00  0.00     0.210 HD
ENDBRANCH  19  20
BRANCH  19  22
HETATM   22  C7  UNL     1      17.837  -0.362  52.217  1.00  0.00    -0.025 A 
HETATM   23  C8  UNL     1      18.618  -0.999  53.153  1.00  0.00     0.010 A 
HETATM   24  C9  UNL     1      18.214  -2.201  53.695  1.00  0.00     0.001 A 
HETATM   25  C10 UNL     1      17.042  -2.799  53.334  1.00  0.00     0.000 A 
HETATM   26  C11 UNL     1      16.232  -2.194  52.401  1.00  0.00     0.001 A 
HETATM   27  C12 UNL     1      16.641  -0.992  51.860  1.00  0.00     0.010 A 
ENDBRANCH  19  22
ENDBRANCH   4  19
TORSDOF 5
ENDMDL
