MODEL 1
REMARK VINA RESULT:      -8.5      0.000      0.000
REMARK  4 active torsions:
REMARK  status: ('A' for Active; 'I' for Inactive)
REMARK    1  A    between atoms: C1_2  and  C15_18 
REMARK    2  A    between atoms: C2_3  and  C3_4 
REMARK    3  A    between atoms: C15_18  and  C16_19 
REMARK    4  A    between atoms: C16_19  and  N1_20 
ROOT
HETATM    1  C3  UNL     1      25.682   4.389  50.114  1.00  0.00    -0.041 C 
HETATM    2  C4  UNL     1      25.136   5.722  50.528  1.00  0.00     0.127 C 
HETATM    3  C5  UNL     1      25.371   7.024  50.350  1.00  0.00     0.146 C 
HETATM    4  O2  UNL     1      25.969   8.239  49.892  1.00  0.00    -0.240 OA
HETATM    5  O3  UNL     1      25.690   8.521  48.592  1.00  0.00    -0.236 OA
HETATM    6  C6  UNL     1      25.965   7.382  47.764  1.00  0.00     0.249 C 
HETATM    7  C7  UNL     1      27.383   7.024  47.858  1.00  0.00    -0.021 A 
HETATM    8  C8  UNL     1      28.083   8.177  47.447  1.00  0.00     0.010 A 
HETATM    9  C9  UNL     1      29.486   8.166  47.458  1.00  0.00     0.001 A 
HETATM   10  C10 UNL     1      30.173   7.091  47.852  1.00  0.00     0.001 A 
HETATM   11  C11 UNL     1      29.543   5.949  48.254  1.00  0.00     0.012 A 
HETATM   12  C12 UNL     1      28.174   5.921  48.254  1.00  0.00    -0.028 A 
HETATM   13  C13 UNL     1      27.556   4.700  48.678  1.00  0.00     0.012 C 
HETATM   14  C14 UNL     1      26.770   3.829  49.249  1.00  0.00     0.007 C 
ENDROOT
BRANCH   1  15
HETATM   15  C2  UNL     1      24.751   3.831  50.800  1.00  0.00     0.190 A 
HETATM   16  C1  UNL     1      24.372   2.932  51.841  1.00  0.00     0.127 A 
HETATM   17  O1  UNL     1      25.671   2.940  51.727  1.00  0.00    -0.361 OA
BRANCH  16  18
HETATM   18  C15 UNL     1      24.332   1.960  52.932  1.00  0.00     0.074 C 
BRANCH  18  19
HETATM   19  C16 UNL     1      25.672   2.120  53.633  1.00  0.00     0.275 C 
BRANCH  19  20
HETATM   20  N1  UNL     1      26.209   0.908  54.138  1.00  0.00     0.088 N 
HETATM   21  C17 UNL     1      27.620   0.870  54.249  1.00  0.00     0.272 C 
HETATM   22  C18 UNL     1      28.350  -0.413  54.064  1.00  0.00     0.030 C 
HETATM   23  C19 UNL     1      27.825  -1.262  52.917  1.00  0.00     0.003 C 
HETATM   24  C20 UNL     1      26.657  -0.497  52.282  1.00  0.00     0.030 C 
HETATM   25  C21 UNL     1      25.665  -0.202  53.384  1.00  0.00     0.272 C 
ENDBRANCH  19  20
ENDBRANCH  18  19
ENDBRANCH  16  18
ENDBRANCH   1  15
TORSDOF 4
ENDMDL
MODEL 2
REMARK VINA RESULT:      -8.3      2.815      8.787
REMARK  4 active torsions:
REMARK  status: ('A' for Active; 'I' for Inactive)
REMARK    1  A    between atoms: C1_2  and  C15_18 
REMARK    2  A    between atoms: C2_3  and  C3_4 
REMARK    3  A    between atoms: C15_18  and  C16_19 
REMARK    4  A    between atoms: C16_19  and  N1_20 
ROOT
HETATM    1  C3  UNL     1      25.407   2.334  51.218  1.00  0.00    -0.041 C 
HETATM    2  C4  UNL     1      26.367   2.087  52.342  1.00  0.00     0.127 C 
HETATM    3  C5  UNL     1      26.421   1.468  53.524  1.00  0.00     0.146 C 
HETATM    4  O2  UNL     1      26.036   0.702  54.667  1.00  0.00    -0.240 OA
HETATM    5  O3  UNL     1      25.968  -0.633  54.422  1.00  0.00    -0.236 OA
HETATM    6  C6  UNL     1      25.179  -0.887  53.251  1.00  0.00     0.249 C 
HETATM    7  C7  UNL     1      23.814  -0.390  53.448  1.00  0.00    -0.021 A 
HETATM    8  C8  UNL     1      23.334  -1.071  54.584  1.00  0.00     0.010 A 
HETATM    9  C9  UNL     1      22.044  -0.786  55.059  1.00  0.00     0.001 A 
HETATM   10  C10 UNL     1      21.263   0.118  54.460  1.00  0.00     0.001 A 
HETATM   11  C11 UNL     1      21.680   0.800  53.353  1.00  0.00     0.012 A 
HETATM   12  C12 UNL     1      22.932   0.546  52.860  1.00  0.00    -0.028 A 
HETATM   13  C13 UNL     1      23.325   1.281  51.695  1.00  0.00     0.012 C 
HETATM   14  C14 UNL     1      24.003   1.981  50.827  1.00  0.00     0.007 C 
ENDROOT
BRANCH   1  15
HETATM   15  C2  UNL     1      26.332   2.989  50.614  1.00  0.00     0.190 A 
HETATM   16  C1  UNL     1      26.709   4.081  49.777  1.00  0.00     0.127 A 
HETATM   17  O1  UNL     1      25.415   4.085  49.939  1.00  0.00    -0.361 OA
BRANCH  16  18
HETATM   18  C15 UNL     1      26.748   5.261  48.916  1.00  0.00     0.074 C 
BRANCH  18  19
HETATM   19  C16 UNL     1      25.802   6.249  49.582  1.00  0.00     0.275 C 
BRANCH  19  20
HETATM   20  N1  UNL     1      25.730   7.509  48.933  1.00  0.00     0.088 N 
HETATM   21  C17 UNL     1      26.695   7.725  47.920  1.00  0.00     0.272 C 
HETATM   22  C18 UNL     1      27.216   9.095  47.664  1.00  0.00     0.030 C 
HETATM   23  C19 UNL     1      27.497   9.894  48.927  1.00  0.00     0.003 C 
HETATM   24  C20 UNL     1      27.140   8.999  50.120  1.00  0.00     0.030 C 
HETATM   25  C21 UNL     1      25.707   8.557  49.933  1.00  0.00     0.272 C 
ENDBRANCH  19  20
ENDBRANCH  18  19
ENDBRANCH  16  18
ENDBRANCH   1  15
TORSDOF 4
ENDMDL
MODEL 3
REMARK VINA RESULT:      -8.1      2.535      3.222
REMARK  4 active torsions:
REMARK  status: ('A' for Active; 'I' for Inactive)
REMARK    1  A    between atoms: C1_2  and  C15_18 
REMARK    2  A    between atoms: C2_3  and  C3_4 
REMARK    3  A    between atoms: C15_18  and  C16_19 
REMARK    4  A    between atoms: C16_19  and  N1_20 
ROOT
HETATM    1  C3  UNL     1      24.276   4.281  50.970  1.00  0.00    -0.041 C 
HETATM    2  C4  UNL     1      23.999   5.714  51.313  1.00  0.00     0.127 C 
HETATM    3  C5  UNL     1      24.421   6.941  50.999  1.00  0.00     0.146 C 
HETATM    4  O2  UNL     1      25.154   8.001  50.382  1.00  0.00    -0.240 OA
HETATM    5  O3  UNL     1      24.788   8.232  49.093  1.00  0.00    -0.236 OA
HETATM    6  C6  UNL     1      24.786   7.007  48.348  1.00  0.00     0.249 C 
HETATM    7  C7  UNL     1      26.130   6.421  48.340  1.00  0.00    -0.021 A 
HETATM    8  C8  UNL     1      26.958   7.406  47.766  1.00  0.00     0.010 A 
HETATM    9  C9  UNL     1      28.335   7.159  47.648  1.00  0.00     0.001 A 
HETATM   10  C10 UNL     1      28.878   6.014  48.070  1.00  0.00     0.001 A 
HETATM   11  C11 UNL     1      28.118   5.027  48.628  1.00  0.00     0.012 A 
HETATM   12  C12 UNL     1      26.770   5.231  48.758  1.00  0.00    -0.028 A 
HETATM   13  C13 UNL     1      26.012   4.167  49.344  1.00  0.00     0.012 C 
HETATM   14  C14 UNL     1      25.161   3.484  50.060  1.00  0.00     0.007 C 
ENDROOT
BRANCH   1  15
HETATM   15  C2  UNL     1      23.345   3.940  51.786  1.00  0.00     0.190 A 
HETATM   16  C1  UNL     1      22.075   3.327  52.004  1.00  0.00     0.127 A 
HETATM   17  O1  UNL     1      22.364   3.286  50.733  1.00  0.00    -0.361 OA
BRANCH  16  18
HETATM   18  C15 UNL     1      20.784   2.655  51.876  1.00  0.00     0.074 C 
BRANCH  18  19
HETATM   19  C16 UNL     1      21.101   1.180  52.072  1.00  0.00     0.275 C 
BRANCH  19  20
HETATM   20  N1  UNL     1      21.764   0.887  53.291  1.00  0.00     0.088 N 
HETATM   21  C17 UNL     1      22.920   0.079  53.174  1.00  0.00     0.272 C 
HETATM   22  C18 UNL     1      23.289  -0.860  54.268  1.00  0.00     0.030 C 
HETATM   23  C19 UNL     1      22.107  -1.605  54.868  1.00  0.00     0.003 C 
HETATM   24  C20 UNL     1      20.850  -1.135  54.126  1.00  0.00     0.030 C 
HETATM   25  C21 UNL     1      20.800   0.372  54.242  1.00  0.00     0.272 C 
ENDBRANCH  19  20
ENDBRANCH  18  19
ENDBRANCH  16  18
ENDBRANCH   1  15
TORSDOF 4
ENDMDL
MODEL 4
REMARK VINA RESULT:      -8.0      3.546      8.628
REMARK  4 active torsions:
REMARK  status: ('A' for Active; 'I' for Inactive)
REMARK    1  A    between atoms: C1_2  and  C15_18 
REMARK    2  A    between atoms: C2_3  and  C3_4 
REMARK    3  A    between atoms: C15_18  and  C16_19 
REMARK    4  A    between atoms: C16_19  and  N1_20 
ROOT
HETATM    1  C3  UNL     1      23.194   2.324  50.234  1.00  0.00    -0.041 C 
HETATM    2  C4  UNL     1      21.855   1.824  49.782  1.00  0.00     0.127 C 
HETATM    3  C5  UNL     1      20.850   1.057  50.212  1.00  0.00     0.146 C 
HETATM    4  O2  UNL     1      20.062   0.205  51.046  1.00  0.00    -0.240 OA
HETATM    5  O3  UNL     1      19.475   0.860  52.083  1.00  0.00    -0.236 OA
HETATM    6  C6  UNL     1      20.445   1.643  52.792  1.00  0.00     0.249 C 
HETATM    7  C7  UNL     1      21.492   0.774  53.337  1.00  0.00    -0.021 A 
HETATM    8  C8  UNL     1      20.816  -0.139  54.171  1.00  0.00     0.010 A 
HETATM    9  C9  UNL     1      21.549  -1.142  54.825  1.00  0.00     0.001 A 
HETATM   10  C10 UNL     1      22.871  -1.252  54.672  1.00  0.00     0.001 A 
HETATM   11  C11 UNL     1      23.573  -0.390  53.880  1.00  0.00     0.012 A 
HETATM   12  C12 UNL     1      22.892   0.603  53.228  1.00  0.00    -0.028 A 
HETATM   13  C13 UNL     1      23.669   1.487  52.413  1.00  0.00     0.012 C 
HETATM   14  C14 UNL     1      24.089   2.241  51.433  1.00  0.00     0.007 C 
ENDROOT
BRANCH   1  15
HETATM   15  C2  UNL     1      23.293   2.964  49.125  1.00  0.00     0.190 A 
HETATM   16  C1  UNL     1      23.260   4.206  48.424  1.00  0.00     0.127 A 
HETATM   17  O1  UNL     1      23.020   4.415  49.689  1.00  0.00    -0.361 OA
BRANCH  16  18
HETATM   18  C15 UNL     1      23.154   5.608  48.026  1.00  0.00     0.074 C 
BRANCH  18  19
HETATM   19  C16 UNL     1      23.542   6.388  49.273  1.00  0.00     0.275 C 
BRANCH  19  20
HETATM   20  N1  UNL     1      24.684   7.214  49.107  1.00  0.00     0.088 N 
HETATM   21  C17 UNL     1      25.061   7.464  47.766  1.00  0.00     0.272 C 
HETATM   22  C18 UNL     1      26.495   7.658  47.417  1.00  0.00     0.030 C 
HETATM   23  C19 UNL     1      27.437   6.698  48.126  1.00  0.00     0.003 C 
HETATM   24  C20 UNL     1      26.579   5.793  49.018  1.00  0.00     0.030 C 
HETATM   25  C21 UNL     1      25.766   6.695  49.919  1.00  0.00     0.272 C 
ENDBRANCH  19  20
ENDBRANCH  18  19
ENDBRANCH  16  18
ENDBRANCH   1  15
TORSDOF 4
ENDMDL
MODEL 5
REMARK VINA RESULT:      -8.0      1.651      2.223
REMARK  4 active torsions:
REMARK  status: ('A' for Active; 'I' for Inactive)
REMARK    1  A    between atoms: C1_2  and  C15_18 
REMARK    2  A    between atoms: C2_3  and  C3_4 
REMARK    3  A    between atoms: C15_18  and  C16_19 
REMARK    4  A    between atoms: C16_19  and  N1_20 
ROOT
HETATM    1  C3  UNL     1      26.694   5.971  48.986  1.00  0.00    -0.041 C 
HETATM    2  C4  UNL     1      25.944   7.004  49.772  1.00  0.00     0.127 C 
HETATM    3  C5  UNL     1      26.083   8.258  50.209  1.00  0.00     0.146 C 
HETATM    4  O2  UNL     1      26.644   9.550  50.451  1.00  0.00    -0.240 OA
HETATM    5  O3  UNL     1      26.626  10.358  49.358  1.00  0.00    -0.236 OA
HETATM    6  C6  UNL     1      27.184   9.678  48.225  1.00  0.00     0.249 C 
HETATM    7  C7  UNL     1      28.576   9.310  48.496  1.00  0.00    -0.021 A 
HETATM    8  C8  UNL     1      29.232  10.525  48.776  1.00  0.00     0.010 A 
HETATM    9  C9  UNL     1      30.594  10.506  49.115  1.00  0.00     0.001 A 
HETATM   10  C10 UNL     1      31.281   9.363  49.180  1.00  0.00     0.001 A 
HETATM   11  C11 UNL     1      30.694   8.160  48.912  1.00  0.00     0.012 A 
HETATM   12  C12 UNL     1      29.367   8.139  48.575  1.00  0.00    -0.028 A 
HETATM   13  C13 UNL     1      28.794   6.857  48.297  1.00  0.00     0.012 C 
HETATM   14  C14 UNL     1      27.993   5.828  48.252  1.00  0.00     0.007 C 
ENDROOT
BRANCH   1  15
HETATM   15  C2  UNL     1      25.695   5.178  49.138  1.00  0.00     0.190 A 
HETATM   16  C1  UNL     1      25.146   4.007  49.740  1.00  0.00     0.127 A 
HETATM   17  O1  UNL     1      26.385   4.150  50.122  1.00  0.00    -0.361 OA
BRANCH  16  18
HETATM   18  C15 UNL     1      24.906   2.781  50.498  1.00  0.00     0.074 C 
BRANCH  18  19
HETATM   19  C16 UNL     1      26.016   2.752  51.538  1.00  0.00     0.275 C 
BRANCH  19  20
HETATM   20  N1  UNL     1      25.754   1.899  52.641  1.00  0.00     0.088 N 
HETATM   21  C17 UNL     1      26.769   1.852  53.626  1.00  0.00     0.272 C 
HETATM   22  C18 UNL     1      27.006   0.601  54.397  1.00  0.00     0.030 C 
HETATM   23  C19 UNL     1      26.940  -0.663  53.555  1.00  0.00     0.003 C 
HETATM   24  C20 UNL     1      26.638  -0.236  52.113  1.00  0.00     0.030 C 
HETATM   25  C21 UNL     1      25.373   0.591  52.150  1.00  0.00     0.272 C 
ENDBRANCH  19  20
ENDBRANCH  18  19
ENDBRANCH  16  18
ENDBRANCH   1  15
TORSDOF 4
ENDMDL
MODEL 6
REMARK VINA RESULT:      -8.0      1.231      1.882
REMARK  4 active torsions:
REMARK  status: ('A' for Active; 'I' for Inactive)
REMARK    1  A    between atoms: C1_2  and  C15_18 
REMARK    2  A    between atoms: C2_3  and  C3_4 
REMARK    3  A    between atoms: C15_18  and  C16_19 
REMARK    4  A    between atoms: C16_19  and  N1_20 
ROOT
HETATM    1  C3  UNL     1      25.773   4.774  49.893  1.00  0.00    -0.041 C 
HETATM    2  C4  UNL     1      25.389   6.171  50.278  1.00  0.00     0.127 C 
HETATM    3  C5  UNL     1      25.808   7.429  50.118  1.00  0.00     0.146 C 
HETATM    4  O2  UNL     1      26.589   8.550  49.698  1.00  0.00    -0.240 OA
HETATM    5  O3  UNL     1      26.425   8.860  48.385  1.00  0.00    -0.236 OA
HETATM    6  C6  UNL     1      26.591   7.690  47.571  1.00  0.00     0.249 C 
HETATM    7  C7  UNL     1      27.940   7.145  47.744  1.00  0.00    -0.021 A 
HETATM    8  C8  UNL     1      28.810   8.191  47.377  1.00  0.00     0.010 A 
HETATM    9  C9  UNL     1      30.197   7.991  47.469  1.00  0.00     0.001 A 
HETATM   10  C10 UNL     1      30.709   6.835  47.898  1.00  0.00     0.001 A 
HETATM   11  C11 UNL     1      29.909   5.790  48.260  1.00  0.00     0.012 A 
HETATM   12  C12 UNL     1      28.551   5.947  48.182  1.00  0.00    -0.028 A 
HETATM   13  C13 UNL     1      27.751   4.823  48.567  1.00  0.00     0.012 C 
HETATM   14  C14 UNL     1      26.823   4.068  49.090  1.00  0.00     0.007 C 
ENDROOT
BRANCH   1  15
HETATM   15  C2  UNL     1      24.737   4.351  50.523  1.00  0.00     0.190 A 
HETATM   16  C1  UNL     1      24.180   3.504  51.527  1.00  0.00     0.127 A 
HETATM   17  O1  UNL     1      25.470   3.322  51.474  1.00  0.00    -0.361 OA
BRANCH  16  18
HETATM   18  C15 UNL     1      23.945   2.535  52.595  1.00  0.00     0.074 C 
BRANCH  18  19
HETATM   19  C16 UNL     1      24.924   1.406  52.309  1.00  0.00     0.275 C 
BRANCH  19  20
HETATM   20  N1  UNL     1      24.464   0.125  52.708  1.00  0.00     0.088 N 
HETATM   21  C17 UNL     1      23.299   0.123  53.512  1.00  0.00     0.272 C 
HETATM   22  C18 UNL     1      23.104  -0.934  54.541  1.00  0.00     0.030 C 
HETATM   23  C19 UNL     1      24.362  -1.271  55.325  1.00  0.00     0.003 C 
HETATM   24  C20 UNL     1      25.487  -0.380  54.786  1.00  0.00     0.030 C 
HETATM   25  C21 UNL     1      25.564  -0.612  53.294  1.00  0.00     0.272 C 
ENDBRANCH  19  20
ENDBRANCH  18  19
ENDBRANCH  16  18
ENDBRANCH   1  15
TORSDOF 4
ENDMDL
MODEL 7
REMARK VINA RESULT:      -8.0      3.104      8.319
REMARK  4 active torsions:
REMARK  status: ('A' for Active; 'I' for Inactive)
REMARK    1  A    between atoms: C1_2  and  C15_18 
REMARK    2  A    between atoms: C2_3  and  C3_4 
REMARK    3  A    between atoms: C15_18  and  C16_19 
REMARK    4  A    between atoms: C16_19  and  N1_20 
ROOT
HETATM    1  C3  UNL     1      21.789   4.209  52.042  1.00  0.00    -0.041 C 
HETATM    2  C4  UNL     1      23.233   4.268  52.442  1.00  0.00     0.127 C 
HETATM    3  C5  UNL     1      24.172   3.503  53.003  1.00  0.00     0.146 C 
HETATM    4  O2  UNL     1      24.815   2.380  53.608  1.00  0.00    -0.240 OA
HETATM    5  O3  UNL     1      25.094   1.380  52.730  1.00  0.00    -0.236 OA
HETATM    6  C6  UNL     1      23.926   1.048  51.966  1.00  0.00     0.249 C 
HETATM    7  C7  UNL     1      22.858   0.586  52.857  1.00  0.00    -0.021 A 
HETATM    8  C8  UNL     1      23.398  -0.525  53.536  1.00  0.00     0.010 A 
HETATM    9  C9  UNL     1      22.620  -1.181  54.502  1.00  0.00     0.001 A 
HETATM   10  C10 UNL     1      21.381  -0.776  54.795  1.00  0.00     0.001 A 
HETATM   11  C11 UNL     1      20.811   0.291  54.162  1.00  0.00     0.012 A 
HETATM   12  C12 UNL     1      21.539   0.955  53.211  1.00  0.00    -0.028 A 
HETATM   13  C13 UNL     1      20.899   2.064  52.570  1.00  0.00     0.012 C 
HETATM   14  C14 UNL     1      20.653   3.231  52.040  1.00  0.00     0.007 C 
ENDROOT
BRANCH   1  15
HETATM   15  C2  UNL     1      21.894   5.412  51.605  1.00  0.00     0.190 A 
HETATM   16  C1  UNL     1      22.110   6.299  50.509  1.00  0.00     0.127 A 
HETATM   17  O1  UNL     1      22.177   5.066  50.088  1.00  0.00    -0.361 OA
BRANCH  16  18
HETATM   18  C15 UNL     1      22.365   6.906  49.204  1.00  0.00     0.074 C 
BRANCH  18  19
HETATM   19  C16 UNL     1      23.591   6.177  48.677  1.00  0.00     0.275 C 
BRANCH  19  20
HETATM   20  N1  UNL     1      24.818   6.835  48.951  1.00  0.00     0.088 N 
HETATM   21  C17 UNL     1      25.512   7.321  47.817  1.00  0.00     0.272 C 
HETATM   22  C18 UNL     1      27.000   7.367  47.815  1.00  0.00     0.030 C 
HETATM   23  C19 UNL     1      27.656   6.141  48.428  1.00  0.00     0.003 C 
HETATM   24  C20 UNL     1      26.532   5.199  48.878  1.00  0.00     0.030 C 
HETATM   25  C21 UNL     1      25.631   5.989  49.800  1.00  0.00     0.272 C 
ENDBRANCH  19  20
ENDBRANCH  18  19
ENDBRANCH  16  18
ENDBRANCH   1  15
TORSDOF 4
ENDMDL
MODEL 8
REMARK VINA RESULT:      -7.9      1.757      2.943
REMARK  4 active torsions:
REMARK  status: ('A' for Active; 'I' for Inactive)
REMARK    1  A    between atoms: C1_2  and  C15_18 
REMARK    2  A    between atoms: C2_3  and  C3_4 
REMARK    3  A    between atoms: C15_18  and  C16_19 
REMARK    4  A    between atoms: C16_19  and  N1_20 
ROOT
HETATM    1  C3  UNL     1      25.612   3.951  49.537  1.00  0.00    -0.041 C 
HETATM    2  C4  UNL     1      27.035   4.265  49.188  1.00  0.00     0.127 C 
HETATM    3  C5  UNL     1      27.754   5.200  48.562  1.00  0.00     0.146 C 
HETATM    4  O2  UNL     1      28.091   6.386  47.840  1.00  0.00    -0.240 OA
HETATM    5  O3  UNL     1      28.020   7.515  48.593  1.00  0.00    -0.236 OA
HETATM    6  C6  UNL     1      26.760   7.581  49.276  1.00  0.00     0.249 C 
HETATM    7  C7  UNL     1      25.663   7.613  48.304  1.00  0.00    -0.021 A 
HETATM    8  C8  UNL     1      25.910   8.749  47.507  1.00  0.00     0.010 A 
HETATM    9  C9  UNL     1      25.040   9.041  46.445  1.00  0.00     0.001 A 
HETATM   10  C10 UNL     1      23.988   8.266  46.170  1.00  0.00     0.001 A 
HETATM   11  C11 UNL     1      23.703   7.158  46.915  1.00  0.00     0.012 A 
HETATM   12  C12 UNL     1      24.527   6.843  47.962  1.00  0.00    -0.028 A 
HETATM   13  C13 UNL     1      24.187   5.676  48.719  1.00  0.00     0.012 C 
HETATM   14  C14 UNL     1      24.248   4.554  49.384  1.00  0.00     0.007 C 
ENDROOT
BRANCH   1  15
HETATM   15  C2  UNL     1      26.024   2.886  50.124  1.00  0.00     0.190 A 
HETATM   16  C1  UNL     1      26.165   2.130  51.326  1.00  0.00     0.127 A 
HETATM   17  O1  UNL     1      25.576   3.262  51.593  1.00  0.00    -0.361 OA
BRANCH  16  18
HETATM   18  C15 UNL     1      26.152   1.637  52.701  1.00  0.00     0.074 C 
BRANCH  18  19
HETATM   19  C16 UNL     1      27.527   1.989  53.246  1.00  0.00     0.275 C 
BRANCH  19  20
HETATM   20  N1  UNL     1      28.141   0.947  53.988  1.00  0.00     0.088 N 
HETATM   21  C17 UNL     1      29.468   0.634  53.610  1.00  0.00     0.272 C 
HETATM   22  C18 UNL     1      29.970  -0.762  53.734  1.00  0.00     0.030 C 
HETATM   23  C19 UNL     1      28.968  -1.819  53.302  1.00  0.00     0.003 C 
HETATM   24  C20 UNL     1      27.697  -1.087  52.854  1.00  0.00     0.030 C 
HETATM   25  C21 UNL     1      27.263  -0.205  54.003  1.00  0.00     0.272 C 
ENDBRANCH  19  20
ENDBRANCH  18  19
ENDBRANCH  16  18
ENDBRANCH   1  15
TORSDOF 4
ENDMDL
MODEL 9
REMARK VINA RESULT:      -7.9      2.575      7.852
REMARK  4 active torsions:
REMARK  status: ('A' for Active; 'I' for Inactive)
REMARK    1  A    between atoms: C1_2  and  C15_18 
REMARK    2  A    between atoms: C2_3  and  C3_4 
REMARK    3  A    between atoms: C15_18  and  C16_19 
REMARK    4  A    between atoms: C16_19  and  N1_20 
ROOT
HETATM    1  C3  UNL     1      25.145   3.730  49.722  1.00  0.00    -0.041 C 
HETATM    2  C4  UNL     1      23.718   3.272  49.752  1.00  0.00     0.127 C 
HETATM    3  C5  UNL     1      22.956   2.334  50.320  1.00  0.00     0.146 C 
HETATM    4  O2  UNL     1      22.557   1.219  51.119  1.00  0.00    -0.240 OA
HETATM    5  O3  UNL     1      22.501   1.501  52.448  1.00  0.00    -0.236 OA
HETATM    6  C6  UNL     1      23.718   2.126  52.877  1.00  0.00     0.249 C 
HETATM    7  C7  UNL     1      24.853   1.226  52.651  1.00  0.00    -0.021 A 
HETATM    8  C8  UNL     1      24.552   0.062  53.385  1.00  0.00     0.010 A 
HETATM    9  C9  UNL     1      25.443  -1.022  53.344  1.00  0.00     0.001 A 
HETATM   10  C10 UNL     1      26.567  -0.976  52.624  1.00  0.00     0.001 A 
HETATM   11  C11 UNL     1      26.906   0.131  51.900  1.00  0.00     0.012 A 
HETATM   12  C12 UNL     1      26.062   1.209  51.918  1.00  0.00    -0.028 A 
HETATM   13  C13 UNL     1      26.461   2.349  51.149  1.00  0.00     0.012 C 
HETATM   14  C14 UNL     1      26.461   3.382  50.351  1.00  0.00     0.007 C 
ENDROOT
BRANCH   1  15
HETATM   15  C2  UNL     1      24.794   4.665  48.915  1.00  0.00     0.190 A 
HETATM   16  C1  UNL     1      24.716   6.059  48.620  1.00  0.00     0.127 A 
HETATM   17  O1  UNL     1      25.263   5.894  49.792  1.00  0.00    -0.361 OA
BRANCH  16  18
HETATM   18  C15 UNL     1      24.786   7.518  48.636  1.00  0.00     0.074 C 
BRANCH  18  19
HETATM   19  C16 UNL     1      26.075   7.831  49.381  1.00  0.00     0.275 C 
BRANCH  19  20
HETATM   20  N1  UNL     1      27.026   8.553  48.615  1.00  0.00     0.088 N 
HETATM   21  C17 UNL     1      26.683   8.755  47.257  1.00  0.00     0.272 C 
HETATM   22  C18 UNL     1      27.748   8.821  46.219  1.00  0.00     0.030 C 
HETATM   23  C19 UNL     1      28.852   7.791  46.402  1.00  0.00     0.003 C 
HETATM   24  C20 UNL     1      28.509   6.973  47.653  1.00  0.00     0.030 C 
HETATM   25  C21 UNL     1      28.332   7.951  48.792  1.00  0.00     0.272 C 
ENDBRANCH  19  20
ENDBRANCH  18  19
ENDBRANCH  16  18
ENDBRANCH   1  15
TORSDOF 4
ENDMDL
