MODEL 1
REMARK VINA RESULT:      -9.0      0.000      0.000
REMARK  4 active torsions:
REMARK  status: ('A' for Active; 'I' for Inactive)
REMARK    1  A    between atoms: C2_2  and  N1_3 
REMARK    2  A    between atoms: C5_7  and  N3_8 
REMARK    3  A    between atoms: N3_8  and  C6_9 
REMARK    4  A    between atoms: C12_17  and  N5_18 
ROOT
HETATM    1  N1  UNL     1      21.205   0.117  53.269  1.00  0.00    -0.324 N 
HETATM    2  C3  UNL     1      21.405  -0.949  54.051  1.00  0.00     0.212 A 
HETATM    3  N2  UNL     1      22.729  -1.163  54.129  1.00  0.00    -0.236 NA
HETATM    4  C4  UNL     1      23.362  -0.254  53.412  1.00  0.00     0.151 A 
HETATM    5  C5  UNL     1      24.685  -0.016  53.159  1.00  0.00     0.180 A 
HETATM    6  N4  UNL     1      24.972   1.028  52.369  1.00  0.00    -0.042 NA
HETATM    7  C12 UNL     1      24.102   1.854  51.808  1.00  0.00     0.728 A 
HETATM    8  N6  UNL     1      22.812   1.581  52.084  1.00  0.00    -0.042 NA
HETATM    9  C19 UNL     1      22.405   0.565  52.860  1.00  0.00     0.182 A 
ENDROOT
BRANCH   5  10
HETATM   10  N3  UNL     1      25.753  -0.775  53.639  1.00  0.00    -0.338 N 
HETATM   11  H7  UNL     1      25.586  -1.694  54.130  1.00  0.00     0.167 HD
BRANCH  10  12
HETATM   12  C6  UNL     1      27.156  -0.604  53.635  1.00  0.00     0.035 A 
HETATM   13  C7  UNL     1      28.015  -1.589  53.196  1.00  0.00     0.029 A 
HETATM   14  C8  UNL     1      29.389  -1.497  53.192  1.00  0.00     0.004 A 
HETATM   15  C9  UNL     1      29.984  -0.346  53.653  1.00  0.00     0.024 A 
HETATM   16  C10 UNL     1      29.170   0.669  54.102  1.00  0.00     0.036 A 
HETATM   17 CL1  UNL     1      29.822   2.194  54.718  1.00  0.00    -0.084 Cl
HETATM   18  C11 UNL     1      27.801   0.552  54.097  1.00  0.00     0.053 A 
ENDBRANCH  10  12
ENDBRANCH   5  10
BRANCH   7  19
HETATM   19  N5  UNL     1      24.514   2.945  50.971  1.00  0.00    -0.214 N 
HETATM   20  C13 UNL     1      25.939   3.003  50.868  1.00  0.00     0.141 C 
HETATM   21  C14 UNL     1      26.292   3.533  49.496  1.00  0.00     0.020 C 
HETATM   22  C15 UNL     1      25.972   4.979  49.334  1.00  0.00     0.002 C 
HETATM   23  C16 UNL     1      24.558   5.246  48.910  1.00  0.00     0.002 C 
HETATM   24  C17 UNL     1      23.673   4.030  49.012  1.00  0.00     0.020 C 
HETATM   25  C18 UNL     1      23.411   3.704  50.452  1.00  0.00     0.141 C 
ENDBRANCH   7  19
BRANCH   1  26
HETATM   26  C2  UNL     1      19.906   0.668  52.936  1.00  0.00     0.127 C 
HETATM   27  C1  UNL     1      19.480   0.218  51.568  1.00  0.00     0.027 C 
ENDBRANCH   1  26
TORSDOF 4
ENDMDL
MODEL 2
REMARK VINA RESULT:      -8.8      2.304      6.756
REMARK  4 active torsions:
REMARK  status: ('A' for Active; 'I' for Inactive)
REMARK    1  A    between atoms: C2_2  and  N1_3 
REMARK    2  A    between atoms: C5_7  and  N3_8 
REMARK    3  A    between atoms: N3_8  and  C6_9 
REMARK    4  A    between atoms: C12_17  and  N5_18 
ROOT
HETATM    1  N1  UNL     1      27.512   1.245  53.585  1.00  0.00    -0.324 N 
HETATM    2  C3  UNL     1      28.291   2.054  52.858  1.00  0.00     0.212 A 
HETATM    3  N2  UNL     1      27.541   2.574  51.872  1.00  0.00    -0.236 NA
HETATM    4  C4  UNL     1      26.309   2.108  51.966  1.00  0.00     0.151 A 
HETATM    5  C5  UNL     1      25.173   2.314  51.235  1.00  0.00     0.180 A 
HETATM    6  N4  UNL     1      24.071   1.663  51.632  1.00  0.00    -0.042 NA
HETATM    7  C12 UNL     1      23.972   0.837  52.664  1.00  0.00     0.728 A 
HETATM    8  N6  UNL     1      25.116   0.664  53.353  1.00  0.00    -0.042 NA
HETATM    9  C19 UNL     1      26.279   1.262  53.050  1.00  0.00     0.182 A 
ENDROOT
BRANCH   5  10
HETATM   10  N3  UNL     1      25.068   3.129  50.107  1.00  0.00    -0.338 N 
HETATM   11  H7  UNL     1      24.451   2.853  49.296  1.00  0.00     0.167 HD
BRANCH  10  12
HETATM   12  C6  UNL     1      25.646   4.364  49.734  1.00  0.00     0.035 A 
HETATM   13  C7  UNL     1      26.813   4.437  49.003  1.00  0.00     0.029 A 
HETATM   14  C8  UNL     1      27.442   5.605  48.631  1.00  0.00     0.004 A 
HETATM   15  C9  UNL     1      26.889   6.809  48.999  1.00  0.00     0.024 A 
HETATM   16  C10 UNL     1      25.723   6.791  49.729  1.00  0.00     0.036 A 
HETATM   17 CL1  UNL     1      24.922   8.276  50.259  1.00  0.00    -0.084 Cl
HETATM   18  C11 UNL     1      25.115   5.612  50.089  1.00  0.00     0.053 A 
ENDBRANCH  10  12
ENDBRANCH   5  10
BRANCH   7  19
HETATM   19  N5  UNL     1      22.741   0.183  53.005  1.00  0.00    -0.214 N 
HETATM   20  C13 UNL     1      22.954  -0.835  53.985  1.00  0.00     0.141 C 
HETATM   21  C14 UNL     1      21.719  -0.920  54.855  1.00  0.00     0.020 C 
HETATM   22  C15 UNL     1      20.549  -1.503  54.141  1.00  0.00     0.002 C 
HETATM   23  C16 UNL     1      19.750  -0.502  53.361  1.00  0.00     0.002 C 
HETATM   24  C17 UNL     1      20.448   0.827  53.221  1.00  0.00     0.020 C 
HETATM   25  C18 UNL     1      21.612   0.700  52.284  1.00  0.00     0.141 C 
ENDBRANCH   7  19
BRANCH   1  26
HETATM   26  C2  UNL     1      27.954   0.492  54.742  1.00  0.00     0.127 C 
HETATM   27  C1  UNL     1      29.113  -0.392  54.382  1.00  0.00     0.027 C 
ENDBRANCH   1  26
TORSDOF 4
ENDMDL
MODEL 3
REMARK VINA RESULT:      -8.8      1.963      5.829
REMARK  4 active torsions:
REMARK  status: ('A' for Active; 'I' for Inactive)
REMARK    1  A    between atoms: C2_2  and  N1_3 
REMARK    2  A    between atoms: C5_7  and  N3_8 
REMARK    3  A    between atoms: N3_8  and  C6_9 
REMARK    4  A    between atoms: C12_17  and  N5_18 
ROOT
HETATM    1  N1  UNL     1      21.693   0.699  53.654  1.00  0.00    -0.324 N 
HETATM    2  C3  UNL     1      20.815   1.478  53.014  1.00  0.00     0.212 A 
HETATM    3  N2  UNL     1      21.488   2.198  52.100  1.00  0.00    -0.236 NA
HETATM    4  C4  UNL     1      22.769   1.885  52.155  1.00  0.00     0.151 A 
HETATM    5  C5  UNL     1      23.866   2.309  51.457  1.00  0.00     0.180 A 
HETATM    6  N4  UNL     1      25.042   1.755  51.783  1.00  0.00    -0.042 NA
HETATM    7  C12 UNL     1      25.250   0.837  52.716  1.00  0.00     0.728 A 
HETATM    8  N6  UNL     1      24.142   0.451  53.376  1.00  0.00    -0.042 NA
HETATM    9  C19 UNL     1      22.913   0.934  53.138  1.00  0.00     0.182 A 
ENDROOT
BRANCH   5  10
HETATM   10  N3  UNL     1      23.865   3.276  50.450  1.00  0.00    -0.338 N 
HETATM   11  H7  UNL     1      23.263   3.160  49.590  1.00  0.00     0.167 HD
BRANCH  10  12
HETATM   12  C6  UNL     1      24.543   4.503  50.270  1.00  0.00     0.035 A 
HETATM   13  C7  UNL     1      24.109   5.674  50.854  1.00  0.00     0.029 A 
HETATM   14  C8  UNL     1      24.707   6.905  50.697  1.00  0.00     0.004 A 
HETATM   15  C9  UNL     1      25.825   7.010  49.903  1.00  0.00     0.024 A 
HETATM   16  C10 UNL     1      26.299   5.869  49.297  1.00  0.00     0.036 A 
HETATM   17 CL1  UNL     1      27.728   5.883  48.254  1.00  0.00    -0.084 Cl
HETATM   18  C11 UNL     1      25.685   4.651  49.469  1.00  0.00     0.053 A 
ENDBRANCH  10  12
ENDBRANCH   5  10
BRANCH   7  19
HETATM   19  N5  UNL     1      26.556   0.310  52.992  1.00  0.00    -0.214 N 
HETATM   20  C13 UNL     1      27.212   1.069  54.010  1.00  0.00     0.141 C 
HETATM   21  C14 UNL     1      28.101   0.134  54.799  1.00  0.00     0.020 C 
HETATM   22  C15 UNL     1      29.289  -0.325  54.025  1.00  0.00     0.002 C 
HETATM   23  C16 UNL     1      29.031  -1.529  53.170  1.00  0.00     0.002 C 
HETATM   24  C17 UNL     1      27.566  -1.858  53.041  1.00  0.00     0.020 C 
HETATM   25  C18 UNL     1      26.882  -0.833  52.185  1.00  0.00     0.141 C 
ENDBRANCH   7  19
BRANCH   1  26
HETATM   26  C2  UNL     1      21.358  -0.227  54.717  1.00  0.00     0.127 C 
HETATM   27  C1  UNL     1      21.431  -1.643  54.222  1.00  0.00     0.027 C 
ENDBRANCH   1  26
TORSDOF 4
ENDMDL
MODEL 4
REMARK VINA RESULT:      -8.7      2.439      7.043
REMARK  4 active torsions:
REMARK  status: ('A' for Active; 'I' for Inactive)
REMARK    1  A    between atoms: C2_2  and  N1_3 
REMARK    2  A    between atoms: C5_7  and  N3_8 
REMARK    3  A    between atoms: N3_8  and  C6_9 
REMARK    4  A    between atoms: C12_17  and  N5_18 
ROOT
HETATM    1  N1  UNL     1      26.179   4.840  49.341  1.00  0.00    -0.324 N 
HETATM    2  C3  UNL     1      25.006   5.464  49.185  1.00  0.00     0.212 A 
HETATM    3  N2  UNL     1      24.122   4.897  50.023  1.00  0.00    -0.236 NA
HETATM    4  C4  UNL     1      24.716   3.934  50.701  1.00  0.00     0.151 A 
HETATM    5  C5  UNL     1      24.284   3.064  51.664  1.00  0.00     0.180 A 
HETATM    6  N4  UNL     1      25.187   2.200  52.147  1.00  0.00    -0.042 NA
HETATM    7  C12 UNL     1      26.458   2.102  51.785  1.00  0.00     0.728 A 
HETATM    8  N6  UNL     1      26.837   2.977  50.834  1.00  0.00    -0.042 NA
HETATM    9  C19 UNL     1      26.023   3.887  50.276  1.00  0.00     0.182 A 
ENDROOT
BRANCH   5  10
HETATM   10  N3  UNL     1      22.986   2.992  52.172  1.00  0.00    -0.338 N 
HETATM   11  H7  UNL     1      22.505   3.853  52.549  1.00  0.00     0.167 HD
BRANCH  10  12
HETATM   12  C6  UNL     1      22.053   1.943  52.328  1.00  0.00     0.035 A 
HETATM   13  C7  UNL     1      20.917   1.850  51.553  1.00  0.00     0.029 A 
HETATM   14  C8  UNL     1      19.955   0.870  51.672  1.00  0.00     0.004 A 
HETATM   15  C9  UNL     1      20.109  -0.106  52.628  1.00  0.00     0.024 A 
HETATM   16  C10 UNL     1      21.228  -0.058  53.428  1.00  0.00     0.036 A 
HETATM   17 CL1  UNL     1      21.532  -1.259  54.691  1.00  0.00    -0.084 Cl
HETATM   18  C11 UNL     1      22.173   0.930  53.290  1.00  0.00     0.053 A 
ENDBRANCH  10  12
ENDBRANCH   5  10
BRANCH   7  19
HETATM   19  N5  UNL     1      27.346   1.134  52.364  1.00  0.00    -0.214 N 
HETATM   20  C13 UNL     1      28.331   1.766  53.184  1.00  0.00     0.141 C 
HETATM   21  C14 UNL     1      28.676   0.827  54.318  1.00  0.00     0.020 C 
HETATM   22  C15 UNL     1      29.453  -0.363  53.867  1.00  0.00     0.002 C 
HETATM   23  C16 UNL     1      28.601  -1.498  53.383  1.00  0.00     0.002 C 
HETATM   24  C17 UNL     1      27.160  -1.107  53.177  1.00  0.00     0.020 C 
HETATM   25  C18 UNL     1      27.034  -0.214  51.979  1.00  0.00     0.141 C 
ENDBRANCH   7  19
BRANCH   1  26
HETATM   26  C2  UNL     1      27.390   5.160  48.611  1.00  0.00     0.127 C 
HETATM   27  C1  UNL     1      27.451   6.630  48.314  1.00  0.00     0.027 C 
ENDBRANCH   1  26
TORSDOF 4
ENDMDL
MODEL 5
REMARK VINA RESULT:      -8.5      2.508      7.146
REMARK  4 active torsions:
REMARK  status: ('A' for Active; 'I' for Inactive)
REMARK    1  A    between atoms: C2_2  and  N1_3 
REMARK    2  A    between atoms: C5_7  and  N3_8 
REMARK    3  A    between atoms: N3_8  and  C6_9 
REMARK    4  A    between atoms: C12_17  and  N5_18 
ROOT
HETATM    1  N1  UNL     1      27.932   0.732  53.629  1.00  0.00    -0.324 N 
HETATM    2  C3  UNL     1      28.725   1.672  53.106  1.00  0.00     0.212 A 
HETATM    3  N2  UNL     1      27.955   2.517  52.399  1.00  0.00    -0.236 NA
HETATM    4  C4  UNL     1      26.697   2.125  52.469  1.00  0.00     0.151 A 
HETATM    5  C5  UNL     1      25.533   2.619  51.947  1.00  0.00     0.180 A 
HETATM    6  N4  UNL     1      24.409   1.949  52.237  1.00  0.00    -0.042 NA
HETATM    7  C12 UNL     1      24.311   0.856  52.978  1.00  0.00     0.728 A 
HETATM    8  N6  UNL     1      25.482   0.406  53.469  1.00  0.00    -0.042 NA
HETATM    9  C19 UNL     1      26.669   0.992  53.247  1.00  0.00     0.182 A 
ENDROOT
BRANCH   5  10
HETATM   10  N3  UNL     1      25.422   3.745  51.131  1.00  0.00    -0.338 N 
HETATM   11  H7  UNL     1      26.059   4.576  51.266  1.00  0.00     0.167 HD
BRANCH  10  12
HETATM   12  C6  UNL     1      24.576   4.094  50.054  1.00  0.00     0.035 A 
HETATM   13  C7  UNL     1      24.424   5.398  49.632  1.00  0.00     0.029 A 
HETATM   14  C8  UNL     1      23.598   5.809  48.609  1.00  0.00     0.004 A 
HETATM   15  C9  UNL     1      22.852   4.870  47.935  1.00  0.00     0.024 A 
HETATM   16  C10 UNL     1      22.967   3.553  48.317  1.00  0.00     0.036 A 
HETATM   17 CL1  UNL     1      22.057   2.260  47.524  1.00  0.00    -0.084 Cl
HETATM   18  C11 UNL     1      23.799   3.169  49.342  1.00  0.00     0.053 A 
ENDBRANCH  10  12
ENDBRANCH   5  10
BRANCH   7  19
HETATM   19  N5  UNL     1      23.053   0.210  53.225  1.00  0.00    -0.214 N 
HETATM   20  C13 UNL     1      23.202  -0.863  54.158  1.00  0.00     0.141 C 
HETATM   21  C14 UNL     1      21.926  -0.970  54.963  1.00  0.00     0.020 C 
HETATM   22  C15 UNL     1      20.780  -1.489  54.166  1.00  0.00     0.002 C 
HETATM   23  C16 UNL     1      20.037  -0.431  53.406  1.00  0.00     0.002 C 
HETATM   24  C17 UNL     1      20.765   0.888  53.370  1.00  0.00     0.020 C 
HETATM   25  C18 UNL     1      21.969   0.788  52.482  1.00  0.00     0.141 C 
ENDBRANCH   7  19
BRANCH   1  26
HETATM   26  C2  UNL     1      28.385  -0.367  54.459  1.00  0.00     0.127 C 
HETATM   27  C1  UNL     1      29.570  -1.043  53.831  1.00  0.00     0.027 C 
ENDBRANCH   1  26
TORSDOF 4
ENDMDL
MODEL 6
REMARK VINA RESULT:      -8.5      2.019      5.388
REMARK  4 active torsions:
REMARK  status: ('A' for Active; 'I' for Inactive)
REMARK    1  A    between atoms: C2_2  and  N1_3 
REMARK    2  A    between atoms: C5_7  and  N3_8 
REMARK    3  A    between atoms: N3_8  and  C6_9 
REMARK    4  A    between atoms: C12_17  and  N5_18 
ROOT
HETATM    1  N1  UNL     1      23.053   5.430  50.141  1.00  0.00    -0.324 N 
HETATM    2  C3  UNL     1      24.235   5.952  49.797  1.00  0.00     0.212 A 
HETATM    3  N2  UNL     1      25.198   5.136  50.259  1.00  0.00    -0.236 NA
HETATM    4  C4  UNL     1      24.643   4.115  50.885  1.00  0.00     0.151 A 
HETATM    5  C5  UNL     1      25.156   3.019  51.521  1.00  0.00     0.180 A 
HETATM    6  N4  UNL     1      24.273   2.160  52.053  1.00  0.00    -0.042 NA
HETATM    7  C12 UNL     1      22.953   2.268  52.024  1.00  0.00     0.728 A 
HETATM    8  N6  UNL     1      22.495   3.363  51.387  1.00  0.00    -0.042 NA
HETATM    9  C19 UNL     1      23.281   4.290  50.818  1.00  0.00     0.182 A 
ENDROOT
BRANCH   5  10
HETATM   10  N3  UNL     1      26.512   2.728  51.677  1.00  0.00    -0.338 N 
HETATM   11  H7  UNL     1      27.248   3.314  51.198  1.00  0.00     0.167 HD
BRANCH  10  12
HETATM   12  C6  UNL     1      27.226   1.738  52.389  1.00  0.00     0.035 A 
HETATM   13  C7  UNL     1      28.252   2.053  53.255  1.00  0.00     0.029 A 
HETATM   14  C8  UNL     1      29.005   1.138  53.957  1.00  0.00     0.004 A 
HETATM   15  C9  UNL     1      28.738  -0.203  53.807  1.00  0.00     0.024 A 
HETATM   16  C10 UNL     1      27.722  -0.570  52.954  1.00  0.00     0.036 A 
HETATM   17 CL1  UNL     1      27.290  -2.264  52.682  1.00  0.00    -0.084 Cl
HETATM   18  C11 UNL     1      26.986   0.363  52.264  1.00  0.00     0.053 A 
ENDBRANCH  10  12
ENDBRANCH   5  10
BRANCH   7  19
HETATM   19  N5  UNL     1      22.093   1.292  52.630  1.00  0.00    -0.214 N 
HETATM   20  C13 UNL     1      20.730   1.507  52.257  1.00  0.00     0.141 C 
HETATM   21  C14 UNL     1      20.038   0.163  52.200  1.00  0.00     0.020 C 
HETATM   22  C15 UNL     1      19.836  -0.441  53.547  1.00  0.00     0.002 C 
HETATM   23  C16 UNL     1      21.010  -1.233  54.041  1.00  0.00     0.002 C 
HETATM   24  C17 UNL     1      22.253  -1.021  53.216  1.00  0.00     0.020 C 
HETATM   25  C18 UNL     1      22.801   0.354  53.454  1.00  0.00     0.141 C 
ENDBRANCH   7  19
BRANCH   1  26
HETATM   26  C2  UNL     1      21.765   6.017  49.827  1.00  0.00     0.127 C 
HETATM   27  C1  UNL     1      21.522   7.232  50.675  1.00  0.00     0.027 C 
ENDBRANCH   1  26
TORSDOF 4
ENDMDL
MODEL 7
REMARK VINA RESULT:      -8.1      2.479      5.936
REMARK  4 active torsions:
REMARK  status: ('A' for Active; 'I' for Inactive)
REMARK    1  A    between atoms: C2_2  and  N1_3 
REMARK    2  A    between atoms: C5_7  and  N3_8 
REMARK    3  A    between atoms: N3_8  and  C6_9 
REMARK    4  A    between atoms: C12_17  and  N5_18 
ROOT
HETATM    1  N1  UNL     1      27.573   0.477  53.709  1.00  0.00    -0.324 N 
HETATM    2  C3  UNL     1      27.230  -0.570  54.468  1.00  0.00     0.212 A 
HETATM    3  N2  UNL     1      25.913  -0.784  54.306  1.00  0.00    -0.236 NA
HETATM    4  C4  UNL     1      25.425   0.106  53.462  1.00  0.00     0.151 A 
HETATM    5  C5  UNL     1      24.174   0.328  52.958  1.00  0.00     0.180 A 
HETATM    6  N4  UNL     1      24.042   1.345  52.095  1.00  0.00    -0.042 NA
HETATM    7  C12 UNL     1      25.003   2.158  51.681  1.00  0.00     0.728 A 
HETATM    8  N6  UNL     1      26.217   1.901  52.204  1.00  0.00    -0.042 NA
HETATM    9  C19 UNL     1      26.470   0.913  53.076  1.00  0.00     0.182 A 
ENDROOT
BRANCH   5  10
HETATM   10  N3  UNL     1      23.027  -0.400  53.277  1.00  0.00    -0.338 N 
HETATM   11  H7  UNL     1      23.079  -1.235  53.921  1.00  0.00     0.167 HD
BRANCH  10  12
HETATM   12  C6  UNL     1      21.666  -0.293  52.913  1.00  0.00     0.035 A 
HETATM   13  C7  UNL     1      20.653  -0.784  53.708  1.00  0.00     0.029 A 
HETATM   14  C8  UNL     1      19.310  -0.736  53.401  1.00  0.00     0.004 A 
HETATM   15  C9  UNL     1      18.916  -0.161  52.216  1.00  0.00     0.024 A 
HETATM   16  C10 UNL     1      19.890   0.346  51.385  1.00  0.00     0.036 A 
HETATM   17 CL1  UNL     1      19.502   1.108  49.837  1.00  0.00    -0.084 Cl
HETATM   18  C11 UNL     1      21.223   0.286  51.715  1.00  0.00     0.053 A 
ENDBRANCH  10  12
ENDBRANCH   5  10
BRANCH   7  19
HETATM   19  N5  UNL     1      24.755   3.225  50.753  1.00  0.00    -0.214 N 
HETATM   20  C13 UNL     1      25.948   3.969  50.495  1.00  0.00     0.141 C 
HETATM   21  C14 UNL     1      25.893   4.471  49.069  1.00  0.00     0.020 C 
HETATM   22  C15 UNL     1      24.881   5.547  48.874  1.00  0.00     0.002 C 
HETATM   23  C16 UNL     1      23.499   5.039  48.592  1.00  0.00     0.002 C 
HETATM   24  C17 UNL     1      23.351   3.561  48.846  1.00  0.00     0.020 C 
HETATM   25  C18 UNL     1      23.387   3.286  50.320  1.00  0.00     0.141 C 
ENDBRANCH   7  19
BRANCH   1  26
HETATM   26  C2  UNL     1      28.912   1.023  53.609  1.00  0.00     0.127 C 
HETATM   27  C1  UNL     1      29.930  -0.080  53.601  1.00  0.00     0.027 C 
ENDBRANCH   1  26
TORSDOF 4
ENDMDL
MODEL 8
REMARK VINA RESULT:      -8.0      2.955      6.186
REMARK  4 active torsions:
REMARK  status: ('A' for Active; 'I' for Inactive)
REMARK    1  A    between atoms: C2_2  and  N1_3 
REMARK    2  A    between atoms: C5_7  and  N3_8 
REMARK    3  A    between atoms: N3_8  and  C6_9 
REMARK    4  A    between atoms: C12_17  and  N5_18 
ROOT
HETATM    1  N1  UNL     1      25.034  -0.182  53.610  1.00  0.00    -0.324 N 
HETATM    2  C3  UNL     1      24.004  -0.804  54.192  1.00  0.00     0.212 A 
HETATM    3  N2  UNL     1      22.879  -0.157  53.843  1.00  0.00    -0.236 NA
HETATM    4  C4  UNL     1      23.184   0.857  53.054  1.00  0.00     0.151 A 
HETATM    5  C5  UNL     1      22.434   1.812  52.427  1.00  0.00     0.180 A 
HETATM    6  N4  UNL     1      23.096   2.706  51.679  1.00  0.00    -0.042 NA
HETATM    7  C12 UNL     1      24.406   2.758  51.487  1.00  0.00     0.728 A 
HETATM    8  N6  UNL     1      25.102   1.798  52.125  1.00  0.00    -0.042 NA
HETATM    9  C19 UNL     1      24.550   0.852  52.900  1.00  0.00     0.182 A 
ENDROOT
BRANCH   5  10
HETATM   10  N3  UNL     1      21.047   1.942  52.511  1.00  0.00    -0.338 N 
HETATM   11  H7  UNL     1      20.611   2.757  53.022  1.00  0.00     0.167 HD
BRANCH  10  12
HETATM   12  C6  UNL     1      19.960   1.174  52.037  1.00  0.00     0.035 A 
HETATM   13  C7  UNL     1      19.362   1.421  50.819  1.00  0.00     0.029 A 
HETATM   14  C8  UNL     1      18.285   0.729  50.311  1.00  0.00     0.004 A 
HETATM   15  C9  UNL     1      17.739  -0.295  51.050  1.00  0.00     0.024 A 
HETATM   16  C10 UNL     1      18.300  -0.582  52.273  1.00  0.00     0.036 A 
HETATM   17 CL1  UNL     1      17.682  -1.875  53.310  1.00  0.00    -0.084 Cl
HETATM   18  C11 UNL     1      19.375   0.124  52.758  1.00  0.00     0.053 A 
ENDBRANCH  10  12
ENDBRANCH   5  10
BRANCH   7  19
HETATM   19  N5  UNL     1      25.019   3.764  50.667  1.00  0.00    -0.214 N 
HETATM   20  C13 UNL     1      26.404   3.481  50.456  1.00  0.00     0.141 C 
HETATM   21  C14 UNL     1      26.787   3.990  49.085  1.00  0.00     0.020 C 
HETATM   22  C15 UNL     1      26.823   5.478  49.010  1.00  0.00     0.002 C 
HETATM   23  C16 UNL     1      25.494   6.105  48.709  1.00  0.00     0.002 C 
HETATM   24  C17 UNL     1      24.346   5.136  48.828  1.00  0.00     0.020 C 
HETATM   25  C18 UNL     1      24.105   4.797  50.269  1.00  0.00     0.141 C 
ENDBRANCH   7  19
BRANCH   1  26
HETATM   26  C2  UNL     1      26.423  -0.577  53.744  1.00  0.00     0.127 C 
HETATM   27  C1  UNL     1      26.815  -1.501  52.627  1.00  0.00     0.027 C 
ENDBRANCH   1  26
TORSDOF 4
ENDMDL
MODEL 9
REMARK VINA RESULT:      -7.8      2.478      6.116
REMARK  4 active torsions:
REMARK  status: ('A' for Active; 'I' for Inactive)
REMARK    1  A    between atoms: C2_2  and  N1_3 
REMARK    2  A    between atoms: C5_7  and  N3_8 
REMARK    3  A    between atoms: N3_8  and  C6_9 
REMARK    4  A    between atoms: C12_17  and  N5_18 
ROOT
HETATM    1  N1  UNL     1      20.988   1.584  52.642  1.00  0.00    -0.324 N 
HETATM    2  C3  UNL     1      20.263   2.657  52.307  1.00  0.00     0.212 A 
HETATM    3  N2  UNL     1      21.108   3.686  52.123  1.00  0.00    -0.236 NA
HETATM    4  C4  UNL     1      22.345   3.280  52.335  1.00  0.00     0.151 A 
HETATM    5  C5  UNL     1      23.559   3.908  52.279  1.00  0.00     0.180 A 
HETATM    6  N4  UNL     1      24.639   3.164  52.557  1.00  0.00    -0.042 NA
HETATM    7  C12 UNL     1      24.649   1.880  52.882  1.00  0.00     0.728 A 
HETATM    8  N6  UNL     1      23.432   1.304  52.924  1.00  0.00    -0.042 NA
HETATM    9  C19 UNL     1      22.283   1.947  52.667  1.00  0.00     0.182 A 
ENDROOT
BRANCH   5  10
HETATM   10  N3  UNL     1      23.764   5.255  51.975  1.00  0.00    -0.338 N 
HETATM   11  H7  UNL     1      23.606   6.003  52.702  1.00  0.00     0.167 HD
BRANCH  10  12
HETATM   12  C6  UNL     1      24.170   5.945  50.810  1.00  0.00     0.035 A 
HETATM   13  C7  UNL     1      23.849   5.502  49.545  1.00  0.00     0.029 A 
HETATM   14  C8  UNL     1      24.235   6.110  48.371  1.00  0.00     0.004 A 
HETATM   15  C9  UNL     1      25.001   7.251  48.429  1.00  0.00     0.024 A 
HETATM   16  C10 UNL     1      25.349   7.735  49.670  1.00  0.00     0.036 A 
HETATM   17 CL1  UNL     1      26.331   9.193  49.869  1.00  0.00    -0.084 Cl
HETATM   18  C11 UNL     1      24.951   7.109  50.827  1.00  0.00     0.053 A 
ENDBRANCH  10  12
ENDBRANCH   5  10
BRANCH   7  19
HETATM   19  N5  UNL     1      25.865   1.173  53.166  1.00  0.00    -0.214 N 
HETATM   20  C13 UNL     1      25.759  -0.203  52.793  1.00  0.00     0.141 C 
HETATM   21  C14 UNL     1      27.125  -0.679  52.351  1.00  0.00     0.020 C 
HETATM   22  C15 UNL     1      28.089  -0.801  53.481  1.00  0.00     0.002 C 
HETATM   23  C16 UNL     1      28.804   0.475  53.811  1.00  0.00     0.002 C 
HETATM   24  C17 UNL     1      28.202   1.680  53.135  1.00  0.00     0.020 C 
HETATM   25  C18 UNL     1      26.876   2.008  53.753  1.00  0.00     0.141 C 
ENDBRANCH   7  19
BRANCH   1  26
HETATM   26  C2  UNL     1      20.442   0.272  52.926  1.00  0.00     0.127 C 
HETATM   27  C1  UNL     1      20.645  -0.079  54.372  1.00  0.00     0.027 C 
ENDBRANCH   1  26
TORSDOF 4
ENDMDL
