MODEL 1
REMARK VINA RESULT:     -10.4      0.000      0.000
REMARK  0 active torsions:
REMARK  status: ('A' for Active; 'I' for Inactive)
ROOT
HETATM    1  O1  UNL     1      21.823  -1.849  54.155  1.00  0.00    -0.293 OA
HETATM    2  C1  UNL     1      22.685  -0.910  53.999  1.00  0.00     0.154 C 
HETATM    3  C2  UNL     1      22.166   0.353  53.504  1.00  0.00     0.063 C 
HETATM    4  C3  UNL     1      23.349   0.862  53.232  1.00  0.00    -0.017 C 
HETATM    5  C4  UNL     1      23.545   2.258  52.645  1.00  0.00    -0.019 C 
HETATM    6  C5  UNL     1      24.341   3.226  53.039  1.00  0.00     0.021 C 
HETATM    7  C6  UNL     1      24.536   2.762  51.566  1.00  0.00     0.084 A 
HETATM    8  C7  UNL     1      23.655   2.115  50.666  1.00  0.00     0.080 A 
HETATM    9  C8  UNL     1      22.070   2.413  50.444  1.00  0.00     0.031 A 
HETATM   10  C9  UNL     1      22.781   2.565  51.360  1.00  0.00     0.067 A 
HETATM   11  N1  UNL     1      22.357   4.164  51.463  1.00  0.00    -0.387 N 
HETATM   12  C10 UNL     1      23.674   4.923  51.293  1.00  0.00     0.287 C 
HETATM   13  O2  UNL     1      24.723   4.035  51.111  1.00  0.00    -0.358 OA
HETATM   14  C11 UNL     1      25.692   1.919  51.841  1.00  0.00     0.082 C 
HETATM   15  C12 UNL     1      25.710   0.681  52.645  1.00  0.00    -0.037 C 
HETATM   16  C13 UNL     1      26.802  -0.248  52.828  1.00  0.00    -0.029 A 
HETATM   17  C14 UNL     1      27.961   0.375  53.250  1.00  0.00     0.012 A 
HETATM   18  C15 UNL     1      29.121  -0.375  53.454  1.00  0.00     0.001 A 
HETATM   19  C16 UNL     1      29.098  -1.766  53.224  1.00  0.00     0.000 A 
HETATM   20  C17 UNL     1      27.911  -2.328  52.802  1.00  0.00     0.001 A 
HETATM   21  C18 UNL     1      26.743  -1.601  52.595  1.00  0.00     0.012 A 
HETATM   22  C19 UNL     1      24.686   0.086  53.379  1.00  0.00    -0.033 C 
HETATM   23  C20 UNL     1      24.178  -0.948  54.264  1.00  0.00     0.123 C 
HETATM   24  H6  UNL     1      21.646   5.025  51.617  1.00  0.00     0.156 HD
ENDROOT
TORSDOF 0
ENDMDL
MODEL 2
REMARK VINA RESULT:      -9.6      2.350      5.367
REMARK  0 active torsions:
REMARK  status: ('A' for Active; 'I' for Inactive)
ROOT
HETATM    1  O1  UNL     1      21.177  -0.701  54.304  1.00  0.00    -0.293 OA
HETATM    2  C1  UNL     1      22.168  -0.381  53.552  1.00  0.00     0.154 C 
HETATM    3  C2  UNL     1      23.468  -0.877  53.968  1.00  0.00     0.063 C 
HETATM    4  C3  UNL     1      24.150  -0.108  53.147  1.00  0.00    -0.017 C 
HETATM    5  C4  UNL     1      25.674  -0.120  53.059  1.00  0.00    -0.019 C 
HETATM    6  C5  UNL     1      26.451  -0.211  52.004  1.00  0.00     0.021 C 
HETATM    7  C6  UNL     1      26.679   1.048  52.891  1.00  0.00     0.084 A 
HETATM    8  C7  UNL     1      26.399   1.290  54.258  1.00  0.00     0.080 A 
HETATM    9  C8  UNL     1      26.618   0.273  55.509  1.00  0.00     0.031 A 
HETATM   10  C9  UNL     1      26.429   0.092  54.370  1.00  0.00     0.067 A 
HETATM   11  N1  UNL     1      27.785  -0.854  54.263  1.00  0.00    -0.387 N 
HETATM   12  C10 UNL     1      28.661  -0.157  53.222  1.00  0.00     0.287 C 
HETATM   13  O2  UNL     1      28.036   0.989  52.756  1.00  0.00    -0.358 OA
HETATM   14  C11 UNL     1      25.909   1.951  52.047  1.00  0.00     0.082 C 
HETATM   15  C12 UNL     1      24.454   1.905  51.802  1.00  0.00    -0.037 C 
HETATM   16  C13 UNL     1      23.640   2.858  51.082  1.00  0.00    -0.029 A 
HETATM   17  C14 UNL     1      24.127   3.119  49.815  1.00  0.00     0.012 A 
HETATM   18  C15 UNL     1      23.472   4.036  48.992  1.00  0.00     0.001 A 
HETATM   19  C16 UNL     1      22.316   4.691  49.464  1.00  0.00     0.000 A 
HETATM   20  C17 UNL     1      21.881   4.389  50.737  1.00  0.00     0.001 A 
HETATM   21  C18 UNL     1      22.517   3.478  51.574  1.00  0.00     0.012 A 
HETATM   22  C19 UNL     1      23.512   0.974  52.233  1.00  0.00    -0.033 C 
HETATM   23  C20 UNL     1      22.157   0.450  52.283  1.00  0.00     0.123 C 
HETATM   24  H6  UNL     1      28.429  -1.749  54.503  1.00  0.00     0.156 HD
ENDROOT
TORSDOF 0
ENDMDL
MODEL 3
REMARK VINA RESULT:      -9.3      1.873      4.157
REMARK  0 active torsions:
REMARK  status: ('A' for Active; 'I' for Inactive)
ROOT
HETATM    1  O1  UNL     1      26.858   5.328  48.953  1.00  0.00    -0.293 OA
HETATM    2  C1  UNL     1      26.197   4.315  49.386  1.00  0.00     0.154 C 
HETATM    3  C2  UNL     1      24.751   4.445  49.364  1.00  0.00     0.063 C 
HETATM    4  C3  UNL     1      24.531   3.390  50.120  1.00  0.00    -0.017 C 
HETATM    5  C4  UNL     1      23.134   2.920  50.518  1.00  0.00    -0.019 C 
HETATM    6  C5  UNL     1      22.603   1.721  50.446  1.00  0.00     0.021 C 
HETATM    7  C6  UNL     1      22.609   2.363  51.865  1.00  0.00     0.084 A 
HETATM    8  C7  UNL     1      22.665   3.716  52.277  1.00  0.00     0.080 A 
HETATM    9  C8  UNL     1      21.883   4.984  51.623  1.00  0.00     0.031 A 
HETATM   10  C9  UNL     1      22.234   3.960  51.181  1.00  0.00     0.067 A 
HETATM   11  N1  UNL     1      20.700   3.628  50.650  1.00  0.00    -0.387 N 
HETATM   12  C10 UNL     1      20.324   2.322  51.350  1.00  0.00     0.287 C 
HETATM   13  O2  UNL     1      21.362   1.895  52.163  1.00  0.00    -0.358 OA
HETATM   14  C11 UNL     1      23.782   1.639  52.336  1.00  0.00     0.082 C 
HETATM   15  C12 UNL     1      25.164   1.779  51.839  1.00  0.00    -0.037 C 
HETATM   16  C13 UNL     1      26.368   1.180  52.370  1.00  0.00    -0.029 A 
HETATM   17  C14 UNL     1      26.260  -0.192  52.506  1.00  0.00     0.012 A 
HETATM   18  C15 UNL     1      27.327  -0.926  53.028  1.00  0.00     0.001 A 
HETATM   19  C16 UNL     1      28.507  -0.258  53.411  1.00  0.00     0.000 A 
HETATM   20  C17 UNL     1      28.554   1.111  53.251  1.00  0.00     0.001 A 
HETATM   21  C18 UNL     1      27.504   1.862  52.732  1.00  0.00     0.012 A 
HETATM   22  C19 UNL     1      25.653   2.545  50.783  1.00  0.00    -0.033 C 
HETATM   23  C20 UNL     1      26.730   3.000  49.921  1.00  0.00     0.123 C 
HETATM   24  H6  UNL     1      19.770   3.803  50.035  1.00  0.00     0.156 HD
ENDROOT
TORSDOF 0
ENDMDL
MODEL 4
REMARK VINA RESULT:      -9.0      2.522      5.503
REMARK  0 active torsions:
REMARK  status: ('A' for Active; 'I' for Inactive)
ROOT
HETATM    1  O1  UNL     1      21.554   5.699  51.019  1.00  0.00    -0.293 OA
HETATM    2  C1  UNL     1      22.051   4.741  51.716  1.00  0.00     0.154 C 
HETATM    3  C2  UNL     1      23.500   4.709  51.810  1.00  0.00     0.063 C 
HETATM    4  C3  UNL     1      23.554   3.493  52.311  1.00  0.00    -0.017 C 
HETATM    5  C4  UNL     1      24.862   2.793  52.671  1.00  0.00    -0.019 C 
HETATM    6  C5  UNL     1      25.200   2.172  53.778  1.00  0.00     0.021 C 
HETATM    7  C6  UNL     1      25.295   1.317  52.480  1.00  0.00     0.084 A 
HETATM    8  C7  UNL     1      25.451   1.693  51.124  1.00  0.00     0.080 A 
HETATM    9  C8  UNL     1      26.420   2.855  50.523  1.00  0.00     0.031 A 
HETATM   10  C9  UNL     1      25.913   2.712  51.567  1.00  0.00     0.067 A 
HETATM   11  N1  UNL     1      27.376   2.857  52.332  1.00  0.00    -0.387 N 
HETATM   12  C10 UNL     1      27.546   1.541  53.092  1.00  0.00     0.287 C 
HETATM   13  O2  UNL     1      26.455   0.714  52.873  1.00  0.00    -0.358 OA
HETATM   14  C11 UNL     1      24.025   0.632  52.675  1.00  0.00     0.082 C 
HETATM   15  C12 UNL     1      22.680   1.240  52.644  1.00  0.00    -0.037 C 
HETATM   16  C13 UNL     1      21.399   0.573  52.699  1.00  0.00    -0.029 A 
HETATM   17  C14 UNL     1      21.293  -0.280  53.781  1.00  0.00     0.012 A 
HETATM   18  C15 UNL     1      20.125  -1.021  53.972  1.00  0.00     0.001 A 
HETATM   19  C16 UNL     1      19.063  -0.892  53.054  1.00  0.00     0.000 A 
HETATM   20  C17 UNL     1      19.230  -0.026  51.994  1.00  0.00     0.001 A 
HETATM   21  C18 UNL     1      20.383   0.724  51.786  1.00  0.00     0.012 A 
HETATM   22  C19 UNL     1      22.315   2.578  52.510  1.00  0.00    -0.033 C 
HETATM   23  C20 UNL     1      21.320   3.635  52.453  1.00  0.00     0.123 C 
HETATM   24  H6  UNL     1      28.321   3.392  52.639  1.00  0.00     0.156 HD
ENDROOT
TORSDOF 0
ENDMDL
MODEL 5
REMARK VINA RESULT:      -9.0      2.796      5.297
REMARK  0 active torsions:
REMARK  status: ('A' for Active; 'I' for Inactive)
ROOT
HETATM    1  O1  UNL     1      28.295   4.759  48.575  1.00  0.00    -0.293 OA
HETATM    2  C1  UNL     1      27.103   4.494  48.975  1.00  0.00     0.154 C 
HETATM    3  C2  UNL     1      26.123   5.550  48.795  1.00  0.00     0.063 C 
HETATM    4  C3  UNL     1      25.212   4.991  49.564  1.00  0.00    -0.017 C 
HETATM    5  C4  UNL     1      23.844   5.614  49.830  1.00  0.00    -0.019 C 
HETATM    6  C5  UNL     1      22.649   5.074  49.749  1.00  0.00     0.021 C 
HETATM    7  C6  UNL     1      23.011   5.685  51.135  1.00  0.00     0.084 A 
HETATM    8  C7  UNL     1      23.940   6.690  51.498  1.00  0.00     0.080 A 
HETATM    9  C8  UNL     1      24.249   8.083  50.717  1.00  0.00     0.031 A 
HETATM   10  C9  UNL     1      23.844   7.048  50.354  1.00  0.00     0.067 A 
HETATM   11  N1  UNL     1      22.515   7.771  49.677  1.00  0.00    -0.387 N 
HETATM   12  C10 UNL     1      21.322   7.125  50.384  1.00  0.00     0.287 C 
HETATM   13  O2  UNL     1      21.760   6.199  51.318  1.00  0.00    -0.358 OA
HETATM   14  C11 UNL     1      23.366   4.416  51.755  1.00  0.00     0.082 C 
HETATM   15  C12 UNL     1      24.508   3.550  51.401  1.00  0.00    -0.037 C 
HETATM   16  C13 UNL     1      24.966   2.358  52.079  1.00  0.00    -0.029 A 
HETATM   17  C14 UNL     1      23.957   1.429  52.256  1.00  0.00     0.012 A 
HETATM   18  C15 UNL     1      24.225   0.228  52.915  1.00  0.00     0.001 A 
HETATM   19  C16 UNL     1      25.525  -0.027  53.395  1.00  0.00     0.000 A 
HETATM   20  C17 UNL     1      26.488   0.939  53.188  1.00  0.00     0.001 A 
HETATM   21  C18 UNL     1      26.245   2.142  52.533  1.00  0.00     0.012 A 
HETATM   22  C19 UNL     1      25.438   3.686  50.374  1.00  0.00    -0.033 C 
HETATM   23  C20 UNL     1      26.585   3.219  49.613  1.00  0.00     0.123 C 
HETATM   24  H6  UNL     1      21.978   8.458  48.961  1.00  0.00     0.156 HD
ENDROOT
TORSDOF 0
ENDMDL
MODEL 6
REMARK VINA RESULT:      -8.6      2.582      4.557
REMARK  0 active torsions:
REMARK  status: ('A' for Active; 'I' for Inactive)
ROOT
HETATM    1  O1  UNL     1      28.002   1.794  52.379  1.00  0.00    -0.293 OA
HETATM    2  C1  UNL     1      26.828   1.726  51.861  1.00  0.00     0.154 C 
HETATM    3  C2  UNL     1      26.478   2.791  50.938  1.00  0.00     0.063 C 
HETATM    4  C3  UNL     1      25.195   2.498  50.910  1.00  0.00    -0.017 C 
HETATM    5  C4  UNL     1      24.176   3.275  50.079  1.00  0.00    -0.019 C 
HETATM    6  C5  UNL     1      23.262   2.831  49.248  1.00  0.00     0.021 C 
HETATM    7  C6  UNL     1      22.728   3.709  50.417  1.00  0.00     0.084 A 
HETATM    8  C7  UNL     1      23.365   4.690  51.215  1.00  0.00     0.080 A 
HETATM    9  C8  UNL     1      24.409   5.839  50.726  1.00  0.00     0.031 A 
HETATM   10  C9  UNL     1      24.137   4.786  50.297  1.00  0.00     0.067 A 
HETATM   11  N1  UNL     1      23.798   5.443  48.814  1.00  0.00    -0.387 N 
HETATM   12  C10 UNL     1      22.336   5.075  48.555  1.00  0.00     0.287 C 
HETATM   13  O2  UNL     1      21.825   4.352  49.621  1.00  0.00    -0.358 OA
HETATM   14  C11 UNL     1      22.293   2.589  51.241  1.00  0.00     0.082 C 
HETATM   15  C12 UNL     1      23.155   1.574  51.877  1.00  0.00    -0.037 C 
HETATM   16  C13 UNL     1      22.772   0.533  52.805  1.00  0.00    -0.029 A 
HETATM   17  C14 UNL     1      21.734  -0.244  52.327  1.00  0.00     0.012 A 
HETATM   18  C15 UNL     1      21.225  -1.283  53.110  1.00  0.00     0.001 A 
HETATM   19  C16 UNL     1      21.777  -1.528  54.383  1.00  0.00     0.000 A 
HETATM   20  C17 UNL     1      22.811  -0.717  54.803  1.00  0.00     0.001 A 
HETATM   21  C18 UNL     1      23.335   0.322  54.040  1.00  0.00     0.012 A 
HETATM   22  C19 UNL     1      24.534   1.396  51.781  1.00  0.00    -0.033 C 
HETATM   23  C20 UNL     1      25.757   0.676  52.090  1.00  0.00     0.123 C 
HETATM   24  H6  UNL     1      24.041   5.992  47.859  1.00  0.00     0.156 HD
ENDROOT
TORSDOF 0
ENDMDL
MODEL 7
REMARK VINA RESULT:      -8.2      3.766      6.698
REMARK  0 active torsions:
REMARK  status: ('A' for Active; 'I' for Inactive)
ROOT
HETATM    1  O1  UNL     1      29.373   5.140  48.535  1.00  0.00    -0.293 OA
HETATM    2  C1  UNL     1      28.089   5.155  48.582  1.00  0.00     0.154 C 
HETATM    3  C2  UNL     1      27.455   6.416  48.238  1.00  0.00     0.063 C 
HETATM    4  C3  UNL     1      26.268   6.072  48.689  1.00  0.00    -0.017 C 
HETATM    5  C4  UNL     1      25.051   6.993  48.636  1.00  0.00    -0.019 C 
HETATM    6  C5  UNL     1      23.837   6.750  48.196  1.00  0.00     0.021 C 
HETATM    7  C6  UNL     1      23.927   7.232  49.675  1.00  0.00     0.084 A 
HETATM    8  C7  UNL     1      24.917   7.982  50.354  1.00  0.00     0.080 A 
HETATM    9  C8  UNL     1      25.730   9.279  49.801  1.00  0.00     0.031 A 
HETATM   10  C9  UNL     1      25.222   8.376  49.259  1.00  0.00     0.067 A 
HETATM   11  N1  UNL     1      24.327   9.405  48.317  1.00  0.00    -0.387 N 
HETATM   12  C10 UNL     1      22.873   9.043  48.627  1.00  0.00     0.287 C 
HETATM   13  O2  UNL     1      22.819   8.022  49.563  1.00  0.00    -0.358 OA
HETATM   14  C11 UNL     1      23.808   5.902  50.258  1.00  0.00     0.082 C 
HETATM   15  C12 UNL     1      24.782   4.799  50.147  1.00  0.00    -0.037 C 
HETATM   16  C13 UNL     1      24.761   3.520  50.820  1.00  0.00    -0.029 A 
HETATM   17  C14 UNL     1      23.563   2.851  50.646  1.00  0.00     0.012 A 
HETATM   18  C15 UNL     1      23.366   1.607  51.249  1.00  0.00     0.001 A 
HETATM   19  C16 UNL     1      24.394   1.045  52.033  1.00  0.00     0.000 A 
HETATM   20  C17 UNL     1      25.564   1.761  52.169  1.00  0.00     0.001 A 
HETATM   21  C18 UNL     1      25.783   3.001  51.576  1.00  0.00     0.012 A 
HETATM   22  C19 UNL     1      25.967   4.733  49.418  1.00  0.00    -0.033 C 
HETATM   23  C20 UNL     1      27.147   4.025  48.952  1.00  0.00     0.123 C 
HETATM   24  H6  UNL     1      24.174  10.213  47.545  1.00  0.00     0.156 HD
ENDROOT
TORSDOF 0
ENDMDL
MODEL 8
REMARK VINA RESULT:      -8.1      1.804      2.675
REMARK  0 active torsions:
REMARK  status: ('A' for Active; 'I' for Inactive)
ROOT
HETATM    1  O1  UNL     1      19.952  -0.128  52.357  1.00  0.00    -0.293 OA
HETATM    2  C1  UNL     1      20.872   0.762  52.246  1.00  0.00     0.154 C 
HETATM    3  C2  UNL     1      20.671   1.758  51.209  1.00  0.00     0.063 C 
HETATM    4  C3  UNL     1      21.901   2.225  51.261  1.00  0.00    -0.017 C 
HETATM    5  C4  UNL     1      22.404   3.362  50.375  1.00  0.00    -0.019 C 
HETATM    6  C5  UNL     1      23.054   4.454  50.705  1.00  0.00     0.021 C 
HETATM    7  C6  UNL     1      23.764   3.548  49.657  1.00  0.00     0.084 A 
HETATM    8  C7  UNL     1      23.250   2.588  48.753  1.00  0.00     0.080 A 
HETATM    9  C8  UNL     1      21.895   2.696  47.856  1.00  0.00     0.031 A 
HETATM   10  C9  UNL     1      22.211   3.183  48.871  1.00  0.00     0.067 A 
HETATM   11  N1  UNL     1      21.894   4.698  48.278  1.00  0.00    -0.387 N 
HETATM   12  C10 UNL     1      23.225   5.442  48.388  1.00  0.00     0.287 C 
HETATM   13  O2  UNL     1      24.199   4.612  48.921  1.00  0.00    -0.358 OA
HETATM   14  C11 UNL     1      24.665   2.916  50.611  1.00  0.00     0.082 C 
HETATM   15  C12 UNL     1      24.288   2.013  51.716  1.00  0.00    -0.037 C 
HETATM   16  C13 UNL     1      25.160   1.265  52.595  1.00  0.00    -0.029 A 
HETATM   17  C14 UNL     1      26.110   2.065  53.201  1.00  0.00     0.012 A 
HETATM   18  C15 UNL     1      27.049   1.498  54.065  1.00  0.00     0.001 A 
HETATM   19  C16 UNL     1      27.018   0.110  54.310  1.00  0.00     0.000 A 
HETATM   20  C17 UNL     1      26.046  -0.634  53.674  1.00  0.00     0.001 A 
HETATM   21  C18 UNL     1      25.100  -0.090  52.811  1.00  0.00     0.012 A 
HETATM   22  C19 UNL     1      23.022   1.626  52.152  1.00  0.00    -0.033 C 
HETATM   23  C20 UNL     1      22.144   0.908  53.060  1.00  0.00     0.123 C 
HETATM   24  H6  UNL     1      21.239   5.515  47.858  1.00  0.00     0.156 HD
ENDROOT
TORSDOF 0
ENDMDL
MODEL 9
REMARK VINA RESULT:      -7.8      3.373      6.557
REMARK  0 active torsions:
REMARK  status: ('A' for Active; 'I' for Inactive)
ROOT
HETATM    1  O1  UNL     1      18.191   5.085  50.034  1.00  0.00    -0.293 OA
HETATM    2  C1  UNL     1      18.890   4.255  50.722  1.00  0.00     0.154 C 
HETATM    3  C2  UNL     1      20.330   4.437  50.665  1.00  0.00     0.063 C 
HETATM    4  C3  UNL     1      20.612   3.276  51.218  1.00  0.00    -0.017 C 
HETATM    5  C4  UNL     1      22.038   2.794  51.473  1.00  0.00    -0.019 C 
HETATM    6  C5  UNL     1      22.571   2.302  52.569  1.00  0.00     0.021 C 
HETATM    7  C6  UNL     1      22.666   1.387  51.312  1.00  0.00     0.084 A 
HETATM    8  C7  UNL     1      22.632   1.692  49.931  1.00  0.00     0.080 A 
HETATM    9  C8  UNL     1      23.354   2.938  49.173  1.00  0.00     0.031 A 
HETATM   10  C9  UNL     1      22.978   2.793  50.270  1.00  0.00     0.067 A 
HETATM   11  N1  UNL     1      24.471   3.195  50.868  1.00  0.00    -0.387 N 
HETATM   12  C10 UNL     1      24.907   1.969  51.672  1.00  0.00     0.287 C 
HETATM   13  O2  UNL     1      23.935   0.982  51.611  1.00  0.00    -0.358 OA
HETATM   14  C11 UNL     1      21.536   0.541  51.674  1.00  0.00     0.082 C 
HETATM   15  C12 UNL     1      20.119   0.948  51.754  1.00  0.00    -0.037 C 
HETATM   16  C13 UNL     1      18.962   0.110  51.977  1.00  0.00    -0.029 A 
HETATM   17  C14 UNL     1      19.090  -0.677  53.106  1.00  0.00     0.012 A 
HETATM   18  C15 UNL     1      18.069  -1.564  53.456  1.00  0.00     0.001 A 
HETATM   19  C16 UNL     1      16.916  -1.648  52.650  1.00  0.00     0.000 A 
HETATM   20  C17 UNL     1      16.849  -0.837  51.536  1.00  0.00     0.001 A 
HETATM   21  C18 UNL     1      17.852   0.054  51.170  1.00  0.00     0.012 A 
HETATM   22  C19 UNL     1      19.548   2.208  51.592  1.00  0.00    -0.033 C 
HETATM   23  C20 UNL     1      18.407   3.106  51.587  1.00  0.00     0.123 C 
HETATM   24  H6  UNL     1      25.350   3.877  51.047  1.00  0.00     0.156 HD
ENDROOT
TORSDOF 0
ENDMDL
