MODEL 1
REMARK VINA RESULT:      -8.7      0.000      0.000
REMARK  5 active torsions:
REMARK  status: ('A' for Active; 'I' for Inactive)
REMARK    1  A    between atoms: O1_2  and  C2_3 
REMARK    2  A    between atoms: C5_8  and  C6_9 
REMARK    3  A    between atoms: C13_18  and  O2_19 
REMARK    4  A    between atoms: O2_19  and  C14_20 
REMARK    5  A    between atoms: C20_27  and  N4_28 
ROOT
HETATM    1  C2  UNL     1      20.978   0.696  52.094  1.00  0.00     0.115 A 
HETATM    2  C3  UNL     1      21.741   0.135  53.014  1.00  0.00     0.105 A 
HETATM    3  N1  UNL     1      21.387  -0.573  54.098  1.00  0.00    -0.239 NA
HETATM    4  C4  UNL     1      22.312  -1.067  54.939  1.00  0.00     0.234 A 
HETATM    5  N2  UNL     1      23.593  -0.812  54.629  1.00  0.00    -0.240 NA
HETATM    6  C5  UNL     1      23.999  -0.113  53.561  1.00  0.00     0.083 A 
HETATM    7  C12 UNL     1      23.056   0.396  52.697  1.00  0.00     0.057 A 
HETATM    8  C13 UNL     1      23.228   1.105  51.610  1.00  0.00     0.101 A 
HETATM    9  C20 UNL     1      21.866   1.371  51.099  1.00  0.00     0.333 A 
ENDROOT
BRANCH   6  10
HETATM   10  C6  UNL     1      25.446   0.015  53.480  1.00  0.00    -0.004 A 
HETATM   11  C7  UNL     1      26.119  -1.144  53.066  1.00  0.00     0.017 A 
HETATM   12  C8  UNL     1      27.486  -1.249  52.897  1.00  0.00     0.045 A 
HETATM   13  C9  UNL     1      28.266  -0.142  53.149  1.00  0.00     0.138 A 
HETATM   14  F1  UNL     1      29.609  -0.138  53.015  1.00  0.00    -0.204 F 
HETATM   15  C10 UNL     1      27.635   1.006  53.554  1.00  0.00     0.073 A 
HETATM   16 CL1  UNL     1      28.510   2.492  53.910  1.00  0.00    -0.081 Cl
HETATM   17  C11 UNL     1      26.276   1.086  53.714  1.00  0.00     0.041 A 
ENDBRANCH   6  10
BRANCH   8  18
HETATM   18  O2  UNL     1      24.405   1.531  51.032  1.00  0.00    -0.346 OA
BRANCH  18  19
HETATM   19  C14 UNL     1      24.698   2.880  50.776  1.00  0.00     0.132 C 
HETATM   20  C15 UNL     1      26.222   3.003  50.686  1.00  0.00     0.062 C 
HETATM   21  C16 UNL     1      26.530   4.131  49.685  1.00  0.00     0.274 C 
HETATM   22  N3  UNL     1      25.481   5.129  49.921  1.00  0.00     0.084 N 
HETATM   23  C17 UNL     1      25.933   6.464  49.587  1.00  0.00     0.309 C 
HETATM   24  C18 UNL     1      24.335   4.732  49.141  1.00  0.00     0.274 C 
HETATM   25  C19 UNL     1      24.089   3.263  49.439  1.00  0.00     0.062 C 
ENDBRANCH  18  19
ENDBRANCH   8  18
BRANCH   1  26
HETATM   26  O1  UNL     1      19.598   0.657  52.072  1.00  0.00    -0.355 OA
HETATM   27  C1  UNL     1      18.884   1.854  51.843  1.00  0.00     0.209 C 
ENDBRANCH   1  26
BRANCH   9  28
HETATM   28  N4  UNL     1      21.586   0.733  49.834  1.00  0.00     0.095 N 
HETATM   29  H21 UNL     1      20.560   0.538  49.801  1.00  0.00     0.314 HD
HETATM   30  H22 UNL     1      21.785   1.429  49.087  1.00  0.00     0.314 HD
ENDBRANCH   9  28
TORSDOF 5
ENDMDL
MODEL 2
REMARK VINA RESULT:      -8.6      3.301      5.503
REMARK  5 active torsions:
REMARK  status: ('A' for Active; 'I' for Inactive)
REMARK    1  A    between atoms: O1_2  and  C2_3 
REMARK    2  A    between atoms: C5_8  and  C6_9 
REMARK    3  A    between atoms: C13_18  and  O2_19 
REMARK    4  A    between atoms: O2_19  and  C14_20 
REMARK    5  A    between atoms: C20_27  and  N4_28 
ROOT
HETATM    1  C2  UNL     1      26.846   0.260  54.258  1.00  0.00     0.115 A 
HETATM    2  C3  UNL     1      25.627  -0.208  54.454  1.00  0.00     0.105 A 
HETATM    3  N1  UNL     1      25.184  -1.069  55.383  1.00  0.00    -0.239 NA
HETATM    4  C4  UNL     1      23.894  -1.443  55.427  1.00  0.00     0.234 A 
HETATM    5  N2  UNL     1      23.088  -0.907  54.496  1.00  0.00    -0.240 NA
HETATM    6  C5  UNL     1      23.479  -0.044  53.550  1.00  0.00     0.083 A 
HETATM    7  C12 UNL     1      24.800   0.342  53.500  1.00  0.00     0.057 A 
HETATM    8  C13 UNL     1      25.392   1.159  52.665  1.00  0.00     0.101 A 
HETATM    9  C20 UNL     1      26.808   1.188  53.088  1.00  0.00     0.333 A 
ENDROOT
BRANCH   6  10
HETATM   10  C6  UNL     1      22.396   0.366  52.669  1.00  0.00    -0.004 A 
HETATM   11  C7  UNL     1      21.248   0.836  53.324  1.00  0.00     0.017 A 
HETATM   12  C8  UNL     1      20.108   1.296  52.695  1.00  0.00     0.045 A 
HETATM   13  C9  UNL     1      20.076   1.304  51.318  1.00  0.00     0.138 A 
HETATM   14  F1  UNL     1      19.013   1.733  50.606  1.00  0.00    -0.204 F 
HETATM   15  C10 UNL     1      21.185   0.852  50.650  1.00  0.00     0.073 A 
HETATM   16 CL1  UNL     1      21.279   0.807  48.892  1.00  0.00    -0.081 Cl
HETATM   17  C11 UNL     1      22.305   0.399  51.298  1.00  0.00     0.041 A 
ENDBRANCH   6  10
BRANCH   8  18
HETATM   18  O2  UNL     1      24.850   1.859  51.609  1.00  0.00    -0.346 OA
BRANCH  18  19
HETATM   19  C14 UNL     1      24.769   3.260  51.568  1.00  0.00     0.132 C 
HETATM   20  C15 UNL     1      24.614   3.662  50.098  1.00  0.00     0.062 C 
HETATM   21  C16 UNL     1      23.766   4.946  50.064  1.00  0.00     0.274 C 
HETATM   22  N3  UNL     1      24.197   5.703  51.244  1.00  0.00     0.084 N 
HETATM   23  C17 UNL     1      24.030   7.129  51.051  1.00  0.00     0.309 C 
HETATM   24  C18 UNL     1      23.433   5.213  52.364  1.00  0.00     0.274 C 
HETATM   25  C19 UNL     1      23.534   3.698  52.336  1.00  0.00     0.062 C 
ENDBRANCH  18  19
ENDBRANCH   8  18
BRANCH   1  26
HETATM   26  O1  UNL     1      27.955  -0.067  55.015  1.00  0.00    -0.355 OA
HETATM   27  C1  UNL     1      29.139  -0.465  54.355  1.00  0.00     0.209 C 
ENDBRANCH   1  26
BRANCH   9  28
HETATM   28  N4  UNL     1      27.235   2.471  53.598  1.00  0.00     0.095 N 
HETATM   29  H21 UNL     1      26.411   3.112  53.565  1.00  0.00     0.314 HD
HETATM   30  H22 UNL     1      27.474   2.339  54.603  1.00  0.00     0.314 HD
ENDBRANCH   9  28
TORSDOF 5
ENDMDL
MODEL 3
REMARK VINA RESULT:      -8.3      2.085      5.569
REMARK  5 active torsions:
REMARK  status: ('A' for Active; 'I' for Inactive)
REMARK    1  A    between atoms: O1_2  and  C2_3 
REMARK    2  A    between atoms: C5_8  and  C6_9 
REMARK    3  A    between atoms: C13_18  and  O2_19 
REMARK    4  A    between atoms: O2_19  and  C14_20 
REMARK    5  A    between atoms: C20_27  and  N4_28 
ROOT
HETATM    1  C2  UNL     1      23.614   5.118  50.302  1.00  0.00     0.115 A 
HETATM    2  C3  UNL     1      24.829   4.650  50.079  1.00  0.00     0.105 A 
HETATM    3  N1  UNL     1      25.737   5.034  49.168  1.00  0.00    -0.239 NA
HETATM    4  C4  UNL     1      26.934   4.430  49.081  1.00  0.00     0.234 A 
HETATM    5  N2  UNL     1      27.161   3.433  49.952  1.00  0.00    -0.240 NA
HETATM    6  C5  UNL     1      26.292   3.013  50.880  1.00  0.00     0.083 A 
HETATM    7  C12 UNL     1      25.063   3.627  50.972  1.00  0.00     0.057 A 
HETATM    8  C13 UNL     1      24.072   3.376  51.790  1.00  0.00     0.101 A 
HETATM    9  C20 UNL     1      23.014   4.343  51.429  1.00  0.00     0.333 A 
ENDROOT
BRANCH   6  10
HETATM   10  C6  UNL     1      26.800   1.909  51.680  1.00  0.00    -0.004 A 
HETATM   11  C7  UNL     1      27.685   2.280  52.702  1.00  0.00     0.017 A 
HETATM   12  C8  UNL     1      28.275   1.408  53.597  1.00  0.00     0.045 A 
HETATM   13  C9  UNL     1      27.982   0.065  53.493  1.00  0.00     0.138 A 
HETATM   14  F1  UNL     1      28.503  -0.869  54.316  1.00  0.00    -0.204 F 
HETATM   15  C10 UNL     1      27.118  -0.327  52.504  1.00  0.00     0.073 A 
HETATM   16 CL1  UNL     1      26.658  -2.009  52.260  1.00  0.00    -0.081 Cl
HETATM   17  C11 UNL     1      26.545   0.559  51.628  1.00  0.00     0.041 A 
ENDBRANCH   6  10
BRANCH   8  18
HETATM   18  O2  UNL     1      23.992   2.426  52.786  1.00  0.00    -0.346 OA
BRANCH  18  19
HETATM   19  C14 UNL     1      22.831   1.685  53.060  1.00  0.00     0.132 C 
HETATM   20  C15 UNL     1      22.178   1.351  51.715  1.00  0.00     0.062 C 
HETATM   21  C16 UNL     1      21.473  -0.007  51.876  1.00  0.00     0.274 C 
HETATM   22  N3  UNL     1      20.940   0.014  53.242  1.00  0.00     0.084 N 
HETATM   23  C17 UNL     1      19.759  -0.814  53.365  1.00  0.00     0.309 C 
HETATM   24  C18 UNL     1      22.000  -0.418  54.118  1.00  0.00     0.274 C 
HETATM   25  C19 UNL     1      23.231   0.395  53.752  1.00  0.00     0.062 C 
ENDBRANCH  18  19
ENDBRANCH   8  18
BRANCH   1  26
HETATM   26  O1  UNL     1      23.018   6.148  49.601  1.00  0.00    -0.355 OA
HETATM   27  C1  UNL     1      23.380   7.480  49.904  1.00  0.00     0.209 C 
ENDBRANCH   1  26
BRANCH   9  28
HETATM   28  N4  UNL     1      22.738   5.314  52.462  1.00  0.00     0.095 N 
HETATM   29  H21 UNL     1      21.735   5.205  52.737  1.00  0.00     0.314 HD
HETATM   30  H22 UNL     1      23.308   5.051  53.293  1.00  0.00     0.314 HD
ENDBRANCH   9  28
TORSDOF 5
ENDMDL
MODEL 4
REMARK VINA RESULT:      -7.8      3.054      6.028
REMARK  5 active torsions:
REMARK  status: ('A' for Active; 'I' for Inactive)
REMARK    1  A    between atoms: O1_2  and  C2_3 
REMARK    2  A    between atoms: C5_8  and  C6_9 
REMARK    3  A    between atoms: C13_18  and  O2_19 
REMARK    4  A    between atoms: O2_19  and  C14_20 
REMARK    5  A    between atoms: C20_27  and  N4_28 
ROOT
HETATM    1  C2  UNL     1      24.887   4.858  50.487  1.00  0.00     0.115 A 
HETATM    2  C3  UNL     1      23.655   4.679  50.929  1.00  0.00     0.105 A 
HETATM    3  N1  UNL     1      22.620   5.532  50.936  1.00  0.00    -0.239 NA
HETATM    4  C4  UNL     1      21.426   5.174  51.440  1.00  0.00     0.234 A 
HETATM    5  N2  UNL     1      21.338   3.927  51.929  1.00  0.00    -0.240 NA
HETATM    6  C5  UNL     1      22.339   3.037  51.945  1.00  0.00     0.083 A 
HETATM    7  C12 UNL     1      23.564   3.399  51.431  1.00  0.00     0.057 A 
HETATM    8  C13 UNL     1      24.667   2.698  51.353  1.00  0.00     0.101 A 
HETATM    9  C20 UNL     1      25.654   3.596  50.716  1.00  0.00     0.333 A 
ENDROOT
BRANCH   6  10
HETATM   10  C6  UNL     1      21.962   1.766  52.543  1.00  0.00    -0.004 A 
HETATM   11  C7  UNL     1      20.746   1.235  52.087  1.00  0.00     0.017 A 
HETATM   12  C8  UNL     1      20.200   0.034  52.497  1.00  0.00     0.045 A 
HETATM   13  C9  UNL     1      20.889  -0.716  53.425  1.00  0.00     0.138 A 
HETATM   14  F1  UNL     1      20.445  -1.902  53.891  1.00  0.00    -0.204 F 
HETATM   15  C10 UNL     1      22.082  -0.224  53.888  1.00  0.00     0.073 A 
HETATM   16 CL1  UNL     1      23.063  -1.080  55.074  1.00  0.00    -0.081 Cl
HETATM   17  C11 UNL     1      22.603   0.972  53.465  1.00  0.00     0.041 A 
ENDBRANCH   6  10
BRANCH   8  18
HETATM   18  O2  UNL     1      24.900   1.403  51.764  1.00  0.00    -0.346 OA
BRANCH  18  19
HETATM   19  C14 UNL     1      26.131   0.962  52.276  1.00  0.00     0.132 C 
HETATM   20  C15 UNL     1      26.282   1.567  53.675  1.00  0.00     0.062 C 
HETATM   21  C16 UNL     1      27.090   0.565  54.519  1.00  0.00     0.274 C 
HETATM   22  N3  UNL     1      28.073   0.004  53.585  1.00  0.00     0.084 N 
HETATM   23  C17 UNL     1      29.274  -0.424  54.271  1.00  0.00     0.309 C 
HETATM   24  C18 UNL     1      27.427  -1.082  52.891  1.00  0.00     0.274 C 
HETATM   25  C19 UNL     1      26.094  -0.552  52.390  1.00  0.00     0.062 C 
ENDBRANCH  18  19
ENDBRANCH   8  18
BRANCH   1  26
HETATM   26  O1  UNL     1      25.365   6.021  49.917  1.00  0.00    -0.355 OA
HETATM   27  C1  UNL     1      24.996   6.332  48.589  1.00  0.00     0.209 C 
ENDBRANCH   1  26
BRANCH   9  28
HETATM   28  N4  UNL     1      26.075   3.158  49.405  1.00  0.00     0.095 N 
HETATM   29  H21 UNL     1      26.691   3.903  49.007  1.00  0.00     0.314 HD
HETATM   30  H22 UNL     1      26.671   2.314  49.540  1.00  0.00     0.314 HD
ENDBRANCH   9  28
TORSDOF 5
ENDMDL
MODEL 5
REMARK VINA RESULT:      -7.4      3.573      6.546
REMARK  5 active torsions:
REMARK  status: ('A' for Active; 'I' for Inactive)
REMARK    1  A    between atoms: O1_2  and  C2_3 
REMARK    2  A    between atoms: C5_8  and  C6_9 
REMARK    3  A    between atoms: C13_18  and  O2_19 
REMARK    4  A    between atoms: O2_19  and  C14_20 
REMARK    5  A    between atoms: C20_27  and  N4_28 
ROOT
HETATM    1  C2  UNL     1      25.116   6.951  49.589  1.00  0.00     0.115 A 
HETATM    2  C3  UNL     1      25.609   5.726  49.599  1.00  0.00     0.105 A 
HETATM    3  N1  UNL     1      26.723   5.251  49.021  1.00  0.00    -0.239 NA
HETATM    4  C4  UNL     1      27.068   3.957  49.134  1.00  0.00     0.234 A 
HETATM    5  N2  UNL     1      26.239   3.181  49.851  1.00  0.00    -0.240 NA
HETATM    6  C5  UNL     1      25.117   3.605  50.448  1.00  0.00     0.083 A 
HETATM    7  C12 UNL     1      24.759   4.930  50.335  1.00  0.00     0.057 A 
HETATM    8  C13 UNL     1      23.714   5.548  50.826  1.00  0.00     0.101 A 
HETATM    9  C20 UNL     1      23.850   6.952  50.382  1.00  0.00     0.333 A 
ENDROOT
BRANCH   6  10
HETATM   10  C6  UNL     1      24.409   2.546  51.150  1.00  0.00    -0.004 A 
HETATM   11  C7  UNL     1      24.962   2.184  52.387  1.00  0.00     0.017 A 
HETATM   12  C8  UNL     1      24.450   1.222  53.235  1.00  0.00     0.045 A 
HETATM   13  C9  UNL     1      23.307   0.554  52.853  1.00  0.00     0.138 A 
HETATM   14  F1  UNL     1      22.725  -0.403  53.607  1.00  0.00    -0.204 F 
HETATM   15  C10 UNL     1      22.742   0.887  51.649  1.00  0.00     0.073 A 
HETATM   16 CL1  UNL     1      21.282   0.113  51.041  1.00  0.00    -0.081 Cl
HETATM   17  C11 UNL     1      23.270   1.847  50.825  1.00  0.00     0.041 A 
ENDBRANCH   6  10
BRANCH   8  18
HETATM   18  O2  UNL     1      22.689   5.039  51.593  1.00  0.00    -0.346 OA
BRANCH  18  19
HETATM   19  C14 UNL     1      21.351   4.999  51.171  1.00  0.00     0.132 C 
HETATM   20  C15 UNL     1      21.358   4.684  49.672  1.00  0.00     0.062 C 
HETATM   21  C16 UNL     1      20.081   3.879  49.370  1.00  0.00     0.274 C 
HETATM   22  N3  UNL     1      19.058   4.470  50.240  1.00  0.00     0.084 N 
HETATM   23  C17 UNL     1      17.733   4.326  49.675  1.00  0.00     0.309 C 
HETATM   24  C18 UNL     1      19.174   3.829  51.526  1.00  0.00     0.274 C 
HETATM   25  C19 UNL     1      20.643   3.878  51.911  1.00  0.00     0.062 C 
ENDBRANCH  18  19
ENDBRANCH   8  18
BRANCH   1  26
HETATM   26  O1  UNL     1      25.687   8.033  48.947  1.00  0.00    -0.355 OA
HETATM   27  C1  UNL     1      25.302   8.319  47.618  1.00  0.00     0.209 C 
ENDBRANCH   1  26
BRANCH   9  28
HETATM   28  N4  UNL     1      24.072   7.884  51.464  1.00  0.00     0.095 N 
HETATM   29  H21 UNL     1      24.129   7.331  52.349  1.00  0.00     0.314 HD
HETATM   30  H22 UNL     1      25.010   8.311  51.315  1.00  0.00     0.314 HD
ENDBRANCH   9  28
TORSDOF 5
ENDMDL
MODEL 6
REMARK VINA RESULT:      -7.2      3.113      4.889
REMARK  5 active torsions:
REMARK  status: ('A' for Active; 'I' for Inactive)
REMARK    1  A    between atoms: O1_2  and  C2_3 
REMARK    2  A    between atoms: C5_8  and  C6_9 
REMARK    3  A    between atoms: C13_18  and  O2_19 
REMARK    4  A    between atoms: O2_19  and  C14_20 
REMARK    5  A    between atoms: C20_27  and  N4_28 
ROOT
HETATM    1  C2  UNL     1      23.253   0.033  53.017  1.00  0.00     0.115 A 
HETATM    2  C3  UNL     1      24.468   0.441  52.701  1.00  0.00     0.105 A 
HETATM    3  N1  UNL     1      25.656  -0.107  53.000  1.00  0.00    -0.239 NA
HETATM    4  C4  UNL     1      26.806   0.459  52.595  1.00  0.00     0.234 A 
HETATM    5  N2  UNL     1      26.691   1.592  51.883  1.00  0.00    -0.240 NA
HETATM    6  C5  UNL     1      25.532   2.179  51.557  1.00  0.00     0.083 A 
HETATM    7  C12 UNL     1      24.352   1.603  51.970  1.00  0.00     0.057 A 
HETATM    8  C13 UNL     1      23.122   2.006  51.771  1.00  0.00     0.101 A 
HETATM    9  C20 UNL     1      22.270   1.001  52.444  1.00  0.00     0.333 A 
ENDROOT
BRANCH   6  10
HETATM   10  C6  UNL     1      25.708   3.401  50.788  1.00  0.00    -0.004 A 
HETATM   11  C7  UNL     1      26.664   3.322  49.764  1.00  0.00     0.017 A 
HETATM   12  C8  UNL     1      26.983   4.348  48.896  1.00  0.00     0.045 A 
HETATM   13  C9  UNL     1      26.322   5.549  49.029  1.00  0.00     0.138 A 
HETATM   14  F1  UNL     1      26.557   6.614  48.234  1.00  0.00    -0.204 F 
HETATM   15  C10 UNL     1      25.381   5.656  50.020  1.00  0.00     0.073 A 
HETATM   16 CL1  UNL     1      24.463   7.132  50.300  1.00  0.00    -0.081 Cl
HETATM   17  C11 UNL     1      25.082   4.622  50.870  1.00  0.00     0.041 A 
ENDBRANCH   6  10
BRANCH   8  18
HETATM   18  O2  UNL     1      22.675   3.118  51.091  1.00  0.00    -0.346 OA
BRANCH  18  19
HETATM   19  C14 UNL     1      21.859   3.052  49.950  1.00  0.00     0.132 C 
HETATM   20  C15 UNL     1      21.200   4.425  49.784  1.00  0.00     0.062 C 
HETATM   21  C16 UNL     1      21.001   4.655  48.276  1.00  0.00     0.274 C 
HETATM   22  N3  UNL     1      20.652   3.333  47.744  1.00  0.00     0.084 N 
HETATM   23  C17 UNL     1      19.828   3.438  46.558  1.00  0.00     0.309 C 
HETATM   24  C18 UNL     1      21.889   2.639  47.487  1.00  0.00     0.274 C 
HETATM   25  C19 UNL     1      22.736   2.772  48.742  1.00  0.00     0.062 C 
ENDBRANCH  18  19
ENDBRANCH   8  18
BRANCH   1  26
HETATM   26  O1  UNL     1      22.960  -1.099  53.753  1.00  0.00    -0.355 OA
HETATM   27  C1  UNL     1      22.126  -0.978  54.887  1.00  0.00     0.209 C 
ENDBRANCH   1  26
BRANCH   9  28
HETATM   28  N4  UNL     1      21.453   0.232  51.534  1.00  0.00     0.095 N 
HETATM   29  H21 UNL     1      21.721  -0.772  51.643  1.00  0.00     0.314 HD
HETATM   30  H22 UNL     1      20.467   0.317  51.858  1.00  0.00     0.314 HD
ENDBRANCH   9  28
TORSDOF 5
ENDMDL
MODEL 7
REMARK VINA RESULT:      -7.1      3.315      5.068
REMARK  5 active torsions:
REMARK  status: ('A' for Active; 'I' for Inactive)
REMARK    1  A    between atoms: O1_2  and  C2_3 
REMARK    2  A    between atoms: C5_8  and  C6_9 
REMARK    3  A    between atoms: C13_18  and  O2_19 
REMARK    4  A    between atoms: O2_19  and  C14_20 
REMARK    5  A    between atoms: C20_27  and  N4_28 
ROOT
HETATM    1  C2  UNL     1      22.151   1.167  50.879  1.00  0.00     0.115 A 
HETATM    2  C3  UNL     1      23.332   1.576  51.306  1.00  0.00     0.105 A 
HETATM    3  N1  UNL     1      24.062   1.136  52.343  1.00  0.00    -0.239 NA
HETATM    4  C4  UNL     1      25.254   1.683  52.636  1.00  0.00     0.234 A 
HETATM    5  N2  UNL     1      25.662   2.683  51.838  1.00  0.00    -0.240 NA
HETATM    6  C5  UNL     1      24.973   3.158  50.792  1.00  0.00     0.083 A 
HETATM    7  C12 UNL     1      23.751   2.601  50.487  1.00  0.00     0.057 A 
HETATM    8  C13 UNL     1      22.918   2.912  49.526  1.00  0.00     0.101 A 
HETATM    9  C20 UNL     1      21.775   1.988  49.688  1.00  0.00     0.333 A 
ENDROOT
BRANCH   6  10
HETATM   10  C6  UNL     1      25.651   4.250  50.111  1.00  0.00    -0.004 A 
HETATM   11  C7  UNL     1      26.781   3.873  49.370  1.00  0.00     0.017 A 
HETATM   12  C8  UNL     1      27.566   4.734  48.628  1.00  0.00     0.045 A 
HETATM   13  C9  UNL     1      27.230   6.069  48.600  1.00  0.00     0.138 A 
HETATM   14  F1  UNL     1      27.929   6.993  47.908  1.00  0.00    -0.204 F 
HETATM   15  C10 UNL     1      26.130   6.467  49.314  1.00  0.00     0.073 A 
HETATM   16 CL1  UNL     1      25.589   8.142  49.366  1.00  0.00    -0.081 Cl
HETATM   17  C11 UNL     1      25.365   5.593  50.044  1.00  0.00     0.041 A 
ENDBRANCH   6  10
BRANCH   8  18
HETATM   18  O2  UNL     1      23.042   3.881  48.554  1.00  0.00    -0.346 OA
BRANCH  18  19
HETATM   19  C14 UNL     1      22.095   4.897  48.347  1.00  0.00     0.132 C 
HETATM   20  C15 UNL     1      21.874   5.592  49.694  1.00  0.00     0.062 C 
HETATM   21  C16 UNL     1      21.548   7.066  49.398  1.00  0.00     0.274 C 
HETATM   22  N3  UNL     1      20.739   7.026  48.175  1.00  0.00     0.084 N 
HETATM   23  C17 UNL     1      19.831   8.151  48.101  1.00  0.00     0.309 C 
HETATM   24  C18 UNL     1      21.654   6.992  47.062  1.00  0.00     0.274 C 
HETATM   25  C19 UNL     1      22.666   5.898  47.359  1.00  0.00     0.062 C 
ENDBRANCH  18  19
ENDBRANCH   8  18
BRANCH   1  26
HETATM   26  O1  UNL     1      21.406   0.154  51.450  1.00  0.00    -0.355 OA
HETATM   27  C1  UNL     1      20.334   0.495  52.305  1.00  0.00     0.209 C 
ENDBRANCH   1  26
BRANCH   9  28
HETATM   28  N4  UNL     1      21.630   1.048  48.601  1.00  0.00     0.095 N 
HETATM   29  H21 UNL     1      20.608   0.946  48.408  1.00  0.00     0.314 HD
HETATM   30  H22 UNL     1      22.054   1.485  47.757  1.00  0.00     0.314 HD
ENDBRANCH   9  28
TORSDOF 5
ENDMDL
MODEL 8
REMARK VINA RESULT:      -7.0      2.382      3.516
REMARK  5 active torsions:
REMARK  status: ('A' for Active; 'I' for Inactive)
REMARK    1  A    between atoms: O1_2  and  C2_3 
REMARK    2  A    between atoms: C5_8  and  C6_9 
REMARK    3  A    between atoms: C13_18  and  O2_19 
REMARK    4  A    between atoms: O2_19  and  C14_20 
REMARK    5  A    between atoms: C20_27  and  N4_28 
ROOT
HETATM    1  C2  UNL     1      20.560   2.683  48.453  1.00  0.00     0.115 A 
HETATM    2  C3  UNL     1      20.719   2.006  49.576  1.00  0.00     0.105 A 
HETATM    3  N1  UNL     1      19.839   1.245  50.245  1.00  0.00    -0.239 NA
HETATM    4  C4  UNL     1      20.179   0.629  51.390  1.00  0.00     0.234 A 
HETATM    5  N2  UNL     1      21.438   0.821  51.816  1.00  0.00    -0.240 NA
HETATM    6  C5  UNL     1      22.355   1.568  51.186  1.00  0.00     0.083 A 
HETATM    7  C12 UNL     1      22.011   2.202  50.014  1.00  0.00     0.057 A 
HETATM    8  C13 UNL     1      22.738   2.976  49.248  1.00  0.00     0.101 A 
HETATM    9  C20 UNL     1      21.848   3.369  48.134  1.00  0.00     0.333 A 
ENDROOT
BRANCH   6  10
HETATM   10  C6  UNL     1      23.633   1.606  51.879  1.00  0.00    -0.004 A 
HETATM   11  C7  UNL     1      23.798   2.689  52.755  1.00  0.00     0.017 A 
HETATM   12  C8  UNL     1      24.917   2.918  53.532  1.00  0.00     0.045 A 
HETATM   13  C9  UNL     1      25.963   2.024  53.455  1.00  0.00     0.138 A 
HETATM   14  F1  UNL     1      27.100   2.154  54.171  1.00  0.00    -0.204 F 
HETATM   15  C10 UNL     1      25.830   0.954  52.608  1.00  0.00     0.073 A 
HETATM   16 CL1  UNL     1      27.088  -0.262  52.414  1.00  0.00    -0.081 Cl
HETATM   17  C11 UNL     1      24.708   0.749  51.847  1.00  0.00     0.041 A 
ENDBRANCH   6  10
BRANCH   8  18
HETATM   18  O2  UNL     1      24.050   3.365  49.408  1.00  0.00    -0.346 OA
BRANCH  18  19
HETATM   19  C14 UNL     1      24.507   4.671  49.168  1.00  0.00     0.132 C 
HETATM   20  C15 UNL     1      23.979   5.552  50.304  1.00  0.00     0.062 C 
HETATM   21  C16 UNL     1      25.018   6.662  50.539  1.00  0.00     0.274 C 
HETATM   22  N3  UNL     1      25.517   6.990  49.199  1.00  0.00     0.084 N 
HETATM   23  C17 UNL     1      25.971   8.363  49.122  1.00  0.00     0.309 C 
HETATM   24  C18 UNL     1      26.570   6.052  48.898  1.00  0.00     0.274 C 
HETATM   25  C19 UNL     1      26.025   4.667  49.206  1.00  0.00     0.062 C 
ENDBRANCH  18  19
ENDBRANCH   8  18
BRANCH   1  26
HETATM   26  O1  UNL     1      19.393   2.737  47.716  1.00  0.00    -0.355 OA
HETATM   27  C1  UNL     1      18.767   3.988  47.520  1.00  0.00     0.209 C 
ENDBRANCH   1  26
BRANCH   9  28
HETATM   28  N4  UNL     1      22.257   2.846  46.852  1.00  0.00     0.095 N 
HETATM   29  H21 UNL     1      21.561   2.119  46.571  1.00  0.00     0.314 HD
HETATM   30  H22 UNL     1      22.177   3.622  46.162  1.00  0.00     0.314 HD
ENDBRANCH   9  28
TORSDOF 5
ENDMDL
MODEL 9
REMARK VINA RESULT:      -6.9      3.187      6.212
REMARK  5 active torsions:
REMARK  status: ('A' for Active; 'I' for Inactive)
REMARK    1  A    between atoms: O1_2  and  C2_3 
REMARK    2  A    between atoms: C5_8  and  C6_9 
REMARK    3  A    between atoms: C13_18  and  O2_19 
REMARK    4  A    between atoms: O2_19  and  C14_20 
REMARK    5  A    between atoms: C20_27  and  N4_28 
ROOT
HETATM    1  C2  UNL     1      24.700  -0.092  53.824  1.00  0.00     0.115 A 
HETATM    2  C3  UNL     1      25.420   0.752  53.108  1.00  0.00     0.105 A 
HETATM    3  N1  UNL     1      26.753   0.848  52.989  1.00  0.00    -0.239 NA
HETATM    4  C4  UNL     1      27.317   1.787  52.209  1.00  0.00     0.234 A 
HETATM    5  N2  UNL     1      26.473   2.609  51.566  1.00  0.00    -0.240 NA
HETATM    6  C5  UNL     1      25.137   2.555  51.648  1.00  0.00     0.083 A 
HETATM    7  C12 UNL     1      24.555   1.596  52.446  1.00  0.00     0.057 A 
HETATM    8  C13 UNL     1      23.285   1.371  52.675  1.00  0.00     0.101 A 
HETATM    9  C20 UNL     1      23.256   0.225  53.610  1.00  0.00     0.333 A 
ENDROOT
BRANCH   6  10
HETATM   10  C6  UNL     1      24.475   3.575  50.851  1.00  0.00    -0.004 A 
HETATM   11  C7  UNL     1      24.187   3.199  49.531  1.00  0.00     0.017 A 
HETATM   12  C8  UNL     1      23.545   3.993  48.601  1.00  0.00     0.045 A 
HETATM   13  C9  UNL     1      23.149   5.257  48.980  1.00  0.00     0.138 A 
HETATM   14  F1  UNL     1      22.516   6.113  48.150  1.00  0.00    -0.204 F 
HETATM   15  C10 UNL     1      23.415   5.653  50.265  1.00  0.00     0.073 A 
HETATM   16 CL1  UNL     1      22.964   7.240  50.880  1.00  0.00    -0.081 Cl
HETATM   17  C11 UNL     1      24.054   4.845  51.171  1.00  0.00     0.041 A 
ENDBRANCH   6  10
BRANCH   8  18
HETATM   18  O2  UNL     1      22.185   2.033  52.175  1.00  0.00    -0.346 OA
BRANCH  18  19
HETATM   19  C14 UNL     1      21.074   1.380  51.617  1.00  0.00     0.132 C 
HETATM   20  C15 UNL     1      19.886   1.628  52.550  1.00  0.00     0.062 C 
HETATM   21  C16 UNL     1      18.620   1.666  51.676  1.00  0.00     0.274 C 
HETATM   22  N3  UNL     1      18.856   0.653  50.642  1.00  0.00     0.084 N 
HETATM   23  C17 UNL     1      17.613   0.092  50.154  1.00  0.00     0.309 C 
HETATM   24  C18 UNL     1      19.615   1.286  49.593  1.00  0.00     0.274 C 
HETATM   25  C19 UNL     1      20.779   1.997  50.261  1.00  0.00     0.062 C 
ENDBRANCH  18  19
ENDBRANCH   8  18
BRANCH   1  26
HETATM   26  O1  UNL     1      25.213  -1.090  54.630  1.00  0.00    -0.355 OA
HETATM   27  C1  UNL     1      24.786  -1.169  55.974  1.00  0.00     0.209 C 
ENDBRANCH   1  26
BRANCH   9  28
HETATM   28  N4  UNL     1      22.677  -0.971  53.043  1.00  0.00     0.095 N 
HETATM   29  H21 UNL     1      22.804  -1.742  53.737  1.00  0.00     0.314 HD
HETATM   30  H22 UNL     1      21.652  -0.807  52.959  1.00  0.00     0.314 HD
ENDBRANCH   9  28
TORSDOF 5
ENDMDL
