MODEL 1
REMARK VINA RESULT:      -7.9      0.000      0.000
REMARK  0 active torsions:
REMARK  status: ('A' for Active; 'I' for Inactive)
ROOT
HETATM    1  C1  UNL     1      20.304   3.415  52.235  1.00  0.00     0.000 C 
HETATM    2  O1  UNL     1      20.976   2.391  51.545  1.00  0.00     0.000 OA
HETATM    3  C2  UNL     1      22.274   2.519  51.023  1.00  0.00    -0.025 A 
HETATM    4  C3  UNL     1      22.253   1.402  51.701  1.00  0.00     0.145 A 
HETATM    5  N1  UNL     1      22.947   0.254  52.151  1.00  0.00    -0.354 N 
HETATM    6  C4  UNL     1      23.860  -0.029  53.251  1.00  0.00     0.198 C 
HETATM    7 CL1  UNL     1      23.176  -0.970  54.560  1.00  0.00    -0.043 Cl
HETATM    8  N2  UNL     1      24.873   0.552  52.817  1.00  0.00    -0.220 NA
HETATM    9  C5  UNL     1      26.169   0.719  53.328  1.00  0.00     0.068 A 
HETATM   10  C6  UNL     1      26.610   0.060  54.456  1.00  0.00     0.032 A 
HETATM   11  C7  UNL     1      27.892   0.273  54.915  1.00  0.00     0.002 A 
HETATM   12  C8  UNL     1      28.713   1.141  54.238  1.00  0.00     0.001 A 
HETATM   13  C9  UNL     1      28.312   1.817  53.110  1.00  0.00     0.011 A 
HETATM   14  C10 UNL     1      27.033   1.615  52.639  1.00  0.00    -0.010 A 
HETATM   15  C11 UNL     1      26.356   2.212  51.441  1.00  0.00     0.187 C 
HETATM   16  N3  UNL     1      26.873   3.430  50.955  1.00  0.00    -0.298 N 
HETATM   17  O2  UNL     1      26.078   4.076  50.085  1.00  0.00    -0.281 OA
HETATM   18  C12 UNL     1      25.063   3.343  49.559  1.00  0.00     0.228 C 
HETATM   19  C13 UNL     1      23.718   4.043  49.609  1.00  0.00     0.002 C 
HETATM   20  C14 UNL     1      22.632   3.665  50.212  1.00  0.00     0.008 C 
HETATM   21  H5  UNL     1      22.906  -0.722  51.713  1.00  0.00     0.162 HD
HETATM   22  H12 UNL     1      27.364   4.023  51.628  1.00  0.00     0.187 HD
ENDROOT
TORSDOF 0
ENDMDL
MODEL 2
REMARK VINA RESULT:      -7.7      2.375      5.619
REMARK  0 active torsions:
REMARK  status: ('A' for Active; 'I' for Inactive)
ROOT
HETATM    1  C1  UNL     1      27.160  -2.214  52.700  1.00  0.00     0.000 C 
HETATM    2  O1  UNL     1      26.539  -1.191  53.437  1.00  0.00     0.000 OA
HETATM    3  C2  UNL     1      26.038  -0.008  52.867  1.00  0.00    -0.025 A 
HETATM    4  C3  UNL     1      25.091  -0.487  53.630  1.00  0.00     0.145 A 
HETATM    5  N1  UNL     1      23.780  -0.354  54.147  1.00  0.00    -0.354 N 
HETATM    6  C4  UNL     1      22.445  -0.669  53.656  1.00  0.00     0.198 C 
HETATM    7 CL1  UNL     1      21.688  -2.060  54.406  1.00  0.00    -0.043 Cl
HETATM    8  N2  UNL     1      22.326   0.241  52.815  1.00  0.00    -0.220 NA
HETATM    9  C5  UNL     1      21.297   0.593  51.929  1.00  0.00     0.068 A 
HETATM   10  C6  UNL     1      20.053  -0.001  51.967  1.00  0.00     0.032 A 
HETATM   11  C7  UNL     1      19.085   0.382  51.064  1.00  0.00     0.002 A 
HETATM   12  C8  UNL     1      19.375   1.353  50.138  1.00  0.00     0.001 A 
HETATM   13  C9  UNL     1      20.602   1.970  50.067  1.00  0.00     0.011 A 
HETATM   14  C10 UNL     1      21.581   1.598  50.963  1.00  0.00    -0.010 A 
HETATM   15  C11 UNL     1      22.983   2.111  51.107  1.00  0.00     0.187 C 
HETATM   16  N3  UNL     1      23.558   2.725  49.975  1.00  0.00    -0.298 N 
HETATM   17  O2  UNL     1      24.889   2.902  50.042  1.00  0.00    -0.281 OA
HETATM   18  C12 UNL     1      25.439   2.768  51.276  1.00  0.00     0.228 C 
HETATM   19  C13 UNL     1      26.667   1.878  51.302  1.00  0.00     0.002 C 
HETATM   20  C14 UNL     1      26.853   0.774  51.961  1.00  0.00     0.008 C 
HETATM   21  H5  UNL     1      23.516   0.040  55.107  1.00  0.00     0.162 HD
HETATM   22  H12 UNL     1      23.197   2.438  49.061  1.00  0.00     0.187 HD
ENDROOT
TORSDOF 0
ENDMDL
MODEL 3
REMARK VINA RESULT:      -7.7      2.194      3.109
REMARK  0 active torsions:
REMARK  status: ('A' for Active; 'I' for Inactive)
ROOT
HETATM    1  C1  UNL     1      22.080   5.496  49.906  1.00  0.00     0.000 C 
HETATM    2  O1  UNL     1      22.426   4.224  49.421  1.00  0.00     0.000 OA
HETATM    3  C2  UNL     1      23.588   3.530  49.800  1.00  0.00    -0.025 A 
HETATM    4  C3  UNL     1      22.593   2.691  49.926  1.00  0.00     0.145 A 
HETATM    5  N1  UNL     1      22.150   1.392  50.273  1.00  0.00    -0.354 N 
HETATM    6  C4  UNL     1      21.832   0.715  51.523  1.00  0.00     0.198 C 
HETATM    7 CL1  UNL     1      20.125   0.454  51.812  1.00  0.00    -0.043 Cl
HETATM    8  N2  UNL     1      22.989   0.560  51.960  1.00  0.00    -0.220 NA
HETATM    9  C5  UNL     1      23.495  -0.022  53.132  1.00  0.00     0.068 A 
HETATM   10  C6  UNL     1      22.700  -0.726  54.011  1.00  0.00     0.032 A 
HETATM   11  C7  UNL     1      23.255  -1.267  55.151  1.00  0.00     0.002 A 
HETATM   12  C8  UNL     1      24.596  -1.097  55.393  1.00  0.00     0.001 A 
HETATM   13  C9  UNL     1      25.423  -0.403  54.541  1.00  0.00     0.011 A 
HETATM   14  C10 UNL     1      24.883   0.145  53.397  1.00  0.00    -0.010 A 
HETATM   15  C11 UNL     1      25.555   0.931  52.311  1.00  0.00     0.187 C 
HETATM   16  N3  UNL     1      26.764   1.576  52.643  1.00  0.00    -0.298 N 
HETATM   17  O2  UNL     1      27.177   2.496  51.754  1.00  0.00    -0.281 OA
HETATM   18  C12 UNL     1      26.570   2.456  50.540  1.00  0.00     0.228 C 
HETATM   19  C13 UNL     1      26.090   3.810  50.055  1.00  0.00     0.002 C 
HETATM   20  C14 UNL     1      24.879   4.185  49.772  1.00  0.00     0.008 C 
HETATM   21  H5  UNL     1      21.939   0.594  49.592  1.00  0.00     0.162 HD
HETATM   22  H12 UNL     1      26.900   1.821  53.627  1.00  0.00     0.187 HD
ENDROOT
TORSDOF 0
ENDMDL
MODEL 4
REMARK VINA RESULT:      -7.6      3.138      4.791
REMARK  0 active torsions:
REMARK  status: ('A' for Active; 'I' for Inactive)
ROOT
HETATM    1  C1  UNL     1      18.811  -0.082  51.621  1.00  0.00     0.000 C 
HETATM    2  O1  UNL     1      19.455   0.785  52.520  1.00  0.00     0.000 OA
HETATM    3  C2  UNL     1      20.812   0.682  52.872  1.00  0.00    -0.025 A 
HETATM    4  C3  UNL     1      20.602   1.932  52.553  1.00  0.00     0.145 A 
HETATM    5  N1  UNL     1      21.123   3.239  52.399  1.00  0.00    -0.354 N 
HETATM    6  C4  UNL     1      21.870   3.932  51.357  1.00  0.00     0.198 C 
HETATM    7 CL1  UNL     1      20.949   5.106  50.441  1.00  0.00    -0.043 Cl
HETATM    8  N2  UNL     1      22.978   3.387  51.516  1.00  0.00    -0.220 NA
HETATM    9  C5  UNL     1      24.216   3.535  50.872  1.00  0.00     0.068 A 
HETATM   10  C6  UNL     1      24.455   4.534  49.951  1.00  0.00     0.032 A 
HETATM   11  C7  UNL     1      25.690   4.622  49.345  1.00  0.00     0.002 A 
HETATM   12  C8  UNL     1      26.665   3.712  49.668  1.00  0.00     0.001 A 
HETATM   13  C9  UNL     1      26.466   2.702  50.580  1.00  0.00     0.011 A 
HETATM   14  C10 UNL     1      25.237   2.600  51.195  1.00  0.00    -0.010 A 
HETATM   15  C11 UNL     1      24.767   1.611  52.220  1.00  0.00     0.187 C 
HETATM   16  N3  UNL     1      25.454   0.382  52.285  1.00  0.00    -0.298 N 
HETATM   17  O2  UNL     1      24.833  -0.577  52.993  1.00  0.00    -0.281 OA
HETATM   18  C12 UNL     1      23.820  -0.156  53.793  1.00  0.00     0.228 C 
HETATM   19  C13 UNL     1      22.553  -0.979  53.654  1.00  0.00     0.002 C 
HETATM   20  C14 UNL     1      21.372  -0.589  53.281  1.00  0.00     0.008 C 
HETATM   21  H5  UNL     1      21.039   4.040  53.104  1.00  0.00     0.162 HD
HETATM   22  H12 UNL     1      25.919   0.068  51.429  1.00  0.00     0.187 HD
ENDROOT
TORSDOF 0
ENDMDL
MODEL 5
REMARK VINA RESULT:      -7.5      3.480      5.082
REMARK  0 active torsions:
REMARK  status: ('A' for Active; 'I' for Inactive)
ROOT
HETATM    1  C1  UNL     1      18.687   3.025  51.162  1.00  0.00     0.000 C 
HETATM    2  O1  UNL     1      19.596   3.606  52.063  1.00  0.00     0.000 OA
HETATM    3  C2  UNL     1      20.871   3.083  52.337  1.00  0.00    -0.025 A 
HETATM    4  C3  UNL     1      21.034   4.356  52.086  1.00  0.00     0.145 A 
HETATM    5  N1  UNL     1      21.917   5.455  51.964  1.00  0.00    -0.354 N 
HETATM    6  C4  UNL     1      22.797   5.955  50.915  1.00  0.00     0.198 C 
HETATM    7 CL1  UNL     1      22.237   7.403  50.104  1.00  0.00    -0.043 Cl
HETATM    8  N2  UNL     1      23.696   5.096  50.990  1.00  0.00    -0.220 NA
HETATM    9  C5  UNL     1      24.896   4.908  50.288  1.00  0.00     0.068 A 
HETATM   10  C6  UNL     1      25.389   5.843  49.402  1.00  0.00     0.032 A 
HETATM   11  C7  UNL     1      26.570   5.596  48.735  1.00  0.00     0.002 A 
HETATM   12  C8  UNL     1      27.239   4.419  48.964  1.00  0.00     0.001 A 
HETATM   13  C9  UNL     1      26.781   3.462  49.839  1.00  0.00     0.011 A 
HETATM   14  C10 UNL     1      25.602   3.694  50.514  1.00  0.00    -0.010 A 
HETATM   15  C11 UNL     1      24.895   2.830  51.516  1.00  0.00     0.187 C 
HETATM   16  N3  UNL     1      25.184   1.451  51.489  1.00  0.00    -0.298 N 
HETATM   17  O2  UNL     1      24.331   0.680  52.185  1.00  0.00    -0.281 OA
HETATM   18  C12 UNL     1      23.522   1.335  53.056  1.00  0.00     0.228 C 
HETATM   19  C13 UNL     1      22.062   0.936  52.948  1.00  0.00     0.002 C 
HETATM   20  C14 UNL     1      21.039   1.681  52.657  1.00  0.00     0.008 C 
HETATM   21  H5  UNL     1      22.104   6.202  52.708  1.00  0.00     0.162 HD
HETATM   22  H12 UNL     1      25.501   1.064  50.596  1.00  0.00     0.187 HD
ENDROOT
TORSDOF 0
ENDMDL
MODEL 6
REMARK VINA RESULT:      -7.5      2.492      4.023
REMARK  0 active torsions:
REMARK  status: ('A' for Active; 'I' for Inactive)
ROOT
HETATM    1  C1  UNL     1      21.816   1.295  48.168  1.00  0.00     0.000 C 
HETATM    2  O1  UNL     1      21.904   2.136  49.290  1.00  0.00     0.000 OA
HETATM    3  C2  UNL     1      22.072   1.672  50.606  1.00  0.00    -0.025 A 
HETATM    4  C3  UNL     1      22.964   2.610  50.423  1.00  0.00     0.145 A 
HETATM    5  N1  UNL     1      24.030   3.377  50.950  1.00  0.00    -0.354 N 
HETATM    6  C4  UNL     1      25.461   3.163  51.128  1.00  0.00     0.198 C 
HETATM    7 CL1  UNL     1      26.487   4.055  50.024  1.00  0.00    -0.043 Cl
HETATM    8  N2  UNL     1      25.420   2.357  52.078  1.00  0.00    -0.220 NA
HETATM    9  C5  UNL     1      26.417   1.692  52.807  1.00  0.00     0.068 A 
HETATM   10  C6  UNL     1      27.758   1.980  52.659  1.00  0.00     0.032 A 
HETATM   11  C7  UNL     1      28.692   1.285  53.398  1.00  0.00     0.002 A 
HETATM   12  C8  UNL     1      28.270   0.316  54.274  1.00  0.00     0.001 A 
HETATM   13  C9  UNL     1      26.944  -0.000  54.451  1.00  0.00     0.011 A 
HETATM   14  C10 UNL     1      25.998   0.685  53.719  1.00  0.00    -0.010 A 
HETATM   15  C11 UNL     1      24.504   0.544  53.727  1.00  0.00     0.187 C 
HETATM   16  N3  UNL     1      23.980  -0.682  54.185  1.00  0.00    -0.298 N 
HETATM   17  O2  UNL     1      22.681  -0.881  53.905  1.00  0.00    -0.281 OA
HETATM   18  C12 UNL     1      21.986   0.219  53.518  1.00  0.00     0.228 C 
HETATM   19  C13 UNL     1      21.150   0.004  52.271  1.00  0.00     0.002 C 
HETATM   20  C14 UNL     1      21.228   0.618  51.129  1.00  0.00     0.008 C 
HETATM   21  H5  UNL     1      23.959   4.368  51.348  1.00  0.00     0.162 HD
HETATM   22  H12 UNL     1      24.583  -1.504  54.092  1.00  0.00     0.187 HD
ENDROOT
TORSDOF 0
ENDMDL
MODEL 7
REMARK VINA RESULT:      -7.3      2.623      4.290
REMARK  0 active torsions:
REMARK  status: ('A' for Active; 'I' for Inactive)
ROOT
HETATM    1  C1  UNL     1      21.088   3.708  47.522  1.00  0.00     0.000 C 
HETATM    2  O1  UNL     1      21.589   4.285  48.702  1.00  0.00     0.000 OA
HETATM    3  C2  UNL     1      21.486   3.689  49.970  1.00  0.00    -0.025 A 
HETATM    4  C3  UNL     1      22.735   4.048  49.825  1.00  0.00     0.145 A 
HETATM    5  N1  UNL     1      24.040   4.111  50.369  1.00  0.00    -0.354 N 
HETATM    6  C4  UNL     1      25.155   3.179  50.475  1.00  0.00     0.198 C 
HETATM    7 CL1  UNL     1      26.501   3.509  49.404  1.00  0.00    -0.043 Cl
HETATM    8  N2  UNL     1      24.700   2.430  51.360  1.00  0.00    -0.220 NA
HETATM    9  C5  UNL     1      25.208   1.288  51.997  1.00  0.00     0.068 A 
HETATM   10  C6  UNL     1      26.507   0.859  51.819  1.00  0.00     0.032 A 
HETATM   11  C7  UNL     1      26.945  -0.277  52.466  1.00  0.00     0.002 A 
HETATM   12  C8  UNL     1      26.079  -0.965  53.280  1.00  0.00     0.001 A 
HETATM   13  C9  UNL     1      24.778  -0.569  53.483  1.00  0.00     0.011 A 
HETATM   14  C10 UNL     1      24.324   0.564  52.843  1.00  0.00    -0.010 A 
HETATM   15  C11 UNL     1      22.971   1.209  52.898  1.00  0.00     0.187 C 
HETATM   16  N3  UNL     1      21.888   0.392  53.280  1.00  0.00    -0.298 N 
HETATM   17  O2  UNL     1      20.673   0.912  53.036  1.00  0.00    -0.281 OA
HETATM   18  C12 UNL     1      20.646   2.242  52.762  1.00  0.00     0.228 C 
HETATM   19  C13 UNL     1      19.826   2.594  51.535  1.00  0.00     0.002 C 
HETATM   20  C14 UNL     1      20.217   3.177  50.442  1.00  0.00     0.008 C 
HETATM   21  H5  UNL     1      24.486   4.960  50.845  1.00  0.00     0.162 HD
HETATM   22  H12 UNL     1      21.982  -0.612  53.101  1.00  0.00     0.187 HD
ENDROOT
TORSDOF 0
ENDMDL
MODEL 8
REMARK VINA RESULT:      -6.9      2.994      4.033
REMARK  0 active torsions:
REMARK  status: ('A' for Active; 'I' for Inactive)
ROOT
HETATM    1  C1  UNL     1      20.126   5.511  49.789  1.00  0.00     0.000 C 
HETATM    2  O1  UNL     1      20.621   4.315  49.242  1.00  0.00     0.000 OA
HETATM    3  C2  UNL     1      21.806   3.690  49.668  1.00  0.00    -0.025 A 
HETATM    4  C3  UNL     1      20.882   2.765  49.645  1.00  0.00     0.145 A 
HETATM    5  N1  UNL     1      20.529   1.410  49.855  1.00  0.00    -0.354 N 
HETATM    6  C4  UNL     1      20.173   0.610  51.019  1.00  0.00     0.198 C 
HETATM    7 CL1  UNL     1      18.477   0.187  51.138  1.00  0.00    -0.043 Cl
HETATM    8  N2  UNL     1      21.300   0.515  51.542  1.00  0.00    -0.220 NA
HETATM    9  C5  UNL     1      21.760  -0.116  52.707  1.00  0.00     0.068 A 
HETATM   10  C6  UNL     1      20.962  -0.952  53.460  1.00  0.00     0.032 A 
HETATM   11  C7  UNL     1      21.469  -1.537  54.601  1.00  0.00     0.002 A 
HETATM   12  C8  UNL     1      22.766  -1.278  54.970  1.00  0.00     0.001 A 
HETATM   13  C9  UNL     1      23.594  -0.451  54.247  1.00  0.00     0.011 A 
HETATM   14  C10 UNL     1      23.101   0.142  53.104  1.00  0.00    -0.010 A 
HETATM   15  C11 UNL     1      23.787   1.066  52.141  1.00  0.00     0.187 C 
HETATM   16  N3  UNL     1      24.903   1.778  52.624  1.00  0.00    -0.298 N 
HETATM   17  O2  UNL     1      25.303   2.798  51.845  1.00  0.00    -0.281 OA
HETATM   18  C12 UNL     1      24.802   2.807  50.584  1.00  0.00     0.228 C 
HETATM   19  C13 UNL     1      24.244   4.153  50.160  1.00  0.00     0.002 C 
HETATM   20  C14 UNL     1      23.032   4.448  49.801  1.00  0.00     0.008 C 
HETATM   21  H5  UNL     1      20.445   0.655  49.101  1.00  0.00     0.162 HD
HETATM   22  H12 UNL     1      24.938   1.953  53.632  1.00  0.00     0.187 HD
ENDROOT
TORSDOF 0
ENDMDL
MODEL 9
REMARK VINA RESULT:      -6.8      3.176      4.189
REMARK  0 active torsions:
REMARK  status: ('A' for Active; 'I' for Inactive)
ROOT
HETATM    1  C1  UNL     1      17.613   4.388  50.478  1.00  0.00     0.000 C 
HETATM    2  O1  UNL     1      18.093   3.205  49.888  1.00  0.00     0.000 OA
HETATM    3  C2  UNL     1      19.453   2.860  49.818  1.00  0.00    -0.025 A 
HETATM    4  C3  UNL     1      18.826   1.813  50.285  1.00  0.00     0.145 A 
HETATM    5  N1  UNL     1      18.893   0.480  50.755  1.00  0.00    -0.354 N 
HETATM    6  C4  UNL     1      19.224  -0.144  52.030  1.00  0.00     0.198 C 
HETATM    7 CL1  UNL     1      17.859  -0.800  52.910  1.00  0.00    -0.043 Cl
HETATM    8  N2  UNL     1      20.456   0.034  52.020  1.00  0.00    -0.220 NA
HETATM    9  C5  UNL     1      21.475  -0.298  52.926  1.00  0.00     0.068 A 
HETATM   10  C6  UNL     1      21.254  -1.100  54.026  1.00  0.00     0.032 A 
HETATM   11  C7  UNL     1      22.294  -1.383  54.885  1.00  0.00     0.002 A 
HETATM   12  C8  UNL     1      23.538  -0.862  54.631  1.00  0.00     0.001 A 
HETATM   13  C9  UNL     1      23.800  -0.059  53.545  1.00  0.00     0.011 A 
HETATM   14  C10 UNL     1      22.770   0.234  52.677  1.00  0.00    -0.010 A 
HETATM   15  C11 UNL     1      22.787   1.066  51.429  1.00  0.00     0.187 C 
HETATM   16  N3  UNL     1      23.818   2.020  51.311  1.00  0.00    -0.298 N 
HETATM   17  O2  UNL     1      23.636   2.934  50.342  1.00  0.00    -0.281 OA
HETATM   18  C12 UNL     1      22.678   2.638  49.427  1.00  0.00     0.228 C 
HETATM   19  C13 UNL     1      21.717   3.781  49.160  1.00  0.00     0.002 C 
HETATM   20  C14 UNL     1      20.431   3.814  49.334  1.00  0.00     0.008 C 
HETATM   21  H5  UNL     1      18.678  -0.402  50.188  1.00  0.00     0.162 HD
HETATM   22  H12 UNL     1      24.219   2.376  52.183  1.00  0.00     0.187 HD
ENDROOT
TORSDOF 0
ENDMDL
