MODEL 1
REMARK VINA RESULT:      -8.6      0.000      0.000
REMARK  1 active torsions:
REMARK  status: ('A' for Active; 'I' for Inactive)
REMARK    1  A    between atoms: C3_4  and  C4_5 
ROOT
HETATM    1  C4  UNL     1      22.929   1.984  51.962  1.00  0.00     0.090 C 
HETATM    2  C5  UNL     1      21.777   2.824  52.497  1.00  0.00     0.023 C 
HETATM    3  C6  UNL     1      20.493   2.553  52.597  1.00  0.00     0.107 C 
HETATM    4  N1  UNL     1      19.631   1.474  52.293  1.00  0.00    -0.292 N 
HETATM    5  N2  UNL     1      19.356   0.089  52.429  1.00  0.00    -0.188 NA
HETATM    6  C7  UNL     1      19.931  -0.567  53.349  1.00  0.00     0.272 C 
HETATM    7  N3  UNL     1      20.448  -1.473  54.283  1.00  0.00    -0.375 N 
HETATM    8  C8  UNL     1      21.741  -0.967  54.119  1.00  0.00     0.069 C 
HETATM    9  C9  UNL     1      22.753  -0.244  53.730  1.00  0.00     0.088 C 
HETATM   10  C10 UNL     1      23.197   0.879  52.918  1.00  0.00     0.043 C 
HETATM   11  N4  UNL     1      24.350   0.776  53.211  1.00  0.00    -0.290 NA
HETATM   12  C11 UNL     1      25.358   0.125  53.925  1.00  0.00     0.111 C 
HETATM   13  C12 UNL     1      26.356   1.182  54.420  1.00  0.00     0.047 C 
HETATM   14  C13 UNL     1      27.071   1.737  53.188  1.00  0.00     0.119 C 
HETATM   15  N5  UNL     1      26.452   1.270  51.993  1.00  0.00    -0.404 N 
HETATM   16  C14 UNL     1      26.582  -0.096  51.773  1.00  0.00     0.119 C 
HETATM   17  C15 UNL     1      26.119  -0.848  53.010  1.00  0.00     0.047 C 
HETATM   18  C16 UNL     1      25.781   2.149  51.161  1.00  0.00     0.193 C 
HETATM   19  S1  UNL     1      24.358   3.017  51.770  1.00  0.00    -0.125 SA
HETATM   20  H7  UNL     1      18.765   1.564  51.722  1.00  0.00     0.188 HD
HETATM   21  H9  UNL     1      20.192  -2.222  54.901  1.00  0.00     0.160 HD
ENDROOT
BRANCH   1  22
HETATM   22  C3  UNL     1      22.439   1.485  50.631  1.00  0.00     0.041 C 
HETATM   23  C2  UNL     1      22.229   1.505  49.310  1.00  0.00     0.088 C 
HETATM   24  C1  UNL     1      22.491   2.354  48.134  1.00  0.00     0.082 C 
HETATM   25  F1  UNL     1      21.559   0.452  48.735  1.00  0.00    -0.211 F 
ENDBRANCH   1  22
TORSDOF 1
ENDMDL
MODEL 2
REMARK VINA RESULT:      -7.4      2.379      5.397
REMARK  1 active torsions:
REMARK  status: ('A' for Active; 'I' for Inactive)
REMARK    1  A    between atoms: C3_4  and  C4_5 
ROOT
HETATM    1  C4  UNL     1      23.929   1.733  52.195  1.00  0.00     0.090 C 
HETATM    2  C5  UNL     1      25.074   1.707  51.193  1.00  0.00     0.023 C 
HETATM    3  C6  UNL     1      26.338   2.051  51.326  1.00  0.00     0.107 C 
HETATM    4  N1  UNL     1      27.175   2.560  52.345  1.00  0.00    -0.292 N 
HETATM    5  N2  UNL     1      27.658   2.428  53.673  1.00  0.00    -0.188 NA
HETATM    6  C7  UNL     1      27.526   1.316  54.269  1.00  0.00     0.272 C 
HETATM    7  N3  UNL     1      27.486   0.194  55.107  1.00  0.00    -0.375 N 
HETATM    8  C8  UNL     1      26.161  -0.075  54.749  1.00  0.00     0.069 C 
HETATM    9  C9  UNL     1      24.992  -0.019  54.176  1.00  0.00     0.088 C 
HETATM   10  C10 UNL     1      24.153   0.664  53.203  1.00  0.00     0.043 C 
HETATM   11  N4  UNL     1      23.195  -0.027  53.381  1.00  0.00    -0.290 NA
HETATM   12  C11 UNL     1      22.590  -1.100  54.038  1.00  0.00     0.111 C 
HETATM   13  C12 UNL     1      21.695  -1.837  53.031  1.00  0.00     0.047 C 
HETATM   14  C13 UNL     1      20.533  -0.903  52.693  1.00  0.00     0.119 C 
HETATM   15  N5  UNL     1      20.757   0.396  53.235  1.00  0.00    -0.404 N 
HETATM   16  C14 UNL     1      20.738   0.453  54.623  1.00  0.00     0.119 C 
HETATM   17  C15 UNL     1      21.694  -0.591  55.179  1.00  0.00     0.047 C 
HETATM   18  C16 UNL     1      20.980   1.476  52.398  1.00  0.00     0.193 C 
HETATM   19  S1  UNL     1      22.399   1.480  51.333  1.00  0.00    -0.125 SA
HETATM   20  H7  UNL     1      27.771   3.407  52.240  1.00  0.00     0.188 HD
HETATM   21  H9  UNL     1      28.034  -0.346  55.750  1.00  0.00     0.160 HD
ENDROOT
BRANCH   1  22
HETATM   22  C3  UNL     1      23.990   3.109  52.796  1.00  0.00     0.041 C 
HETATM   23  C2  UNL     1      23.879   4.442  52.835  1.00  0.00     0.088 C 
HETATM   24  C1  UNL     1      23.500   5.573  51.969  1.00  0.00     0.082 C 
HETATM   25  F1  UNL     1      24.195   5.094  54.003  1.00  0.00    -0.211 F 
ENDBRANCH   1  22
TORSDOF 1
ENDMDL
MODEL 3
REMARK VINA RESULT:      -7.3      3.047      5.343
REMARK  1 active torsions:
REMARK  status: ('A' for Active; 'I' for Inactive)
REMARK    1  A    between atoms: C3_4  and  C4_5 
ROOT
HETATM    1  C4  UNL     1      23.682   2.597  50.816  1.00  0.00     0.090 C 
HETATM    2  C5  UNL     1      23.124   2.603  49.400  1.00  0.00     0.023 C 
HETATM    3  C6  UNL     1      23.059   3.570  48.509  1.00  0.00     0.107 C 
HETATM    4  N1  UNL     1      23.429   4.931  48.423  1.00  0.00    -0.292 N 
HETATM    5  N2  UNL     1      24.451   5.904  48.570  1.00  0.00    -0.188 NA
HETATM    6  C7  UNL     1      25.662   5.527  48.600  1.00  0.00     0.272 C 
HETATM    7  N3  UNL     1      27.048   5.336  48.658  1.00  0.00    -0.375 N 
HETATM    8  C8  UNL     1      26.903   4.247  49.523  1.00  0.00     0.069 C 
HETATM    9  C9  UNL     1      26.386   3.308  50.264  1.00  0.00     0.088 C 
HETATM   10  C10 UNL     1      25.164   2.682  50.745  1.00  0.00     0.043 C 
HETATM   11  N4  UNL     1      25.718   1.859  51.411  1.00  0.00    -0.290 NA
HETATM   12  C11 UNL     1      26.903   1.286  51.876  1.00  0.00     0.111 C 
HETATM   13  C12 UNL     1      26.705  -0.236  51.945  1.00  0.00     0.047 C 
HETATM   14  C13 UNL     1      25.694  -0.509  53.059  1.00  0.00     0.119 C 
HETATM   15  N5  UNL     1      25.112   0.707  53.520  1.00  0.00    -0.404 N 
HETATM   16  C14 UNL     1      25.995   1.557  54.175  1.00  0.00     0.119 C 
HETATM   17  C15 UNL     1      27.215   1.783  53.297  1.00  0.00     0.047 C 
HETATM   18  C16 UNL     1      23.772   0.972  53.297  1.00  0.00     0.193 C 
HETATM   19  S1  UNL     1      23.172   1.106  51.633  1.00  0.00    -0.125 SA
HETATM   20  H7  UNL     1      22.779   5.695  48.141  1.00  0.00     0.188 HD
HETATM   21  H9  UNL     1      27.921   5.694  48.317  1.00  0.00     0.160 HD
ENDROOT
BRANCH   1  22
HETATM   22  C3  UNL     1      23.069   3.806  51.464  1.00  0.00     0.041 C 
HETATM   23  C2  UNL     1      22.997   5.073  51.888  1.00  0.00     0.088 C 
HETATM   24  C1  UNL     1      23.802   6.307  51.911  1.00  0.00     0.082 C 
HETATM   25  F1  UNL     1      21.856   5.486  52.534  1.00  0.00    -0.211 F 
ENDBRANCH   1  22
TORSDOF 1
ENDMDL
MODEL 4
REMARK VINA RESULT:      -6.9      9.656     12.601
REMARK  1 active torsions:
REMARK  status: ('A' for Active; 'I' for Inactive)
REMARK    1  A    between atoms: C3_4  and  C4_5 
ROOT
HETATM    1  C4  UNL     1      31.597   7.004  48.252  1.00  0.00     0.090 C 
HETATM    2  C5  UNL     1      32.654   6.067  48.820  1.00  0.00     0.023 C 
HETATM    3  C6  UNL     1      32.980   4.838  48.481  1.00  0.00     0.107 C 
HETATM    4  N1  UNL     1      32.565   3.876  47.533  1.00  0.00    -0.292 N 
HETATM    5  N2  UNL     1      32.298   3.576  46.172  1.00  0.00    -0.188 NA
HETATM    6  C7  UNL     1      32.772   4.332  45.270  1.00  0.00     0.272 C 
HETATM    7  N3  UNL     1      33.188   5.022  44.125  1.00  0.00    -0.375 N 
HETATM    8  C8  UNL     1      32.880   6.256  44.707  1.00  0.00     0.069 C 
HETATM    9  C9  UNL     1      32.510   7.171  45.557  1.00  0.00     0.088 C 
HETATM   10  C10 UNL     1      32.031   7.450  46.903  1.00  0.00     0.043 C 
HETATM   11  N4  UNL     1      31.971   8.634  46.753  1.00  0.00    -0.290 NA
HETATM   12  C11 UNL     1      32.149   9.756  45.941  1.00  0.00     0.111 C 
HETATM   13  C12 UNL     1      32.696  10.897  46.811  1.00  0.00     0.047 C 
HETATM   14  C13 UNL     1      31.580  11.305  47.773  1.00  0.00     0.119 C 
HETATM   15  N5  UNL     1      30.496  10.383  47.706  1.00  0.00    -0.404 N 
HETATM   16  C14 UNL     1      29.809  10.387  46.499  1.00  0.00     0.119 C 
HETATM   17  C15 UNL     1      30.801  10.213  45.359  1.00  0.00     0.047 C 
HETATM   18  C16 UNL     1      30.201   9.568  48.785  1.00  0.00     0.193 C 
HETATM   19  S1  UNL     1      31.404   8.389  49.345  1.00  0.00    -0.125 SA
HETATM   20  H7  UNL     1      32.295   2.899  47.773  1.00  0.00     0.188 HD
HETATM   21  H9  UNL     1      33.566   4.894  43.204  1.00  0.00     0.160 HD
ENDROOT
BRANCH   1  22
HETATM   22  C3  UNL     1      30.347   6.172  48.206  1.00  0.00     0.041 C 
HETATM   23  C2  UNL     1      29.032   5.924  48.182  1.00  0.00     0.088 C 
HETATM   24  C1  UNL     1      27.745   6.641  48.192  1.00  0.00     0.082 C 
HETATM   25  F1  UNL     1      28.610   4.617  48.137  1.00  0.00    -0.211 F 
ENDBRANCH   1  22
TORSDOF 1
ENDMDL
MODEL 5
REMARK VINA RESULT:      -6.8      8.867     11.105
REMARK  1 active torsions:
REMARK  status: ('A' for Active; 'I' for Inactive)
REMARK    1  A    between atoms: C3_4  and  C4_5 
ROOT
HETATM    1  C4  UNL     1      31.419   7.979  47.682  1.00  0.00     0.090 C 
HETATM    2  C5  UNL     1      31.000   8.743  48.931  1.00  0.00     0.023 C 
HETATM    3  C6  UNL     1      29.810   9.128  49.340  1.00  0.00     0.107 C 
HETATM    4  N1  UNL     1      28.475   9.042  48.885  1.00  0.00    -0.292 N 
HETATM    5  N2  UNL     1      27.421   8.213  48.419  1.00  0.00    -0.188 NA
HETATM    6  C7  UNL     1      27.483   6.963  48.627  1.00  0.00     0.272 C 
HETATM    7  N3  UNL     1      27.346   5.575  48.744  1.00  0.00    -0.375 N 
HETATM    8  C8  UNL     1      28.685   5.373  48.395  1.00  0.00     0.069 C 
HETATM    9  C9  UNL     1      29.931   5.580  48.072  1.00  0.00     0.088 C 
HETATM   10  C10 UNL     1      30.964   6.570  47.811  1.00  0.00     0.043 C 
HETATM   11  N4  UNL     1      31.823   5.773  47.579  1.00  0.00    -0.290 NA
HETATM   12  C11 UNL     1      32.233   4.443  47.470  1.00  0.00     0.111 C 
HETATM   13  C12 UNL     1      33.663   4.334  48.018  1.00  0.00     0.047 C 
HETATM   14  C13 UNL     1      34.575   5.087  47.050  1.00  0.00     0.119 C 
HETATM   15  N5  UNL     1      33.807   5.810  46.093  1.00  0.00    -0.404 N 
HETATM   16  C14 UNL     1      33.091   5.015  45.207  1.00  0.00     0.119 C 
HETATM   17  C15 UNL     1      32.262   4.012  45.994  1.00  0.00     0.047 C 
HETATM   18  C16 UNL     1      33.802   7.195  46.099  1.00  0.00     0.193 C 
HETATM   19  S1  UNL     1      33.183   8.062  47.517  1.00  0.00    -0.125 SA
HETATM   20  H7  UNL     1      27.839   9.861  48.785  1.00  0.00     0.188 HD
HETATM   21  H9  UNL     1      26.688   4.850  48.965  1.00  0.00     0.160 HD
ENDROOT
BRANCH   1  22
HETATM   22  C3  UNL     1      30.735   8.702  46.556  1.00  0.00     0.041 C 
HETATM   23  C2  UNL     1      29.808   8.923  45.617  1.00  0.00     0.088 C 
HETATM   24  C1  UNL     1      28.580   8.316  45.073  1.00  0.00     0.082 C 
HETATM   25  F1  UNL     1      29.923  10.045  44.831  1.00  0.00    -0.211 F 
ENDBRANCH   1  22
TORSDOF 1
ENDMDL
MODEL 6
REMARK VINA RESULT:      -6.6      4.293      7.451
REMARK  1 active torsions:
REMARK  status: ('A' for Active; 'I' for Inactive)
REMARK    1  A    between atoms: C3_4  and  C4_5 
ROOT
HETATM    1  C4  UNL     1      23.564   4.616  50.455  1.00  0.00     0.090 C 
HETATM    2  C5  UNL     1      23.557   5.790  51.424  1.00  0.00     0.023 C 
HETATM    3  C6  UNL     1      24.384   6.807  51.545  1.00  0.00     0.107 C 
HETATM    4  N1  UNL     1      25.560   7.271  50.913  1.00  0.00    -0.292 N 
HETATM    5  N2  UNL     1      26.208   7.618  49.699  1.00  0.00    -0.188 NA
HETATM    6  C7  UNL     1      25.504   7.851  48.669  1.00  0.00     0.272 C 
HETATM    7  N3  UNL     1      24.932   8.144  47.426  1.00  0.00    -0.375 N 
HETATM    8  C8  UNL     1      24.045   7.068  47.535  1.00  0.00     0.069 C 
HETATM    9  C9  UNL     1      23.393   6.036  47.990  1.00  0.00     0.088 C 
HETATM   10  C10 UNL     1      23.209   5.115  49.101  1.00  0.00     0.043 C 
HETATM   11  N4  UNL     1      22.350   4.475  48.571  1.00  0.00    -0.290 NA
HETATM   12  C11 UNL     1      21.521   4.252  47.470  1.00  0.00     0.111 C 
HETATM   13  C12 UNL     1      20.141   3.819  47.988  1.00  0.00     0.047 C 
HETATM   14  C13 UNL     1      20.310   2.436  48.616  1.00  0.00     0.119 C 
HETATM   15  N5  UNL     1      21.689   2.091  48.713  1.00  0.00    -0.404 N 
HETATM   16  C14 UNL     1      22.322   1.898  47.492  1.00  0.00     0.119 C 
HETATM   17  C15 UNL     1      22.078   3.109  46.605  1.00  0.00     0.047 C 
HETATM   18  C16 UNL     1      22.299   1.980  49.951  1.00  0.00     0.193 C 
HETATM   19  S1  UNL     1      22.395   3.401  51.009  1.00  0.00    -0.125 SA
HETATM   20  H7  UNL     1      26.438   7.511  51.419  1.00  0.00     0.188 HD
HETATM   21  H9  UNL     1      24.979   8.781  46.652  1.00  0.00     0.160 HD
ENDROOT
BRANCH   1  22
HETATM   22  C3  UNL     1      24.968   4.086  50.521  1.00  0.00     0.041 C 
HETATM   23  C2  UNL     1      26.232   3.892  50.126  1.00  0.00     0.088 C 
HETATM   24  C1  UNL     1      27.143   4.258  49.027  1.00  0.00     0.082 C 
HETATM   25  F1  UNL     1      27.053   3.113  50.905  1.00  0.00    -0.211 F 
ENDBRANCH   1  22
TORSDOF 1
ENDMDL
MODEL 7
REMARK VINA RESULT:      -6.6      3.203      4.799
REMARK  1 active torsions:
REMARK  status: ('A' for Active; 'I' for Inactive)
REMARK    1  A    between atoms: C3_4  and  C4_5 
ROOT
HETATM    1  C4  UNL     1      21.638   3.646  50.872  1.00  0.00     0.090 C 
HETATM    2  C5  UNL     1      20.805   3.174  52.055  1.00  0.00     0.023 C 
HETATM    3  C6  UNL     1      20.846   2.049  52.738  1.00  0.00     0.107 C 
HETATM    4  N1  UNL     1      21.592   0.849  52.721  1.00  0.00    -0.292 N 
HETATM    5  N2  UNL     1      22.873   0.237  52.724  1.00  0.00    -0.188 NA
HETATM    6  C7  UNL     1      23.879   0.915  53.094  1.00  0.00     0.272 C 
HETATM    7  N3  UNL     1      25.111   1.470  53.460  1.00  0.00    -0.375 N 
HETATM    8  C8  UNL     1      24.833   2.650  52.761  1.00  0.00     0.069 C 
HETATM    9  C9  UNL     1      24.230   3.562  52.053  1.00  0.00     0.088 C 
HETATM   10  C10 UNL     1      23.016   3.938  51.346  1.00  0.00     0.043 C 
HETATM   11  N4  UNL     1      23.421   5.006  50.994  1.00  0.00    -0.290 NA
HETATM   12  C11 UNL     1      24.441   5.959  50.973  1.00  0.00     0.111 C 
HETATM   13  C12 UNL     1      23.799   7.350  51.079  1.00  0.00     0.047 C 
HETATM   14  C13 UNL     1      23.033   7.593  49.778  1.00  0.00     0.119 C 
HETATM   15  N5  UNL     1      22.980   6.404  48.995  1.00  0.00    -0.404 N 
HETATM   16  C14 UNL     1      24.207   5.986  48.498  1.00  0.00     0.119 C 
HETATM   17  C15 UNL     1      25.206   5.895  49.641  1.00  0.00     0.047 C 
HETATM   18  C16 UNL     1      21.775   5.754  48.789  1.00  0.00     0.193 C 
HETATM   19  S1  UNL     1      20.887   5.095  50.176  1.00  0.00    -0.125 SA
HETATM   20  H7  UNL     1      21.167  -0.101  52.690  1.00  0.00     0.188 HD
HETATM   21  H9  UNL     1      25.952   1.286  53.975  1.00  0.00     0.160 HD
ENDROOT
BRANCH   1  22
HETATM   22  C3  UNL     1      21.596   2.497  49.905  1.00  0.00     0.041 C 
HETATM   23  C2  UNL     1      21.835   1.836  48.766  1.00  0.00     0.088 C 
HETATM   24  C1  UNL     1      22.503   2.025  47.466  1.00  0.00     0.082 C 
HETATM   25  F1  UNL     1      21.350   0.557  48.634  1.00  0.00    -0.211 F 
ENDBRANCH   1  22
TORSDOF 1
ENDMDL
MODEL 8
REMARK VINA RESULT:      -6.5      2.950      5.879
REMARK  1 active torsions:
REMARK  status: ('A' for Active; 'I' for Inactive)
REMARK    1  A    between atoms: C3_4  and  C4_5 
ROOT
HETATM    1  C4  UNL     1      23.395   3.648  50.189  1.00  0.00     0.090 C 
HETATM    2  C5  UNL     1      24.660   3.401  49.380  1.00  0.00     0.023 C 
HETATM    3  C6  UNL     1      25.909   3.249  49.767  1.00  0.00     0.107 C 
HETATM    4  N1  UNL     1      26.626   3.239  50.985  1.00  0.00    -0.292 N 
HETATM    5  N2  UNL     1      26.750   2.710  52.296  1.00  0.00    -0.188 NA
HETATM    6  C7  UNL     1      26.153   1.628  52.583  1.00  0.00     0.272 C 
HETATM    7  N3  UNL     1      25.586   0.462  53.111  1.00  0.00    -0.375 N 
HETATM    8  C8  UNL     1      24.352   0.744  52.517  1.00  0.00     0.069 C 
HETATM    9  C9  UNL     1      23.409   1.309  51.818  1.00  0.00     0.088 C 
HETATM   10  C10 UNL     1      23.053   2.406  50.931  1.00  0.00     0.043 C 
HETATM   11  N4  UNL     1      21.913   2.076  50.802  1.00  0.00    -0.290 NA
HETATM   12  C11 UNL     1      20.877   1.186  51.090  1.00  0.00     0.111 C 
HETATM   13  C12 UNL     1      20.032   1.004  49.821  1.00  0.00     0.047 C 
HETATM   14  C13 UNL     1      19.321   2.332  49.559  1.00  0.00     0.119 C 
HETATM   15  N5  UNL     1      19.819   3.349  50.424  1.00  0.00    -0.404 N 
HETATM   16  C14 UNL     1      19.524   3.159  51.768  1.00  0.00     0.119 C 
HETATM   17  C15 UNL     1      19.964   1.764  52.184  1.00  0.00     0.047 C 
HETATM   18  C16 UNL     1      20.541   4.413  49.911  1.00  0.00     0.193 C 
HETATM   19  S1  UNL     1      22.083   4.108  49.087  1.00  0.00    -0.125 SA
HETATM   20  H7  UNL     1      27.466   3.826  51.171  1.00  0.00     0.188 HD
HETATM   21  H9  UNL     1      25.788  -0.343  53.676  1.00  0.00     0.160 HD
ENDROOT
BRANCH   1  22
HETATM   22  C3  UNL     1      23.754   4.783  51.106  1.00  0.00     0.041 C 
HETATM   23  C2  UNL     1      23.974   6.053  51.467  1.00  0.00     0.088 C 
HETATM   24  C1  UNL     1      23.948   7.412  50.898  1.00  0.00     0.082 C 
HETATM   25  F1  UNL     1      24.362   6.312  52.760  1.00  0.00    -0.211 F 
ENDBRANCH   1  22
TORSDOF 1
ENDMDL
MODEL 9
REMARK VINA RESULT:      -6.5      3.065      6.411
REMARK  1 active torsions:
REMARK  status: ('A' for Active; 'I' for Inactive)
REMARK    1  A    between atoms: C3_4  and  C4_5 
ROOT
HETATM    1  C4  UNL     1      22.082   3.531  51.297  1.00  0.00     0.090 C 
HETATM    2  C5  UNL     1      22.745   4.238  52.471  1.00  0.00     0.023 C 
HETATM    3  C6  UNL     1      23.856   3.963  53.121  1.00  0.00     0.107 C 
HETATM    4  N1  UNL     1      24.877   2.987  53.068  1.00  0.00    -0.292 N 
HETATM    5  N2  UNL     1      25.837   2.303  52.278  1.00  0.00    -0.188 NA
HETATM    6  C7  UNL     1      26.189   2.801  51.166  1.00  0.00     0.272 C 
HETATM    7  N3  UNL     1      26.715   3.164  49.920  1.00  0.00    -0.375 N 
HETATM    8  C8  UNL     1      25.448   3.516  49.443  1.00  0.00     0.069 C 
HETATM    9  C9  UNL     1      24.169   3.753  49.369  1.00  0.00     0.088 C 
HETATM   10  C10 UNL     1      22.898   3.764  50.078  1.00  0.00     0.043 C 
HETATM   11  N4  UNL     1      22.256   4.139  49.143  1.00  0.00    -0.290 NA
HETATM   12  C11 UNL     1      22.195   4.541  47.807  1.00  0.00     0.111 C 
HETATM   13  C12 UNL     1      21.177   5.685  47.695  1.00  0.00     0.047 C 
HETATM   14  C13 UNL     1      19.797   5.088  47.969  1.00  0.00     0.119 C 
HETATM   15  N5  UNL     1      19.912   3.748  48.438  1.00  0.00    -0.404 N 
HETATM   16  C14 UNL     1      20.400   2.848  47.500  1.00  0.00     0.119 C 
HETATM   17  C15 UNL     1      21.701   3.384  46.923  1.00  0.00     0.047 C 
HETATM   18  C16 UNL     1      19.559   3.428  49.738  1.00  0.00     0.193 C 
HETATM   19  S1  UNL     1      20.439   4.167  51.091  1.00  0.00    -0.125 SA
HETATM   20  H7  UNL     1      25.186   2.422  53.886  1.00  0.00     0.188 HD
HETATM   21  H9  UNL     1      27.569   3.226  49.398  1.00  0.00     0.160 HD
ENDROOT
BRANCH   1  22
HETATM   22  C3  UNL     1      22.055   2.084  51.701  1.00  0.00     0.041 C 
HETATM   23  C2  UNL     1      21.767   1.023  52.464  1.00  0.00     0.088 C 
HETATM   24  C1  UNL     1      21.088   0.689  53.729  1.00  0.00     0.082 C 
HETATM   25  F1  UNL     1      22.189  -0.218  52.052  1.00  0.00    -0.211 F 
ENDBRANCH   1  22
TORSDOF 1
ENDMDL
