MODEL 1
REMARK VINA RESULT:      -8.4      0.000      0.000
REMARK  8 active torsions:
REMARK  status: ('A' for Active; 'I' for Inactive)
REMARK    1  A    between atoms: C2_2  and  C3_3 
REMARK    2  A    between atoms: C4_4  and  C5_5 
REMARK    3  A    between atoms: C5_5  and  C6_6 
REMARK    4  A    between atoms: C6_6  and  C7_7 
REMARK    5  A    between atoms: C8_8  and  C9_9 
REMARK    6  A    between atoms: C12_14  and  N3_15 
REMARK    7  A    between atoms: N3_15  and  C13_16 
REMARK    8  A    between atoms: C19_23  and  O1_24 
ROOT
HETATM    1  C9  UNL     1      26.715   1.321  52.846  1.00  0.00     0.027 A 
HETATM    2  C10 UNL     1      27.871   1.914  53.288  1.00  0.00     0.133 A 
HETATM    3  N1  UNL     1      28.559   1.377  54.322  1.00  0.00    -0.253 NA
HETATM    4  C11 UNL     1      28.083   0.244  54.916  1.00  0.00     0.234 A 
HETATM    5  N2  UNL     1      26.953  -0.286  54.441  1.00  0.00    -0.224 NA
HETATM    6  C12 UNL     1      26.220   0.186  53.424  1.00  0.00     0.141 A 
ENDROOT
BRANCH   1   7
HETATM    7  C8  UNL     1      26.052   1.979  51.726  1.00  0.00     0.013 C 
HETATM    8  C7  UNL     1      26.739   2.593  50.778  1.00  0.00    -0.025 C 
BRANCH   8   9
HETATM    9  C6  UNL     1      26.266   3.304  49.585  1.00  0.00     0.031 C 
BRANCH   9  10
HETATM   10  C5  UNL     1      25.292   4.404  49.823  1.00  0.00     0.041 C 
BRANCH  10  11
HETATM   11  C4  UNL     1      25.929   5.724  49.463  1.00  0.00    -0.042 A 
HETATM   12  C3  UNL     1      26.798   6.530  48.855  1.00  0.00    -0.043 A 
HETATM   13  C19 UNL     1      25.798   7.163  49.738  1.00  0.00     0.177 A 
BRANCH  12  14
HETATM   14  C2  UNL     1      27.944   6.496  47.922  1.00  0.00     0.033 C 
HETATM   15  C1  UNL     1      28.959   5.439  48.320  1.00  0.00     0.010 C 
ENDBRANCH  12  14
BRANCH  13  16
HETATM   16  O1  UNL     1      26.192   7.576  50.990  1.00  0.00    -0.387 OA
HETATM   17  H20 UNL     1      27.135   7.390  51.201  1.00  0.00     0.210 HD
ENDBRANCH  13  16
ENDBRANCH  10  11
ENDBRANCH   9  10
ENDBRANCH   8   9
ENDBRANCH   1   7
BRANCH   6  18
HETATM   18  N3  UNL     1      25.026  -0.418  52.960  1.00  0.00    -0.340 N 
HETATM   19  H14 UNL     1      25.124  -1.065  52.136  1.00  0.00     0.167 HD
BRANCH  18  20
HETATM   20  C13 UNL     1      23.707  -0.273  53.448  1.00  0.00     0.035 A 
HETATM   21  C14 UNL     1      23.134  -1.001  54.466  1.00  0.00     0.029 A 
HETATM   22  C15 UNL     1      21.848  -0.858  54.939  1.00  0.00     0.004 A 
HETATM   23  C16 UNL     1      21.056   0.094  54.349  1.00  0.00     0.019 A 
HETATM   24  C17 UNL     1      21.563   0.851  53.333  1.00  0.00     0.013 A 
HETATM   25 BR1  UNL     1      20.469   2.171  52.511  1.00  0.00    -0.051 Br
HETATM   26  C18 UNL     1      22.855   0.658  52.907  1.00  0.00     0.048 A 
ENDBRANCH  18  20
ENDBRANCH   6  18
TORSDOF 8
ENDMDL
MODEL 2
REMARK VINA RESULT:      -8.3      2.403      5.846
REMARK  8 active torsions:
REMARK  status: ('A' for Active; 'I' for Inactive)
REMARK    1  A    between atoms: C2_2  and  C3_3 
REMARK    2  A    between atoms: C4_4  and  C5_5 
REMARK    3  A    between atoms: C5_5  and  C6_6 
REMARK    4  A    between atoms: C6_6  and  C7_7 
REMARK    5  A    between atoms: C8_8  and  C9_9 
REMARK    6  A    between atoms: C12_14  and  N3_15 
REMARK    7  A    between atoms: N3_15  and  C13_16 
REMARK    8  A    between atoms: C19_23  and  O1_24 
ROOT
HETATM    1  C9  UNL     1      26.709   0.527  53.279  1.00  0.00     0.027 A 
HETATM    2  C10 UNL     1      27.230   0.256  54.520  1.00  0.00     0.133 A 
HETATM    3  N1  UNL     1      28.354   0.883  54.938  1.00  0.00    -0.253 NA
HETATM    4  C11 UNL     1      28.957   1.783  54.107  1.00  0.00     0.234 A 
HETATM    5  N2  UNL     1      28.403   2.003  52.913  1.00  0.00    -0.224 NA
HETATM    6  C12 UNL     1      27.296   1.424  52.431  1.00  0.00     0.141 A 
ENDROOT
BRANCH   1   7
HETATM    7  C8  UNL     1      25.496  -0.202  52.927  1.00  0.00     0.013 C 
HETATM    8  C7  UNL     1      24.374  -0.049  53.609  1.00  0.00    -0.025 C 
BRANCH   8   9
HETATM    9  C6  UNL     1      23.064  -0.682  53.416  1.00  0.00     0.031 C 
BRANCH   9  10
HETATM   10  C5  UNL     1      21.883   0.114  53.848  1.00  0.00     0.041 C 
BRANCH  10  11
HETATM   11  C4  UNL     1      21.350   0.897  52.673  1.00  0.00    -0.042 A 
HETATM   12  C3  UNL     1      21.361   1.398  51.439  1.00  0.00    -0.043 A 
HETATM   13  C19 UNL     1      20.189   1.710  52.281  1.00  0.00     0.177 A 
BRANCH  12  14
HETATM   14  C2  UNL     1      22.190   1.433  50.216  1.00  0.00     0.033 C 
HETATM   15  C1  UNL     1      21.392   1.041  48.986  1.00  0.00     0.010 C 
ENDBRANCH  12  14
BRANCH  13  16
HETATM   16  O1  UNL     1      20.103   2.957  52.856  1.00  0.00    -0.387 OA
HETATM   17  H20 UNL     1      19.337   3.072  53.463  1.00  0.00     0.210 HD
ENDBRANCH  13  16
ENDBRANCH  10  11
ENDBRANCH   9  10
ENDBRANCH   8   9
ENDBRANCH   1   7
BRANCH   6  18
HETATM   18  N3  UNL     1      26.749   1.695  51.153  1.00  0.00    -0.340 N 
HETATM   19  H14 UNL     1      26.780   0.905  50.459  1.00  0.00     0.167 HD
BRANCH  18  20
HETATM   20  C13 UNL     1      26.163   2.888  50.671  1.00  0.00     0.035 A 
HETATM   21  C14 UNL     1      26.639   3.667  49.641  1.00  0.00     0.029 A 
HETATM   22  C15 UNL     1      26.065   4.829  49.173  1.00  0.00     0.004 A 
HETATM   23  C16 UNL     1      24.913   5.259  49.782  1.00  0.00     0.019 A 
HETATM   24  C17 UNL     1      24.388   4.532  50.810  1.00  0.00     0.013 A 
HETATM   25 BR1  UNL     1      22.792   5.123  51.658  1.00  0.00    -0.051 Br
HETATM   26  C18 UNL     1      25.009   3.381  51.230  1.00  0.00     0.048 A 
ENDBRANCH  18  20
ENDBRANCH   6  18
TORSDOF 8
ENDMDL
MODEL 3
REMARK VINA RESULT:      -7.9      1.725      2.749
REMARK  8 active torsions:
REMARK  status: ('A' for Active; 'I' for Inactive)
REMARK    1  A    between atoms: C2_2  and  C3_3 
REMARK    2  A    between atoms: C4_4  and  C5_5 
REMARK    3  A    between atoms: C5_5  and  C6_6 
REMARK    4  A    between atoms: C6_6  and  C7_7 
REMARK    5  A    between atoms: C8_8  and  C9_9 
REMARK    6  A    between atoms: C12_14  and  N3_15 
REMARK    7  A    between atoms: N3_15  and  C13_16 
REMARK    8  A    between atoms: C19_23  and  O1_24 
ROOT
HETATM    1  C9  UNL     1      26.760   1.108  52.756  1.00  0.00     0.027 A 
HETATM    2  C10 UNL     1      27.916   1.742  53.139  1.00  0.00     0.133 A 
HETATM    3  N1  UNL     1      28.577   1.340  54.249  1.00  0.00    -0.253 NA
HETATM    4  C11 UNL     1      28.076   0.300  54.977  1.00  0.00     0.234 A 
HETATM    5  N2  UNL     1      26.948  -0.276  54.554  1.00  0.00    -0.224 NA
HETATM    6  C12 UNL     1      26.240   0.065  53.469  1.00  0.00     0.141 A 
ENDROOT
BRANCH   1   7
HETATM    7  C8  UNL     1      26.127   1.619  51.546  1.00  0.00     0.013 C 
HETATM    8  C7  UNL     1      26.689   2.569  50.818  1.00  0.00    -0.025 C 
BRANCH   8   9
HETATM    9  C6  UNL     1      26.219   3.209  49.584  1.00  0.00     0.031 C 
BRANCH   9  10
HETATM   10  C5  UNL     1      25.430   4.459  49.755  1.00  0.00     0.041 C 
BRANCH  10  11
HETATM   11  C4  UNL     1      23.987   4.194  49.401  1.00  0.00    -0.042 A 
HETATM   12  C3  UNL     1      22.972   3.532  48.849  1.00  0.00    -0.043 A 
HETATM   13  C19 UNL     1      22.646   4.767  49.591  1.00  0.00     0.177 A 
BRANCH  12  14
HETATM   14  C2  UNL     1      22.683   2.324  48.048  1.00  0.00     0.033 C 
HETATM   15  C1  UNL     1      21.775   1.361  48.793  1.00  0.00     0.010 C 
ENDBRANCH  12  14
BRANCH  13  16
HETATM   16  O1  UNL     1      22.371   5.911  48.877  1.00  0.00    -0.387 OA
HETATM   17  H20 UNL     1      21.836   5.765  48.065  1.00  0.00     0.210 HD
ENDBRANCH  13  16
ENDBRANCH  10  11
ENDBRANCH   9  10
ENDBRANCH   8   9
ENDBRANCH   1   7
BRANCH   6  18
HETATM   18  N3  UNL     1      25.047  -0.582  53.065  1.00  0.00    -0.340 N 
HETATM   19  H14 UNL     1      25.153  -1.343  52.346  1.00  0.00     0.167 HD
BRANCH  18  20
HETATM   20  C13 UNL     1      23.719  -0.350  53.492  1.00  0.00     0.035 A 
HETATM   21  C14 UNL     1      23.058  -1.025  54.492  1.00  0.00     0.029 A 
HETATM   22  C15 UNL     1      21.765  -0.796  54.905  1.00  0.00     0.004 A 
HETATM   23  C16 UNL     1      21.059   0.192  54.268  1.00  0.00     0.019 A 
HETATM   24  C17 UNL     1      21.655   0.901  53.266  1.00  0.00     0.013 A 
HETATM   25 BR1  UNL     1      20.683   2.272  52.378  1.00  0.00    -0.051 Br
HETATM   26  C18 UNL     1      22.950   0.623  52.900  1.00  0.00     0.048 A 
ENDBRANCH  18  20
ENDBRANCH   6  18
TORSDOF 8
ENDMDL
MODEL 4
REMARK VINA RESULT:      -7.9      3.492      7.337
REMARK  8 active torsions:
REMARK  status: ('A' for Active; 'I' for Inactive)
REMARK    1  A    between atoms: C2_2  and  C3_3 
REMARK    2  A    between atoms: C4_4  and  C5_5 
REMARK    3  A    between atoms: C5_5  and  C6_6 
REMARK    4  A    between atoms: C6_6  and  C7_7 
REMARK    5  A    between atoms: C8_8  and  C9_9 
REMARK    6  A    between atoms: C12_14  and  N3_15 
REMARK    7  A    between atoms: N3_15  and  C13_16 
REMARK    8  A    between atoms: C19_23  and  O1_24 
ROOT
HETATM    1  C9  UNL     1      25.778   1.784  52.587  1.00  0.00     0.027 A 
HETATM    2  C10 UNL     1      26.032   1.524  53.911  1.00  0.00     0.133 A 
HETATM    3  N1  UNL     1      27.271   1.722  54.418  1.00  0.00    -0.253 NA
HETATM    4  C11 UNL     1      28.257   2.181  53.594  1.00  0.00     0.234 A 
HETATM    5  N2  UNL     1      27.948   2.415  52.316  1.00  0.00    -0.224 NA
HETATM    6  C12 UNL     1      26.750   2.244  51.744  1.00  0.00     0.141 A 
ENDROOT
BRANCH   1   7
HETATM    7  C8  UNL     1      24.411   1.537  52.143  1.00  0.00     0.013 C 
HETATM    8  C7  UNL     1      23.437   2.396  52.389  1.00  0.00    -0.025 C 
BRANCH   8   9
HETATM    9  C6  UNL     1      22.015   2.332  52.032  1.00  0.00     0.031 C 
BRANCH   9  10
HETATM   10  C5  UNL     1      21.553   1.057  51.418  1.00  0.00     0.041 C 
BRANCH  10  11
HETATM   11  C4  UNL     1      20.727   0.289  52.422  1.00  0.00    -0.042 A 
HETATM   12  C3  UNL     1      20.515  -0.538  53.444  1.00  0.00    -0.043 A 
HETATM   13  C19 UNL     1      19.327   0.066  52.810  1.00  0.00     0.177 A 
BRANCH  12  14
HETATM   14  C2  UNL     1      21.244  -1.384  54.413  1.00  0.00     0.033 C 
HETATM   15  C1  UNL     1      22.720  -1.032  54.465  1.00  0.00     0.010 C 
ENDBRANCH  12  14
BRANCH  13  16
HETATM   16  O1  UNL     1      18.576  -0.701  51.950  1.00  0.00    -0.387 OA
HETATM   17  H20 UNL     1      18.271  -0.227  51.144  1.00  0.00     0.210 HD
ENDBRANCH  13  16
ENDBRANCH  10  11
ENDBRANCH   9  10
ENDBRANCH   8   9
ENDBRANCH   1   7
BRANCH   6  18
HETATM   18  N3  UNL     1      26.477   2.509  50.380  1.00  0.00    -0.340 N 
HETATM   19  H14 UNL     1      26.471   1.675  49.738  1.00  0.00     0.167 HD
BRANCH  18  20
HETATM   20  C13 UNL     1      26.207   3.745  49.749  1.00  0.00     0.035 A 
HETATM   21  C14 UNL     1      24.967   4.318  49.581  1.00  0.00     0.029 A 
HETATM   22  C15 UNL     1      24.709   5.523  48.966  1.00  0.00     0.004 A 
HETATM   23  C16 UNL     1      25.777   6.226  48.470  1.00  0.00     0.019 A 
HETATM   24  C17 UNL     1      27.035   5.714  48.603  1.00  0.00     0.013 A 
HETATM   25 BR1  UNL     1      28.520   6.684  47.918  1.00  0.00    -0.051 Br
HETATM   26  C18 UNL     1      27.226   4.506  49.228  1.00  0.00     0.048 A 
ENDBRANCH  18  20
ENDBRANCH   6  18
TORSDOF 8
ENDMDL
MODEL 5
REMARK VINA RESULT:      -7.8      3.003      7.557
REMARK  8 active torsions:
REMARK  status: ('A' for Active; 'I' for Inactive)
REMARK    1  A    between atoms: C2_2  and  C3_3 
REMARK    2  A    between atoms: C4_4  and  C5_5 
REMARK    3  A    between atoms: C5_5  and  C6_6 
REMARK    4  A    between atoms: C6_6  and  C7_7 
REMARK    5  A    between atoms: C8_8  and  C9_9 
REMARK    6  A    between atoms: C12_14  and  N3_15 
REMARK    7  A    between atoms: N3_15  and  C13_16 
REMARK    8  A    between atoms: C19_23  and  O1_24 
ROOT
HETATM    1  C9  UNL     1      25.763   1.564  52.566  1.00  0.00     0.027 A 
HETATM    2  C10 UNL     1      26.004   1.168  53.857  1.00  0.00     0.133 A 
HETATM    3  N1  UNL     1      27.220   1.373  54.416  1.00  0.00    -0.253 NA
HETATM    4  C11 UNL     1      28.195   1.975  53.676  1.00  0.00     0.234 A 
HETATM    5  N2  UNL     1      27.899   2.337  52.425  1.00  0.00    -0.224 NA
HETATM    6  C12 UNL     1      26.723   2.169  51.806  1.00  0.00     0.141 A 
ENDROOT
BRANCH   1   7
HETATM    7  C8  UNL     1      24.421   1.298  52.060  1.00  0.00     0.013 C 
HETATM    8  C7  UNL     1      23.356   1.888  52.576  1.00  0.00    -0.025 C 
BRANCH   8   9
HETATM    9  C6  UNL     1      21.941   1.757  52.213  1.00  0.00     0.031 C 
BRANCH   9  10
HETATM   10  C5  UNL     1      21.506   0.409  51.754  1.00  0.00     0.041 C 
BRANCH  10  11
HETATM   11  C4  UNL     1      20.703  -0.257  52.846  1.00  0.00    -0.042 A 
HETATM   12  C3  UNL     1      19.624  -0.807  53.398  1.00  0.00    -0.043 A 
HETATM   13  C19 UNL     1      20.842  -0.735  54.229  1.00  0.00     0.177 A 
BRANCH  12  14
HETATM   14  C2  UNL     1      18.216  -1.140  53.095  1.00  0.00     0.033 C 
HETATM   15  C1  UNL     1      17.851  -2.530  53.586  1.00  0.00     0.010 C 
ENDBRANCH  12  14
BRANCH  13  16
HETATM   16  O1  UNL     1      20.922   0.238  55.199  1.00  0.00    -0.387 OA
HETATM   17  H20 UNL     1      21.838   0.445  55.491  1.00  0.00     0.210 HD
ENDBRANCH  13  16
ENDBRANCH  10  11
ENDBRANCH   9  10
ENDBRANCH   8   9
ENDBRANCH   1   7
BRANCH   6  18
HETATM   18  N3  UNL     1      26.463   2.574  50.474  1.00  0.00    -0.340 N 
HETATM   19  H14 UNL     1      26.320   1.801  49.774  1.00  0.00     0.167 HD
BRANCH  18  20
HETATM   20  C13 UNL     1      26.368   3.881  49.942  1.00  0.00     0.035 A 
HETATM   21  C14 UNL     1      27.228   4.452  49.033  1.00  0.00     0.029 A 
HETATM   22  C15 UNL     1      27.132   5.725  48.517  1.00  0.00     0.004 A 
HETATM   23  C16 UNL     1      26.088   6.506  48.943  1.00  0.00     0.019 A 
HETATM   24  C17 UNL     1      25.198   6.001  49.845  1.00  0.00     0.013 A 
HETATM   25 BR1  UNL     1      23.748   7.079  50.438  1.00  0.00    -0.051 Br
HETATM   26  C18 UNL     1      25.349   4.721  50.321  1.00  0.00     0.048 A 
ENDBRANCH  18  20
ENDBRANCH   6  18
TORSDOF 8
ENDMDL
MODEL 6
REMARK VINA RESULT:      -7.5      3.123      5.393
REMARK  8 active torsions:
REMARK  status: ('A' for Active; 'I' for Inactive)
REMARK    1  A    between atoms: C2_2  and  C3_3 
REMARK    2  A    between atoms: C4_4  and  C5_5 
REMARK    3  A    between atoms: C5_5  and  C6_6 
REMARK    4  A    between atoms: C6_6  and  C7_7 
REMARK    5  A    between atoms: C8_8  and  C9_9 
REMARK    6  A    between atoms: C12_14  and  N3_15 
REMARK    7  A    between atoms: N3_15  and  C13_16 
REMARK    8  A    between atoms: C19_23  and  O1_24 
ROOT
HETATM    1  C9  UNL     1      22.521   0.393  53.390  1.00  0.00     0.027 A 
HETATM    2  C10 UNL     1      21.511  -0.069  54.196  1.00  0.00     0.133 A 
HETATM    3  N1  UNL     1      21.774  -0.976  55.165  1.00  0.00    -0.253 NA
HETATM    4  C11 UNL     1      23.054  -1.422  55.325  1.00  0.00     0.234 A 
HETATM    5  N2  UNL     1      23.993  -0.934  54.510  1.00  0.00    -0.224 NA
HETATM    6  C12 UNL     1      23.810  -0.038  53.532  1.00  0.00     0.141 A 
ENDROOT
BRANCH   1   7
HETATM    7  C8  UNL     1      22.131   1.368  52.379  1.00  0.00     0.013 C 
HETATM    8  C7  UNL     1      22.118   1.065  51.092  1.00  0.00    -0.025 C 
BRANCH   8   9
HETATM    9  C6  UNL     1      21.760   1.893  49.935  1.00  0.00     0.031 C 
BRANCH   9  10
HETATM   10  C5  UNL     1      22.896   2.388  49.110  1.00  0.00     0.041 C 
BRANCH  10  11
HETATM   11  C4  UNL     1      23.842   3.178  49.982  1.00  0.00    -0.042 A 
HETATM   12  C3  UNL     1      24.181   4.035  50.944  1.00  0.00    -0.043 A 
HETATM   13  C19 UNL     1      25.281   3.395  50.194  1.00  0.00     0.177 A 
BRANCH  12  14
HETATM   14  C2  UNL     1      23.581   4.921  51.963  1.00  0.00     0.033 C 
HETATM   15  C1  UNL     1      22.080   5.056  51.774  1.00  0.00     0.010 C 
ENDBRANCH  12  14
BRANCH  13  16
HETATM   16  O1  UNL     1      25.930   4.125  49.225  1.00  0.00    -0.387 OA
HETATM   17  H20 UNL     1      26.750   3.704  48.882  1.00  0.00     0.210 HD
ENDBRANCH  13  16
ENDBRANCH  10  11
ENDBRANCH   9  10
ENDBRANCH   8   9
ENDBRANCH   1   7
BRANCH   6  18
HETATM   18  N3  UNL     1      24.845   0.446  52.695  1.00  0.00    -0.340 N 
HETATM   19  H14 UNL     1      24.593   0.593  51.684  1.00  0.00     0.167 HD
BRANCH  18  20
HETATM   20  C13 UNL     1      26.183   0.762  53.025  1.00  0.00     0.035 A 
HETATM   21  C14 UNL     1      26.675   2.017  53.305  1.00  0.00     0.029 A 
HETATM   22  C15 UNL     1      27.979   2.322  53.626  1.00  0.00     0.004 A 
HETATM   23  C16 UNL     1      28.880   1.289  53.673  1.00  0.00     0.019 A 
HETATM   24  C17 UNL     1      28.458   0.019  53.405  1.00  0.00     0.013 A 
HETATM   25 BR1  UNL     1      29.703  -1.417  53.468  1.00  0.00    -0.051 Br
HETATM   26  C18 UNL     1      27.142  -0.219  53.091  1.00  0.00     0.048 A 
ENDBRANCH  18  20
ENDBRANCH   6  18
TORSDOF 8
ENDMDL
MODEL 7
REMARK VINA RESULT:      -7.5      2.551      4.673
REMARK  8 active torsions:
REMARK  status: ('A' for Active; 'I' for Inactive)
REMARK    1  A    between atoms: C2_2  and  C3_3 
REMARK    2  A    between atoms: C4_4  and  C5_5 
REMARK    3  A    between atoms: C5_5  and  C6_6 
REMARK    4  A    between atoms: C6_6  and  C7_7 
REMARK    5  A    between atoms: C8_8  and  C9_9 
REMARK    6  A    between atoms: C12_14  and  N3_15 
REMARK    7  A    between atoms: N3_15  and  C13_16 
REMARK    8  A    between atoms: C19_23  and  O1_24 
ROOT
HETATM    1  C9  UNL     1      22.773   0.283  52.907  1.00  0.00     0.027 A 
HETATM    2  C10 UNL     1      21.642   0.207  53.680  1.00  0.00     0.133 A 
HETATM    3  N1  UNL     1      21.662  -0.469  54.852  1.00  0.00    -0.253 NA
HETATM    4  C11 UNL     1      22.821  -1.072  55.248  1.00  0.00     0.234 A 
HETATM    5  N2  UNL     1      23.888  -0.962  54.452  1.00  0.00    -0.224 NA
HETATM    6  C12 UNL     1      23.944  -0.311  53.283  1.00  0.00     0.141 A 
ENDROOT
BRANCH   1   7
HETATM    7  C8  UNL     1      22.643   1.036  51.665  1.00  0.00     0.013 C 
HETATM    8  C7  UNL     1      22.675   2.358  51.649  1.00  0.00    -0.025 C 
BRANCH   8   9
HETATM    9  C6  UNL     1      22.563   3.287  50.519  1.00  0.00     0.031 C 
BRANCH   9  10
HETATM   10  C5  UNL     1      23.562   3.114  49.430  1.00  0.00     0.041 C 
BRANCH  10  11
HETATM   11  C4  UNL     1      24.618   4.186  49.544  1.00  0.00    -0.042 A 
HETATM   12  C3  UNL     1      25.838   4.710  49.431  1.00  0.00    -0.043 A 
HETATM   13  C19 UNL     1      24.781   5.580  49.982  1.00  0.00     0.177 A 
BRANCH  12  14
HETATM   14  C2  UNL     1      27.204   4.364  48.984  1.00  0.00     0.033 C 
HETATM   15  C1  UNL     1      27.932   5.573  48.423  1.00  0.00     0.010 C 
ENDBRANCH  12  14
BRANCH  13  16
HETATM   16  O1  UNL     1      24.745   5.794  51.341  1.00  0.00    -0.387 OA
HETATM   17  H20 UNL     1      25.487   6.339  51.686  1.00  0.00     0.210 HD
ENDBRANCH  13  16
ENDBRANCH  10  11
ENDBRANCH   9  10
ENDBRANCH   8   9
ENDBRANCH   1   7
BRANCH   6  18
HETATM   18  N3  UNL     1      25.106  -0.226  52.477  1.00  0.00    -0.340 N 
HETATM   19  H14 UNL     1      24.951   0.014  51.465  1.00  0.00     0.167 HD
BRANCH  18  20
HETATM   20  C13 UNL     1      26.458  -0.420  52.841  1.00  0.00     0.035 A 
HETATM   21  C14 UNL     1      27.160  -1.602  52.759  1.00  0.00     0.029 A 
HETATM   22  C15 UNL     1      28.477  -1.787  53.114  1.00  0.00     0.004 A 
HETATM   23  C16 UNL     1      29.164  -0.702  53.597  1.00  0.00     0.019 A 
HETATM   24  C17 UNL     1      28.528   0.500  53.704  1.00  0.00     0.013 A 
HETATM   25 BR1  UNL     1      29.475   2.007  54.373  1.00  0.00    -0.051 Br
HETATM   26  C18 UNL     1      27.211   0.619  53.333  1.00  0.00     0.048 A 
ENDBRANCH  18  20
ENDBRANCH   6  18
TORSDOF 8
ENDMDL
MODEL 8
REMARK VINA RESULT:      -7.5      1.846      2.855
REMARK  8 active torsions:
REMARK  status: ('A' for Active; 'I' for Inactive)
REMARK    1  A    between atoms: C2_2  and  C3_3 
REMARK    2  A    between atoms: C4_4  and  C5_5 
REMARK    3  A    between atoms: C5_5  and  C6_6 
REMARK    4  A    between atoms: C6_6  and  C7_7 
REMARK    5  A    between atoms: C8_8  and  C9_9 
REMARK    6  A    between atoms: C12_14  and  N3_15 
REMARK    7  A    between atoms: N3_15  and  C13_16 
REMARK    8  A    between atoms: C19_23  and  O1_24 
ROOT
HETATM    1  C9  UNL     1      26.911   1.259  52.514  1.00  0.00     0.027 A 
HETATM    2  C10 UNL     1      28.154   0.712  52.711  1.00  0.00     0.133 A 
HETATM    3  N1  UNL     1      28.515   0.266  53.937  1.00  0.00    -0.253 NA
HETATM    4  C11 UNL     1      27.626   0.371  54.967  1.00  0.00     0.234 A 
HETATM    5  N2  UNL     1      26.432   0.911  54.712  1.00  0.00    -0.224 NA
HETATM    6  C12 UNL     1      26.004   1.373  53.530  1.00  0.00     0.141 A 
ENDROOT
BRANCH   1   7
HETATM    7  C8  UNL     1      26.623   1.707  51.156  1.00  0.00     0.013 C 
HETATM    8  C7  UNL     1      26.765   2.972  50.800  1.00  0.00    -0.025 C 
BRANCH   8   9
HETATM    9  C6  UNL     1      26.530   3.615  49.501  1.00  0.00     0.031 C 
BRANCH   9  10
HETATM   10  C5  UNL     1      26.006   5.006  49.546  1.00  0.00     0.041 C 
BRANCH  10  11
HETATM   11  C4  UNL     1      24.598   4.994  50.091  1.00  0.00    -0.042 A 
HETATM   12  C3  UNL     1      23.280   4.803  50.052  1.00  0.00    -0.043 A 
HETATM   13  C19 UNL     1      23.852   5.295  51.322  1.00  0.00     0.177 A 
BRANCH  12  14
HETATM   14  C2  UNL     1      22.206   4.358  49.140  1.00  0.00     0.033 C 
HETATM   15  C1  UNL     1      22.669   3.227  48.239  1.00  0.00     0.010 C 
ENDBRANCH  12  14
BRANCH  13  16
HETATM   16  O1  UNL     1      23.715   6.628  51.634  1.00  0.00    -0.387 OA
HETATM   17  H20 UNL     1      24.523   7.041  52.012  1.00  0.00     0.210 HD
ENDBRANCH  13  16
ENDBRANCH  10  11
ENDBRANCH   9  10
ENDBRANCH   8   9
ENDBRANCH   1   7
BRANCH   6  18
HETATM   18  N3  UNL     1      24.724   1.938  53.315  1.00  0.00    -0.340 N 
HETATM   19  H14 UNL     1      24.620   2.956  53.559  1.00  0.00     0.167 HD
BRANCH  18  20
HETATM   20  C13 UNL     1      23.552   1.326  52.814  1.00  0.00     0.035 A 
HETATM   21  C14 UNL     1      22.956   1.584  51.601  1.00  0.00     0.029 A 
HETATM   22  C15 UNL     1      21.814   0.986  51.116  1.00  0.00     0.004 A 
HETATM   23  C16 UNL     1      21.206   0.044  51.906  1.00  0.00     0.019 A 
HETATM   24  C17 UNL     1      21.745  -0.260  53.122  1.00  0.00     0.013 A 
HETATM   25 BR1  UNL     1      20.907  -1.565  54.221  1.00  0.00    -0.051 Br
HETATM   26  C18 UNL     1      22.887   0.374  53.548  1.00  0.00     0.048 A 
ENDBRANCH  18  20
ENDBRANCH   6  18
TORSDOF 8
ENDMDL
MODEL 9
REMARK VINA RESULT:      -7.5      3.588      6.341
REMARK  8 active torsions:
REMARK  status: ('A' for Active; 'I' for Inactive)
REMARK    1  A    between atoms: C2_2  and  C3_3 
REMARK    2  A    between atoms: C4_4  and  C5_5 
REMARK    3  A    between atoms: C5_5  and  C6_6 
REMARK    4  A    between atoms: C6_6  and  C7_7 
REMARK    5  A    between atoms: C8_8  and  C9_9 
REMARK    6  A    between atoms: C12_14  and  N3_15 
REMARK    7  A    between atoms: N3_15  and  C13_16 
REMARK    8  A    between atoms: C19_23  and  O1_24 
ROOT
HETATM    1  C9  UNL     1      26.112   3.947  50.197  1.00  0.00     0.027 A 
HETATM    2  C10 UNL     1      27.050   4.182  49.223  1.00  0.00     0.133 A 
HETATM    3  N1  UNL     1      27.060   5.361  48.558  1.00  0.00    -0.253 NA
HETATM    4  C11 UNL     1      26.125   6.305  48.871  1.00  0.00     0.234 A 
HETATM    5  N2  UNL     1      25.240   6.016  49.828  1.00  0.00    -0.224 NA
HETATM    6  C12 UNL     1      25.167   4.877  50.527  1.00  0.00     0.141 A 
ENDROOT
BRANCH   1   7
HETATM    7  C8  UNL     1      26.190   2.646  50.851  1.00  0.00     0.013 C 
HETATM    8  C7  UNL     1      27.114   2.381  51.759  1.00  0.00    -0.025 C 
BRANCH   8   9
HETATM    9  C6  UNL     1      27.357   1.151  52.522  1.00  0.00     0.031 C 
BRANCH   9  10
HETATM   10  C5  UNL     1      26.589  -0.048  52.089  1.00  0.00     0.041 C 
BRANCH  10  11
HETATM   11  C4  UNL     1      25.440  -0.277  53.041  1.00  0.00    -0.042 A 
HETATM   12  C3  UNL     1      24.208  -0.117  53.521  1.00  0.00    -0.043 A 
HETATM   13  C19 UNL     1      25.099  -1.042  54.249  1.00  0.00     0.177 A 
BRANCH  12  14
HETATM   14  C2  UNL     1      22.952   0.615  53.253  1.00  0.00     0.033 C 
HETATM   15  C1  UNL     1      21.861  -0.312  52.748  1.00  0.00     0.010 C 
ENDBRANCH  12  14
BRANCH  13  16
HETATM   16  O1  UNL     1      25.681  -0.613  55.420  1.00  0.00    -0.387 OA
HETATM   17  H20 UNL     1      25.458  -1.157  56.208  1.00  0.00     0.210 HD
ENDBRANCH  13  16
ENDBRANCH  10  11
ENDBRANCH   9  10
ENDBRANCH   8   9
ENDBRANCH   1   7
BRANCH   6  18
HETATM   18  N3  UNL     1      24.204   4.623  51.534  1.00  0.00    -0.340 N 
HETATM   19  H14 UNL     1      24.466   4.917  52.510  1.00  0.00     0.167 HD
BRANCH  18  20
HETATM   20  C13 UNL     1      22.929   4.024  51.416  1.00  0.00     0.035 A 
HETATM   21  C14 UNL     1      21.829   4.295  52.198  1.00  0.00     0.029 A 
HETATM   22  C15 UNL     1      20.588   3.710  52.081  1.00  0.00     0.004 A 
HETATM   23  C16 UNL     1      20.420   2.769  51.097  1.00  0.00     0.019 A 
HETATM   24  C17 UNL     1      21.470   2.453  50.286  1.00  0.00     0.013 A 
HETATM   25 BR1  UNL     1      21.243   1.149  48.921  1.00  0.00    -0.051 Br
HETATM   26  C18 UNL     1      22.684   3.073  50.455  1.00  0.00     0.048 A 
ENDBRANCH  18  20
ENDBRANCH   6  18
TORSDOF 8
ENDMDL
