MODEL 1
REMARK VINA RESULT:      -8.8      0.000      0.000
REMARK  2 active torsions:
REMARK  status: ('A' for Active; 'I' for Inactive)
REMARK    1  A    between atoms: O1_1  and  C1_2 
REMARK    2  A    between atoms: N1_9  and  C6_10 
ROOT
HETATM    1  C6  UNL     1      25.426   0.920  52.422  1.00  0.00     0.166 A 
HETATM    2  N2  UNL     1      25.352   1.885  51.458  1.00  0.00    -0.221 NA
HETATM    3  C7  UNL     1      24.126   2.311  51.035  1.00  0.00     0.236 A 
HETATM    4  N3  UNL     1      22.945   1.844  51.505  1.00  0.00    -0.239 NA
HETATM    5  C8  UNL     1      23.005   0.900  52.448  1.00  0.00     0.095 A 
HETATM    6  C9  UNL     1      24.225   0.429  52.915  1.00  0.00     0.104 A 
HETATM    7  N4  UNL     1      24.279  -0.564  53.908  1.00  0.00    -0.384 N 
HETATM    8  C10 UNL     1      23.112  -1.275  54.386  1.00  0.00     0.129 C 
HETATM    9  C11 UNL     1      21.861  -0.426  54.318  1.00  0.00     0.039 C 
HETATM   10  C12 UNL     1      20.631  -1.292  54.202  1.00  0.00     0.015 C 
HETATM   11  C13 UNL     1      19.654  -0.364  53.481  1.00  0.00     0.028 C 
HETATM   12  C14 UNL     1      20.570   0.367  52.544  1.00  0.00    -0.017 C 
HETATM   13  C15 UNL     1      21.792   0.319  53.032  1.00  0.00    -0.025 C 
HETATM   14  H4  UNL     1      25.176  -0.836  54.348  1.00  0.00     0.159 HD
ENDROOT
BRANCH   1  15
HETATM   15  N1  UNL     1      26.682   0.442  52.896  1.00  0.00    -0.283 N 
HETATM   16  C1  UNL     1      27.476   1.417  53.595  1.00  0.00     0.173 C 
HETATM   17  C2  UNL     1      28.668   1.005  54.059  1.00  0.00     0.124 C 
HETATM   18 CL1  UNL     1      29.753   2.089  54.935  1.00  0.00    -0.076 Cl
HETATM   19  C3  UNL     1      29.086  -0.392  53.831  1.00  0.00     0.154 C 
HETATM   20  F1  UNL     1      30.166  -0.908  54.470  1.00  0.00    -0.203 F 
HETATM   21  C4  UNL     1      28.410  -1.143  53.005  1.00  0.00     0.035 C 
HETATM   22  C5  UNL     1      27.150  -0.883  52.716  1.00  0.00     0.116 C 
BRANCH  16  23
HETATM   23  O1  UNL     1      27.080   2.734  53.809  1.00  0.00    -0.344 OA
HETATM   24  H1  UNL     1      26.952   3.277  52.943  1.00  0.00     0.219 HD
ENDBRANCH  16  23
ENDBRANCH   1  15
TORSDOF 2
ENDMDL
MODEL 2
REMARK VINA RESULT:      -8.4      1.319      2.669
REMARK  2 active torsions:
REMARK  status: ('A' for Active; 'I' for Inactive)
REMARK    1  A    between atoms: O1_1  and  C1_2 
REMARK    2  A    between atoms: N1_9  and  C6_10 
ROOT
HETATM    1  C6  UNL     1      25.116  -0.659  54.230  1.00  0.00     0.166 A 
HETATM    2  N2  UNL     1      24.657  -1.351  55.315  1.00  0.00    -0.221 NA
HETATM    3  C7  UNL     1      23.315  -1.396  55.558  1.00  0.00     0.236 A 
HETATM    4  N3  UNL     1      22.373  -0.795  54.792  1.00  0.00    -0.239 NA
HETATM    5  C8  UNL     1      22.810  -0.115  53.728  1.00  0.00     0.095 A 
HETATM    6  C9  UNL     1      24.165  -0.035  53.434  1.00  0.00     0.104 A 
HETATM    7  N4  UNL     1      24.615   0.683  52.313  1.00  0.00    -0.384 N 
HETATM    8  C10 UNL     1      23.750   1.511  51.499  1.00  0.00     0.129 C 
HETATM    9  C11 UNL     1      22.329   0.992  51.469  1.00  0.00     0.039 C 
HETATM   10  C12 UNL     1      21.356   2.111  51.189  1.00  0.00     0.015 C 
HETATM   11  C13 UNL     1      20.080   1.598  51.856  1.00  0.00     0.028 C 
HETATM   12  C14 UNL     1      20.632   0.906  53.067  1.00  0.00    -0.017 C 
HETATM   13  C15 UNL     1      21.884   0.577  52.827  1.00  0.00    -0.025 C 
HETATM   14  H4  UNL     1      25.606   0.649  52.016  1.00  0.00     0.159 HD
ENDROOT
BRANCH   1  15
HETATM   15  N1  UNL     1      26.507  -0.582  53.934  1.00  0.00    -0.283 N 
HETATM   16  C1  UNL     1      27.124   0.680  54.243  1.00  0.00     0.173 C 
HETATM   17  C2  UNL     1      28.437   0.792  53.979  1.00  0.00     0.124 C 
HETATM   18 CL1  UNL     1      29.330   2.280  54.304  1.00  0.00    -0.076 Cl
HETATM   19  C3  UNL     1      29.155  -0.360  53.399  1.00  0.00     0.154 C 
HETATM   20  F1  UNL     1      30.511  -0.370  53.328  1.00  0.00    -0.203 F 
HETATM   21  C4  UNL     1      28.482  -1.383  52.950  1.00  0.00     0.035 C 
HETATM   22  C5  UNL     1      27.263  -1.645  53.379  1.00  0.00     0.116 C 
BRANCH  16  23
HETATM   23  O1  UNL     1      26.445   1.765  54.789  1.00  0.00    -0.344 OA
HETATM   24  H1  UNL     1      25.763   1.506  55.516  1.00  0.00     0.219 HD
ENDBRANCH  16  23
ENDBRANCH   1  15
TORSDOF 2
ENDMDL
MODEL 3
REMARK VINA RESULT:      -8.3      1.540      1.859
REMARK  2 active torsions:
REMARK  status: ('A' for Active; 'I' for Inactive)
REMARK    1  A    between atoms: O1_1  and  C1_2 
REMARK    2  A    between atoms: N1_9  and  C6_10 
ROOT
HETATM    1  C6  UNL     1      25.646   1.030  52.458  1.00  0.00     0.166 A 
HETATM    2  N2  UNL     1      25.533   1.912  51.422  1.00  0.00    -0.221 NA
HETATM    3  C7  UNL     1      24.292   2.240  50.958  1.00  0.00     0.236 A 
HETATM    4  N3  UNL     1      23.131   1.751  51.455  1.00  0.00    -0.239 NA
HETATM    5  C8  UNL     1      23.228   0.886  52.469  1.00  0.00     0.095 A 
HETATM    6  C9  UNL     1      24.466   0.516  52.980  1.00  0.00     0.104 A 
HETATM    7  N4  UNL     1      24.560  -0.393  54.047  1.00  0.00    -0.384 N 
HETATM    8  C10 UNL     1      23.425  -1.125  54.571  1.00  0.00     0.129 C 
HETATM    9  C11 UNL     1      22.133  -0.349  54.428  1.00  0.00     0.039 C 
HETATM   10  C12 UNL     1      20.950  -1.284  54.371  1.00  0.00     0.015 C 
HETATM   11  C13 UNL     1      19.935  -0.466  53.573  1.00  0.00     0.028 C 
HETATM   12  C14 UNL     1      20.823   0.237  52.589  1.00  0.00    -0.017 C 
HETATM   13  C15 UNL     1      22.041   0.290  53.087  1.00  0.00    -0.025 C 
HETATM   14  H4  UNL     1      25.464  -0.583  54.513  1.00  0.00     0.159 HD
ENDROOT
BRANCH   1  15
HETATM   15  N1  UNL     1      26.919   0.656  52.977  1.00  0.00    -0.283 N 
HETATM   16  C1  UNL     1      27.275  -0.723  52.775  1.00  0.00     0.173 C 
HETATM   17  C2  UNL     1      28.469  -1.116  53.250  1.00  0.00     0.124 C 
HETATM   18 CL1  UNL     1      29.042  -2.777  53.076  1.00  0.00    -0.076 Cl
HETATM   19  C3  UNL     1      29.328  -0.132  53.937  1.00  0.00     0.154 C 
HETATM   20  F1  UNL     1      30.622  -0.423  54.228  1.00  0.00    -0.203 F 
HETATM   21  C4  UNL     1      28.842   1.031  54.270  1.00  0.00     0.035 C 
HETATM   22  C5  UNL     1      27.798   1.542  53.647  1.00  0.00     0.116 C 
BRANCH  16  23
HETATM   23  O1  UNL     1      26.463  -1.649  52.126  1.00  0.00    -0.344 OA
HETATM   24  H1  UNL     1      25.752  -2.079  52.735  1.00  0.00     0.219 HD
ENDBRANCH  16  23
ENDBRANCH   1  15
TORSDOF 2
ENDMDL
MODEL 4
REMARK VINA RESULT:      -8.2      2.239      4.350
REMARK  2 active torsions:
REMARK  status: ('A' for Active; 'I' for Inactive)
REMARK    1  A    between atoms: O1_1  and  C1_2 
REMARK    2  A    between atoms: N1_9  and  C6_10 
ROOT
HETATM    1  C6  UNL     1      25.682   1.093  52.754  1.00  0.00     0.166 A 
HETATM    2  N2  UNL     1      24.605   0.571  53.412  1.00  0.00    -0.221 NA
HETATM    3  C7  UNL     1      23.349   0.969  53.054  1.00  0.00     0.236 A 
HETATM    4  N3  UNL     1      23.074   1.860  52.072  1.00  0.00    -0.239 NA
HETATM    5  C8  UNL     1      24.121   2.377  51.421  1.00  0.00     0.095 A 
HETATM    6  C9  UNL     1      25.420   2.009  51.745  1.00  0.00     0.104 A 
HETATM    7  N4  UNL     1      26.515   2.557  51.055  1.00  0.00    -0.384 N 
HETATM    8  C10 UNL     1      26.392   3.639  50.100  1.00  0.00     0.129 C 
HETATM    9  C11 UNL     1      25.057   3.620  49.386  1.00  0.00     0.039 C 
HETATM   10  C12 UNL     1      24.684   5.001  48.909  1.00  0.00     0.015 C 
HETATM   11  C13 UNL     1      23.158   4.927  48.880  1.00  0.00     0.028 C 
HETATM   12  C14 UNL     1      22.876   4.070  50.078  1.00  0.00    -0.017 C 
HETATM   13  C15 UNL     1      23.947   3.351  50.340  1.00  0.00    -0.025 C 
HETATM   14  H4  UNL     1      27.476   2.203  51.203  1.00  0.00     0.159 HD
ENDROOT
BRANCH   1  15
HETATM   15  N1  UNL     1      27.013   0.710  53.091  1.00  0.00    -0.283 N 
HETATM   16  C1  UNL     1      27.293  -0.693  52.953  1.00  0.00     0.173 C 
HETATM   17  C2  UNL     1      28.538  -1.095  53.261  1.00  0.00     0.124 C 
HETATM   18 CL1  UNL     1      29.030  -2.787  53.139  1.00  0.00    -0.076 Cl
HETATM   19  C3  UNL     1      29.525  -0.095  53.715  1.00  0.00     0.154 C 
HETATM   20  F1  UNL     1      30.840  -0.414  53.818  1.00  0.00    -0.203 F 
HETATM   21  C4  UNL     1      29.131   1.110  54.021  1.00  0.00     0.035 C 
HETATM   22  C5  UNL     1      28.013   1.611  53.533  1.00  0.00     0.116 C 
BRANCH  16  23
HETATM   23  O1  UNL     1      26.361  -1.634  52.524  1.00  0.00    -0.344 OA
HETATM   24  H1  UNL     1      26.618  -2.607  52.747  1.00  0.00     0.219 HD
ENDBRANCH  16  23
ENDBRANCH   1  15
TORSDOF 2
ENDMDL
MODEL 5
REMARK VINA RESULT:      -8.1      2.006      3.288
REMARK  2 active torsions:
REMARK  status: ('A' for Active; 'I' for Inactive)
REMARK    1  A    between atoms: O1_1  and  C1_2 
REMARK    2  A    between atoms: N1_9  and  C6_10 
ROOT
HETATM    1  C6  UNL     1      24.285  -0.023  53.717  1.00  0.00     0.166 A 
HETATM    2  N2  UNL     1      23.886  -0.836  54.739  1.00  0.00    -0.221 NA
HETATM    3  C7  UNL     1      22.595  -1.278  54.773  1.00  0.00     0.236 A 
HETATM    4  N3  UNL     1      21.651  -0.969  53.853  1.00  0.00    -0.239 NA
HETATM    5  C8  UNL     1      22.030  -0.174  52.848  1.00  0.00     0.095 A 
HETATM    6  C9  UNL     1      23.330   0.306  52.764  1.00  0.00     0.104 A 
HETATM    7  N4  UNL     1      23.721   1.142  51.704  1.00  0.00    -0.384 N 
HETATM    8  C10 UNL     1      22.790   1.691  50.740  1.00  0.00     0.129 C 
HETATM    9  C11 UNL     1      21.606   0.777  50.508  1.00  0.00     0.039 C 
HETATM   10  C12 UNL     1      20.404   1.564  50.046  1.00  0.00     0.015 C 
HETATM   11  C13 UNL     1      19.247   0.689  50.524  1.00  0.00     0.028 C 
HETATM   12  C14 UNL     1      19.780   0.170  51.826  1.00  0.00    -0.017 C 
HETATM   13  C15 UNL     1      21.095   0.229  51.793  1.00  0.00    -0.025 C 
HETATM   14  H4  UNL     1      24.712   1.406  51.565  1.00  0.00     0.159 HD
ENDROOT
BRANCH   1  15
HETATM   15  N1  UNL     1      25.622   0.464  53.637  1.00  0.00    -0.283 N 
HETATM   16  C1  UNL     1      26.629  -0.551  53.487  1.00  0.00     0.173 C 
HETATM   17  C2  UNL     1      27.903  -0.132  53.407  1.00  0.00     0.124 C 
HETATM   18 CL1  UNL     1      29.247  -1.262  53.221  1.00  0.00    -0.076 Cl
HETATM   19  C3  UNL     1      28.191   1.314  53.477  1.00  0.00     0.154 C 
HETATM   20  F1  UNL     1      29.425   1.793  53.177  1.00  0.00    -0.203 F 
HETATM   21  C4  UNL     1      27.249   2.144  53.832  1.00  0.00     0.035 C 
HETATM   22  C5  UNL     1      25.975   1.835  53.697  1.00  0.00     0.116 C 
BRANCH  16  23
HETATM   23  O1  UNL     1      26.355  -1.914  53.420  1.00  0.00    -0.344 OA
HETATM   24  H1  UNL     1      25.885  -2.203  52.551  1.00  0.00     0.219 HD
ENDBRANCH  16  23
ENDBRANCH   1  15
TORSDOF 2
ENDMDL
MODEL 6
REMARK VINA RESULT:      -7.9      4.106      5.718
REMARK  2 active torsions:
REMARK  status: ('A' for Active; 'I' for Inactive)
REMARK    1  A    between atoms: O1_1  and  C1_2 
REMARK    2  A    between atoms: N1_9  and  C6_10 
ROOT
HETATM    1  C6  UNL     1      24.796   3.411  50.339  1.00  0.00     0.166 A 
HETATM    2  N2  UNL     1      23.598   3.117  49.754  1.00  0.00    -0.221 NA
HETATM    3  C7  UNL     1      22.848   2.089  50.249  1.00  0.00     0.236 A 
HETATM    4  N3  UNL     1      23.203   1.315  51.302  1.00  0.00    -0.239 NA
HETATM    5  C8  UNL     1      24.374   1.594  51.884  1.00  0.00     0.095 A 
HETATM    6  C9  UNL     1      25.177   2.627  51.421  1.00  0.00     0.104 A 
HETATM    7  N4  UNL     1      26.406   2.913  52.038  1.00  0.00    -0.384 N 
HETATM    8  C10 UNL     1      26.996   2.076  53.062  1.00  0.00     0.129 C 
HETATM    9  C11 UNL     1      25.947   1.369  53.893  1.00  0.00     0.039 C 
HETATM   10  C12 UNL     1      26.499   0.095  54.482  1.00  0.00     0.015 C 
HETATM   11  C13 UNL     1      25.238  -0.752  54.647  1.00  0.00     0.028 C 
HETATM   12  C14 UNL     1      24.451  -0.360  53.432  1.00  0.00    -0.017 C 
HETATM   13  C15 UNL     1      24.863   0.824  53.031  1.00  0.00    -0.025 C 
HETATM   14  H4  UNL     1      26.955   3.753  51.781  1.00  0.00     0.159 HD
ENDROOT
BRANCH   1  15
HETATM   15  N1  UNL     1      25.614   4.474  49.859  1.00  0.00    -0.283 N 
HETATM   16  C1  UNL     1      25.134   5.794  50.165  1.00  0.00     0.173 C 
HETATM   17  C2  UNL     1      25.878   6.825  49.730  1.00  0.00     0.124 C 
HETATM   18 CL1  UNL     1      25.415   8.502  50.030  1.00  0.00    -0.076 Cl
HETATM   19  C3  UNL     1      27.118   6.550  48.979  1.00  0.00     0.154 C 
HETATM   20  F1  UNL     1      28.008   7.541  48.720  1.00  0.00    -0.203 F 
HETATM   21  C4  UNL     1      27.365   5.340  48.558  1.00  0.00     0.035 C 
HETATM   22  C5  UNL     1      26.816   4.288  49.133  1.00  0.00     0.116 C 
BRANCH  16  23
HETATM   23  O1  UNL     1      23.963   6.051  50.874  1.00  0.00    -0.344 OA
HETATM   24  H1  UNL     1      23.164   6.310  50.279  1.00  0.00     0.219 HD
ENDBRANCH  16  23
ENDBRANCH   1  15
TORSDOF 2
ENDMDL
MODEL 7
REMARK VINA RESULT:      -7.7      3.398      5.456
REMARK  2 active torsions:
REMARK  status: ('A' for Active; 'I' for Inactive)
REMARK    1  A    between atoms: O1_1  and  C1_2 
REMARK    2  A    between atoms: N1_9  and  C6_10 
ROOT
HETATM    1  C6  UNL     1      26.086   3.249  50.805  1.00  0.00     0.166 A 
HETATM    2  N2  UNL     1      27.062   3.232  49.850  1.00  0.00    -0.221 NA
HETATM    3  C7  UNL     1      27.141   4.263  48.959  1.00  0.00     0.236 A 
HETATM    4  N3  UNL     1      26.310   5.332  48.943  1.00  0.00    -0.239 NA
HETATM    5  C8  UNL     1      25.351   5.360  49.874  1.00  0.00     0.095 A 
HETATM    6  C9  UNL     1      25.224   4.337  50.804  1.00  0.00     0.104 A 
HETATM    7  N4  UNL     1      24.212   4.374  51.779  1.00  0.00    -0.384 N 
HETATM    8  C10 UNL     1      23.152   5.360  51.787  1.00  0.00     0.129 C 
HETATM    9  C11 UNL     1      23.597   6.680  51.194  1.00  0.00     0.039 C 
HETATM   10  C12 UNL     1      22.419   7.442  50.639  1.00  0.00     0.015 C 
HETATM   11  C13 UNL     1      23.074   8.293  49.552  1.00  0.00     0.028 C 
HETATM   12  C14 UNL     1      24.117   7.354  49.023  1.00  0.00    -0.017 C 
HETATM   13  C15 UNL     1      24.392   6.466  49.955  1.00  0.00    -0.025 C 
HETATM   14  H4  UNL     1      24.182   3.683  52.549  1.00  0.00     0.159 HD
ENDROOT
BRANCH   1  15
HETATM   15  N1  UNL     1      25.963   2.196  51.757  1.00  0.00    -0.283 N 
HETATM   16  C1  UNL     1      27.103   2.017  52.614  1.00  0.00     0.173 C 
HETATM   17  C2  UNL     1      27.026   1.033  53.526  1.00  0.00     0.124 C 
HETATM   18 CL1  UNL     1      28.348   0.695  54.647  1.00  0.00    -0.076 Cl
HETATM   19  C3  UNL     1      25.803   0.211  53.595  1.00  0.00     0.154 C 
HETATM   20  F1  UNL     1      25.591  -0.634  54.637  1.00  0.00    -0.203 F 
HETATM   21  C4  UNL     1      24.912   0.295  52.646  1.00  0.00     0.035 C 
HETATM   22  C5  UNL     1      24.821   1.366  51.883  1.00  0.00     0.116 C 
BRANCH  16  23
HETATM   23  O1  UNL     1      28.256   2.794  52.546  1.00  0.00    -0.344 OA
HETATM   24  H1  UNL     1      28.395   3.406  53.363  1.00  0.00     0.219 HD
ENDBRANCH  16  23
ENDBRANCH   1  15
TORSDOF 2
ENDMDL
MODEL 8
REMARK VINA RESULT:      -7.6      3.791      5.432
REMARK  2 active torsions:
REMARK  status: ('A' for Active; 'I' for Inactive)
REMARK    1  A    between atoms: O1_1  and  C1_2 
REMARK    2  A    between atoms: N1_9  and  C6_10 
ROOT
HETATM    1  C6  UNL     1      24.436   2.634  51.593  1.00  0.00     0.166 A 
HETATM    2  N2  UNL     1      25.705   2.480  52.073  1.00  0.00    -0.221 NA
HETATM    3  C7  UNL     1      25.961   1.490  52.977  1.00  0.00     0.236 A 
HETATM    4  N3  UNL     1      25.034   0.622  53.450  1.00  0.00    -0.239 NA
HETATM    5  C8  UNL     1      23.788   0.763  52.987  1.00  0.00     0.095 A 
HETATM    6  C9  UNL     1      23.473   1.754  52.067  1.00  0.00     0.104 A 
HETATM    7  N4  UNL     1      22.160   1.895  51.586  1.00  0.00    -0.384 N 
HETATM    8  C10 UNL     1      21.034   1.156  52.118  1.00  0.00     0.129 C 
HETATM    9  C11 UNL     1      21.442  -0.204  52.640  1.00  0.00     0.039 C 
HETATM   10  C12 UNL     1      20.484  -0.679  53.705  1.00  0.00     0.015 C 
HETATM   11  C13 UNL     1      21.366  -1.608  54.537  1.00  0.00     0.028 C 
HETATM   12  C14 UNL     1      22.683  -0.892  54.492  1.00  0.00    -0.017 C 
HETATM   13  C15 UNL     1      22.702  -0.117  53.427  1.00  0.00    -0.025 C 
HETATM   14  H4  UNL     1      21.938   2.548  50.813  1.00  0.00     0.159 HD
ENDROOT
BRANCH   1  15
HETATM   15  N1  UNL     1      24.120   3.653  50.648  1.00  0.00    -0.283 N 
HETATM   16  C1  UNL     1      23.984   4.973  51.203  1.00  0.00     0.173 C 
HETATM   17  C2  UNL     1      23.687   5.962  50.344  1.00  0.00     0.124 C 
HETATM   18 CL1  UNL     1      23.489   7.634  50.879  1.00  0.00    -0.076 Cl
HETATM   19  C3  UNL     1      23.520   5.646  48.912  1.00  0.00     0.154 C 
HETATM   20  F1  UNL     1      23.445   6.635  47.986  1.00  0.00    -0.203 F 
HETATM   21  C4  UNL     1      23.443   4.402  48.529  1.00  0.00     0.035 C 
HETATM   22  C5  UNL     1      23.945   3.426  49.261  1.00  0.00     0.116 C 
BRANCH  16  23
HETATM   23  O1  UNL     1      24.143   5.268  52.554  1.00  0.00    -0.344 OA
HETATM   24  H1  UNL     1      23.610   6.093  52.866  1.00  0.00     0.219 HD
ENDBRANCH  16  23
ENDBRANCH   1  15
TORSDOF 2
ENDMDL
MODEL 9
REMARK VINA RESULT:      -7.4      3.668      6.460
REMARK  2 active torsions:
REMARK  status: ('A' for Active; 'I' for Inactive)
REMARK    1  A    between atoms: O1_1  and  C1_2 
REMARK    2  A    between atoms: N1_9  and  C6_10 
ROOT
HETATM    1  C6  UNL     1      23.625   3.836  51.709  1.00  0.00     0.166 A 
HETATM    2  N2  UNL     1      22.746   4.810  52.090  1.00  0.00    -0.221 NA
HETATM    3  C7  UNL     1      22.917   6.082  51.624  1.00  0.00     0.236 A 
HETATM    4  N3  UNL     1      23.913   6.469  50.791  1.00  0.00    -0.239 NA
HETATM    5  C8  UNL     1      24.779   5.524  50.411  1.00  0.00     0.095 A 
HETATM    6  C9  UNL     1      24.653   4.215  50.856  1.00  0.00     0.104 A 
HETATM    7  N4  UNL     1      25.568   3.228  50.452  1.00  0.00    -0.384 N 
HETATM    8  C10 UNL     1      26.772   3.519  49.703  1.00  0.00     0.129 C 
HETATM    9  C11 UNL     1      26.606   4.725  48.804  1.00  0.00     0.039 C 
HETATM   10  C12 UNL     1      27.937   5.382  48.536  1.00  0.00     0.015 C 
HETATM   11  C13 UNL     1      27.530   6.829  48.263  1.00  0.00     0.028 C 
HETATM   12  C14 UNL     1      26.395   7.009  49.227  1.00  0.00    -0.017 C 
HETATM   13  C15 UNL     1      25.897   5.824  49.513  1.00  0.00    -0.025 C 
HETATM   14  H4  UNL     1      25.416   2.229  50.677  1.00  0.00     0.159 HD
ENDROOT
BRANCH   1  15
HETATM   15  N1  UNL     1      23.489   2.495  52.169  1.00  0.00    -0.283 N 
HETATM   16  C1  UNL     1      24.541   2.042  53.037  1.00  0.00     0.173 C 
HETATM   17  C2  UNL     1      24.449   0.781  53.494  1.00  0.00     0.124 C 
HETATM   18 CL1  UNL     1      25.666   0.086  54.568  1.00  0.00    -0.076 Cl
HETATM   19  C3  UNL     1      23.299  -0.049  53.086  1.00  0.00     0.154 C 
HETATM   20  F1  UNL     1      23.048  -1.236  53.694  1.00  0.00    -0.203 F 
HETATM   21  C4  UNL     1      22.512   0.360  52.129  1.00  0.00     0.035 C 
HETATM   22  C5  UNL     1      22.414   1.639  51.822  1.00  0.00     0.116 C 
BRANCH  16  23
HETATM   23  O1  UNL     1      25.625   2.826  53.420  1.00  0.00    -0.344 OA
HETATM   24  H1  UNL     1      26.519   2.317  53.450  1.00  0.00     0.219 HD
ENDBRANCH  16  23
ENDBRANCH   1  15
TORSDOF 2
ENDMDL
