MODEL 1
REMARK VINA RESULT:     -10.9      0.000      0.000
REMARK  6 active torsions:
REMARK  status: ('A' for Active; 'I' for Inactive)
REMARK    1  A    between atoms: C5_5  and  O1_6 
REMARK    2  A    between atoms: C7_8  and  N1_9 
REMARK    3  A    between atoms: N1_9  and  C8_10 
REMARK    4  A    between atoms: N4_21  and  N5_22 
REMARK    5  A    between atoms: N5_22  and  C17_23 
REMARK    6  A    between atoms: C17_23  and  C18_24 
ROOT
HETATM    1  C8  UNL     1      24.958   1.007  52.941  1.00  0.00     0.726 C 
HETATM    2  N2  UNL     1      24.811  -0.076  53.622  1.00  0.00    -0.075 NA
HETATM    3  C9  UNL     1      23.770  -0.838  54.250  1.00  0.00     0.132 C 
HETATM    4  C10 UNL     1      22.445  -0.712  54.051  1.00  0.00    -0.002 C 
HETATM    5  C11 UNL     1      21.343  -0.035  53.364  1.00  0.00     0.071 C 
HETATM    6  C12 UNL     1      21.646   1.332  52.900  1.00  0.00    -0.008 A 
HETATM    7  C13 UNL     1      20.361   1.882  52.833  1.00  0.00     0.126 A 
HETATM    8  N3  UNL     1      20.086   3.160  52.448  1.00  0.00    -0.272 NA
HETATM    9  C14 UNL     1      21.152   3.924  52.114  1.00  0.00     0.118 A 
HETATM   10  C15 UNL     1      22.456   3.504  52.138  1.00  0.00     0.052 A 
HETATM   11  C16 UNL     1      22.650   2.204  52.537  1.00  0.00     0.083 A 
HETATM   12  N4  UNL     1      24.059   2.008  52.480  1.00  0.00    -0.088 N 
ENDROOT
BRANCH   1  13
HETATM   13  N1  UNL     1      26.311   1.180  52.619  1.00  0.00    -0.188 N 
HETATM   14  H8  UNL     1      26.524   2.062  52.097  1.00  0.00     0.184 HD
BRANCH  13  15
HETATM   15  C7  UNL     1      27.369   0.291  52.921  1.00  0.00     0.058 A 
HETATM   16  C2  UNL     1      28.563   0.817  53.422  1.00  0.00    -0.035 A 
HETATM   17  C1  UNL     1      28.665   2.299  53.631  1.00  0.00     0.050 C 
HETATM   18  C3  UNL     1      29.665   0.060  53.742  1.00  0.00     0.012 A 
HETATM   19  C4  UNL     1      29.631  -1.305  53.572  1.00  0.00     0.037 A 
HETATM   20  C5  UNL     1      28.481  -1.881  53.082  1.00  0.00     0.067 A 
HETATM   21  C6  UNL     1      27.420  -1.069  52.783  1.00  0.00     0.067 A 
BRANCH  20  22
HETATM   22  O1  UNL     1      28.408  -3.254  52.896  1.00  0.00    -0.361 OA
HETATM   23  H6  UNL     1      29.057  -3.754  52.270  1.00  0.00     0.217 HD
ENDBRANCH  20  22
ENDBRANCH  13  15
ENDBRANCH   1  13
BRANCH  12  24
HETATM   24  N5  UNL     1      24.761   2.998  51.837  1.00  0.00    -0.311 N 
HETATM   25  H16 UNL     1      25.419   3.561  52.355  1.00  0.00     0.181 HD
BRANCH  24  26
HETATM   26  C17 UNL     1      24.884   2.871  50.432  1.00  0.00     0.179 C 
BRANCH  26  27
HETATM   27  C18 UNL     1      25.543   4.033  49.766  1.00  0.00    -0.039 A 
HETATM   28  C19 UNL     1      26.855   3.842  49.318  1.00  0.00     0.009 A 
HETATM   29  C20 UNL     1      27.572   4.851  48.684  1.00  0.00     0.001 A 
HETATM   30  C21 UNL     1      26.958   6.073  48.496  1.00  0.00     0.000 A 
HETATM   31  C22 UNL     1      25.660   6.289  48.930  1.00  0.00     0.001 A 
HETATM   32  C23 UNL     1      24.977   5.267  49.556  1.00  0.00     0.009 A 
ENDBRANCH  26  27
ENDBRANCH  24  26
ENDBRANCH  12  24
TORSDOF 6
ENDMDL
MODEL 2
REMARK VINA RESULT:     -10.3      1.832      5.567
REMARK  6 active torsions:
REMARK  status: ('A' for Active; 'I' for Inactive)
REMARK    1  A    between atoms: C5_5  and  O1_6 
REMARK    2  A    between atoms: C7_8  and  N1_9 
REMARK    3  A    between atoms: N1_9  and  C8_10 
REMARK    4  A    between atoms: N4_21  and  N5_22 
REMARK    5  A    between atoms: N5_22  and  C17_23 
REMARK    6  A    between atoms: C17_23  and  C18_24 
ROOT
HETATM    1  C8  UNL     1      25.719   2.595  51.061  1.00  0.00     0.726 C 
HETATM    2  N2  UNL     1      26.640   2.878  50.207  1.00  0.00    -0.075 NA
HETATM    3  C9  UNL     1      26.989   3.916  49.281  1.00  0.00     0.132 C 
HETATM    4  C10 UNL     1      26.483   5.163  49.236  1.00  0.00    -0.002 C 
HETATM    5  C11 UNL     1      25.565   6.159  49.792  1.00  0.00     0.071 C 
HETATM    6  C12 UNL     1      24.402   5.602  50.508  1.00  0.00    -0.008 A 
HETATM    7  C13 UNL     1      23.494   6.662  50.408  1.00  0.00     0.126 A 
HETATM    8  N3  UNL     1      22.232   6.651  50.923  1.00  0.00    -0.272 NA
HETATM    9  C14 UNL     1      21.863   5.520  51.571  1.00  0.00     0.118 A 
HETATM   10  C15 UNL     1      22.658   4.416  51.735  1.00  0.00     0.052 A 
HETATM   11  C16 UNL     1      23.914   4.506  51.188  1.00  0.00     0.083 A 
HETATM   12  N4  UNL     1      24.536   3.260  51.486  1.00  0.00    -0.088 N 
ENDROOT
BRANCH   1  13
HETATM   13  N1  UNL     1      25.997   1.360  51.661  1.00  0.00    -0.188 N 
HETATM   14  H8  UNL     1      25.308   0.604  51.437  1.00  0.00     0.184 HD
BRANCH  13  15
HETATM   15  C7  UNL     1      27.082   1.064  52.517  1.00  0.00     0.058 A 
HETATM   16  C2  UNL     1      27.375  -0.274  52.792  1.00  0.00    -0.035 A 
HETATM   17  C1  UNL     1      26.533  -1.339  52.153  1.00  0.00     0.050 C 
HETATM   18  C3  UNL     1      28.394  -0.689  53.615  1.00  0.00     0.012 A 
HETATM   19  C4  UNL     1      29.200   0.243  54.228  1.00  0.00     0.037 A 
HETATM   20  C5  UNL     1      28.961   1.578  53.997  1.00  0.00     0.067 A 
HETATM   21  C6  UNL     1      27.929   1.922  53.165  1.00  0.00     0.067 A 
BRANCH  20  22
HETATM   22  O1  UNL     1      29.752   2.547  54.597  1.00  0.00    -0.361 OA
HETATM   23  H6  UNL     1      30.410   2.318  55.357  1.00  0.00     0.217 HD
ENDBRANCH  20  22
ENDBRANCH  13  15
ENDBRANCH   1  13
BRANCH  12  24
HETATM   24  N5  UNL     1      23.868   2.478  52.396  1.00  0.00    -0.311 N 
HETATM   25  H16 UNL     1      23.691   2.832  53.325  1.00  0.00     0.181 HD
BRANCH  24  26
HETATM   26  C17 UNL     1      23.063   1.442  51.864  1.00  0.00     0.179 C 
BRANCH  26  27
HETATM   27  C18 UNL     1      22.617   0.434  52.871  1.00  0.00    -0.039 A 
HETATM   28  C19 UNL     1      21.258   0.097  52.867  1.00  0.00     0.009 A 
HETATM   29  C20 UNL     1      20.725  -0.828  53.757  1.00  0.00     0.001 A 
HETATM   30  C21 UNL     1      21.573  -1.426  54.667  1.00  0.00     0.000 A 
HETATM   31  C22 UNL     1      22.922  -1.111  54.693  1.00  0.00     0.001 A 
HETATM   32  C23 UNL     1      23.419  -0.189  53.796  1.00  0.00     0.009 A 
ENDBRANCH  26  27
ENDBRANCH  24  26
ENDBRANCH  12  24
TORSDOF 6
ENDMDL
MODEL 3
REMARK VINA RESULT:      -9.9      2.719      5.863
REMARK  6 active torsions:
REMARK  status: ('A' for Active; 'I' for Inactive)
REMARK    1  A    between atoms: C5_5  and  O1_6 
REMARK    2  A    between atoms: C7_8  and  N1_9 
REMARK    3  A    between atoms: N1_9  and  C8_10 
REMARK    4  A    between atoms: N4_21  and  N5_22 
REMARK    5  A    between atoms: N5_22  and  C17_23 
REMARK    6  A    between atoms: C17_23  and  C18_24 
ROOT
HETATM    1  C8  UNL     1      23.338   1.641  51.172  1.00  0.00     0.726 C 
HETATM    2  N2  UNL     1      22.476   1.744  50.222  1.00  0.00    -0.075 NA
HETATM    3  C9  UNL     1      21.170   1.259  49.876  1.00  0.00     0.132 C 
HETATM    4  C10 UNL     1      20.283   0.670  50.698  1.00  0.00    -0.002 C 
HETATM    5  C11 UNL     1      19.950   0.194  52.042  1.00  0.00     0.071 C 
HETATM    6  C12 UNL     1      21.111  -0.138  52.889  1.00  0.00    -0.008 A 
HETATM    7  C13 UNL     1      20.534  -1.039  53.792  1.00  0.00     0.126 A 
HETATM    8  N3  UNL     1      21.205  -1.654  54.806  1.00  0.00    -0.272 NA
HETATM    9  C14 UNL     1      22.519  -1.351  54.921  1.00  0.00     0.118 A 
HETATM   10  C15 UNL     1      23.199  -0.488  54.102  1.00  0.00     0.052 A 
HETATM   11  C16 UNL     1      22.453   0.091  53.105  1.00  0.00     0.083 A 
HETATM   12  N4  UNL     1      23.365   0.930  52.403  1.00  0.00    -0.088 N 
ENDROOT
BRANCH   1  13
HETATM   13  N1  UNL     1      24.467   2.415  50.868  1.00  0.00    -0.188 N 
HETATM   14  H8  UNL     1      25.351   1.867  50.753  1.00  0.00     0.184 HD
BRANCH  13  15
HETATM   15  C7  UNL     1      24.509   3.821  50.721  1.00  0.00     0.058 A 
HETATM   16  C2  UNL     1      25.583   4.390  50.031  1.00  0.00    -0.035 A 
HETATM   17  C1  UNL     1      26.634   3.484  49.463  1.00  0.00     0.050 C 
HETATM   18  C3  UNL     1      25.743   5.740  49.831  1.00  0.00     0.012 A 
HETATM   19  C4  UNL     1      24.810   6.621  50.328  1.00  0.00     0.037 A 
HETATM   20  C5  UNL     1      23.730   6.120  51.017  1.00  0.00     0.067 A 
HETATM   21  C6  UNL     1      23.631   4.764  51.180  1.00  0.00     0.067 A 
BRANCH  20  22
HETATM   22  O1  UNL     1      22.767   6.976  51.534  1.00  0.00    -0.361 OA
HETATM   23  H6  UNL     1      21.910   7.209  51.011  1.00  0.00     0.217 HD
ENDBRANCH  20  22
ENDBRANCH  13  15
ENDBRANCH   1  13
BRANCH  12  24
HETATM   24  N5  UNL     1      24.573   1.127  53.025  1.00  0.00    -0.311 N 
HETATM   25  H16 UNL     1      24.597   1.479  53.971  1.00  0.00     0.181 HD
BRANCH  24  26
HETATM   26  C17 UNL     1      25.673   0.400  52.508  1.00  0.00     0.179 C 
BRANCH  26  27
HETATM   27  C18 UNL     1      26.979   0.718  53.158  1.00  0.00    -0.039 A 
HETATM   28  C19 UNL     1      27.436   2.036  53.042  1.00  0.00     0.009 A 
HETATM   29  C20 UNL     1      28.637   2.452  53.604  1.00  0.00     0.001 A 
HETATM   30  C21 UNL     1      29.393   1.527  54.296  1.00  0.00     0.000 A 
HETATM   31  C22 UNL     1      28.964   0.216  54.425  1.00  0.00     0.001 A 
HETATM   32  C23 UNL     1      27.767  -0.164  53.856  1.00  0.00     0.009 A 
ENDBRANCH  26  27
ENDBRANCH  24  26
ENDBRANCH  12  24
TORSDOF 6
ENDMDL
MODEL 4
REMARK VINA RESULT:      -9.6      1.112      1.424
REMARK  6 active torsions:
REMARK  status: ('A' for Active; 'I' for Inactive)
REMARK    1  A    between atoms: C5_5  and  O1_6 
REMARK    2  A    between atoms: C7_8  and  N1_9 
REMARK    3  A    between atoms: N1_9  and  C8_10 
REMARK    4  A    between atoms: N4_21  and  N5_22 
REMARK    5  A    between atoms: N5_22  and  C17_23 
REMARK    6  A    between atoms: C17_23  and  C18_24 
ROOT
HETATM    1  C8  UNL     1      24.743   0.578  52.804  1.00  0.00     0.726 C 
HETATM    2  N2  UNL     1      24.654  -0.099  53.895  1.00  0.00    -0.075 NA
HETATM    3  C9  UNL     1      23.654  -0.714  54.720  1.00  0.00     0.132 C 
HETATM    4  C10 UNL     1      22.379  -0.980  54.382  1.00  0.00    -0.002 C 
HETATM    5  C11 UNL     1      21.317  -0.931  53.374  1.00  0.00     0.071 C 
HETATM    6  C12 UNL     1      21.476   0.124  52.355  1.00  0.00    -0.008 A 
HETATM    7  C13 UNL     1      20.151   0.296  51.939  1.00  0.00     0.126 A 
HETATM    8  N3  UNL     1      19.748   1.181  50.985  1.00  0.00    -0.272 NA
HETATM    9  C14 UNL     1      20.723   1.932  50.420  1.00  0.00     0.118 A 
HETATM   10  C15 UNL     1      22.053   1.860  50.740  1.00  0.00     0.052 A 
HETATM   11  C16 UNL     1      22.378   0.944  51.710  1.00  0.00     0.083 A 
HETATM   12  N4  UNL     1      23.789   1.054  51.862  1.00  0.00    -0.088 N 
ENDROOT
BRANCH   1  13
HETATM   13  N1  UNL     1      26.087   0.882  52.548  1.00  0.00    -0.188 N 
HETATM   14  H8  UNL     1      26.240   1.796  52.061  1.00  0.00     0.184 HD
BRANCH  13  15
HETATM   15  C7  UNL     1      27.208   0.082  52.870  1.00  0.00     0.058 A 
HETATM   16  C2  UNL     1      28.363   0.707  53.345  1.00  0.00    -0.035 A 
HETATM   17  C1  UNL     1      28.358   2.198  53.508  1.00  0.00     0.050 C 
HETATM   18  C3  UNL     1      29.518   0.042  53.681  1.00  0.00     0.012 A 
HETATM   19  C4  UNL     1      29.582  -1.326  53.554  1.00  0.00     0.037 A 
HETATM   20  C5  UNL     1      28.475  -1.999  53.089  1.00  0.00     0.067 A 
HETATM   21  C6  UNL     1      27.356  -1.275  52.773  1.00  0.00     0.067 A 
BRANCH  20  22
HETATM   22  O1  UNL     1      28.500  -3.379  52.947  1.00  0.00    -0.361 OA
HETATM   23  H6  UNL     1      27.634  -3.933  52.864  1.00  0.00     0.217 HD
ENDBRANCH  20  22
ENDBRANCH  13  15
ENDBRANCH   1  13
BRANCH  12  24
HETATM   24  N5  UNL     1      24.426   1.787  50.891  1.00  0.00    -0.311 N 
HETATM   25  H16 UNL     1      24.064   1.790  49.949  1.00  0.00     0.181 HD
BRANCH  24  26
HETATM   26  C17 UNL     1      25.245   2.851  51.342  1.00  0.00     0.179 C 
BRANCH  26  27
HETATM   27  C18 UNL     1      25.460   3.929  50.332  1.00  0.00    -0.039 A 
HETATM   28  C19 UNL     1      24.328   4.642  49.920  1.00  0.00     0.009 A 
HETATM   29  C20 UNL     1      24.403   5.668  48.985  1.00  0.00     0.001 A 
HETATM   30  C21 UNL     1      25.637   5.984  48.455  1.00  0.00     0.000 A 
HETATM   31  C22 UNL     1      26.774   5.294  48.846  1.00  0.00     0.001 A 
HETATM   32  C23 UNL     1      26.666   4.282  49.775  1.00  0.00     0.009 A 
ENDBRANCH  26  27
ENDBRANCH  24  26
ENDBRANCH  12  24
TORSDOF 6
ENDMDL
MODEL 5
REMARK VINA RESULT:      -9.1      2.640      5.883
REMARK  6 active torsions:
REMARK  status: ('A' for Active; 'I' for Inactive)
REMARK    1  A    between atoms: C5_5  and  O1_6 
REMARK    2  A    between atoms: C7_8  and  N1_9 
REMARK    3  A    between atoms: N1_9  and  C8_10 
REMARK    4  A    between atoms: N4_21  and  N5_22 
REMARK    5  A    between atoms: N5_22  and  C17_23 
REMARK    6  A    between atoms: C17_23  and  C18_24 
ROOT
HETATM    1  C8  UNL     1      24.366   1.672  51.976  1.00  0.00     0.726 C 
HETATM    2  N2  UNL     1      23.614   0.677  52.296  1.00  0.00    -0.075 NA
HETATM    3  C9  UNL     1      23.642  -0.488  53.132  1.00  0.00     0.132 C 
HETATM    4  C10 UNL     1      24.509  -0.747  54.129  1.00  0.00    -0.002 C 
HETATM    5  C11 UNL     1      25.664  -0.321  54.922  1.00  0.00     0.071 C 
HETATM    6  C12 UNL     1      26.567   0.628  54.245  1.00  0.00    -0.008 A 
HETATM    7  C13 UNL     1      27.761   0.403  54.939  1.00  0.00     0.126 A 
HETATM    8  N3  UNL     1      28.935   1.049  54.689  1.00  0.00    -0.272 NA
HETATM    9  C14 UNL     1      28.909   1.967  53.694  1.00  0.00     0.118 A 
HETATM   10  C15 UNL     1      27.807   2.277  52.942  1.00  0.00     0.052 A 
HETATM   11  C16 UNL     1      26.664   1.583  53.254  1.00  0.00     0.083 A 
HETATM   12  N4  UNL     1      25.677   2.074  52.353  1.00  0.00    -0.088 N 
ENDROOT
BRANCH   1  13
HETATM   13  N1  UNL     1      23.696   2.492  51.058  1.00  0.00    -0.188 N 
HETATM   14  H8  UNL     1      24.325   3.051  50.436  1.00  0.00     0.184 HD
BRANCH  13  15
HETATM   15  C7  UNL     1      22.296   2.629  50.917  1.00  0.00     0.058 A 
HETATM   16  C2  UNL     1      21.655   3.679  51.579  1.00  0.00    -0.035 A 
HETATM   17  C1  UNL     1      22.483   4.624  52.399  1.00  0.00     0.050 C 
HETATM   18  C3  UNL     1      20.301   3.911  51.530  1.00  0.00     0.012 A 
HETATM   19  C4  UNL     1      19.490   3.078  50.793  1.00  0.00     0.037 A 
HETATM   20  C5  UNL     1      20.064   2.026  50.118  1.00  0.00     0.067 A 
HETATM   21  C6  UNL     1      21.419   1.852  50.210  1.00  0.00     0.067 A 
BRANCH  20  22
HETATM   22  O1  UNL     1      19.280   1.163  49.365  1.00  0.00    -0.361 OA
HETATM   23  H6  UNL     1      18.296   0.974  49.605  1.00  0.00     0.217 HD
ENDBRANCH  20  22
ENDBRANCH  13  15
ENDBRANCH   1  13
BRANCH  12  24
HETATM   24  N5  UNL     1      26.032   3.203  51.658  1.00  0.00    -0.311 N 
HETATM   25  H16 UNL     1      26.365   4.015  52.159  1.00  0.00     0.181 HD
BRANCH  24  26
HETATM   26  C17 UNL     1      26.364   3.024  50.293  1.00  0.00     0.179 C 
BRANCH  26  27
HETATM   27  C18 UNL     1      26.551   4.297  49.535  1.00  0.00    -0.039 A 
HETATM   28  C19 UNL     1      25.456   5.169  49.486  1.00  0.00     0.009 A 
HETATM   29  C20 UNL     1      25.509   6.382  48.811  1.00  0.00     0.001 A 
HETATM   30  C21 UNL     1      26.684   6.727  48.173  1.00  0.00     0.000 A 
HETATM   31  C22 UNL     1      27.782   5.882  48.205  1.00  0.00     0.001 A 
HETATM   32  C23 UNL     1      27.696   4.686  48.884  1.00  0.00     0.009 A 
ENDBRANCH  26  27
ENDBRANCH  24  26
ENDBRANCH  12  24
TORSDOF 6
ENDMDL
MODEL 6
REMARK VINA RESULT:      -9.1      2.221      6.266
REMARK  6 active torsions:
REMARK  status: ('A' for Active; 'I' for Inactive)
REMARK    1  A    between atoms: C5_5  and  O1_6 
REMARK    2  A    between atoms: C7_8  and  N1_9 
REMARK    3  A    between atoms: N1_9  and  C8_10 
REMARK    4  A    between atoms: N4_21  and  N5_22 
REMARK    5  A    between atoms: N5_22  and  C17_23 
REMARK    6  A    between atoms: C17_23  and  C18_24 
ROOT
HETATM    1  C8  UNL     1      23.739   2.421  52.287  1.00  0.00     0.726 C 
HETATM    2  N2  UNL     1      22.640   3.062  52.489  1.00  0.00    -0.075 NA
HETATM    3  C9  UNL     1      21.966   4.244  52.036  1.00  0.00     0.132 C 
HETATM    4  C10 UNL     1      22.256   4.969  50.939  1.00  0.00    -0.002 C 
HETATM    5  C11 UNL     1      23.096   5.163  49.756  1.00  0.00     0.071 C 
HETATM    6  C12 UNL     1      24.445   4.574  49.848  1.00  0.00    -0.008 A 
HETATM    7  C13 UNL     1      25.142   5.357  48.922  1.00  0.00     0.126 A 
HETATM    8  N3  UNL     1      26.465   5.212  48.626  1.00  0.00    -0.272 NA
HETATM    9  C14 UNL     1      27.120   4.232  49.293  1.00  0.00     0.118 A 
HETATM   10  C15 UNL     1      26.551   3.401  50.221  1.00  0.00     0.052 A 
HETATM   11  C16 UNL     1      25.216   3.610  50.463  1.00  0.00     0.083 A 
HETATM   12  N4  UNL     1      24.863   2.641  51.444  1.00  0.00    -0.088 N 
ENDROOT
BRANCH   1  13
HETATM   13  N1  UNL     1      23.774   1.280  53.099  1.00  0.00    -0.188 N 
HETATM   14  H8  UNL     1      24.706   1.085  53.533  1.00  0.00     0.184 HD
BRANCH  13  15
HETATM   15  C7  UNL     1      22.699   0.398  53.361  1.00  0.00     0.058 A 
HETATM   16  C2  UNL     1      22.908  -0.673  54.233  1.00  0.00    -0.035 A 
HETATM   17  C1  UNL     1      24.259  -0.832  54.865  1.00  0.00     0.050 C 
HETATM   18  C3  UNL     1      21.949  -1.602  54.558  1.00  0.00     0.012 A 
HETATM   19  C4  UNL     1      20.691  -1.507  54.010  1.00  0.00     0.037 A 
HETATM   20  C5  UNL     1      20.424  -0.472  53.143  1.00  0.00     0.067 A 
HETATM   21  C6  UNL     1      21.425   0.419  52.862  1.00  0.00     0.067 A 
BRANCH  20  22
HETATM   22  O1  UNL     1      19.167  -0.343  52.569  1.00  0.00    -0.361 OA
HETATM   23  H6  UNL     1      18.944  -0.753  51.650  1.00  0.00     0.217 HD
ENDBRANCH  20  22
ENDBRANCH  13  15
ENDBRANCH   1  13
BRANCH  12  24
HETATM   24  N5  UNL     1      25.803   1.665  51.665  1.00  0.00    -0.311 N 
HETATM   25  H16 UNL     1      26.146   1.116  50.890  1.00  0.00     0.181 HD
BRANCH  24  26
HETATM   26  C17 UNL     1      26.577   1.792  52.844  1.00  0.00     0.179 C 
BRANCH  26  27
HETATM   27  C18 UNL     1      27.585   0.708  53.036  1.00  0.00    -0.039 A 
HETATM   28  C19 UNL     1      27.167  -0.599  52.759  1.00  0.00     0.009 A 
HETATM   29  C20 UNL     1      28.015  -1.691  52.900  1.00  0.00     0.001 A 
HETATM   30  C21 UNL     1      29.308  -1.466  53.328  1.00  0.00     0.000 A 
HETATM   31  C22 UNL     1      29.748  -0.183  53.610  1.00  0.00     0.001 A 
HETATM   32  C23 UNL     1      28.881   0.879  53.459  1.00  0.00     0.009 A 
ENDBRANCH  26  27
ENDBRANCH  24  26
ENDBRANCH  12  24
TORSDOF 6
ENDMDL
MODEL 7
REMARK VINA RESULT:      -8.7      6.094      9.832
REMARK  6 active torsions:
REMARK  status: ('A' for Active; 'I' for Inactive)
REMARK    1  A    between atoms: C5_5  and  O1_6 
REMARK    2  A    between atoms: C7_8  and  N1_9 
REMARK    3  A    between atoms: N1_9  and  C8_10 
REMARK    4  A    between atoms: N4_21  and  N5_22 
REMARK    5  A    between atoms: N5_22  and  C17_23 
REMARK    6  A    between atoms: C17_23  and  C18_24 
ROOT
HETATM    1  C8  UNL     1      31.230   7.626  48.048  1.00  0.00     0.726 C 
HETATM    2  N2  UNL     1      32.267   8.138  47.482  1.00  0.00    -0.075 NA
HETATM    3  C9  UNL     1      32.764   9.418  47.066  1.00  0.00     0.132 C 
HETATM    4  C10 UNL     1      32.297  10.624  47.435  1.00  0.00    -0.002 C 
HETATM    5  C11 UNL     1      31.334  11.407  48.213  1.00  0.00     0.071 C 
HETATM    6  C12 UNL     1      30.071  10.710  48.520  1.00  0.00    -0.008 A 
HETATM    7  C13 UNL     1      29.209  11.794  48.721  1.00  0.00     0.126 A 
HETATM    8  N3  UNL     1      27.889  11.685  49.038  1.00  0.00    -0.272 NA
HETATM    9  C14 UNL     1      27.408  10.425  49.160  1.00  0.00     0.118 A 
HETATM   10  C15 UNL     1      28.148   9.284  48.989  1.00  0.00     0.052 A 
HETATM   11  C16 UNL     1      29.469   9.479  48.671  1.00  0.00     0.083 A 
HETATM   12  N4  UNL     1      30.015   8.170  48.548  1.00  0.00    -0.088 N 
ENDROOT
BRANCH   1  13
HETATM   13  N1  UNL     1      31.395   6.239  48.164  1.00  0.00    -0.188 N 
HETATM   14  H8  UNL     1      30.500   5.701  48.236  1.00  0.00     0.184 HD
BRANCH  13  15
HETATM   15  C7  UNL     1      32.621   5.536  48.202  1.00  0.00     0.058 A 
HETATM   16  C2  UNL     1      32.718   4.321  47.519  1.00  0.00    -0.035 A 
HETATM   17  C1  UNL     1      31.521   3.823  46.764  1.00  0.00     0.050 C 
HETATM   18  C3  UNL     1      33.849   3.540  47.490  1.00  0.00     0.012 A 
HETATM   19  C4  UNL     1      34.978   3.946  48.163  1.00  0.00     0.037 A 
HETATM   20  C5  UNL     1      34.944   5.135  48.854  1.00  0.00     0.067 A 
HETATM   21  C6  UNL     1      33.785   5.864  48.842  1.00  0.00     0.067 A 
BRANCH  20  22
HETATM   22  O1  UNL     1      36.063   5.579  49.545  1.00  0.00    -0.361 OA
HETATM   23  H6  UNL     1      36.836   4.943  49.791  1.00  0.00     0.217 HD
ENDBRANCH  20  22
ENDBRANCH  13  15
ENDBRANCH   1  13
BRANCH  12  24
HETATM   24  N5  UNL     1      29.211   7.156  49.008  1.00  0.00    -0.311 N 
HETATM   25  H16 UNL     1      28.885   7.171  49.963  1.00  0.00     0.181 HD
BRANCH  24  26
HETATM   26  C17 UNL     1      28.503   6.420  48.026  1.00  0.00     0.179 C 
BRANCH  26  27
HETATM   27  C18 UNL     1      27.289   5.720  48.541  1.00  0.00    -0.039 A 
HETATM   28  C19 UNL     1      27.451   4.389  48.943  1.00  0.00     0.009 A 
HETATM   29  C20 UNL     1      26.394   3.635  49.439  1.00  0.00     0.001 A 
HETATM   30  C21 UNL     1      25.152   4.229  49.533  1.00  0.00     0.000 A 
HETATM   31  C22 UNL     1      24.964   5.544  49.142  1.00  0.00     0.001 A 
HETATM   32  C23 UNL     1      26.033   6.265  48.654  1.00  0.00     0.009 A 
ENDBRANCH  26  27
ENDBRANCH  24  26
ENDBRANCH  12  24
TORSDOF 6
ENDMDL
MODEL 8
REMARK VINA RESULT:      -8.7      3.307      5.728
REMARK  6 active torsions:
REMARK  status: ('A' for Active; 'I' for Inactive)
REMARK    1  A    between atoms: C5_5  and  O1_6 
REMARK    2  A    between atoms: C7_8  and  N1_9 
REMARK    3  A    between atoms: N1_9  and  C8_10 
REMARK    4  A    between atoms: N4_21  and  N5_22 
REMARK    5  A    between atoms: N5_22  and  C17_23 
REMARK    6  A    between atoms: C17_23  and  C18_24 
ROOT
HETATM    1  C8  UNL     1      24.416   1.865  51.674  1.00  0.00     0.726 C 
HETATM    2  N2  UNL     1      25.618   1.793  52.130  1.00  0.00    -0.075 NA
HETATM    3  C9  UNL     1      26.344   1.174  53.201  1.00  0.00     0.132 C 
HETATM    4  C10 UNL     1      25.923   0.162  53.983  1.00  0.00    -0.002 C 
HETATM    5  C11 UNL     1      24.871  -0.795  54.329  1.00  0.00     0.071 C 
HETATM    6  C12 UNL     1      23.505  -0.379  53.957  1.00  0.00    -0.008 A 
HETATM    7  C13 UNL     1      22.742  -1.129  54.857  1.00  0.00     0.126 A 
HETATM    8  N3  UNL     1      21.381  -1.104  54.927  1.00  0.00    -0.272 NA
HETATM    9  C14 UNL     1      20.755  -0.286  54.049  1.00  0.00     0.118 A 
HETATM   10  C15 UNL     1      21.388   0.499  53.121  1.00  0.00     0.052 A 
HETATM   11  C16 UNL     1      22.758   0.417  53.114  1.00  0.00     0.083 A 
HETATM   12  N4  UNL     1      23.175   1.306  52.083  1.00  0.00    -0.088 N 
ENDROOT
BRANCH   1  13
HETATM   13  N1  UNL     1      24.394   2.684  50.536  1.00  0.00    -0.188 N 
HETATM   14  H8  UNL     1      24.325   2.165  49.630  1.00  0.00     0.184 HD
BRANCH  13  15
HETATM   15  C7  UNL     1      24.464   4.096  50.512  1.00  0.00     0.058 A 
HETATM   16  C2  UNL     1      25.589   4.702  49.947  1.00  0.00    -0.035 A 
HETATM   17  C1  UNL     1      26.666   3.827  49.377  1.00  0.00     0.050 C 
HETATM   18  C3  UNL     1      25.780   6.061  49.875  1.00  0.00     0.012 A 
HETATM   19  C4  UNL     1      24.825   6.913  50.380  1.00  0.00     0.037 A 
HETATM   20  C5  UNL     1      23.694   6.376  50.950  1.00  0.00     0.067 A 
HETATM   21  C6  UNL     1      23.567   5.012  50.989  1.00  0.00     0.067 A 
BRANCH  20  22
HETATM   22  O1  UNL     1      22.708   7.202  51.471  1.00  0.00    -0.361 OA
HETATM   23  H6  UNL     1      22.255   7.005  52.375  1.00  0.00     0.217 HD
ENDBRANCH  20  22
ENDBRANCH  13  15
ENDBRANCH   1  13
BRANCH  12  24
HETATM   24  N5  UNL     1      22.171   1.758  51.262  1.00  0.00    -0.311 N 
HETATM   25  H16 UNL     1      21.857   2.715  51.337  1.00  0.00     0.181 HD
BRANCH  24  26
HETATM   26  C17 UNL     1      21.965   1.034  50.062  1.00  0.00     0.179 C 
BRANCH  26  27
HETATM   27  C18 UNL     1      21.547   1.876  48.902  1.00  0.00    -0.039 A 
HETATM   28  C19 UNL     1      20.210   2.289  48.871  1.00  0.00     0.009 A 
HETATM   29  C20 UNL     1      19.704   3.075  47.842  1.00  0.00     0.001 A 
HETATM   30  C21 UNL     1      20.558   3.452  46.825  1.00  0.00     0.000 A 
HETATM   31  C22 UNL     1      21.886   3.057  46.831  1.00  0.00     0.001 A 
HETATM   32  C23 UNL     1      22.356   2.278  47.867  1.00  0.00     0.009 A 
ENDBRANCH  26  27
ENDBRANCH  24  26
ENDBRANCH  12  24
TORSDOF 6
ENDMDL
MODEL 9
REMARK VINA RESULT:      -8.6      2.835      5.826
REMARK  6 active torsions:
REMARK  status: ('A' for Active; 'I' for Inactive)
REMARK    1  A    between atoms: C5_5  and  O1_6 
REMARK    2  A    between atoms: C7_8  and  N1_9 
REMARK    3  A    between atoms: N1_9  and  C8_10 
REMARK    4  A    between atoms: N4_21  and  N5_22 
REMARK    5  A    between atoms: N5_22  and  C17_23 
REMARK    6  A    between atoms: C17_23  and  C18_24 
ROOT
HETATM    1  C8  UNL     1      24.476   1.741  51.436  1.00  0.00     0.726 C 
HETATM    2  N2  UNL     1      25.748   1.678  51.622  1.00  0.00    -0.075 NA
HETATM    3  C9  UNL     1      26.691   1.086  52.527  1.00  0.00     0.132 C 
HETATM    4  C10 UNL     1      26.453   0.098  53.409  1.00  0.00    -0.002 C 
HETATM    5  C11 UNL     1      25.503  -0.847  54.001  1.00  0.00     0.071 C 
HETATM    6  C12 UNL     1      24.089  -0.436  53.923  1.00  0.00    -0.008 A 
HETATM    7  C13 UNL     1      23.541  -1.159  54.989  1.00  0.00     0.126 A 
HETATM    8  N3  UNL     1      22.228  -1.128  55.351  1.00  0.00    -0.272 NA
HETATM    9  C14 UNL     1      21.424  -0.332  54.608  1.00  0.00     0.118 A 
HETATM   10  C15 UNL     1      21.837   0.424  53.544  1.00  0.00     0.052 A 
HETATM   11  C16 UNL     1      23.174   0.339  53.242  1.00  0.00     0.083 A 
HETATM   12  N4  UNL     1      23.354   1.197  52.120  1.00  0.00    -0.088 N 
ENDROOT
BRANCH   1  13
HETATM   13  N1  UNL     1      24.204   2.528  50.308  1.00  0.00    -0.188 N 
HETATM   14  H8  UNL     1      23.364   2.227  49.761  1.00  0.00     0.184 HD
BRANCH  13  15
HETATM   15  C7  UNL     1      24.948   3.644  49.860  1.00  0.00     0.058 A 
HETATM   16  C2  UNL     1      24.284   4.857  49.663  1.00  0.00    -0.035 A 
HETATM   17  C1  UNL     1      22.813   4.926  49.950  1.00  0.00     0.050 C 
HETATM   18  C3  UNL     1      24.892   6.007  49.221  1.00  0.00     0.012 A 
HETATM   19  C4  UNL     1      26.239   6.005  48.942  1.00  0.00     0.037 A 
HETATM   20  C5  UNL     1      26.948   4.839  49.117  1.00  0.00     0.067 A 
HETATM   21  C6  UNL     1      26.280   3.729  49.560  1.00  0.00     0.067 A 
BRANCH  20  22
HETATM   22  O1  UNL     1      28.309   4.797  48.846  1.00  0.00    -0.361 OA
HETATM   23  H6  UNL     1      28.918   4.063  49.237  1.00  0.00     0.217 HD
ENDBRANCH  20  22
ENDBRANCH  13  15
ENDBRANCH   1  13
BRANCH  12  24
HETATM   24  N5  UNL     1      22.195   1.630  51.525  1.00  0.00    -0.311 N 
HETATM   25  H16 UNL     1      21.893   2.584  51.654  1.00  0.00     0.181 HD
BRANCH  24  26
HETATM   26  C17 UNL     1      21.748   0.888  50.404  1.00  0.00     0.179 C 
BRANCH  26  27
HETATM   27  C18 UNL     1      20.882   1.659  49.464  1.00  0.00    -0.039 A 
HETATM   28  C19 UNL     1      19.576   1.929  49.888  1.00  0.00     0.009 A 
HETATM   29  C20 UNL     1      18.676   2.638  49.100  1.00  0.00     0.001 A 
HETATM   30  C21 UNL     1      19.097   3.084  47.863  1.00  0.00     0.000 A 
HETATM   31  C22 UNL     1      20.385   2.830  47.419  1.00  0.00     0.001 A 
HETATM   32  C23 UNL     1      21.252   2.124  48.225  1.00  0.00     0.009 A 
ENDBRANCH  26  27
ENDBRANCH  24  26
ENDBRANCH  12  24
TORSDOF 6
ENDMDL
