MODEL 1
REMARK VINA RESULT:      -6.4      0.000      0.000
REMARK  10 active torsions:
REMARK  status: ('A' for Active; 'I' for Inactive)
REMARK    1  A    between atoms: C2_2  and  C3_4 
REMARK    2  A    between atoms: C4_5  and  C5_6 
REMARK    3  A    between atoms: C5_6  and  O1_7 
REMARK    4  A    between atoms: O1_7  and  C6_8 
REMARK    5  A    between atoms: C6_8  and  C7_9 
REMARK    6  A    between atoms: C7_9  and  O2_10 
REMARK    7  A    between atoms: O2_10  and  C8_11 
REMARK    8  A    between atoms: C11_14  and  C12_15 
REMARK    9  A    between atoms: C12_15  and  N1_16 
REMARK   10  A    between atoms: N1_16  and  C13_17 
ROOT
HETATM    1  C8  UNL     1      21.923   1.878  52.739  1.00  0.00     0.065 A 
HETATM    2  C9  UNL     1      21.265   0.846  53.243  1.00  0.00     0.014 A 
HETATM    3  C10 UNL     1      22.178  -0.300  53.565  1.00  0.00     0.066 A 
HETATM    4  C11 UNL     1      23.491   0.276  53.146  1.00  0.00    -0.056 A 
HETATM    5  C17 UNL     1      23.345   1.520  52.675  1.00  0.00     0.041 A 
ENDROOT
BRANCH   1   6
HETATM    6  O2  UNL     1      21.640   3.155  52.275  1.00  0.00    -0.349 OA
BRANCH   6   7
HETATM    7  C7  UNL     1      22.646   3.951  51.719  1.00  0.00     0.201 C 
BRANCH   7   8
HETATM    8  C6  UNL     1      22.199   4.663  50.464  1.00  0.00     0.194 C 
BRANCH   8   9
HETATM    9  O1  UNL     1      23.144   4.589  49.462  1.00  0.00    -0.385 OA
BRANCH   9  10
HETATM   10  C5  UNL     1      23.532   3.239  49.325  1.00  0.00     0.195 C 
BRANCH  10  11
HETATM   11  C4  UNL     1      22.867   2.562  48.212  1.00  0.00     0.002 C 
HETATM   12  C3  UNL     1      21.894   1.676  48.113  1.00  0.00     0.039 C 
BRANCH  12  13
HETATM   13  C2  UNL     1      21.169   1.099  49.233  1.00  0.00     0.106 C 
HETATM   14  C1  UNL     1      19.963   1.541  49.547  1.00  0.00     0.056 C 
HETATM   15  F1  UNL     1      21.634   0.103  50.021  1.00  0.00    -0.207 F 
ENDBRANCH  12  13
ENDBRANCH  10  11
ENDBRANCH   9  10
ENDBRANCH   8   9
ENDBRANCH   7   8
ENDBRANCH   6   7
ENDBRANCH   1   6
BRANCH   4  16
HETATM   16  C12 UNL     1      24.640  -0.633  53.340  1.00  0.00     0.156 C 
BRANCH  16  17
HETATM   17  N1  UNL     1      25.795  -0.126  52.642  1.00  0.00    -0.369 N 
HETATM   18  H16 UNL     1      25.840  -0.180  51.599  1.00  0.00     0.161 HD
BRANCH  17  19
HETATM   19  C13 UNL     1      26.939   0.473  53.287  1.00  0.00     0.148 A 
HETATM   20  N2  UNL     1      27.525  -0.157  54.320  1.00  0.00    -0.223 NA
HETATM   21  C14 UNL     1      28.592   0.305  54.993  1.00  0.00     0.235 A 
HETATM   22  N3  UNL     1      29.116   1.500  54.597  1.00  0.00    -0.252 NA
HETATM   23  C15 UNL     1      28.548   2.164  53.557  1.00  0.00     0.145 A 
HETATM   24  C16 UNL     1      27.467   1.700  52.872  1.00  0.00     0.097 A 
HETATM   25 CL1  UNL     1      26.696   2.502  51.535  1.00  0.00    -0.079 Cl
ENDBRANCH  17  19
ENDBRANCH  16  17
ENDBRANCH   4  16
TORSDOF 10
ENDMDL
MODEL 2
REMARK VINA RESULT:      -6.3      6.077      8.148
REMARK  10 active torsions:
REMARK  status: ('A' for Active; 'I' for Inactive)
REMARK    1  A    between atoms: C2_2  and  C3_4 
REMARK    2  A    between atoms: C4_5  and  C5_6 
REMARK    3  A    between atoms: C5_6  and  O1_7 
REMARK    4  A    between atoms: O1_7  and  C6_8 
REMARK    5  A    between atoms: C6_8  and  C7_9 
REMARK    6  A    between atoms: C7_9  and  O2_10 
REMARK    7  A    between atoms: O2_10  and  C8_11 
REMARK    8  A    between atoms: C11_14  and  C12_15 
REMARK    9  A    between atoms: C12_15  and  N1_16 
REMARK   10  A    between atoms: N1_16  and  C13_17 
ROOT
HETATM    1  C8  UNL     1      27.549   6.256  48.172  1.00  0.00     0.065 A 
HETATM    2  C9  UNL     1      26.301   6.514  48.529  1.00  0.00     0.014 A 
HETATM    3  C10 UNL     1      25.668   5.352  49.236  1.00  0.00     0.066 A 
HETATM    4  C11 UNL     1      26.798   4.375  49.214  1.00  0.00    -0.056 A 
HETATM    5  C17 UNL     1      27.872   4.892  48.606  1.00  0.00     0.041 A 
ENDROOT
BRANCH   1   6
HETATM    6  O2  UNL     1      28.591   6.905  47.522  1.00  0.00    -0.349 OA
BRANCH   6   7
HETATM    7  C7  UNL     1      29.436   7.773  48.220  1.00  0.00     0.201 C 
BRANCH   7   8
HETATM    8  C6  UNL     1      30.840   7.235  48.359  1.00  0.00     0.194 C 
BRANCH   8   9
HETATM    9  O1  UNL     1      31.220   6.489  47.264  1.00  0.00    -0.385 OA
BRANCH   9  10
HETATM   10  C5  UNL     1      32.237   5.600  47.671  1.00  0.00     0.195 C 
BRANCH  10  11
HETATM   11  C4  UNL     1      31.965   4.211  47.303  1.00  0.00     0.002 C 
HETATM   12  C3  UNL     1      32.713   3.146  47.082  1.00  0.00     0.039 C 
BRANCH  12  13
HETATM   13  C2  UNL     1      34.164   3.110  47.165  1.00  0.00     0.106 C 
HETATM   14  C1  UNL     1      34.899   3.276  46.079  1.00  0.00     0.056 C 
HETATM   15  F1  UNL     1      34.866   2.913  48.304  1.00  0.00    -0.207 F 
ENDBRANCH  12  13
ENDBRANCH  10  11
ENDBRANCH   9  10
ENDBRANCH   8   9
ENDBRANCH   7   8
ENDBRANCH   6   7
ENDBRANCH   1   6
BRANCH   4  16
HETATM   16  C12 UNL     1      26.491   3.079  49.855  1.00  0.00     0.156 C 
BRANCH  16  17
HETATM   17  N1  UNL     1      26.489   3.225  51.289  1.00  0.00    -0.369 N 
HETATM   18  H16 UNL     1      26.093   4.089  51.726  1.00  0.00     0.161 HD
BRANCH  17  19
HETATM   19  C13 UNL     1      27.006   2.241  52.209  1.00  0.00     0.148 A 
HETATM   20  N2  UNL     1      28.266   2.353  52.663  1.00  0.00    -0.223 NA
HETATM   21  C14 UNL     1      28.852   1.499  53.519  1.00  0.00     0.235 A 
HETATM   22  N3  UNL     1      28.110   0.442  53.957  1.00  0.00    -0.252 NA
HETATM   23  C15 UNL     1      26.833   0.297  53.518  1.00  0.00     0.145 A 
HETATM   24  C16 UNL     1      26.236   1.159  52.651  1.00  0.00     0.097 A 
HETATM   25 CL1  UNL     1      24.608   1.028  52.053  1.00  0.00    -0.079 Cl
ENDBRANCH  17  19
ENDBRANCH  16  17
ENDBRANCH   4  16
TORSDOF 10
ENDMDL
MODEL 3
REMARK VINA RESULT:      -6.3      5.643      7.735
REMARK  10 active torsions:
REMARK  status: ('A' for Active; 'I' for Inactive)
REMARK    1  A    between atoms: C2_2  and  C3_4 
REMARK    2  A    between atoms: C4_5  and  C5_6 
REMARK    3  A    between atoms: C5_6  and  O1_7 
REMARK    4  A    between atoms: O1_7  and  C6_8 
REMARK    5  A    between atoms: C6_8  and  C7_9 
REMARK    6  A    between atoms: C7_9  and  O2_10 
REMARK    7  A    between atoms: O2_10  and  C8_11 
REMARK    8  A    between atoms: C11_14  and  C12_15 
REMARK    9  A    between atoms: C12_15  and  N1_16 
REMARK   10  A    between atoms: N1_16  and  C13_17 
ROOT
HETATM    1  C8  UNL     1      27.038   4.733  48.978  1.00  0.00     0.065 A 
HETATM    2  C9  UNL     1      25.972   5.518  48.995  1.00  0.00     0.014 A 
HETATM    3  C10 UNL     1      24.896   4.983  49.893  1.00  0.00     0.066 A 
HETATM    4  C11 UNL     1      25.552   3.736  50.387  1.00  0.00    -0.056 A 
HETATM    5  C17 UNL     1      26.776   3.594  49.865  1.00  0.00     0.041 A 
ENDROOT
BRANCH   1   6
HETATM    6  O2  UNL     1      28.286   4.702  48.370  1.00  0.00    -0.349 OA
BRANCH   6   7
HETATM    7  C7  UNL     1      29.049   5.867  48.248  1.00  0.00     0.201 C 
BRANCH   7   8
HETATM    8  C6  UNL     1      30.483   5.589  47.865  1.00  0.00     0.194 C 
BRANCH   8   9
HETATM    9  O1  UNL     1      31.225   5.132  48.933  1.00  0.00    -0.385 OA
BRANCH   9  10
HETATM   10  C5  UNL     1      32.471   5.794  48.917  1.00  0.00     0.195 C 
BRANCH  10  11
HETATM   11  C4  UNL     1      33.189   5.633  47.652  1.00  0.00     0.002 C 
HETATM   12  C3  UNL     1      33.799   4.628  47.053  1.00  0.00     0.039 C 
BRANCH  12  13
HETATM   13  C2  UNL     1      33.909   3.278  47.583  1.00  0.00     0.106 C 
HETATM   14  C1  UNL     1      32.998   2.368  47.285  1.00  0.00     0.056 C 
HETATM   15  F1  UNL     1      34.905   2.846  48.389  1.00  0.00    -0.207 F 
ENDBRANCH  12  13
ENDBRANCH  10  11
ENDBRANCH   9  10
ENDBRANCH   8   9
ENDBRANCH   7   8
ENDBRANCH   6   7
ENDBRANCH   1   6
BRANCH   4  16
HETATM   16  C12 UNL     1      24.727   2.948  51.327  1.00  0.00     0.156 C 
BRANCH  16  17
HETATM   17  N1  UNL     1      25.389   2.848  52.603  1.00  0.00    -0.369 N 
HETATM   18  H16 UNL     1      25.683   3.714  53.108  1.00  0.00     0.161 HD
BRANCH  17  19
HETATM   19  C13 UNL     1      25.691   1.603  53.268  1.00  0.00     0.148 A 
HETATM   20  N2  UNL     1      24.721   0.690  53.441  1.00  0.00    -0.223 NA
HETATM   21  C14 UNL     1      24.886  -0.500  54.044  1.00  0.00     0.235 A 
HETATM   22  N3  UNL     1      26.131  -0.798  54.514  1.00  0.00    -0.252 NA
HETATM   23  C15 UNL     1      27.136   0.103  54.357  1.00  0.00     0.145 A 
HETATM   24  C16 UNL     1      26.973   1.309  53.747  1.00  0.00     0.097 A 
HETATM   25 CL1  UNL     1      28.216   2.502  53.515  1.00  0.00    -0.079 Cl
ENDBRANCH  17  19
ENDBRANCH  16  17
ENDBRANCH   4  16
TORSDOF 10
ENDMDL
MODEL 4
REMARK VINA RESULT:      -6.2      5.435      7.622
REMARK  10 active torsions:
REMARK  status: ('A' for Active; 'I' for Inactive)
REMARK    1  A    between atoms: C2_2  and  C3_4 
REMARK    2  A    between atoms: C4_5  and  C5_6 
REMARK    3  A    between atoms: C5_6  and  O1_7 
REMARK    4  A    between atoms: O1_7  and  C6_8 
REMARK    5  A    between atoms: C6_8  and  C7_9 
REMARK    6  A    between atoms: C7_9  and  O2_10 
REMARK    7  A    between atoms: O2_10  and  C8_11 
REMARK    8  A    between atoms: C11_14  and  C12_15 
REMARK    9  A    between atoms: C12_15  and  N1_16 
REMARK   10  A    between atoms: N1_16  and  C13_17 
ROOT
HETATM    1  C8  UNL     1      25.781   4.404  49.476  1.00  0.00     0.065 A 
HETATM    2  C9  UNL     1      25.391   5.658  49.314  1.00  0.00     0.014 A 
HETATM    3  C10 UNL     1      26.478   6.514  48.733  1.00  0.00     0.066 A 
HETATM    4  C11 UNL     1      27.570   5.505  48.594  1.00  0.00    -0.056 A 
HETATM    5  C17 UNL     1      27.172   4.300  49.018  1.00  0.00     0.041 A 
ENDROOT
BRANCH   1   6
HETATM    6  O2  UNL     1      25.249   3.210  49.944  1.00  0.00    -0.349 OA
BRANCH   6   7
HETATM    7  C7  UNL     1      24.624   3.149  51.193  1.00  0.00     0.201 C 
BRANCH   7   8
HETATM    8  C6  UNL     1      25.467   2.453  52.235  1.00  0.00     0.194 C 
BRANCH   8   9
HETATM    9  O1  UNL     1      26.145   1.372  51.714  1.00  0.00    -0.385 OA
BRANCH   9  10
HETATM   10  C5  UNL     1      25.730   0.217  52.410  1.00  0.00     0.195 C 
BRANCH  10  11
HETATM   11  C4  UNL     1      26.745  -0.835  52.434  1.00  0.00     0.002 C 
HETATM   12  C3  UNL     1      27.884  -1.010  53.077  1.00  0.00     0.039 C 
BRANCH  12  13
HETATM   13  C2  UNL     1      28.461  -0.077  54.031  1.00  0.00     0.106 C 
HETATM   14  C1  UNL     1      29.224   0.918  53.613  1.00  0.00     0.056 C 
HETATM   15  F1  UNL     1      28.279  -0.133  55.370  1.00  0.00    -0.207 F 
ENDBRANCH  12  13
ENDBRANCH  10  11
ENDBRANCH   9  10
ENDBRANCH   8   9
ENDBRANCH   7   8
ENDBRANCH   6   7
ENDBRANCH   1   6
BRANCH   4  16
HETATM   16  C12 UNL     1      28.825   6.045  48.029  1.00  0.00     0.156 C 
BRANCH  16  17
HETATM   17  N1  UNL     1      29.870   6.008  49.021  1.00  0.00    -0.369 N 
HETATM   18  H16 UNL     1      29.633   6.125  50.033  1.00  0.00     0.161 HD
BRANCH  17  19
HETATM   19  C13 UNL     1      31.269   5.816  48.724  1.00  0.00     0.148 A 
HETATM   20  N2  UNL     1      31.684   4.648  48.206  1.00  0.00    -0.223 NA
HETATM   21  C14 UNL     1      32.957   4.358  47.890  1.00  0.00     0.235 A 
HETATM   22  N3  UNL     1      33.895   5.323  48.115  1.00  0.00    -0.252 NA
HETATM   23  C15 UNL     1      33.511   6.516  48.639  1.00  0.00     0.145 A 
HETATM   24  C16 UNL     1      32.222   6.814  48.959  1.00  0.00     0.097 A 
HETATM   25 CL1  UNL     1      31.668   8.319  49.631  1.00  0.00    -0.079 Cl
ENDBRANCH  17  19
ENDBRANCH  16  17
ENDBRANCH   4  16
TORSDOF 10
ENDMDL
MODEL 5
REMARK VINA RESULT:      -6.2      1.848      2.737
REMARK  10 active torsions:
REMARK  status: ('A' for Active; 'I' for Inactive)
REMARK    1  A    between atoms: C2_2  and  C3_4 
REMARK    2  A    between atoms: C4_5  and  C5_6 
REMARK    3  A    between atoms: C5_6  and  O1_7 
REMARK    4  A    between atoms: O1_7  and  C6_8 
REMARK    5  A    between atoms: C6_8  and  C7_9 
REMARK    6  A    between atoms: C7_9  and  O2_10 
REMARK    7  A    between atoms: O2_10  and  C8_11 
REMARK    8  A    between atoms: C11_14  and  C12_15 
REMARK    9  A    between atoms: C12_15  and  N1_16 
REMARK   10  A    between atoms: N1_16  and  C13_17 
ROOT
HETATM    1  C8  UNL     1      21.287  -0.129  52.936  1.00  0.00     0.065 A 
HETATM    2  C9  UNL     1      20.979  -0.944  53.932  1.00  0.00     0.014 A 
HETATM    3  C10 UNL     1      22.190  -1.361  54.713  1.00  0.00     0.066 A 
HETATM    4  C11 UNL     1      23.256  -0.626  53.968  1.00  0.00    -0.056 A 
HETATM    5  C17 UNL     1      22.740   0.078  52.954  1.00  0.00     0.041 A 
ENDROOT
BRANCH   1   6
HETATM    6  O2  UNL     1      20.631   0.554  51.921  1.00  0.00    -0.349 OA
BRANCH   6   7
HETATM    7  C7  UNL     1      19.264   0.832  52.017  1.00  0.00     0.201 C 
BRANCH   7   8
HETATM    8  C6  UNL     1      18.930   2.256  51.641  1.00  0.00     0.194 C 
BRANCH   8   9
HETATM    9  O1  UNL     1      19.541   3.169  52.475  1.00  0.00    -0.385 OA
BRANCH   9  10
HETATM   10  C5  UNL     1      20.365   3.999  51.687  1.00  0.00     0.195 C 
BRANCH  10  11
HETATM   11  C4  UNL     1      21.765   3.985  52.111  1.00  0.00     0.002 C 
HETATM   12  C3  UNL     1      22.912   3.719  51.515  1.00  0.00     0.039 C 
BRANCH  12  13
HETATM   13  C2  UNL     1      23.063   3.330  50.122  1.00  0.00     0.106 C 
HETATM   14  C1  UNL     1      22.810   2.088  49.744  1.00  0.00     0.056 C 
HETATM   15  F1  UNL     1      23.454   4.160  49.129  1.00  0.00    -0.207 F 
ENDBRANCH  12  13
ENDBRANCH  10  11
ENDBRANCH   9  10
ENDBRANCH   8   9
ENDBRANCH   7   8
ENDBRANCH   6   7
ENDBRANCH   1   6
BRANCH   4  16
HETATM   16  C12 UNL     1      24.619  -0.831  54.503  1.00  0.00     0.156 C 
BRANCH  16  17
HETATM   17  N1  UNL     1      25.599  -0.505  53.498  1.00  0.00    -0.369 N 
HETATM   18  H16 UNL     1      25.462  -0.827  52.512  1.00  0.00     0.161 HD
BRANCH  17  19
HETATM   19  C13 UNL     1      26.799   0.256  53.746  1.00  0.00     0.148 A 
HETATM   20  N2  UNL     1      27.654  -0.144  54.703  1.00  0.00    -0.223 NA
HETATM   21  C14 UNL     1      28.799   0.484  55.020  1.00  0.00     0.235 A 
HETATM   22  N3  UNL     1      29.113   1.609  54.317  1.00  0.00    -0.252 NA
HETATM   23  C15 UNL     1      28.271   2.043  53.343  1.00  0.00     0.145 A 
HETATM   24  C16 UNL     1      27.111   1.410  53.018  1.00  0.00     0.097 A 
HETATM   25 CL1  UNL     1      25.994   1.913  51.784  1.00  0.00    -0.079 Cl
ENDBRANCH  17  19
ENDBRANCH  16  17
ENDBRANCH   4  16
TORSDOF 10
ENDMDL
MODEL 6
REMARK VINA RESULT:      -6.2      2.327      3.235
REMARK  10 active torsions:
REMARK  status: ('A' for Active; 'I' for Inactive)
REMARK    1  A    between atoms: C2_2  and  C3_4 
REMARK    2  A    between atoms: C4_5  and  C5_6 
REMARK    3  A    between atoms: C5_6  and  O1_7 
REMARK    4  A    between atoms: O1_7  and  C6_8 
REMARK    5  A    between atoms: C6_8  and  C7_9 
REMARK    6  A    between atoms: C7_9  and  O2_10 
REMARK    7  A    between atoms: O2_10  and  C8_11 
REMARK    8  A    between atoms: C11_14  and  C12_15 
REMARK    9  A    between atoms: C12_15  and  N1_16 
REMARK   10  A    between atoms: N1_16  and  C13_17 
ROOT
HETATM    1  C8  UNL     1      21.664   0.436  52.814  1.00  0.00     0.065 A 
HETATM    2  C9  UNL     1      21.233  -0.149  53.920  1.00  0.00     0.014 A 
HETATM    3  C10 UNL     1      22.354  -0.762  54.705  1.00  0.00     0.066 A 
HETATM    4  C11 UNL     1      23.515  -0.415  53.833  1.00  0.00    -0.056 A 
HETATM    5  C17 UNL     1      23.121   0.270  52.753  1.00  0.00     0.041 A 
ENDROOT
BRANCH   1   6
HETATM    6  O2  UNL     1      21.129   1.136  51.741  1.00  0.00    -0.349 OA
BRANCH   6   7
HETATM    7  C7  UNL     1      21.722   1.065  50.476  1.00  0.00     0.201 C 
BRANCH   7   8
HETATM    8  C6  UNL     1      21.828   2.414  49.805  1.00  0.00     0.194 C 
BRANCH   8   9
HETATM    9  O1  UNL     1      23.071   2.617  49.244  1.00  0.00    -0.385 OA
BRANCH   9  10
HETATM   10  C5  UNL     1      23.883   3.261  50.200  1.00  0.00     0.195 C 
BRANCH  10  11
HETATM   11  C4  UNL     1      25.265   2.782  50.195  1.00  0.00     0.002 C 
HETATM   12  C3  UNL     1      26.426   3.303  49.845  1.00  0.00     0.039 C 
BRANCH  12  13
HETATM   13  C2  UNL     1      26.619   4.645  49.318  1.00  0.00     0.106 C 
HETATM   14  C1  UNL     1      27.678   4.926  48.578  1.00  0.00     0.056 C 
HETATM   15  F1  UNL     1      25.774   5.681  49.521  1.00  0.00    -0.207 F 
ENDBRANCH  12  13
ENDBRANCH  10  11
ENDBRANCH   9  10
ENDBRANCH   8   9
ENDBRANCH   7   8
ENDBRANCH   6   7
ENDBRANCH   1   6
BRANCH   4  16
HETATM   16  C12 UNL     1      24.819  -0.891  54.342  1.00  0.00     0.156 C 
BRANCH  16  17
HETATM   17  N1  UNL     1      25.808  -0.838  53.295  1.00  0.00    -0.369 N 
HETATM   18  H16 UNL     1      25.556  -1.128  52.323  1.00  0.00     0.161 HD
BRANCH  17  19
HETATM   19  C13 UNL     1      27.170  -0.401  53.483  1.00  0.00     0.148 A 
HETATM   20  N2  UNL     1      28.163  -1.307  53.495  1.00  0.00    -0.223 NA
HETATM   21  C14 UNL     1      29.465  -1.016  53.662  1.00  0.00     0.235 A 
HETATM   22  N3  UNL     1      29.798   0.296  53.830  1.00  0.00    -0.252 NA
HETATM   23  C15 UNL     1      28.820   1.238  53.824  1.00  0.00     0.145 A 
HETATM   24  C16 UNL     1      27.501   0.948  53.655  1.00  0.00     0.097 A 
HETATM   25 CL1  UNL     1      26.204   2.106  53.638  1.00  0.00    -0.079 Cl
ENDBRANCH  17  19
ENDBRANCH  16  17
ENDBRANCH   4  16
TORSDOF 10
ENDMDL
MODEL 7
REMARK VINA RESULT:      -6.2      6.311      8.754
REMARK  10 active torsions:
REMARK  status: ('A' for Active; 'I' for Inactive)
REMARK    1  A    between atoms: C2_2  and  C3_4 
REMARK    2  A    between atoms: C4_5  and  C5_6 
REMARK    3  A    between atoms: C5_6  and  O1_7 
REMARK    4  A    between atoms: O1_7  and  C6_8 
REMARK    5  A    between atoms: C6_8  and  C7_9 
REMARK    6  A    between atoms: C7_9  and  O2_10 
REMARK    7  A    between atoms: O2_10  and  C8_11 
REMARK    8  A    between atoms: C11_14  and  C12_15 
REMARK    9  A    between atoms: C12_15  and  N1_16 
REMARK   10  A    between atoms: N1_16  and  C13_17 
ROOT
HETATM    1  C8  UNL     1      27.681   5.109  48.657  1.00  0.00     0.065 A 
HETATM    2  C9  UNL     1      27.175   6.328  48.559  1.00  0.00     0.014 A 
HETATM    3  C10 UNL     1      28.183   7.315  48.048  1.00  0.00     0.066 A 
HETATM    4  C11 UNL     1      29.368   6.424  47.874  1.00  0.00    -0.056 A 
HETATM    5  C17 UNL     1      29.082   5.164  48.221  1.00  0.00     0.041 A 
ENDROOT
BRANCH   1   6
HETATM    6  O2  UNL     1      27.259   3.845  49.046  1.00  0.00    -0.349 OA
BRANCH   6   7
HETATM    7  C7  UNL     1      26.153   3.690  49.887  1.00  0.00     0.201 C 
BRANCH   7   8
HETATM    8  C6  UNL     1      26.325   2.562  50.876  1.00  0.00     0.194 C 
BRANCH   8   9
HETATM    9  O1  UNL     1      27.545   2.615  51.516  1.00  0.00    -0.385 OA
BRANCH   9  10
HETATM   10  C5  UNL     1      27.329   2.391  52.892  1.00  0.00     0.195 C 
BRANCH  10  11
HETATM   11  C4  UNL     1      28.567   2.357  53.669  1.00  0.00     0.002 C 
HETATM   12  C3  UNL     1      29.300   1.399  54.205  1.00  0.00     0.039 C 
BRANCH  12  13
HETATM   13  C2  UNL     1      29.002  -0.023  54.135  1.00  0.00     0.106 C 
HETATM   14  C1  UNL     1      29.897  -0.869  53.655  1.00  0.00     0.056 C 
HETATM   15  F1  UNL     1      27.841  -0.588  54.536  1.00  0.00    -0.207 F 
ENDBRANCH  12  13
ENDBRANCH  10  11
ENDBRANCH   9  10
ENDBRANCH   8   9
ENDBRANCH   7   8
ENDBRANCH   6   7
ENDBRANCH   1   6
BRANCH   4  16
HETATM   16  C12 UNL     1      30.573   7.112  47.365  1.00  0.00     0.156 C 
BRANCH  16  17
HETATM   17  N1  UNL     1      31.470   6.159  46.762  1.00  0.00    -0.369 N 
HETATM   18  H16 UNL     1      31.246   5.751  45.826  1.00  0.00     0.161 HD
BRANCH  17  19
HETATM   19  C13 UNL     1      32.700   5.703  47.364  1.00  0.00     0.148 A 
HETATM   20  N2  UNL     1      33.482   6.576  48.021  1.00  0.00    -0.223 NA
HETATM   21  C14 UNL     1      34.645   6.265  48.618  1.00  0.00     0.235 A 
HETATM   22  N3  UNL     1      35.058   4.968  48.551  1.00  0.00    -0.252 NA
HETATM   23  C15 UNL     1      34.292   4.058  47.894  1.00  0.00     0.145 A 
HETATM   24  C16 UNL     1      33.114   4.368  47.288  1.00  0.00     0.097 A 
HETATM   25 CL1  UNL     1      32.091   3.252  46.434  1.00  0.00    -0.079 Cl
ENDBRANCH  17  19
ENDBRANCH  16  17
ENDBRANCH   4  16
TORSDOF 10
ENDMDL
MODEL 8
REMARK VINA RESULT:      -6.1      5.799      8.051
REMARK  10 active torsions:
REMARK  status: ('A' for Active; 'I' for Inactive)
REMARK    1  A    between atoms: C2_2  and  C3_4 
REMARK    2  A    between atoms: C4_5  and  C5_6 
REMARK    3  A    between atoms: C5_6  and  O1_7 
REMARK    4  A    between atoms: O1_7  and  C6_8 
REMARK    5  A    between atoms: C6_8  and  C7_9 
REMARK    6  A    between atoms: C7_9  and  O2_10 
REMARK    7  A    between atoms: O2_10  and  C8_11 
REMARK    8  A    between atoms: C11_14  and  C12_15 
REMARK    9  A    between atoms: C12_15  and  N1_16 
REMARK   10  A    between atoms: N1_16  and  C13_17 
ROOT
HETATM    1  C8  UNL     1      25.374   3.676  49.817  1.00  0.00     0.065 A 
HETATM    2  C9  UNL     1      26.614   3.359  49.482  1.00  0.00     0.014 A 
HETATM    3  C10 UNL     1      27.355   4.527  48.901  1.00  0.00     0.066 A 
HETATM    4  C11 UNL     1      26.295   5.578  48.967  1.00  0.00    -0.056 A 
HETATM    5  C17 UNL     1      25.164   5.092  49.490  1.00  0.00     0.041 A 
ENDROOT
BRANCH   1   6
HETATM    6  O2  UNL     1      24.264   3.053  50.372  1.00  0.00    -0.349 OA
BRANCH   6   7
HETATM    7  C7  UNL     1      24.184   2.834  51.751  1.00  0.00     0.201 C 
BRANCH   7   8
HETATM    8  C6  UNL     1      24.301   1.374  52.118  1.00  0.00     0.194 C 
BRANCH   8   9
HETATM    9  O1  UNL     1      25.317   1.146  53.020  1.00  0.00    -0.385 OA
BRANCH   9  10
HETATM   10  C5  UNL     1      26.498   0.887  52.294  1.00  0.00     0.195 C 
BRANCH  10  11
HETATM   11  C4  UNL     1      27.624   1.721  52.714  1.00  0.00     0.002 C 
HETATM   12  C3  UNL     1      28.686   1.533  53.474  1.00  0.00     0.039 C 
BRANCH  12  13
HETATM   13  C2  UNL     1      29.020   0.291  54.154  1.00  0.00     0.106 C 
HETATM   14  C1  UNL     1      29.877  -0.557  53.612  1.00  0.00     0.056 C 
HETATM   15  F1  UNL     1      28.514  -0.094  55.347  1.00  0.00    -0.207 F 
ENDBRANCH  12  13
ENDBRANCH  10  11
ENDBRANCH   9  10
ENDBRANCH   8   9
ENDBRANCH   7   8
ENDBRANCH   6   7
ENDBRANCH   1   6
BRANCH   4  16
HETATM   16  C12 UNL     1      26.718   6.897  48.451  1.00  0.00     0.156 C 
BRANCH  16  17
HETATM   17  N1  UNL     1      27.562   7.558  49.415  1.00  0.00    -0.369 N 
HETATM   18  H16 UNL     1      27.590   7.218  50.404  1.00  0.00     0.161 HD
BRANCH  17  19
HETATM   19  C13 UNL     1      28.405   8.691  49.120  1.00  0.00     0.148 A 
HETATM   20  N2  UNL     1      27.905   9.934  49.219  1.00  0.00    -0.223 NA
HETATM   21  C14 UNL     1      28.595  11.060  48.969  1.00  0.00     0.235 A 
HETATM   22  N3  UNL     1      29.897  10.927  48.588  1.00  0.00    -0.252 NA
HETATM   23  C15 UNL     1      30.435   9.685  48.476  1.00  0.00     0.145 A 
HETATM   24  C16 UNL     1      29.740   8.542  48.728  1.00  0.00     0.097 A 
HETATM   25 CL1  UNL     1      30.370   6.926  48.604  1.00  0.00    -0.079 Cl
ENDBRANCH  17  19
ENDBRANCH  16  17
ENDBRANCH   4  16
TORSDOF 10
ENDMDL
MODEL 9
REMARK VINA RESULT:      -6.0      5.676      7.605
REMARK  10 active torsions:
REMARK  status: ('A' for Active; 'I' for Inactive)
REMARK    1  A    between atoms: C2_2  and  C3_4 
REMARK    2  A    between atoms: C4_5  and  C5_6 
REMARK    3  A    between atoms: C5_6  and  O1_7 
REMARK    4  A    between atoms: O1_7  and  C6_8 
REMARK    5  A    between atoms: C6_8  and  C7_9 
REMARK    6  A    between atoms: C7_9  and  O2_10 
REMARK    7  A    between atoms: O2_10  and  C8_11 
REMARK    8  A    between atoms: C11_14  and  C12_15 
REMARK    9  A    between atoms: C12_15  and  N1_16 
REMARK   10  A    between atoms: N1_16  and  C13_17 
ROOT
HETATM    1  C8  UNL     1      26.604   5.126  48.842  1.00  0.00     0.065 A 
HETATM    2  C9  UNL     1      26.456   6.411  48.560  1.00  0.00     0.014 A 
HETATM    3  C10 UNL     1      27.745   7.041  48.120  1.00  0.00     0.066 A 
HETATM    4  C11 UNL     1      28.662   5.866  48.206  1.00  0.00    -0.056 A 
HETATM    5  C17 UNL     1      28.011   4.773  48.618  1.00  0.00     0.041 A 
ENDROOT
BRANCH   1   6
HETATM    6  O2  UNL     1      25.817   4.068  49.275  1.00  0.00    -0.349 OA
BRANCH   6   7
HETATM    7  C7  UNL     1      26.371   3.029  50.030  1.00  0.00     0.201 C 
BRANCH   7   8
HETATM    8  C6  UNL     1      25.703   2.865  51.375  1.00  0.00     0.194 C 
BRANCH   8   9
HETATM    9  O1  UNL     1      24.486   2.225  51.274  1.00  0.00    -0.385 OA
BRANCH   9  10
HETATM   10  C5  UNL     1      23.926   2.143  52.566  1.00  0.00     0.195 C 
BRANCH  10  11
HETATM   11  C4  UNL     1      23.631   0.771  52.978  1.00  0.00     0.002 C 
HETATM   12  C3  UNL     1      24.360  -0.257  53.368  1.00  0.00     0.039 C 
BRANCH  12  13
HETATM   13  C2  UNL     1      25.809  -0.258  53.494  1.00  0.00     0.106 C 
HETATM   14  C1  UNL     1      26.559  -0.836  52.571  1.00  0.00     0.056 C 
HETATM   15  F1  UNL     1      26.494   0.305  54.514  1.00  0.00    -0.207 F 
ENDBRANCH  12  13
ENDBRANCH  10  11
ENDBRANCH   9  10
ENDBRANCH   8   9
ENDBRANCH   7   8
ENDBRANCH   6   7
ENDBRANCH   1   6
BRANCH   4  16
HETATM   16  C12 UNL     1      30.060   6.161  47.824  1.00  0.00     0.156 C 
BRANCH  16  17
HETATM   17  N1  UNL     1      30.800   4.934  47.671  1.00  0.00    -0.369 N 
HETATM   18  H16 UNL     1      30.305   4.058  47.385  1.00  0.00     0.161 HD
BRANCH  17  19
HETATM   19  C13 UNL     1      32.221   4.806  47.887  1.00  0.00     0.148 A 
HETATM   20  N2  UNL     1      32.881   5.770  48.552  1.00  0.00    -0.223 NA
HETATM   21  C14 UNL     1      34.200   5.757  48.811  1.00  0.00     0.235 A 
HETATM   22  N3  UNL     1      34.917   4.687  48.366  1.00  0.00    -0.252 NA
HETATM   23  C15 UNL     1      34.282   3.694  47.689  1.00  0.00     0.145 A 
HETATM   24  C16 UNL     1      32.947   3.703  47.425  1.00  0.00     0.097 A 
HETATM   25 CL1  UNL     1      32.078   2.465  46.566  1.00  0.00    -0.079 Cl
ENDBRANCH  17  19
ENDBRANCH  16  17
ENDBRANCH   4  16
TORSDOF 10
ENDMDL
