MODEL 1
REMARK VINA RESULT:      -7.6      0.000      0.000
REMARK  5 active torsions:
REMARK  status: ('A' for Active; 'I' for Inactive)
REMARK    1  A    between atoms: C5_7  and  C6_8 
REMARK    2  A    between atoms: C6_8  and  C7_9 
REMARK    3  A    between atoms: C7_9  and  O2_10 
REMARK    4  A    between atoms: O2_10  and  C8_11 
REMARK    5  A    between atoms: C13_19  and  C14_20 
ROOT
HETATM    1  C14 UNL     1      26.833  -0.810  52.634  1.00  0.00     0.102 C 
HETATM    2  C15 UNL     1      28.104  -0.915  53.081  1.00  0.00     0.204 C 
HETATM    3 CL1  UNL     1      29.759  -0.955  53.737  1.00  0.00    -0.261 Cl
ENDROOT
BRANCH   1   4
HETATM    4  C13 UNL     1      26.632   0.474  53.510  1.00  0.00     0.240 C 
HETATM    5  N4  UNL     1      25.163   0.640  53.268  1.00  0.00     0.088 N 
HETATM    6  C12 UNL     1      24.340  -0.521  53.673  1.00  0.00     0.426 C 
HETATM    7  C17 UNL     1      24.273   1.669  52.749  1.00  0.00     0.286 C 
HETATM    8  F1  UNL     1      26.146   0.549  53.440  1.00  0.00    -0.214 F 
HETATM    9  N3  UNL     1      22.974  -0.439  53.250  1.00  0.00    -0.252 NA
HETATM   10  C11 UNL     1      22.018   0.203  53.699  1.00  0.00     0.228 C 
HETATM   11  N2  UNL     1      20.668   0.714  53.825  1.00  0.00    -0.254 NA
HETATM   12  C10 UNL     1      20.441   1.721  52.985  1.00  0.00     0.120 C 
HETATM   13  C9  UNL     1      21.369   2.286  52.025  1.00  0.00     0.051 C 
HETATM   14  C8  UNL     1      22.481   2.460  51.282  1.00  0.00     0.049 C 
HETATM   15  C18 UNL     1      23.576   1.416  51.494  1.00  0.00     0.095 C 
HETATM   16  C16 UNL     1      26.345   1.566  54.235  1.00  0.00     0.244 C 
BRANCH  14  17
HETATM   17  O2  UNL     1      22.724   3.466  50.350  1.00  0.00    -0.355 OA
BRANCH  17  18
HETATM   18  C7  UNL     1      23.494   3.361  49.193  1.00  0.00     0.177 C 
BRANCH  18  19
HETATM   19  C6  UNL     1      23.741   4.756  48.680  1.00  0.00     0.052 C 
BRANCH  19  20
HETATM   20  C5  UNL     1      25.012   5.329  49.203  1.00  0.00     0.086 C 
HETATM   21  C2  UNL     1      25.451   6.562  48.479  1.00  0.00     0.028 C 
HETATM   22  C1  UNL     1      26.922   6.777  48.838  1.00  0.00     0.014 C 
HETATM   23  C3  UNL     1      24.614   7.750  48.836  1.00  0.00     0.176 C 
HETATM   24  O1  UNL     1      24.102   7.763  50.095  1.00  0.00    -0.372 OA
HETATM   25  C4  UNL     1      24.568   6.893  51.018  1.00  0.00     0.285 C 
HETATM   26  N1  UNL     1      24.918   5.571  50.608  1.00  0.00    -0.397 N 
HETATM   27  H9  UNL     1      24.443   4.805  51.133  1.00  0.00     0.155 HD
ENDBRANCH  19  20
ENDBRANCH  18  19
ENDBRANCH  17  18
ENDBRANCH  14  17
ENDBRANCH   1   4
TORSDOF 5
ENDMDL
MODEL 2
REMARK VINA RESULT:      -7.4      3.411      6.548
REMARK  5 active torsions:
REMARK  status: ('A' for Active; 'I' for Inactive)
REMARK    1  A    between atoms: C5_7  and  C6_8 
REMARK    2  A    between atoms: C6_8  and  C7_9 
REMARK    3  A    between atoms: C7_9  and  O2_10 
REMARK    4  A    between atoms: O2_10  and  C8_11 
REMARK    5  A    between atoms: C13_19  and  C14_20 
ROOT
HETATM    1  C14 UNL     1      24.554   3.349  49.326  1.00  0.00     0.102 C 
HETATM    2  C15 UNL     1      23.363   3.645  48.759  1.00  0.00     0.204 C 
HETATM    3 CL1  UNL     1      21.758   4.076  48.121  1.00  0.00    -0.261 Cl
ENDROOT
BRANCH   1   4
HETATM    4  C13 UNL     1      24.037   3.899  50.700  1.00  0.00     0.240 C 
HETATM    5  N4  UNL     1      24.757   2.923  51.578  1.00  0.00     0.088 N 
HETATM    6  C12 UNL     1      26.229   2.928  51.423  1.00  0.00     0.426 C 
HETATM    7  C17 UNL     1      24.412   1.945  52.600  1.00  0.00     0.286 C 
HETATM    8  F1  UNL     1      24.265   3.583  51.008  1.00  0.00    -0.214 F 
HETATM    9  N3  UNL     1      26.888   1.857  52.108  1.00  0.00    -0.252 NA
HETATM   10  C11 UNL     1      27.165   1.699  53.301  1.00  0.00     0.228 C 
HETATM   11  N2  UNL     1      27.681   1.072  54.502  1.00  0.00    -0.254 NA
HETATM   12  C10 UNL     1      26.836   0.164  54.986  1.00  0.00     0.120 C 
HETATM   13  C9  UNL     1      25.550  -0.217  54.435  1.00  0.00     0.051 C 
HETATM   14  C8  UNL     1      24.498  -0.290  53.594  1.00  0.00     0.049 C 
HETATM   15  C18 UNL     1      24.631   0.533  52.313  1.00  0.00     0.095 C 
HETATM   16  C16 UNL     1      23.664   4.290  51.928  1.00  0.00     0.244 C 
BRANCH  14  17
HETATM   17  O2  UNL     1      23.333  -1.033  53.763  1.00  0.00    -0.355 OA
BRANCH  17  18
HETATM   18  C7  UNL     1      22.267  -0.729  54.609  1.00  0.00     0.177 C 
BRANCH  18  19
HETATM   19  C6  UNL     1      21.475   0.379  53.966  1.00  0.00     0.052 C 
BRANCH  19  20
HETATM   20  C5  UNL     1      20.668  -0.103  52.813  1.00  0.00     0.086 C 
HETATM   21  C2  UNL     1      19.440   0.713  52.561  1.00  0.00     0.028 C 
HETATM   22  C1  UNL     1      18.538  -0.124  51.654  1.00  0.00     0.014 C 
HETATM   23  C3  UNL     1      19.765   2.039  51.948  1.00  0.00     0.176 C 
HETATM   24  O1  UNL     1      20.865   2.075  51.151  1.00  0.00    -0.372 OA
HETATM   25  C4  UNL     1      21.432   0.920  50.738  1.00  0.00     0.285 C 
HETATM   26  N1  UNL     1      21.470  -0.191  51.634  1.00  0.00    -0.397 N 
HETATM   27  H9  UNL     1      22.419  -0.591  51.803  1.00  0.00     0.155 HD
ENDBRANCH  19  20
ENDBRANCH  18  19
ENDBRANCH  17  18
ENDBRANCH  14  17
ENDBRANCH   1   4
TORSDOF 5
ENDMDL
MODEL 3
REMARK VINA RESULT:      -7.4      3.435      7.084
REMARK  5 active torsions:
REMARK  status: ('A' for Active; 'I' for Inactive)
REMARK    1  A    between atoms: C5_7  and  C6_8 
REMARK    2  A    between atoms: C6_8  and  C7_9 
REMARK    3  A    between atoms: C7_9  and  O2_10 
REMARK    4  A    between atoms: O2_10  and  C8_11 
REMARK    5  A    between atoms: C13_19  and  C14_20 
ROOT
HETATM    1  C14 UNL     1      25.189   7.522  49.886  1.00  0.00     0.102 C 
HETATM    2  C15 UNL     1      26.302   8.287  49.944  1.00  0.00     0.204 C 
HETATM    3 CL1  UNL     1      27.831   9.199  49.979  1.00  0.00    -0.261 Cl
ENDROOT
BRANCH   1   4
HETATM    4  C13 UNL     1      26.043   6.321  49.353  1.00  0.00     0.240 C 
HETATM    5  N4  UNL     1      24.923   5.336  49.221  1.00  0.00     0.088 N 
HETATM    6  C12 UNL     1      23.830   5.767  48.320  1.00  0.00     0.426 C 
HETATM    7  C17 UNL     1      24.598   4.010  49.727  1.00  0.00     0.286 C 
HETATM    8  F1  UNL     1      25.687   5.978  49.304  1.00  0.00    -0.214 F 
HETATM    9  N3  UNL     1      22.677   4.919  48.362  1.00  0.00    -0.252 NA
HETATM   10  C11 UNL     1      22.456   3.815  47.854  1.00  0.00     0.228 C 
HETATM   11  N2  UNL     1      21.746   2.602  47.502  1.00  0.00    -0.254 NA
HETATM   12  C10 UNL     1      21.795   1.700  48.480  1.00  0.00     0.120 C 
HETATM   13  C9  UNL     1      22.445   1.842  49.769  1.00  0.00     0.051 C 
HETATM   14  C8  UNL     1      23.108   2.396  50.805  1.00  0.00     0.049 C 
HETATM   15  C18 UNL     1      23.466   3.871  50.635  1.00  0.00     0.095 C 
HETATM   16  C16 UNL     1      26.674   5.232  48.886  1.00  0.00     0.244 C 
BRANCH  14  17
HETATM   17  O2  UNL     1      23.480   1.777  51.996  1.00  0.00    -0.355 OA
BRANCH  17  18
HETATM   18  C7  UNL     1      24.499   2.176  52.859  1.00  0.00     0.177 C 
BRANCH  18  19
HETATM   19  C6  UNL     1      25.776   1.531  52.388  1.00  0.00     0.052 C 
BRANCH  19  20
HETATM   20  C5  UNL     1      25.755   0.053  52.559  1.00  0.00     0.086 C 
HETATM   21  C2  UNL     1      27.118  -0.557  52.637  1.00  0.00     0.028 C 
HETATM   22  C1  UNL     1      26.939  -2.057  52.397  1.00  0.00     0.014 C 
HETATM   23  C3  UNL     1      27.781  -0.282  53.951  1.00  0.00     0.176 C 
HETATM   24  O1  UNL     1      26.955  -0.156  55.022  1.00  0.00    -0.372 OA
HETATM   25  C4  UNL     1      25.663  -0.539  54.922  1.00  0.00     0.285 C 
HETATM   26  N1  UNL     1      24.968  -0.314  53.694  1.00  0.00    -0.397 N 
HETATM   27  H9  UNL     1      24.081   0.227  53.781  1.00  0.00     0.155 HD
ENDBRANCH  19  20
ENDBRANCH  18  19
ENDBRANCH  17  18
ENDBRANCH  14  17
ENDBRANCH   1   4
TORSDOF 5
ENDMDL
MODEL 4
REMARK VINA RESULT:      -7.0      3.221      4.048
REMARK  5 active torsions:
REMARK  status: ('A' for Active; 'I' for Inactive)
REMARK    1  A    between atoms: C5_7  and  C6_8 
REMARK    2  A    between atoms: C6_8  and  C7_9 
REMARK    3  A    between atoms: C7_9  and  O2_10 
REMARK    4  A    between atoms: O2_10  and  C8_11 
REMARK    5  A    between atoms: C13_19  and  C14_20 
ROOT
HETATM    1  C14 UNL     1      26.238   1.793  51.387  1.00  0.00     0.102 C 
HETATM    2  C15 UNL     1      26.430   2.842  50.557  1.00  0.00     0.204 C 
HETATM    3 CL1  UNL     1      26.612   4.290  49.537  1.00  0.00    -0.261 Cl
ENDROOT
BRANCH   1   4
HETATM    4  C13 UNL     1      25.327   2.682  52.301  1.00  0.00     0.240 C 
HETATM    5  N4  UNL     1      24.392   1.601  52.747  1.00  0.00     0.088 N 
HETATM    6  C12 UNL     1      25.050   0.470  53.440  1.00  0.00     0.426 C 
HETATM    7  C17 UNL     1      22.960   1.341  52.714  1.00  0.00     0.286 C 
HETATM    8  F1  UNL     1      25.004   2.339  52.458  1.00  0.00    -0.214 F 
HETATM    9  N3  UNL     1      24.185  -0.647  53.677  1.00  0.00    -0.252 NA
HETATM   10  C11 UNL     1      23.306  -0.834  54.525  1.00  0.00     0.228 C 
HETATM   11  N2  UNL     1      22.250  -1.502  55.259  1.00  0.00    -0.254 NA
HETATM   12  C10 UNL     1      21.076  -1.394  54.641  1.00  0.00     0.120 C 
HETATM   13  C9  UNL     1      20.806  -0.720  53.386  1.00  0.00     0.051 C 
HETATM   14  C8  UNL     1      21.010  -0.056  52.229  1.00  0.00     0.049 C 
HETATM   15  C18 UNL     1      22.472   0.238  51.896  1.00  0.00     0.095 C 
HETATM   16  C16 UNL     1      24.489   3.346  53.112  1.00  0.00     0.244 C 
BRANCH  14  17
HETATM   17  O2  UNL     1      20.045   0.369  51.320  1.00  0.00    -0.355 OA
BRANCH  17  18
HETATM   18  C7  UNL     1      19.366   1.587  51.334  1.00  0.00     0.177 C 
BRANCH  18  19
HETATM   19  C6  UNL     1      19.593   2.253  50.003  1.00  0.00     0.052 C 
BRANCH  19  20
HETATM   20  C5  UNL     1      20.917   2.929  49.931  1.00  0.00     0.086 C 
HETATM   21  C2  UNL     1      21.780   2.431  48.816  1.00  0.00     0.028 C 
HETATM   22  C1  UNL     1      23.203   2.902  49.122  1.00  0.00     0.014 C 
HETATM   23  C3  UNL     1      21.310   2.920  47.482  1.00  0.00     0.176 C 
HETATM   24  O1  UNL     1      20.701   4.135  47.472  1.00  0.00    -0.372 OA
HETATM   25  C4  UNL     1      20.785   4.937  48.556  1.00  0.00     0.285 C 
HETATM   26  N1  UNL     1      20.758   4.347  49.857  1.00  0.00    -0.397 N 
HETATM   27  H9  UNL     1      20.023   4.719  50.496  1.00  0.00     0.155 HD
ENDBRANCH  19  20
ENDBRANCH  18  19
ENDBRANCH  17  18
ENDBRANCH  14  17
ENDBRANCH   1   4
TORSDOF 5
ENDMDL
MODEL 5
REMARK VINA RESULT:      -7.0      3.397      5.880
REMARK  5 active torsions:
REMARK  status: ('A' for Active; 'I' for Inactive)
REMARK    1  A    between atoms: C5_7  and  C6_8 
REMARK    2  A    between atoms: C6_8  and  C7_9 
REMARK    3  A    between atoms: C7_9  and  O2_10 
REMARK    4  A    between atoms: O2_10  and  C8_11 
REMARK    5  A    between atoms: C13_19  and  C14_20 
ROOT
HETATM    1  C14 UNL     1      25.131   3.092  50.001  1.00  0.00     0.102 C 
HETATM    2  C15 UNL     1      25.057   4.309  49.417  1.00  0.00     0.204 C 
HETATM    3 CL1  UNL     1      24.910   5.953  48.750  1.00  0.00    -0.261 Cl
ENDROOT
BRANCH   1   4
HETATM    4  C13 UNL     1      24.468   3.674  51.297  1.00  0.00     0.240 C 
HETATM    5  N4  UNL     1      24.666   2.472  52.168  1.00  0.00     0.088 N 
HETATM    6  C12 UNL     1      26.078   2.056  52.326  1.00  0.00     0.426 C 
HETATM    7  C17 UNL     1      23.836   1.571  52.955  1.00  0.00     0.286 C 
HETATM    8  F1  UNL     1      24.522   3.285  51.601  1.00  0.00    -0.214 F 
HETATM    9  N3  UNL     1      26.240   0.794  52.984  1.00  0.00    -0.252 NA
HETATM   10  C11 UNL     1      26.171   0.481  54.178  1.00  0.00     0.228 C 
HETATM   11  N2  UNL     1      26.196  -0.349  55.365  1.00  0.00    -0.254 NA
HETATM   12  C10 UNL     1      25.047  -1.001  55.536  1.00  0.00     0.120 C 
HETATM   13  C9  UNL     1      23.876  -0.950  54.682  1.00  0.00     0.051 C 
HETATM   14  C8  UNL     1      23.077  -0.653  53.636  1.00  0.00     0.049 C 
HETATM   15  C18 UNL     1      23.728   0.180  52.534  1.00  0.00     0.095 C 
HETATM   16  C16 UNL     1      23.932   4.073  52.460  1.00  0.00     0.244 C 
BRANCH  14  17
HETATM   17  O2  UNL     1      21.749  -1.032  53.457  1.00  0.00    -0.355 OA
BRANCH  17  18
HETATM   18  C7  UNL     1      20.621  -0.371  53.943  1.00  0.00     0.177 C 
BRANCH  18  19
HETATM   19  C6  UNL     1      19.795   0.055  52.758  1.00  0.00     0.052 C 
BRANCH  19  20
HETATM   20  C5  UNL     1      20.436   1.162  51.995  1.00  0.00     0.086 C 
HETATM   21  C2  UNL     1      20.423   0.950  50.515  1.00  0.00     0.028 C 
HETATM   22  C1  UNL     1      21.446   1.923  49.927  1.00  0.00     0.014 C 
HETATM   23  C3  UNL     1      19.061   1.159  49.931  1.00  0.00     0.176 C 
HETATM   24  O1  UNL     1      18.272   2.066  50.565  1.00  0.00    -0.372 OA
HETATM   25  C4  UNL     1      18.812   2.903  51.477  1.00  0.00     0.285 C 
HETATM   26  N1  UNL     1      19.846   2.418  52.335  1.00  0.00    -0.397 N 
HETATM   27  H9  UNL     1      19.665   2.533  53.355  1.00  0.00     0.155 HD
ENDBRANCH  19  20
ENDBRANCH  18  19
ENDBRANCH  17  18
ENDBRANCH  14  17
ENDBRANCH   1   4
TORSDOF 5
ENDMDL
MODEL 6
REMARK VINA RESULT:      -7.0      3.162      4.894
REMARK  5 active torsions:
REMARK  status: ('A' for Active; 'I' for Inactive)
REMARK    1  A    between atoms: C5_7  and  C6_8 
REMARK    2  A    between atoms: C6_8  and  C7_9 
REMARK    3  A    between atoms: C7_9  and  O2_10 
REMARK    4  A    between atoms: O2_10  and  C8_11 
REMARK    5  A    between atoms: C13_19  and  C14_20 
ROOT
HETATM    1  C14 UNL     1      20.780   2.265  52.679  1.00  0.00     0.102 C 
HETATM    2  C15 UNL     1      19.576   2.520  52.119  1.00  0.00     0.204 C 
HETATM    3 CL1  UNL     1      18.027   2.790  51.284  1.00  0.00    -0.261 Cl
ENDROOT
BRANCH   1   4
HETATM    4  C13 UNL     1      21.199   1.450  51.407  1.00  0.00     0.240 C 
HETATM    5  N4  UNL     1      22.578   1.085  51.863  1.00  0.00     0.088 N 
HETATM    6  C12 UNL     1      22.624   0.323  53.131  1.00  0.00     0.426 C 
HETATM    7  C17 UNL     1      23.944   1.252  51.384  1.00  0.00     0.286 C 
HETATM    8  F1  UNL     1      21.661   1.321  51.538  1.00  0.00    -0.214 F 
HETATM    9  N3  UNL     1      23.943   0.159  53.662  1.00  0.00    -0.252 NA
HETATM   10  C11 UNL     1      24.863  -0.603  53.346  1.00  0.00     0.228 C 
HETATM   11  N2  UNL     1      26.165  -1.239  53.366  1.00  0.00    -0.254 NA
HETATM   12  C10 UNL     1      27.079  -0.512  52.728  1.00  0.00     0.120 C 
HETATM   13  C9  UNL     1      26.880   0.769  52.078  1.00  0.00     0.051 C 
HETATM   14  C8  UNL     1      26.285   1.907  51.665  1.00  0.00     0.049 C 
HETATM   15  C18 UNL     1      24.848   2.102  52.148  1.00  0.00     0.095 C 
HETATM   16  C16 UNL     1      21.659   0.728  50.374  1.00  0.00     0.244 C 
BRANCH  14  17
HETATM   17  O2  UNL     1      26.838   2.908  50.870  1.00  0.00    -0.355 OA
BRANCH  17  18
HETATM   18  C7  UNL     1      26.366   3.346  49.634  1.00  0.00     0.177 C 
BRANCH  18  19
HETATM   19  C6  UNL     1      27.109   4.608  49.282  1.00  0.00     0.052 C 
BRANCH  19  20
HETATM   20  C5  UNL     1      26.241   5.592  48.579  1.00  0.00     0.086 C 
HETATM   21  C2  UNL     1      24.948   5.856  49.282  1.00  0.00     0.028 C 
HETATM   22  C1  UNL     1      24.029   6.534  48.265  1.00  0.00     0.014 C 
HETATM   23  C3  UNL     1      25.136   6.696  50.506  1.00  0.00     0.176 C 
HETATM   24  O1  UNL     1      26.162   7.586  50.467  1.00  0.00    -0.372 OA
HETATM   25  C4  UNL     1      26.766   7.863  49.291  1.00  0.00     0.285 C 
HETATM   26  N1  UNL     1      26.948   6.811  48.342  1.00  0.00    -0.397 N 
HETATM   27  H9  UNL     1      27.931   6.670  48.023  1.00  0.00     0.155 HD
ENDBRANCH  19  20
ENDBRANCH  18  19
ENDBRANCH  17  18
ENDBRANCH  14  17
ENDBRANCH   1   4
TORSDOF 5
ENDMDL
MODEL 7
REMARK VINA RESULT:      -6.7      3.733      7.482
REMARK  5 active torsions:
REMARK  status: ('A' for Active; 'I' for Inactive)
REMARK    1  A    between atoms: C5_7  and  C6_8 
REMARK    2  A    between atoms: C6_8  and  C7_9 
REMARK    3  A    between atoms: C7_9  and  O2_10 
REMARK    4  A    between atoms: O2_10  and  C8_11 
REMARK    5  A    between atoms: C13_19  and  C14_20 
ROOT
HETATM    1  C14 UNL     1      26.791   8.889  50.354  1.00  0.00     0.102 C 
HETATM    2  C15 UNL     1      27.939   9.238  49.731  1.00  0.00     0.204 C 
HETATM    3 CL1  UNL     1      29.434   9.603  48.837  1.00  0.00    -0.261 Cl
ENDROOT
BRANCH   1   4
HETATM    4  C13 UNL     1      26.620   7.686  49.365  1.00  0.00     0.240 C 
HETATM    5  N4  UNL     1      25.255   7.263  49.813  1.00  0.00     0.088 N 
HETATM    6  C12 UNL     1      24.219   8.314  49.696  1.00  0.00     0.426 C 
HETATM    7  C17 UNL     1      24.623   6.059  50.332  1.00  0.00     0.286 C 
HETATM    8  F1  UNL     1      26.169   7.528  49.501  1.00  0.00    -0.214 F 
HETATM    9  N3  UNL     1      22.974   7.972  50.315  1.00  0.00    -0.252 NA
HETATM   10  C11 UNL     1      22.054   7.235  49.946  1.00  0.00     0.228 C 
HETATM   11  N2  UNL     1      20.787   6.531  49.971  1.00  0.00    -0.254 NA
HETATM   12  C10 UNL     1      20.855   5.420  50.702  1.00  0.00     0.120 C 
HETATM   13  C9  UNL     1      22.008   4.915  51.423  1.00  0.00     0.051 C 
HETATM   14  C8  UNL     1      23.247   4.846  51.952  1.00  0.00     0.049 C 
HETATM   15  C18 UNL     1      24.130   6.068  51.703  1.00  0.00     0.095 C 
HETATM   16  C16 UNL     1      26.366   6.642  48.561  1.00  0.00     0.244 C 
BRANCH  14  17
HETATM   17  O2  UNL     1      23.788   3.802  52.697  1.00  0.00    -0.355 OA
BRANCH  17  18
HETATM   18  C7  UNL     1      24.416   2.662  52.199  1.00  0.00     0.177 C 
BRANCH  18  19
HETATM   19  C6  UNL     1      25.196   2.040  53.327  1.00  0.00     0.052 C 
BRANCH  19  20
HETATM   20  C5  UNL     1      26.529   1.546  52.884  1.00  0.00     0.086 C 
HETATM   21  C2  UNL     1      27.483   1.311  54.011  1.00  0.00     0.028 C 
HETATM   22  C1  UNL     1      28.877   1.217  53.390  1.00  0.00     0.014 C 
HETATM   23  C3  UNL     1      27.139   0.080  54.789  1.00  0.00     0.176 C 
HETATM   24  O1  UNL     1      26.545  -0.922  54.089  1.00  0.00    -0.372 OA
HETATM   25  C4  UNL     1      26.541  -0.886  52.739  1.00  0.00     0.285 C 
HETATM   26  N1  UNL     1      26.392   0.372  52.081  1.00  0.00    -0.397 N 
HETATM   27  H9  UNL     1      25.607   0.423  51.396  1.00  0.00     0.155 HD
ENDBRANCH  19  20
ENDBRANCH  18  19
ENDBRANCH  17  18
ENDBRANCH  14  17
ENDBRANCH   1   4
TORSDOF 5
ENDMDL
MODEL 8
REMARK VINA RESULT:      -6.6      3.967      6.960
REMARK  5 active torsions:
REMARK  status: ('A' for Active; 'I' for Inactive)
REMARK    1  A    between atoms: C5_7  and  C6_8 
REMARK    2  A    between atoms: C6_8  and  C7_9 
REMARK    3  A    between atoms: C7_9  and  O2_10 
REMARK    4  A    between atoms: O2_10  and  C8_11 
REMARK    5  A    between atoms: C13_19  and  C14_20 
ROOT
HETATM    1  C14 UNL     1      20.075   5.726  49.949  1.00  0.00     0.102 C 
HETATM    2  C15 UNL     1      21.059   6.116  49.109  1.00  0.00     0.204 C 
HETATM    3 CL1  UNL     1      22.347   6.523  47.949  1.00  0.00    -0.261 Cl
ENDROOT
BRANCH   1   4
HETATM    4  C13 UNL     1      20.004   4.340  49.219  1.00  0.00     0.240 C 
HETATM    5  N4  UNL     1      20.565   3.511  50.333  1.00  0.00     0.088 N 
HETATM    6  C12 UNL     1      19.801   3.585  51.598  1.00  0.00     0.426 C 
HETATM    7  C17 UNL     1      21.681   2.596  50.529  1.00  0.00     0.286 C 
HETATM    8  F1  UNL     1      20.190   4.048  49.575  1.00  0.00    -0.214 F 
HETATM    9  N3  UNL     1      20.456   2.959  52.708  1.00  0.00    -0.252 NA
HETATM   10  C11 UNL     1      20.572   1.770  53.023  1.00  0.00     0.228 C 
HETATM   11  N2  UNL     1      20.969   0.601  53.782  1.00  0.00    -0.254 NA
HETATM   12  C10 UNL     1      22.222   0.242  53.514  1.00  0.00     0.120 C 
HETATM   13  C9  UNL     1      23.144   0.892  52.602  1.00  0.00     0.051 C 
HETATM   14  C8  UNL     1      23.653   1.793  51.736  1.00  0.00     0.049 C 
HETATM   15  C18 UNL     1      22.752   2.990  51.436  1.00  0.00     0.095 C 
HETATM   16  C16 UNL     1      19.981   3.105  48.695  1.00  0.00     0.244 C 
BRANCH  14  17
HETATM   17  O2  UNL     1      24.895   1.750  51.109  1.00  0.00    -0.355 OA
BRANCH  17  18
HETATM   18  C7  UNL     1      26.036   2.466  51.472  1.00  0.00     0.177 C 
BRANCH  18  19
HETATM   19  C6  UNL     1      26.358   2.119  52.901  1.00  0.00     0.052 C 
BRANCH  19  20
HETATM   20  C5  UNL     1      27.360   1.023  53.001  1.00  0.00     0.086 C 
HETATM   21  C2  UNL     1      27.714   0.665  54.409  1.00  0.00     0.028 C 
HETATM   22  C1  UNL     1      29.009  -0.146  54.341  1.00  0.00     0.014 C 
HETATM   23  C3  UNL     1      26.618  -0.097  55.086  1.00  0.00     0.176 C 
HETATM   24  O1  UNL     1      25.853  -0.882  54.284  1.00  0.00    -0.372 OA
HETATM   25  C4  UNL     1      26.259  -1.151  53.023  1.00  0.00     0.285 C 
HETATM   26  N1  UNL     1      26.923  -0.129  52.278  1.00  0.00    -0.397 N 
HETATM   27  H9  UNL     1      26.494   0.094  51.354  1.00  0.00     0.155 HD
ENDBRANCH  19  20
ENDBRANCH  18  19
ENDBRANCH  17  18
ENDBRANCH  14  17
ENDBRANCH   1   4
TORSDOF 5
ENDMDL
MODEL 9
REMARK VINA RESULT:      -6.6      4.102      6.883
REMARK  5 active torsions:
REMARK  status: ('A' for Active; 'I' for Inactive)
REMARK    1  A    between atoms: C5_7  and  C6_8 
REMARK    2  A    between atoms: C6_8  and  C7_9 
REMARK    3  A    between atoms: C7_9  and  O2_10 
REMARK    4  A    between atoms: O2_10  and  C8_11 
REMARK    5  A    between atoms: C13_19  and  C14_20 
ROOT
HETATM    1  C14 UNL     1      20.774   4.549  47.642  1.00  0.00     0.102 C 
HETATM    2  C15 UNL     1      21.283   5.020  46.482  1.00  0.00     0.204 C 
HETATM    3 CL1  UNL     1      22.010   5.535  44.941  1.00  0.00    -0.261 Cl
ENDROOT
BRANCH   1   4
HETATM    4  C13 UNL     1      21.545   3.201  47.433  1.00  0.00     0.240 C 
HETATM    5  N4  UNL     1      21.605   2.791  48.872  1.00  0.00     0.088 N 
HETATM    6  C12 UNL     1      20.283   2.654  49.525  1.00  0.00     0.426 C 
HETATM    7  C17 UNL     1      22.631   2.451  49.847  1.00  0.00     0.286 C 
HETATM    8  F1  UNL     1      21.578   3.048  47.904  1.00  0.00    -0.214 F 
HETATM    9  N3  UNL     1      20.354   2.466  50.943  1.00  0.00    -0.252 NA
HETATM   10  C11 UNL     1      20.625   1.469  51.622  1.00  0.00     0.228 C 
HETATM   11  N2  UNL     1      20.858   0.650  52.794  1.00  0.00    -0.254 NA
HETATM   12  C10 UNL     1      22.083   0.828  53.284  1.00  0.00     0.120 C 
HETATM   13  C9  UNL     1      23.109   1.718  52.775  1.00  0.00     0.051 C 
HETATM   14  C8  UNL     1      23.716   2.665  52.030  1.00  0.00     0.049 C 
HETATM   15  C18 UNL     1      22.829   3.339  50.986  1.00  0.00     0.095 C 
HETATM   16  C16 UNL     1      22.194   2.028  47.369  1.00  0.00     0.244 C 
BRANCH  14  17
HETATM   17  O2  UNL     1      25.039   3.090  52.122  1.00  0.00    -0.355 OA
BRANCH  17  18
HETATM   18  C7  UNL     1      26.077   2.778  51.246  1.00  0.00     0.177 C 
BRANCH  18  19
HETATM   19  C6  UNL     1      26.722   1.508  51.736  1.00  0.00     0.052 C 
BRANCH  19  20
HETATM   20  C5  UNL     1      26.767   1.439  53.223  1.00  0.00     0.086 C 
HETATM   21  C2  UNL     1      27.165   0.095  53.745  1.00  0.00     0.028 C 
HETATM   22  C1  UNL     1      26.770   0.066  55.222  1.00  0.00     0.014 C 
HETATM   23  C3  UNL     1      28.626  -0.170  53.557  1.00  0.00     0.176 C 
HETATM   24  O1  UNL     1      29.439   0.918  53.592  1.00  0.00    -0.372 OA
HETATM   25  C4  UNL     1      28.963   2.097  54.050  1.00  0.00     0.285 C 
HETATM   26  N1  UNL     1      27.614   2.460  53.752  1.00  0.00    -0.397 N 
HETATM   27  H9  UNL     1      27.498   3.384  53.283  1.00  0.00     0.155 HD
ENDBRANCH  19  20
ENDBRANCH  18  19
ENDBRANCH  17  18
ENDBRANCH  14  17
ENDBRANCH   1   4
TORSDOF 5
ENDMDL
