MODEL 1
REMARK VINA RESULT:      -8.4      0.000      0.000
REMARK  6 active torsions:
REMARK  status: ('A' for Active; 'I' for Inactive)
REMARK    1  A    between atoms: C2_2  and  C3_3 
REMARK       I    between atoms: C3_3  and  N1_5 
REMARK    2  A    between atoms: C11_15  and  N4_16 
REMARK    3  A    between atoms: N4_16  and  C12_17 
REMARK    4  A    between atoms: C12_17  and  C13_18 
REMARK    5  A    between atoms: C12_17  and  C14_20 
REMARK    6  A    between atoms: C13_18  and  O2_19 
ROOT
HETATM    1  C3  UNL     1      27.675   0.971  54.101  1.00  0.00     0.219 C 
HETATM    2  O1  UNL     1      27.947   2.193  54.277  1.00  0.00    -0.273 OA
HETATM    3  N1  UNL     1      26.481   0.815  53.377  1.00  0.00    -0.348 N 
HETATM    4  C4  UNL     1      25.941   2.117  53.063  1.00  0.00     0.130 C 
HETATM    5  C5  UNL     1      24.771   1.983  52.111  1.00  0.00     0.060 C 
HETATM    6  C6  UNL     1      23.839   0.997  52.720  1.00  0.00    -0.030 A 
HETATM    7  C7  UNL     1      24.340  -0.158  53.128  1.00  0.00    -0.003 A 
HETATM    8  C8  UNL     1      25.803  -0.410  52.956  1.00  0.00     0.167 C 
HETATM    9  C9  UNL     1      23.014  -0.567  53.561  1.00  0.00     0.081 A 
HETATM   10  N2  UNL     1      22.154  -1.440  54.106  1.00  0.00    -0.240 NA
HETATM   11  C10 UNL     1      20.854  -1.107  54.211  1.00  0.00     0.236 A 
HETATM   12  N3  UNL     1      20.341   0.065  53.798  1.00  0.00    -0.224 NA
HETATM   13  C11 UNL     1      21.140   0.992  53.241  1.00  0.00     0.138 A 
HETATM   14  C20 UNL     1      22.489   0.635  53.137  1.00  0.00     0.046 A 
ENDROOT
BRANCH  13  15
HETATM   15  N4  UNL     1      20.671   2.249  52.783  1.00  0.00    -0.363 N 
HETATM   16  H13 UNL     1      20.873   3.086  53.365  1.00  0.00     0.162 HD
BRANCH  15  17
HETATM   17  C12 UNL     1      19.931   2.356  51.530  1.00  0.00     0.140 C 
BRANCH  17  18
HETATM   18  C13 UNL     1      19.150   3.654  51.485  1.00  0.00     0.194 C 
BRANCH  18  19
HETATM   19  O2  UNL     1      17.880   3.521  51.993  1.00  0.00    -0.399 OA
HETATM   20  H17 UNL     1      17.610   4.276  52.594  1.00  0.00     0.209 HD
ENDBRANCH  18  19
ENDBRANCH  17  18
BRANCH  17  21
HETATM   21  C14 UNL     1      20.814   2.183  50.364  1.00  0.00    -0.034 A 
HETATM   22  C15 UNL     1      20.853   1.206  49.390  1.00  0.00     0.009 A 
HETATM   23  C16 UNL     1      21.796   1.270  48.385  1.00  0.00     0.001 A 
HETATM   24  C17 UNL     1      22.722   2.280  48.297  1.00  0.00     0.000 A 
HETATM   25  C18 UNL     1      22.694   3.263  49.264  1.00  0.00     0.001 A 
HETATM   26  C19 UNL     1      21.755   3.216  50.282  1.00  0.00     0.009 A 
ENDBRANCH  17  21
ENDBRANCH  15  17
ENDBRANCH  13  15
BRANCH   1  27
HETATM   27  C2  UNL     1      28.605  -0.022  54.653  1.00  0.00     0.098 C 
HETATM   28  C1  UNL     1      29.678  -0.254  53.589  1.00  0.00     0.014 C 
ENDBRANCH   1  27
TORSDOF 6
ENDMDL
MODEL 2
REMARK VINA RESULT:      -8.2      2.888      5.824
REMARK  6 active torsions:
REMARK  status: ('A' for Active; 'I' for Inactive)
REMARK    1  A    between atoms: C2_2  and  C3_3 
REMARK       I    between atoms: C3_3  and  N1_5 
REMARK    2  A    between atoms: C11_15  and  N4_16 
REMARK    3  A    between atoms: N4_16  and  C12_17 
REMARK    4  A    between atoms: C12_17  and  C13_18 
REMARK    5  A    between atoms: C12_17  and  C14_20 
REMARK    6  A    between atoms: C13_18  and  O2_19 
ROOT
HETATM    1  C3  UNL     1      26.312   4.679  49.308  1.00  0.00     0.219 C 
HETATM    2  O1  UNL     1      27.343   4.008  49.016  1.00  0.00    -0.273 OA
HETATM    3  N1  UNL     1      25.661   4.146  50.435  1.00  0.00    -0.348 N 
HETATM    4  C4  UNL     1      26.388   2.989  50.900  1.00  0.00     0.130 C 
HETATM    5  C5  UNL     1      25.829   2.519  52.228  1.00  0.00     0.060 C 
HETATM    6  C6  UNL     1      24.362   2.361  52.039  1.00  0.00    -0.030 A 
HETATM    7  C7  UNL     1      23.696   3.369  51.497  1.00  0.00    -0.003 A 
HETATM    8  C8  UNL     1      24.446   4.602  51.107  1.00  0.00     0.167 C 
HETATM    9  C9  UNL     1      22.467   2.601  51.607  1.00  0.00     0.081 A 
HETATM   10  N2  UNL     1      21.146   2.436  51.448  1.00  0.00    -0.240 NA
HETATM   11  C10 UNL     1      20.574   1.280  51.836  1.00  0.00     0.236 A 
HETATM   12  N3  UNL     1      21.246   0.255  52.386  1.00  0.00    -0.224 NA
HETATM   13  C11 UNL     1      22.574   0.344  52.579  1.00  0.00     0.138 A 
HETATM   14  C20 UNL     1      23.158   1.549  52.172  1.00  0.00     0.046 A 
ENDROOT
BRANCH  13  15
HETATM   15  N4  UNL     1      23.349  -0.694  53.153  1.00  0.00    -0.363 N 
HETATM   16  H13 UNL     1      23.427  -1.590  52.631  1.00  0.00     0.162 HD
BRANCH  15  17
HETATM   17  C12 UNL     1      24.015  -0.503  54.437  1.00  0.00     0.140 C 
BRANCH  17  18
HETATM   18  C13 UNL     1      23.581  -1.570  55.423  1.00  0.00     0.194 C 
BRANCH  18  19
HETATM   19  O2  UNL     1      22.248  -1.883  55.305  1.00  0.00    -0.399 OA
HETATM   20  H17 UNL     1      21.985  -2.165  54.380  1.00  0.00     0.209 HD
ENDBRANCH  18  19
ENDBRANCH  17  18
BRANCH  17  21
HETATM   21  C14 UNL     1      25.478  -0.434  54.282  1.00  0.00    -0.034 A 
HETATM   22  C15 UNL     1      26.448   0.162  55.063  1.00  0.00     0.009 A 
HETATM   23  C16 UNL     1      27.775   0.085  54.694  1.00  0.00     0.001 A 
HETATM   24  C17 UNL     1      28.196  -0.570  53.563  1.00  0.00     0.000 A 
HETATM   25  C18 UNL     1      27.237  -1.170  52.774  1.00  0.00     0.001 A 
HETATM   26  C19 UNL     1      25.899  -1.104  53.127  1.00  0.00     0.009 A 
ENDBRANCH  17  21
ENDBRANCH  15  17
ENDBRANCH  13  15
BRANCH   1  27
HETATM   27  C2  UNL     1      25.990   5.839  48.467  1.00  0.00     0.098 C 
HETATM   28  C1  UNL     1      27.287   6.632  48.303  1.00  0.00     0.014 C 
ENDBRANCH   1  27
TORSDOF 6
ENDMDL
MODEL 3
REMARK VINA RESULT:      -8.0      2.248      4.133
REMARK  6 active torsions:
REMARK  status: ('A' for Active; 'I' for Inactive)
REMARK    1  A    between atoms: C2_2  and  C3_3 
REMARK       I    between atoms: C3_3  and  N1_5 
REMARK    2  A    between atoms: C11_15  and  N4_16 
REMARK    3  A    between atoms: N4_16  and  C12_17 
REMARK    4  A    between atoms: C12_17  and  C13_18 
REMARK    5  A    between atoms: C12_17  and  C14_20 
REMARK    6  A    between atoms: C13_18  and  O2_19 
ROOT
HETATM    1  C3  UNL     1      27.823  -0.073  53.823  1.00  0.00     0.219 C 
HETATM    2  O1  UNL     1      27.665  -1.326  53.834  1.00  0.00    -0.273 OA
HETATM    3  N1  UNL     1      26.609   0.592  53.578  1.00  0.00    -0.348 N 
HETATM    4  C4  UNL     1      25.558  -0.384  53.414  1.00  0.00     0.130 C 
HETATM    5  C5  UNL     1      24.209   0.303  53.354  1.00  0.00     0.060 C 
HETATM    6  C6  UNL     1      24.317   1.358  52.312  1.00  0.00    -0.030 A 
HETATM    7  C7  UNL     1      25.346   2.189  52.375  1.00  0.00    -0.003 A 
HETATM    8  C8  UNL     1      26.337   2.025  53.481  1.00  0.00     0.167 C 
HETATM    9  C9  UNL     1      24.858   2.866  51.185  1.00  0.00     0.081 A 
HETATM   10  N2  UNL     1      24.933   3.809  50.234  1.00  0.00    -0.240 NA
HETATM   11  C10 UNL     1      23.981   3.863  49.283  1.00  0.00     0.236 A 
HETATM   12  N3  UNL     1      22.935   3.022  49.215  1.00  0.00    -0.224 NA
HETATM   13  C11 UNL     1      22.790   2.050  50.133  1.00  0.00     0.138 A 
HETATM   14  C20 UNL     1      23.785   2.002  51.116  1.00  0.00     0.046 A 
ENDROOT
BRANCH  13  15
HETATM   15  N4  UNL     1      21.714   1.127  50.126  1.00  0.00    -0.363 N 
HETATM   16  H13 UNL     1      21.898   0.167  49.772  1.00  0.00     0.162 HD
BRANCH  15  17
HETATM   17  C12 UNL     1      20.393   1.520  50.604  1.00  0.00     0.140 C 
BRANCH  17  18
HETATM   18  C13 UNL     1      19.440   1.700  49.439  1.00  0.00     0.194 C 
BRANCH  18  19
HETATM   19  O2  UNL     1      20.098   1.875  48.245  1.00  0.00    -0.399 OA
HETATM   20  H17 UNL     1      19.482   1.965  47.460  1.00  0.00     0.209 HD
ENDBRANCH  18  19
ENDBRANCH  17  18
BRANCH  17  21
HETATM   21  C14 UNL     1      19.882   0.579  51.616  1.00  0.00    -0.034 A 
HETATM   22  C15 UNL     1      20.479   0.035  52.735  1.00  0.00     0.009 A 
HETATM   23  C16 UNL     1      19.777  -0.840  53.536  1.00  0.00     0.001 A 
HETATM   24  C17 UNL     1      18.480  -1.210  53.275  1.00  0.00     0.000 A 
HETATM   25  C18 UNL     1      17.871  -0.674  52.160  1.00  0.00     0.001 A 
HETATM   26  C19 UNL     1      18.561   0.207  51.341  1.00  0.00     0.009 A 
ENDBRANCH  17  21
ENDBRANCH  15  17
ENDBRANCH  13  15
BRANCH   1  27
HETATM   27  C2  UNL     1      29.177   0.447  54.058  1.00  0.00     0.098 C 
HETATM   28  C1  UNL     1      30.148  -0.633  53.582  1.00  0.00     0.014 C 
ENDBRANCH   1  27
TORSDOF 6
ENDMDL
MODEL 4
REMARK VINA RESULT:      -7.9      2.186      6.334
REMARK  6 active torsions:
REMARK  status: ('A' for Active; 'I' for Inactive)
REMARK    1  A    between atoms: C2_2  and  C3_3 
REMARK       I    between atoms: C3_3  and  N1_5 
REMARK    2  A    between atoms: C11_15  and  N4_16 
REMARK    3  A    between atoms: N4_16  and  C12_17 
REMARK    4  A    between atoms: C12_17  and  C13_18 
REMARK    5  A    between atoms: C12_17  and  C14_20 
REMARK    6  A    between atoms: C13_18  and  O2_19 
ROOT
HETATM    1  C3  UNL     1      18.233  -0.556  52.220  1.00  0.00     0.219 C 
HETATM    2  O1  UNL     1      18.214  -0.540  50.956  1.00  0.00    -0.273 OA
HETATM    3  N1  UNL     1      19.410   0.028  52.719  1.00  0.00    -0.348 N 
HETATM    4  C4  UNL     1      20.230   0.465  51.614  1.00  0.00     0.130 C 
HETATM    5  C5  UNL     1      21.402   1.279  52.121  1.00  0.00     0.060 C 
HETATM    6  C6  UNL     1      22.066   0.460  53.170  1.00  0.00    -0.030 A 
HETATM    7  C7  UNL     1      21.309  -0.053  54.127  1.00  0.00    -0.003 A 
HETATM    8  C8  UNL     1      19.838   0.216  54.104  1.00  0.00     0.167 C 
HETATM    9  C9  UNL     1      22.489  -0.656  54.722  1.00  0.00     0.081 A 
HETATM   10  N2  UNL     1      23.111  -1.390  55.657  1.00  0.00    -0.240 NA
HETATM   11  C10 UNL     1      24.443  -1.568  55.578  1.00  0.00     0.236 A 
HETATM   12  N3  UNL     1      25.216  -1.049  54.609  1.00  0.00    -0.224 NA
HETATM   13  C11 UNL     1      24.666  -0.301  53.635  1.00  0.00     0.138 A 
HETATM   14  C20 UNL     1      23.281  -0.124  53.727  1.00  0.00     0.046 A 
ENDROOT
BRANCH  13  15
HETATM   15  N4  UNL     1      25.416   0.279  52.581  1.00  0.00    -0.363 N 
HETATM   16  H13 UNL     1      25.609  -0.305  51.742  1.00  0.00     0.162 HD
BRANCH  15  17
HETATM   17  C12 UNL     1      25.899   1.652  52.679  1.00  0.00     0.140 C 
BRANCH  17  18
HETATM   18  C13 UNL     1      27.295   1.766  52.099  1.00  0.00     0.194 C 
BRANCH  18  19
HETATM   19  O2  UNL     1      27.990   2.834  52.611  1.00  0.00    -0.399 OA
HETATM   20  H17 UNL     1      27.572   3.720  52.402  1.00  0.00     0.209 HD
ENDBRANCH  18  19
ENDBRANCH  17  18
BRANCH  17  21
HETATM   21  C14 UNL     1      24.951   2.602  52.069  1.00  0.00    -0.034 A 
HETATM   22  C15 UNL     1      24.588   2.806  50.754  1.00  0.00     0.009 A 
HETATM   23  C16 UNL     1      23.663   3.778  50.435  1.00  0.00     0.001 A 
HETATM   24  C17 UNL     1      23.067   4.576  51.381  1.00  0.00     0.000 A 
HETATM   25  C18 UNL     1      23.421   4.383  52.700  1.00  0.00     0.001 A 
HETATM   26  C19 UNL     1      24.349   3.412  53.040  1.00  0.00     0.009 A 
ENDBRANCH  17  21
ENDBRANCH  15  17
ENDBRANCH  13  15
BRANCH   1  27
HETATM   27  C2  UNL     1      17.082  -1.150  52.912  1.00  0.00     0.098 C 
HETATM   28  C1  UNL     1      17.545  -2.508  53.441  1.00  0.00     0.014 C 
ENDBRANCH   1  27
TORSDOF 6
ENDMDL
MODEL 5
REMARK VINA RESULT:      -7.6      3.106      5.496
REMARK  6 active torsions:
REMARK  status: ('A' for Active; 'I' for Inactive)
REMARK    1  A    between atoms: C2_2  and  C3_3 
REMARK       I    between atoms: C3_3  and  N1_5 
REMARK    2  A    between atoms: C11_15  and  N4_16 
REMARK    3  A    between atoms: N4_16  and  C12_17 
REMARK    4  A    between atoms: C12_17  and  C13_18 
REMARK    5  A    between atoms: C12_17  and  C14_20 
REMARK    6  A    between atoms: C13_18  and  O2_19 
ROOT
HETATM    1  C3  UNL     1      25.330   6.281  50.106  1.00  0.00     0.219 C 
HETATM    2  O1  UNL     1      24.544   7.046  50.735  1.00  0.00    -0.273 OA
HETATM    3  N1  UNL     1      24.946   4.935  50.239  1.00  0.00    -0.348 N 
HETATM    4  C4  UNL     1      23.762   4.858  51.061  1.00  0.00     0.130 C 
HETATM    5  C5  UNL     1      23.209   3.448  51.052  1.00  0.00     0.060 C 
HETATM    6  C6  UNL     1      24.337   2.547  51.409  1.00  0.00    -0.030 A 
HETATM    7  C7  UNL     1      25.475   2.687  50.747  1.00  0.00    -0.003 A 
HETATM    8  C8  UNL     1      25.566   3.734  49.684  1.00  0.00     0.167 C 
HETATM    9  C9  UNL     1      26.051   1.609  51.532  1.00  0.00     0.081 A 
HETATM   10  N2  UNL     1      27.054   0.785  51.872  1.00  0.00    -0.240 NA
HETATM   11  C10 UNL     1      26.859  -0.123  52.847  1.00  0.00     0.236 A 
HETATM   12  N3  UNL     1      25.706  -0.269  53.522  1.00  0.00    -0.224 NA
HETATM   13  C11 UNL     1      24.655   0.521  53.239  1.00  0.00     0.138 A 
HETATM   14  C20 UNL     1      24.868   1.460  52.224  1.00  0.00     0.046 A 
ENDROOT
BRANCH  13  15
HETATM   15  N4  UNL     1      23.408   0.426  53.907  1.00  0.00    -0.363 N 
HETATM   16  H13 UNL     1      23.153   1.184  54.572  1.00  0.00     0.162 HD
BRANCH  15  17
HETATM   17  C12 UNL     1      22.517  -0.703  53.664  1.00  0.00     0.140 C 
BRANCH  17  18
HETATM   18  C13 UNL     1      22.044  -1.297  54.975  1.00  0.00     0.194 C 
BRANCH  18  19
HETATM   19  O2  UNL     1      23.082  -1.758  55.748  1.00  0.00    -0.399 OA
HETATM   20  H17 UNL     1      23.169  -2.757  55.746  1.00  0.00     0.209 HD
ENDBRANCH  18  19
ENDBRANCH  17  18
BRANCH  17  21
HETATM   21  C14 UNL     1      21.404  -0.331  52.774  1.00  0.00    -0.034 A 
HETATM   22  C15 UNL     1      21.396   0.210  51.504  1.00  0.00     0.009 A 
HETATM   23  C16 UNL     1      20.199   0.474  50.873  1.00  0.00     0.001 A 
HETATM   24  C17 UNL     1      18.980   0.223  51.454  1.00  0.00     0.000 A 
HETATM   25  C18 UNL     1      18.973  -0.317  52.723  1.00  0.00     0.001 A 
HETATM   26  C19 UNL     1      20.165  -0.589  53.374  1.00  0.00     0.009 A 
ENDBRANCH  17  21
ENDBRANCH  15  17
ENDBRANCH  13  15
BRANCH   1  27
HETATM   27  C2  UNL     1      26.450   6.898  49.383  1.00  0.00     0.098 C 
HETATM   28  C1  UNL     1      25.924   7.262  47.994  1.00  0.00     0.014 C 
ENDBRANCH   1  27
TORSDOF 6
ENDMDL
MODEL 6
REMARK VINA RESULT:      -7.6      5.444      7.645
REMARK  6 active torsions:
REMARK  status: ('A' for Active; 'I' for Inactive)
REMARK    1  A    between atoms: C2_2  and  C3_3 
REMARK       I    between atoms: C3_3  and  N1_5 
REMARK    2  A    between atoms: C11_15  and  N4_16 
REMARK    3  A    between atoms: N4_16  and  C12_17 
REMARK    4  A    between atoms: C12_17  and  C13_18 
REMARK    5  A    between atoms: C12_17  and  C14_20 
REMARK    6  A    between atoms: C13_18  and  O2_19 
ROOT
HETATM    1  C3  UNL     1      23.934   1.101  52.128  1.00  0.00     0.219 C 
HETATM    2  O1  UNL     1      24.929   0.812  52.851  1.00  0.00    -0.273 OA
HETATM    3  N1  UNL     1      24.237   2.149  51.241  1.00  0.00    -0.348 N 
HETATM    4  C4  UNL     1      25.605   2.562  51.444  1.00  0.00     0.130 C 
HETATM    5  C5  UNL     1      26.021   3.544  50.367  1.00  0.00     0.060 C 
HETATM    6  C6  UNL     1      24.990   4.615  50.347  1.00  0.00    -0.030 A 
HETATM    7  C7  UNL     1      23.719   4.249  50.286  1.00  0.00    -0.003 A 
HETATM    8  C8  UNL     1      23.390   2.792  50.239  1.00  0.00     0.167 C 
HETATM    9  C9  UNL     1      23.328   5.648  50.301  1.00  0.00     0.081 A 
HETATM   10  N2  UNL     1      22.416   6.632  50.284  1.00  0.00    -0.240 NA
HETATM   11  C10 UNL     1      22.827   7.914  50.330  1.00  0.00     0.236 A 
HETATM   12  N3  UNL     1      24.116   8.289  50.393  1.00  0.00    -0.224 NA
HETATM   13  C11 UNL     1      25.089   7.361  50.414  1.00  0.00     0.138 A 
HETATM   14  C20 UNL     1      24.650   6.033  50.365  1.00  0.00     0.046 A 
ENDROOT
BRANCH  13  15
HETATM   15  N4  UNL     1      26.469   7.680  50.479  1.00  0.00    -0.363 N 
HETATM   16  H13 UNL     1      26.977   7.467  51.360  1.00  0.00     0.162 HD
BRANCH  15  17
HETATM   17  C12 UNL     1      27.146   8.289  49.339  1.00  0.00     0.140 C 
BRANCH  17  18
HETATM   18  C13 UNL     1      27.707   9.645  49.719  1.00  0.00     0.194 C 
BRANCH  18  19
HETATM   19  O2  UNL     1      27.721   9.846  51.079  1.00  0.00    -0.399 OA
HETATM   20  H17 UNL     1      28.508   9.427  51.536  1.00  0.00     0.209 HD
ENDBRANCH  18  19
ENDBRANCH  17  18
BRANCH  17  21
HETATM   21  C14 UNL     1      28.167   7.390  48.774  1.00  0.00    -0.034 A 
HETATM   22  C15 UNL     1      28.111   6.056  48.424  1.00  0.00     0.009 A 
HETATM   23  C16 UNL     1      29.225   5.430  47.907  1.00  0.00     0.001 A 
HETATM   24  C17 UNL     1      30.421   6.078  47.716  1.00  0.00     0.000 A 
HETATM   25  C18 UNL     1      30.492   7.411  48.061  1.00  0.00     0.001 A 
HETATM   26  C19 UNL     1      29.383   8.059  48.583  1.00  0.00     0.009 A 
ENDBRANCH  17  21
ENDBRANCH  15  17
ENDBRANCH  13  15
BRANCH   1  27
HETATM   27  C2  UNL     1      22.698   0.334  52.327  1.00  0.00     0.098 C 
HETATM   28  C1  UNL     1      22.997  -0.700  53.414  1.00  0.00     0.014 C 
ENDBRANCH   1  27
TORSDOF 6
ENDMDL
MODEL 7
REMARK VINA RESULT:      -7.5      2.290      7.417
REMARK  6 active torsions:
REMARK  status: ('A' for Active; 'I' for Inactive)
REMARK    1  A    between atoms: C2_2  and  C3_3 
REMARK       I    between atoms: C3_3  and  N1_5 
REMARK    2  A    between atoms: C11_15  and  N4_16 
REMARK    3  A    between atoms: N4_16  and  C12_17 
REMARK    4  A    between atoms: C12_17  and  C13_18 
REMARK    5  A    between atoms: C12_17  and  C14_20 
REMARK    6  A    between atoms: C13_18  and  O2_19 
ROOT
HETATM    1  C3  UNL     1      19.086  -0.077  52.611  1.00  0.00     0.219 C 
HETATM    2  O1  UNL     1      19.022  -0.390  53.833  1.00  0.00    -0.273 OA
HETATM    3  N1  UNL     1      20.416  -0.077  52.154  1.00  0.00    -0.348 N 
HETATM    4  C4  UNL     1      21.291  -0.439  53.243  1.00  0.00     0.130 C 
HETATM    5  C5  UNL     1      22.703  -0.648  52.733  1.00  0.00     0.060 C 
HETATM    6  C6  UNL     1      23.059   0.571  51.960  1.00  0.00    -0.030 A 
HETATM    7  C7  UNL     1      22.206   0.991  51.038  1.00  0.00    -0.003 A 
HETATM    8  C8  UNL     1      20.941   0.224  50.824  1.00  0.00     0.167 C 
HETATM    9  C9  UNL     1      23.102   2.091  50.726  1.00  0.00     0.081 A 
HETATM   10  N2  UNL     1      23.446   3.192  50.041  1.00  0.00    -0.240 NA
HETATM   11  C10 UNL     1      24.613   3.804  50.318  1.00  0.00     0.236 A 
HETATM   12  N3  UNL     1      25.482   3.381  51.253  1.00  0.00    -0.224 NA
HETATM   13  C11 UNL     1      25.208   2.284  51.982  1.00  0.00     0.138 A 
HETATM   14  C20 UNL     1      23.993   1.657  51.685  1.00  0.00     0.046 A 
ENDROOT
BRANCH  13  15
HETATM   15  N4  UNL     1      26.075   1.779  52.983  1.00  0.00    -0.363 N 
HETATM   16  H13 UNL     1      25.713   1.722  53.957  1.00  0.00     0.162 HD
BRANCH  15  17
HETATM   17  C12 UNL     1      27.430   1.354  52.650  1.00  0.00     0.140 C 
BRANCH  17  18
HETATM   18  C13 UNL     1      28.438   2.047  53.545  1.00  0.00     0.194 C 
BRANCH  18  19
HETATM   19  O2  UNL     1      27.898   3.120  54.211  1.00  0.00    -0.399 OA
HETATM   20  H17 UNL     1      28.360   3.987  54.013  1.00  0.00     0.209 HD
ENDBRANCH  18  19
ENDBRANCH  17  18
BRANCH  17  21
HETATM   21  C14 UNL     1      27.558  -0.114  52.679  1.00  0.00    -0.034 A 
HETATM   22  C15 UNL     1      26.699  -1.110  52.262  1.00  0.00     0.009 A 
HETATM   23  C16 UNL     1      27.057  -2.434  52.402  1.00  0.00     0.001 A 
HETATM   24  C17 UNL     1      28.254  -2.828  52.949  1.00  0.00     0.000 A 
HETATM   25  C18 UNL     1      29.122  -1.842  53.370  1.00  0.00     0.001 A 
HETATM   26  C19 UNL     1      28.781  -0.505  53.238  1.00  0.00     0.009 A 
ENDBRANCH  17  21
ENDBRANCH  15  17
ENDBRANCH  13  15
BRANCH   1  27
HETATM   27  C2  UNL     1      17.827   0.217  51.913  1.00  0.00     0.098 C 
HETATM   28  C1  UNL     1      16.996  -1.066  51.955  1.00  0.00     0.014 C 
ENDBRANCH   1  27
TORSDOF 6
ENDMDL
MODEL 8
REMARK VINA RESULT:      -7.5      2.812      6.095
REMARK  6 active torsions:
REMARK  status: ('A' for Active; 'I' for Inactive)
REMARK    1  A    between atoms: C2_2  and  C3_3 
REMARK       I    between atoms: C3_3  and  N1_5 
REMARK    2  A    between atoms: C11_15  and  N4_16 
REMARK    3  A    between atoms: N4_16  and  C12_17 
REMARK    4  A    between atoms: C12_17  and  C13_18 
REMARK    5  A    between atoms: C12_17  and  C14_20 
REMARK    6  A    between atoms: C13_18  and  O2_19 
ROOT
HETATM    1  C3  UNL     1      18.673  -1.068  53.048  1.00  0.00     0.219 C 
HETATM    2  O1  UNL     1      17.963  -0.555  52.137  1.00  0.00    -0.273 OA
HETATM    3  N1  UNL     1      19.766  -0.244  53.366  1.00  0.00    -0.348 N 
HETATM    4  C4  UNL     1      19.726   0.939  52.539  1.00  0.00     0.130 C 
HETATM    5  C5  UNL     1      20.769   1.936  53.001  1.00  0.00     0.060 C 
HETATM    6  C6  UNL     1      22.060   1.202  53.063  1.00  0.00    -0.030 A 
HETATM    7  C7  UNL     1      22.087   0.050  53.715  1.00  0.00    -0.003 A 
HETATM    8  C8  UNL     1      20.828  -0.448  54.350  1.00  0.00     0.167 C 
HETATM    9  C9  UNL     1      23.499  -0.084  53.400  1.00  0.00     0.081 A 
HETATM   10  N2  UNL     1      24.675  -0.727  53.443  1.00  0.00    -0.240 NA
HETATM   11  C10 UNL     1      25.746  -0.184  52.835  1.00  0.00     0.236 A 
HETATM   12  N3  UNL     1      25.725   0.985  52.172  1.00  0.00    -0.224 NA
HETATM   13  C11 UNL     1      24.582   1.689  52.084  1.00  0.00     0.138 A 
HETATM   14  C20 UNL     1      23.475   1.116  52.720  1.00  0.00     0.046 A 
ENDROOT
BRANCH  13  15
HETATM   15  N4  UNL     1      24.482   2.928  51.403  1.00  0.00    -0.363 N 
HETATM   16  H13 UNL     1      24.433   3.796  51.974  1.00  0.00     0.162 HD
BRANCH  15  17
HETATM   17  C12 UNL     1      24.451   2.976  49.945  1.00  0.00     0.140 C 
BRANCH  17  18
HETATM   18  C13 UNL     1      23.021   2.954  49.444  1.00  0.00     0.194 C 
BRANCH  18  19
HETATM   19  O2  UNL     1      22.168   3.658  50.260  1.00  0.00    -0.399 OA
HETATM   20  H17 UNL     1      21.579   3.073  50.821  1.00  0.00     0.209 HD
ENDBRANCH  18  19
ENDBRANCH  17  18
BRANCH  17  21
HETATM   21  C14 UNL     1      25.218   4.121  49.425  1.00  0.00    -0.034 A 
HETATM   22  C15 UNL     1      24.814   5.378  49.022  1.00  0.00     0.009 A 
HETATM   23  C16 UNL     1      25.743   6.289  48.564  1.00  0.00     0.001 A 
HETATM   24  C17 UNL     1      27.085   6.006  48.484  1.00  0.00     0.000 A 
HETATM   25  C18 UNL     1      27.502   4.754  48.883  1.00  0.00     0.001 A 
HETATM   26  C19 UNL     1      26.584   3.825  49.346  1.00  0.00     0.009 A 
ENDBRANCH  17  21
ENDBRANCH  15  17
ENDBRANCH  13  15
BRANCH   1  27
HETATM   27  C2  UNL     1      18.255  -2.368  53.590  1.00  0.00     0.098 C 
HETATM   28  C1  UNL     1      16.830  -2.610  53.091  1.00  0.00     0.014 C 
ENDBRANCH   1  27
TORSDOF 6
ENDMDL
MODEL 9
REMARK VINA RESULT:      -7.3      6.604      9.926
REMARK  6 active torsions:
REMARK  status: ('A' for Active; 'I' for Inactive)
REMARK    1  A    between atoms: C2_2  and  C3_3 
REMARK       I    between atoms: C3_3  and  N1_5 
REMARK    2  A    between atoms: C11_15  and  N4_16 
REMARK    3  A    between atoms: N4_16  and  C12_17 
REMARK    4  A    between atoms: C12_17  and  C13_18 
REMARK    5  A    between atoms: C12_17  and  C14_20 
REMARK    6  A    between atoms: C13_18  and  O2_19 
ROOT
HETATM    1  C3  UNL     1      24.026   3.453  51.798  1.00  0.00     0.219 C 
HETATM    2  O1  UNL     1      24.665   2.748  52.630  1.00  0.00    -0.273 OA
HETATM    3  N1  UNL     1      24.783   3.679  50.635  1.00  0.00    -0.348 N 
HETATM    4  C4  UNL     1      26.063   3.025  50.766  1.00  0.00     0.130 C 
HETATM    5  C5  UNL     1      26.815   3.078  49.452  1.00  0.00     0.060 C 
HETATM    6  C6  UNL     1      26.828   4.503  49.027  1.00  0.00    -0.030 A 
HETATM    7  C7  UNL     1      25.676   5.156  49.019  1.00  0.00    -0.003 A 
HETATM    8  C8  UNL     1      24.435   4.435  49.433  1.00  0.00     0.167 C 
HETATM    9  C9  UNL     1      26.369   6.346  48.554  1.00  0.00     0.081 A 
HETATM   10  N2  UNL     1      26.406   7.630  48.166  1.00  0.00    -0.240 NA
HETATM   11  C10 UNL     1      27.583   8.179  47.813  1.00  0.00     0.236 A 
HETATM   12  N3  UNL     1      28.754   7.519  47.820  1.00  0.00    -0.224 NA
HETATM   13  C11 UNL     1      28.799   6.229  48.197  1.00  0.00     0.138 A 
HETATM   14  C20 UNL     1      27.570   5.669  48.561  1.00  0.00     0.046 A 
ENDROOT
BRANCH  13  15
HETATM   15  N4  UNL     1      29.995   5.469  48.229  1.00  0.00    -0.363 N 
HETATM   16  H13 UNL     1      29.914   4.432  48.234  1.00  0.00     0.162 HD
BRANCH  15  17
HETATM   17  C12 UNL     1      31.296   6.129  48.254  1.00  0.00     0.140 C 
BRANCH  17  18
HETATM   18  C13 UNL     1      31.743   6.365  49.683  1.00  0.00     0.194 C 
BRANCH  18  19
HETATM   19  O2  UNL     1      31.340   5.362  50.531  1.00  0.00    -0.399 OA
HETATM   20  H17 UNL     1      31.047   5.694  51.430  1.00  0.00     0.209 HD
ENDBRANCH  18  19
ENDBRANCH  17  18
BRANCH  17  21
HETATM   21  C14 UNL     1      32.293   5.388  47.461  1.00  0.00    -0.034 A 
HETATM   22  C15 UNL     1      33.524   5.767  46.966  1.00  0.00     0.009 A 
HETATM   23  C16 UNL     1      34.281   4.873  46.238  1.00  0.00     0.001 A 
HETATM   24  C17 UNL     1      33.866   3.591  45.972  1.00  0.00     0.000 A 
HETATM   25  C18 UNL     1      32.637   3.199  46.460  1.00  0.00     0.001 A 
HETATM   26  C19 UNL     1      31.861   4.083  47.194  1.00  0.00     0.009 A 
ENDBRANCH  17  21
ENDBRANCH  15  17
ENDBRANCH  13  15
BRANCH   1  27
HETATM   27  C2  UNL     1      22.675   3.891  52.170  1.00  0.00     0.098 C 
HETATM   28  C1  UNL     1      22.720   5.417  52.260  1.00  0.00     0.014 C 
ENDBRANCH   1  27
TORSDOF 6
ENDMDL
