MODEL 1
REMARK VINA RESULT:      -7.5      0.000      0.000
REMARK  6 active torsions:
REMARK  status: ('A' for Active; 'I' for Inactive)
REMARK    1  A    between atoms: O1_2  and  C2_3 
REMARK    2  A    between atoms: C2_3  and  C3_4 
REMARK    3  A    between atoms: C3_4  and  C4_5 
REMARK    4  A    between atoms: C4_5  and  O2_6 
REMARK    5  A    between atoms: C4_5  and  C6_8 
REMARK    6  A    between atoms: C14_18  and  O3_19 
ROOT
HETATM    1  C6  UNL     1      24.511  -0.134  53.778  1.00  0.00    -0.027 A 
HETATM    2  C7  UNL     1      23.658  -0.864  54.623  1.00  0.00     0.011 A 
HETATM    3  C8  UNL     1      22.276  -0.899  54.401  1.00  0.00     0.018 A 
HETATM    4  C9  UNL     1      22.028  -0.142  53.301  1.00  0.00     0.041 A 
HETATM    5  C10 UNL     1      20.746  -0.065  52.922  1.00  0.00     0.163 A 
HETATM    6  N1  UNL     1      20.468   0.615  51.906  1.00  0.00    -0.210 NA
HETATM    7  C11 UNL     1      20.898   1.305  51.026  1.00  0.00     0.161 A 
HETATM    8  N2  UNL     1      22.148   1.253  51.367  1.00  0.00    -0.230 NA
HETATM    9  C12 UNL     1      22.737   0.616  52.388  1.00  0.00     0.073 A 
HETATM   10  C13 UNL     1      24.088   0.607  52.665  1.00  0.00     0.042 A 
HETATM   11  C14 UNL     1      19.546   1.360  50.659  1.00  0.00     0.212 C 
HETATM   12  C15 UNL     1      18.466   0.459  51.126  1.00  0.00     0.014 C 
HETATM   13  C16 UNL     1      17.932  -0.517  51.940  1.00  0.00     0.018 C 
HETATM   14  C17 UNL     1      18.569  -1.159  53.168  1.00  0.00     0.119 C 
HETATM   15  N3  UNL     1      19.774  -0.819  53.713  1.00  0.00    -0.241 NA
ENDROOT
BRANCH   1  16
HETATM   16  C4  UNL     1      25.965  -0.057  53.962  1.00  0.00     0.155 C 
BRANCH  16  17
HETATM   17  C3  UNL     1      26.661  -0.312  52.667  1.00  0.00     0.063 C 
BRANCH  17  18
HETATM   18  C2  UNL     1      27.611  -1.469  52.752  1.00  0.00     0.169 C 
BRANCH  18  19
HETATM   19  O1  UNL     1      28.437  -1.465  53.858  1.00  0.00    -0.396 OA
HETATM   20  C1  UNL     1      29.660  -0.881  53.549  1.00  0.00     0.201 C 
ENDBRANCH  18  19
ENDBRANCH  17  18
ENDBRANCH  16  17
BRANCH  16  21
HETATM   21  O2  UNL     1      26.389   1.094  54.605  1.00  0.00    -0.386 OA
HETATM   22  C5  UNL     1      27.067   1.966  53.780  1.00  0.00     0.202 C 
ENDBRANCH  16  21
ENDBRANCH   1  16
BRANCH  11  23
HETATM   23  O3  UNL     1      19.544   1.141  49.213  1.00  0.00    -0.384 OA
HETATM   24  H16 UNL     1      19.434   2.036  48.807  1.00  0.00     0.211 HD
ENDBRANCH  11  23
TORSDOF 6
ENDMDL
MODEL 2
REMARK VINA RESULT:      -7.5      0.901      1.676
REMARK  6 active torsions:
REMARK  status: ('A' for Active; 'I' for Inactive)
REMARK    1  A    between atoms: O1_2  and  C2_3 
REMARK    2  A    between atoms: C2_3  and  C3_4 
REMARK    3  A    between atoms: C3_4  and  C4_5 
REMARK    4  A    between atoms: C4_5  and  O2_6 
REMARK    5  A    between atoms: C4_5  and  C6_8 
REMARK    6  A    between atoms: C14_18  and  O3_19 
ROOT
HETATM    1  C6  UNL     1      24.457  -0.166  53.464  1.00  0.00    -0.027 A 
HETATM    2  C7  UNL     1      23.692  -0.893  54.392  1.00  0.00     0.011 A 
HETATM    3  C8  UNL     1      22.296  -0.947  54.295  1.00  0.00     0.018 A 
HETATM    4  C9  UNL     1      21.942  -0.210  53.211  1.00  0.00     0.041 A 
HETATM    5  C10 UNL     1      20.630  -0.152  52.947  1.00  0.00     0.163 A 
HETATM    6  N1  UNL     1      20.254   0.508  51.951  1.00  0.00    -0.210 NA
HETATM    7  C11 UNL     1      20.595   1.190  51.025  1.00  0.00     0.161 A 
HETATM    8  N2  UNL     1      21.871   1.158  51.254  1.00  0.00    -0.230 NA
HETATM    9  C12 UNL     1      22.557   0.543  52.227  1.00  0.00     0.073 A 
HETATM   10  C13 UNL     1      23.927   0.553  52.383  1.00  0.00     0.042 A 
HETATM   11  C14 UNL     1      19.216   1.224  50.780  1.00  0.00     0.212 C 
HETATM   12  C15 UNL     1      18.192   0.318  51.354  1.00  0.00     0.014 C 
HETATM   13  C16 UNL     1      17.745  -0.652  52.227  1.00  0.00     0.018 C 
HETATM   14  C17 UNL     1      18.498  -1.267  53.401  1.00  0.00     0.119 C 
HETATM   15  N3  UNL     1      19.742  -0.905  53.832  1.00  0.00    -0.241 NA
ENDROOT
BRANCH   1  16
HETATM   16  C4  UNL     1      25.920  -0.070  53.516  1.00  0.00     0.155 C 
BRANCH  16  17
HETATM   17  C3  UNL     1      26.330   1.062  54.399  1.00  0.00     0.063 C 
BRANCH  17  18
HETATM   18  C2  UNL     1      27.086   2.119  53.651  1.00  0.00     0.169 C 
BRANCH  18  19
HETATM   19  O1  UNL     1      28.300   2.470  54.207  1.00  0.00    -0.396 OA
HETATM   20  C1  UNL     1      29.156   1.376  54.236  1.00  0.00     0.201 C 
ENDBRANCH  18  19
ENDBRANCH  17  18
ENDBRANCH  16  17
BRANCH  16  21
HETATM   21  O2  UNL     1      26.552  -1.266  53.818  1.00  0.00    -0.386 OA
HETATM   22  C5  UNL     1      27.013  -1.938  52.707  1.00  0.00     0.202 C 
ENDBRANCH  16  21
ENDBRANCH   1  16
BRANCH  11  23
HETATM   23  O3  UNL     1      19.087   0.983  49.343  1.00  0.00    -0.384 OA
HETATM   24  H16 UNL     1      19.945   0.579  49.061  1.00  0.00     0.211 HD
ENDBRANCH  11  23
TORSDOF 6
ENDMDL
MODEL 3
REMARK VINA RESULT:      -7.4      1.921      2.855
REMARK  6 active torsions:
REMARK  status: ('A' for Active; 'I' for Inactive)
REMARK    1  A    between atoms: O1_2  and  C2_3 
REMARK    2  A    between atoms: C2_3  and  C3_4 
REMARK    3  A    between atoms: C3_4  and  C4_5 
REMARK    4  A    between atoms: C4_5  and  O2_6 
REMARK    5  A    between atoms: C4_5  and  C6_8 
REMARK    6  A    between atoms: C14_18  and  O3_19 
ROOT
HETATM    1  C6  UNL     1      23.799   0.843  52.475  1.00  0.00    -0.027 A 
HETATM    2  C7  UNL     1      23.404   1.474  51.284  1.00  0.00     0.011 A 
HETATM    3  C8  UNL     1      22.094   1.356  50.801  1.00  0.00     0.018 A 
HETATM    4  C9  UNL     1      21.413   0.576  51.680  1.00  0.00     0.041 A 
HETATM    5  C10 UNL     1      20.124   0.357  51.390  1.00  0.00     0.163 A 
HETATM    6  N1  UNL     1      19.451  -0.349  52.177  1.00  0.00    -0.210 NA
HETATM    7  C11 UNL     1      19.459  -0.987  53.192  1.00  0.00     0.161 A 
HETATM    8  N2  UNL     1      20.703  -0.797  53.501  1.00  0.00    -0.230 NA
HETATM    9  C12 UNL     1      21.653  -0.099  52.863  1.00  0.00     0.073 A 
HETATM   10  C13 UNL     1      22.958   0.060  53.279  1.00  0.00     0.042 A 
HETATM   11  C14 UNL     1      18.113  -1.191  52.855  1.00  0.00     0.212 C 
HETATM   12  C15 UNL     1      17.319  -0.416  51.873  1.00  0.00     0.014 C 
HETATM   13  C16 UNL     1      17.161   0.495  50.851  1.00  0.00     0.018 C 
HETATM   14  C17 UNL     1      18.254   1.203  50.056  1.00  0.00     0.119 C 
HETATM   15  N3  UNL     1      19.597   0.999  50.186  1.00  0.00    -0.241 NA
ENDROOT
BRANCH   1  16
HETATM   16  C4  UNL     1      25.156   0.928  53.027  1.00  0.00     0.155 C 
BRANCH  16  17
HETATM   17  C3  UNL     1      25.359  -0.133  54.057  1.00  0.00     0.063 C 
BRANCH  17  18
HETATM   18  C2  UNL     1      26.474   0.201  55.003  1.00  0.00     0.169 C 
BRANCH  18  19
HETATM   19  O1  UNL     1      27.649  -0.489  54.784  1.00  0.00    -0.396 OA
HETATM   20  C1  UNL     1      28.727   0.388  54.747  1.00  0.00     0.201 C 
ENDBRANCH  18  19
ENDBRANCH  17  18
ENDBRANCH  16  17
BRANCH  16  21
HETATM   21  O2  UNL     1      26.152   0.966  52.065  1.00  0.00    -0.386 OA
HETATM   22  C5  UNL     1      26.822   2.169  52.016  1.00  0.00     0.202 C 
ENDBRANCH  16  21
ENDBRANCH   1  16
BRANCH  11  23
HETATM   23  O3  UNL     1      17.381  -0.974  54.103  1.00  0.00    -0.384 OA
HETATM   24  H16 UNL     1      17.971  -0.415  54.666  1.00  0.00     0.211 HD
ENDBRANCH  11  23
TORSDOF 6
ENDMDL
MODEL 4
REMARK VINA RESULT:      -7.2      2.962      7.359
REMARK  6 active torsions:
REMARK  status: ('A' for Active; 'I' for Inactive)
REMARK    1  A    between atoms: O1_2  and  C2_3 
REMARK    2  A    between atoms: C2_3  and  C3_4 
REMARK    3  A    between atoms: C3_4  and  C4_5 
REMARK    4  A    between atoms: C4_5  and  O2_6 
REMARK    5  A    between atoms: C4_5  and  C6_8 
REMARK    6  A    between atoms: C14_18  and  O3_19 
ROOT
HETATM    1  C6  UNL     1      23.131   0.722  53.214  1.00  0.00    -0.027 A 
HETATM    2  C7  UNL     1      23.452  -0.632  53.017  1.00  0.00     0.011 A 
HETATM    3  C8  UNL     1      24.784  -1.062  52.972  1.00  0.00     0.018 A 
HETATM    4  C9  UNL     1      25.564   0.036  53.148  1.00  0.00     0.041 A 
HETATM    5  C10 UNL     1      26.886  -0.181  53.148  1.00  0.00     0.163 A 
HETATM    6  N1  UNL     1      27.648   0.800  53.317  1.00  0.00    -0.210 NA
HETATM    7  C11 UNL     1      27.717   1.983  53.499  1.00  0.00     0.161 A 
HETATM    8  N2  UNL     1      26.444   2.228  53.502  1.00  0.00    -0.230 NA
HETATM    9  C12 UNL     1      25.405   1.395  53.349  1.00  0.00     0.073 A 
HETATM   10  C13 UNL     1      24.073   1.748  53.382  1.00  0.00     0.042 A 
HETATM   11  C14 UNL     1      29.093   1.716  53.494  1.00  0.00     0.212 C 
HETATM   12  C15 UNL     1      29.738   0.390  53.641  1.00  0.00     0.014 C 
HETATM   13  C16 UNL     1      29.739  -0.988  53.692  1.00  0.00     0.018 C 
HETATM   14  C17 UNL     1      28.576  -1.933  53.408  1.00  0.00     0.119 C 
HETATM   15  N3  UNL     1      27.331  -1.564  52.986  1.00  0.00    -0.241 NA
ENDROOT
BRANCH   1  16
HETATM   16  C4  UNL     1      21.756   1.231  53.266  1.00  0.00     0.155 C 
BRANCH  16  17
HETATM   17  C3  UNL     1      21.238   1.451  51.883  1.00  0.00     0.063 C 
BRANCH  17  18
HETATM   18  C2  UNL     1      20.896   2.889  51.629  1.00  0.00     0.169 C 
BRANCH  18  19
HETATM   19  O1  UNL     1      21.946   3.668  51.187  1.00  0.00    -0.396 OA
HETATM   20  C1  UNL     1      22.075   4.805  51.977  1.00  0.00     0.201 C 
ENDBRANCH  18  19
ENDBRANCH  17  18
ENDBRANCH  16  17
BRANCH  16  21
HETATM   21  O2  UNL     1      20.909   0.480  54.064  1.00  0.00    -0.386 OA
HETATM   22  C5  UNL     1      19.910  -0.156  53.360  1.00  0.00     0.202 C 
ENDBRANCH  16  21
ENDBRANCH   1  16
BRANCH  11  23
HETATM   23  O3  UNL     1      29.619   2.457  54.641  1.00  0.00    -0.384 OA
HETATM   24  H16 UNL     1      30.506   2.062  54.830  1.00  0.00     0.211 HD
ENDBRANCH  11  23
TORSDOF 6
ENDMDL
MODEL 5
REMARK VINA RESULT:      -7.2      3.916      5.574
REMARK  6 active torsions:
REMARK  status: ('A' for Active; 'I' for Inactive)
REMARK    1  A    between atoms: O1_2  and  C2_3 
REMARK    2  A    between atoms: C2_3  and  C3_4 
REMARK    3  A    between atoms: C3_4  and  C4_5 
REMARK    4  A    between atoms: C4_5  and  O2_6 
REMARK    5  A    between atoms: C4_5  and  C6_8 
REMARK    6  A    between atoms: C14_18  and  O3_19 
ROOT
HETATM    1  C6  UNL     1      25.779   1.069  52.755  1.00  0.00    -0.027 A 
HETATM    2  C7  UNL     1      26.731   1.291  51.746  1.00  0.00     0.011 A 
HETATM    3  C8  UNL     1      26.598   2.355  50.846  1.00  0.00     0.018 A 
HETATM    4  C9  UNL     1      25.458   3.016  51.174  1.00  0.00     0.041 A 
HETATM    5  C10 UNL     1      25.165   4.084  50.422  1.00  0.00     0.163 A 
HETATM    6  N1  UNL     1      24.127   4.733  50.691  1.00  0.00    -0.210 NA
HETATM    7  C11 UNL     1      23.172   4.824  51.411  1.00  0.00     0.161 A 
HETATM    8  N2  UNL     1      23.425   3.794  52.157  1.00  0.00    -0.230 NA
HETATM    9  C12 UNL     1      24.444   2.925  52.110  1.00  0.00     0.073 A 
HETATM   10  C13 UNL     1      24.638   1.858  52.962  1.00  0.00     0.042 A 
HETATM   11  C14 UNL     1      22.901   5.937  50.604  1.00  0.00     0.212 C 
HETATM   12  C15 UNL     1      23.849   6.622  49.693  1.00  0.00     0.014 C 
HETATM   13  C16 UNL     1      25.034   6.739  48.998  1.00  0.00     0.018 C 
HETATM   14  C17 UNL     1      26.141   5.699  48.861  1.00  0.00     0.119 C 
HETATM   15  N3  UNL     1      26.111   4.429  49.361  1.00  0.00    -0.241 NA
ENDROOT
BRANCH   1  16
HETATM   16  C4  UNL     1      25.863  -0.030  53.724  1.00  0.00     0.155 C 
BRANCH  16  17
HETATM   17  C3  UNL     1      26.627   0.406  54.930  1.00  0.00     0.063 C 
BRANCH  17  18
HETATM   18  C2  UNL     1      28.087   0.081  54.825  1.00  0.00     0.169 C 
BRANCH  18  19
HETATM   19  O1  UNL     1      28.382  -1.038  54.074  1.00  0.00    -0.396 OA
HETATM   20  C1  UNL     1      29.677  -0.961  53.574  1.00  0.00     0.201 C 
ENDBRANCH  18  19
ENDBRANCH  17  18
ENDBRANCH  16  17
BRANCH  16  21
HETATM   21  O2  UNL     1      24.643  -0.613  54.020  1.00  0.00    -0.386 OA
HETATM   22  C5  UNL     1      24.577  -1.136  55.293  1.00  0.00     0.202 C 
ENDBRANCH  16  21
ENDBRANCH   1  16
BRANCH  11  23
HETATM   23  O3  UNL     1      22.536   6.998  51.542  1.00  0.00    -0.384 OA
HETATM   24  H16 UNL     1      22.118   6.541  52.314  1.00  0.00     0.211 HD
ENDBRANCH  11  23
TORSDOF 6
ENDMDL
MODEL 6
REMARK VINA RESULT:      -7.1      4.079      6.363
REMARK  6 active torsions:
REMARK  status: ('A' for Active; 'I' for Inactive)
REMARK    1  A    between atoms: O1_2  and  C2_3 
REMARK    2  A    between atoms: C2_3  and  C3_4 
REMARK    3  A    between atoms: C3_4  and  C4_5 
REMARK    4  A    between atoms: C4_5  and  O2_6 
REMARK    5  A    between atoms: C4_5  and  C6_8 
REMARK    6  A    between atoms: C14_18  and  O3_19 
ROOT
HETATM    1  C6  UNL     1      24.879   0.945  52.993  1.00  0.00    -0.027 A 
HETATM    2  C7  UNL     1      25.859   0.732  52.009  1.00  0.00     0.011 A 
HETATM    3  C8  UNL     1      26.156   1.716  51.058  1.00  0.00     0.018 A 
HETATM    4  C9  UNL     1      25.351   2.778  51.317  1.00  0.00     0.041 A 
HETATM    5  C10 UNL     1      25.501   3.835  50.509  1.00  0.00     0.163 A 
HETATM    6  N1  UNL     1      24.786   4.845  50.713  1.00  0.00    -0.210 NA
HETATM    7  C11 UNL     1      23.929   5.332  51.395  1.00  0.00     0.161 A 
HETATM    8  N2  UNL     1      23.757   4.325  52.194  1.00  0.00    -0.230 NA
HETATM    9  C12 UNL     1      24.366   3.132  52.221  1.00  0.00     0.073 A 
HETATM   10  C13 UNL     1      24.124   2.120  53.125  1.00  0.00     0.042 A 
HETATM   11  C14 UNL     1      24.116   6.418  50.530  1.00  0.00     0.212 C 
HETATM   12  C15 UNL     1      25.268   6.640  49.624  1.00  0.00     0.014 C 
HETATM   13  C16 UNL     1      26.418   6.258  48.966  1.00  0.00     0.018 C 
HETATM   14  C17 UNL     1      27.044   4.868  48.913  1.00  0.00     0.119 C 
HETATM   15  N3  UNL     1      26.523   3.735  49.468  1.00  0.00    -0.241 NA
ENDROOT
BRANCH   1  16
HETATM   16  C4  UNL     1      24.522  -0.049  54.012  1.00  0.00     0.155 C 
BRANCH  16  17
HETATM   17  C3  UNL     1      23.329  -0.831  53.571  1.00  0.00     0.063 C 
BRANCH  17  18
HETATM   18  C2  UNL     1      22.502  -1.304  54.729  1.00  0.00     0.169 C 
BRANCH  18  19
HETATM   19  O1  UNL     1      21.144  -1.089  54.602  1.00  0.00    -0.396 OA
HETATM   20  C1  UNL     1      20.883   0.261  54.395  1.00  0.00     0.201 C 
ENDBRANCH  18  19
ENDBRANCH  17  18
ENDBRANCH  16  17
BRANCH  16  21
HETATM   21  O2  UNL     1      25.583  -0.838  54.423  1.00  0.00    -0.386 OA
HETATM   22  C5  UNL     1      26.489  -0.171  55.219  1.00  0.00     0.202 C 
ENDBRANCH  16  21
ENDBRANCH   1  16
BRANCH  11  23
HETATM   23  O3  UNL     1      24.170   7.588  51.408  1.00  0.00    -0.384 OA
HETATM   24  H16 UNL     1      23.491   7.428  52.109  1.00  0.00     0.211 HD
ENDBRANCH  11  23
TORSDOF 6
ENDMDL
MODEL 7
REMARK VINA RESULT:      -7.1      1.727      2.069
REMARK  6 active torsions:
REMARK  status: ('A' for Active; 'I' for Inactive)
REMARK    1  A    between atoms: O1_2  and  C2_3 
REMARK    2  A    between atoms: C2_3  and  C3_4 
REMARK    3  A    between atoms: C3_4  and  C4_5 
REMARK    4  A    between atoms: C4_5  and  O2_6 
REMARK    5  A    between atoms: C4_5  and  C6_8 
REMARK    6  A    between atoms: C14_18  and  O3_19 
ROOT
HETATM    1  C6  UNL     1      25.392   1.002  53.560  1.00  0.00    -0.027 A 
HETATM    2  C7  UNL     1      24.597  -0.142  53.740  1.00  0.00     0.011 A 
HETATM    3  C8  UNL     1      23.221  -0.117  53.477  1.00  0.00     0.018 A 
HETATM    4  C9  UNL     1      22.917   1.139  53.061  1.00  0.00     0.041 A 
HETATM    5  C10 UNL     1      21.633   1.355  52.747  1.00  0.00     0.163 A 
HETATM    6  N1  UNL     1      21.303   2.497  52.348  1.00  0.00    -0.210 NA
HETATM    7  C11 UNL     1      21.680   3.606  52.096  1.00  0.00     0.161 A 
HETATM    8  N2  UNL     1      22.930   3.432  52.393  1.00  0.00    -0.230 NA
HETATM    9  C12 UNL     1      23.566   2.339  52.837  1.00  0.00     0.073 A 
HETATM   10  C13 UNL     1      24.913   2.243  53.115  1.00  0.00     0.042 A 
HETATM   11  C14 UNL     1      20.329   3.793  51.776  1.00  0.00     0.212 C 
HETATM   12  C15 UNL     1      19.320   2.733  51.541  1.00  0.00     0.014 C 
HETATM   13  C16 UNL     1      18.862   1.432  51.561  1.00  0.00     0.018 C 
HETATM   14  C17 UNL     1      19.546   0.212  52.168  1.00  0.00     0.119 C 
HETATM   15  N3  UNL     1      20.721   0.217  52.864  1.00  0.00    -0.241 NA
ENDROOT
BRANCH   1  16
HETATM   16  C4  UNL     1      26.835   1.037  53.822  1.00  0.00     0.155 C 
BRANCH  16  17
HETATM   17  C3  UNL     1      27.572   0.325  52.737  1.00  0.00     0.063 C 
BRANCH  17  18
HETATM   18  C2  UNL     1      28.310  -0.876  53.247  1.00  0.00     0.169 C 
BRANCH  18  19
HETATM   19  O1  UNL     1      27.536  -2.004  53.426  1.00  0.00    -0.396 OA
HETATM   20  C1  UNL     1      26.931  -2.374  52.231  1.00  0.00     0.201 C 
ENDBRANCH  18  19
ENDBRANCH  17  18
ENDBRANCH  16  17
BRANCH  16  21
HETATM   21  O2  UNL     1      27.327   2.304  54.089  1.00  0.00    -0.386 OA
HETATM   22  C5  UNL     1      28.617   2.497  53.646  1.00  0.00     0.202 C 
ENDBRANCH  16  21
ENDBRANCH   1  16
BRANCH  11  23
HETATM   23  O3  UNL     1      20.343   4.508  50.500  1.00  0.00    -0.384 OA
HETATM   24  H16 UNL     1      21.158   4.201  50.030  1.00  0.00     0.211 HD
ENDBRANCH  11  23
TORSDOF 6
ENDMDL
MODEL 8
REMARK VINA RESULT:      -7.0      4.540      6.693
REMARK  6 active torsions:
REMARK  status: ('A' for Active; 'I' for Inactive)
REMARK    1  A    between atoms: O1_2  and  C2_3 
REMARK    2  A    between atoms: C2_3  and  C3_4 
REMARK    3  A    between atoms: C3_4  and  C4_5 
REMARK    4  A    between atoms: C4_5  and  O2_6 
REMARK    5  A    between atoms: C4_5  and  C6_8 
REMARK    6  A    between atoms: C14_18  and  O3_19 
ROOT
HETATM    1  C6  UNL     1      25.855   3.963  49.713  1.00  0.00    -0.027 A 
HETATM    2  C7  UNL     1      24.453   3.895  49.653  1.00  0.00     0.011 A 
HETATM    3  C8  UNL     1      23.741   2.952  50.404  1.00  0.00     0.018 A 
HETATM    4  C9  UNL     1      24.651   2.228  51.104  1.00  0.00     0.041 A 
HETATM    5  C10 UNL     1      24.152   1.273  51.899  1.00  0.00     0.163 A 
HETATM    6  N1  UNL     1      24.953   0.584  52.574  1.00  0.00    -0.210 NA
HETATM    7  C11 UNL     1      26.103   0.384  52.849  1.00  0.00     0.161 A 
HETATM    8  N2  UNL     1      26.619   1.298  52.088  1.00  0.00    -0.230 NA
HETATM    9  C12 UNL     1      26.024   2.174  51.267  1.00  0.00     0.073 A 
HETATM   10  C13 UNL     1      26.660   3.127  50.501  1.00  0.00     0.042 A 
HETATM   11  C14 UNL     1      25.543  -0.603  53.670  1.00  0.00     0.212 C 
HETATM   12  C15 UNL     1      24.123  -0.711  54.082  1.00  0.00     0.014 C 
HETATM   13  C16 UNL     1      22.786  -0.380  54.019  1.00  0.00     0.018 C 
HETATM   14  C17 UNL     1      22.099   0.535  53.010  1.00  0.00     0.119 C 
HETATM   15  N3  UNL     1      22.697   1.139  51.942  1.00  0.00    -0.241 NA
ENDROOT
BRANCH   1  16
HETATM   16  C4  UNL     1      26.654   4.926  48.948  1.00  0.00     0.155 C 
BRANCH  16  17
HETATM   17  C3  UNL     1      26.312   6.320  49.358  1.00  0.00     0.063 C 
BRANCH  17  18
HETATM   18  C2  UNL     1      25.494   7.031  48.323  1.00  0.00     0.169 C 
BRANCH  18  19
HETATM   19  O1  UNL     1      24.896   8.199  48.754  1.00  0.00    -0.396 OA
HETATM   20  C1  UNL     1      24.275   8.003  49.981  1.00  0.00     0.201 C 
ENDBRANCH  18  19
ENDBRANCH  17  18
ENDBRANCH  16  17
BRANCH  16  21
HETATM   21  O2  UNL     1      28.014   4.661  48.958  1.00  0.00    -0.386 OA
HETATM   22  C5  UNL     1      28.760   5.591  48.267  1.00  0.00     0.202 C 
ENDBRANCH  16  21
ENDBRANCH   1  16
BRANCH  11  23
HETATM   23  O3  UNL     1      26.237  -0.461  54.950  1.00  0.00    -0.384 OA
HETATM   24  H16 UNL     1      25.793   0.293  55.413  1.00  0.00     0.211 HD
ENDBRANCH  11  23
TORSDOF 6
ENDMDL
MODEL 9
REMARK VINA RESULT:      -6.8      2.552      3.309
REMARK  6 active torsions:
REMARK  status: ('A' for Active; 'I' for Inactive)
REMARK    1  A    between atoms: O1_2  and  C2_3 
REMARK    2  A    between atoms: C2_3  and  C3_4 
REMARK    3  A    between atoms: C3_4  and  C4_5 
REMARK    4  A    between atoms: C4_5  and  O2_6 
REMARK    5  A    between atoms: C4_5  and  C6_8 
REMARK    6  A    between atoms: C14_18  and  O3_19 
ROOT
HETATM    1  C6  UNL     1      24.505   0.006  53.395  1.00  0.00    -0.027 A 
HETATM    2  C7  UNL     1      23.186  -0.462  53.267  1.00  0.00     0.011 A 
HETATM    3  C8  UNL     1      22.150   0.391  52.867  1.00  0.00     0.018 A 
HETATM    4  C9  UNL     1      22.698   1.617  52.665  1.00  0.00     0.041 A 
HETATM    5  C10 UNL     1      21.853   2.575  52.262  1.00  0.00     0.163 A 
HETATM    6  N1  UNL     1      22.313   3.722  52.053  1.00  0.00    -0.210 NA
HETATM    7  C11 UNL     1      23.292   4.415  52.058  1.00  0.00     0.161 A 
HETATM    8  N2  UNL     1      24.135   3.513  52.450  1.00  0.00    -0.230 NA
HETATM    9  C12 UNL     1      23.940   2.220  52.745  1.00  0.00     0.073 A 
HETATM   10  C13 UNL     1      24.910   1.325  53.144  1.00  0.00     0.042 A 
HETATM   11  C14 UNL     1      22.377   5.390  51.634  1.00  0.00     0.212 C 
HETATM   12  C15 UNL     1      21.017   5.152  51.095  1.00  0.00     0.014 C 
HETATM   13  C16 UNL     1      19.912   4.375  50.818  1.00  0.00     0.018 C 
HETATM   14  C17 UNL     1      19.651   2.937  51.254  1.00  0.00     0.119 C 
HETATM   15  N3  UNL     1      20.457   2.187  52.061  1.00  0.00    -0.241 NA
ENDROOT
BRANCH   1  16
HETATM   16  C4  UNL     1      25.629  -0.839  53.814  1.00  0.00     0.155 C 
BRANCH  16  17
HETATM   17  C3  UNL     1      26.697  -0.827  52.771  1.00  0.00     0.063 C 
BRANCH  17  18
HETATM   18  C2  UNL     1      28.061  -0.624  53.359  1.00  0.00     0.169 C 
BRANCH  18  19
HETATM   19  O1  UNL     1      28.587   0.640  53.188  1.00  0.00    -0.396 OA
HETATM   20  C1  UNL     1      29.115   1.113  54.383  1.00  0.00     0.201 C 
ENDBRANCH  18  19
ENDBRANCH  17  18
ENDBRANCH  16  17
BRANCH  16  21
HETATM   21  O2  UNL     1      26.094  -0.563  55.089  1.00  0.00    -0.386 OA
HETATM   22  C5  UNL     1      25.235  -0.968  56.087  1.00  0.00     0.202 C 
ENDBRANCH  16  21
ENDBRANCH   1  16
BRANCH  11  23
HETATM   23  O3  UNL     1      23.046   6.071  50.526  1.00  0.00    -0.384 OA
HETATM   24  H16 UNL     1      22.644   6.974  50.485  1.00  0.00     0.211 HD
ENDBRANCH  11  23
TORSDOF 6
ENDMDL
