MODEL 1
REMARK VINA RESULT:      -8.2      0.000      0.000
REMARK  8 active torsions:
REMARK  status: ('A' for Active; 'I' for Inactive)
REMARK    1  A    between atoms: C2_2  and  C3_3 
REMARK    2  A    between atoms: C2_2  and  O3_29 
REMARK    3  A    between atoms: C3_3  and  C4_4 
REMARK    4  A    between atoms: C5_5  and  C6_6 
REMARK    5  A    between atoms: C9_11  and  O1_12 
REMARK    6  A    between atoms: O1_12  and  C10_13 
REMARK    7  A    between atoms: C13_16  and  N3_17 
REMARK       I    between atoms: N3_17  and  C14_18 
REMARK       I    between atoms: C14_18  and  N4_20 
REMARK    8  A    between atoms: N4_20  and  C15_21 
ROOT
HETATM    1  C10 UNL     1      22.705   2.114  51.484  1.00  0.00     0.178 A 
HETATM    2  C11 UNL     1      23.025   2.860  52.730  1.00  0.00     0.011 A 
HETATM    3  C12 UNL     1      24.096   3.643  52.617  1.00  0.00     0.028 A 
HETATM    4  C13 UNL     1      24.563   3.464  51.273  1.00  0.00     0.035 A 
HETATM    5  C21 UNL     1      23.809   2.604  50.582  1.00  0.00     0.039 A 
ENDROOT
BRANCH   1   6
HETATM    6  O1  UNL     1      22.798   0.737  51.687  1.00  0.00    -0.320 OA
BRANCH   6   7
HETATM    7  C9  UNL     1      22.392   0.131  52.844  1.00  0.00     0.178 A 
HETATM    8  C6  UNL     1      23.347  -0.545  53.571  1.00  0.00     0.034 A 
HETATM    9  C7  UNL     1      22.860  -1.122  54.712  1.00  0.00     0.133 A 
HETATM   10  N1  UNL     1      21.574  -1.036  55.088  1.00  0.00    -0.253 NA
HETATM   11  C8  UNL     1      20.682  -0.368  54.351  1.00  0.00     0.235 A 
HETATM   12  N2  UNL     1      21.108   0.211  53.229  1.00  0.00    -0.217 NA
BRANCH   8  13
HETATM   13  C5  UNL     1      24.715  -0.601  53.106  1.00  0.00     0.013 C 
HETATM   14  C4  UNL     1      25.834  -0.138  53.611  1.00  0.00    -0.019 C 
BRANCH  14  15
HETATM   15  C3  UNL     1      26.560   0.575  54.656  1.00  0.00     0.090 C 
BRANCH  15  16
HETATM   16  C2  UNL     1      28.011   0.732  54.315  1.00  0.00     0.040 C 
HETATM   17  C1  UNL     1      28.824   1.688  53.960  1.00  0.00     0.046 C 
BRANCH  16  18
HETATM   18  O3  UNL     1      28.591  -0.521  54.424  1.00  0.00    -0.361 OA
HETATM   19  C22 UNL     1      29.748  -0.911  53.747  1.00  0.00     0.209 C 
ENDBRANCH  16  18
ENDBRANCH  15  16
ENDBRANCH  14  15
ENDBRANCH   8  13
ENDBRANCH   6   7
ENDBRANCH   1   6
BRANCH   4  20
HETATM   20  N3  UNL     1      25.688   4.086  50.670  1.00  0.00    -0.309 N 
HETATM   21  C14 UNL     1      25.618   5.409  50.155  1.00  0.00     0.325 C 
HETATM   22  O2  UNL     1      24.535   5.993  50.256  1.00  0.00    -0.247 OA
HETATM   23  N4  UNL     1      26.720   6.064  49.545  1.00  0.00    -0.309 N 
HETATM   24  H13 UNL     1      27.570   5.460  49.529  1.00  0.00     0.170 HD
HETATM   25  H12 UNL     1      26.589   3.560  50.602  1.00  0.00     0.170 HD
BRANCH  23  26
HETATM   26  C15 UNL     1      26.788   7.356  48.996  1.00  0.00     0.036 A 
HETATM   27  C16 UNL     1      26.705   7.502  47.630  1.00  0.00     0.031 A 
HETATM   28  C17 UNL     1      26.761   8.732  47.015  1.00  0.00     0.021 A 
HETATM   29  C18 UNL     1      26.903   9.900  47.729  1.00  0.00     0.011 A 
HETATM   30 BR1  UNL     1      26.976  11.585  46.850  1.00  0.00    -0.051 Br
HETATM   31  C19 UNL     1      26.989   9.794  49.100  1.00  0.00     0.021 A 
HETATM   32  C20 UNL     1      26.929   8.543  49.673  1.00  0.00     0.031 A 
ENDBRANCH  23  26
ENDBRANCH   4  20
TORSDOF 8
ENDMDL
MODEL 2
REMARK VINA RESULT:      -8.2      1.903      2.278
REMARK  8 active torsions:
REMARK  status: ('A' for Active; 'I' for Inactive)
REMARK    1  A    between atoms: C2_2  and  C3_3 
REMARK    2  A    between atoms: C2_2  and  O3_29 
REMARK    3  A    between atoms: C3_3  and  C4_4 
REMARK    4  A    between atoms: C5_5  and  C6_6 
REMARK    5  A    between atoms: C9_11  and  O1_12 
REMARK    6  A    between atoms: O1_12  and  C10_13 
REMARK    7  A    between atoms: C13_16  and  N3_17 
REMARK       I    between atoms: N3_17  and  C14_18 
REMARK       I    between atoms: C14_18  and  N4_20 
REMARK    8  A    between atoms: N4_20  and  C15_21 
ROOT
HETATM    1  C10 UNL     1      22.110   2.284  51.370  1.00  0.00     0.178 A 
HETATM    2  C11 UNL     1      22.195   3.429  52.313  1.00  0.00     0.011 A 
HETATM    3  C12 UNL     1      22.778   4.505  51.788  1.00  0.00     0.028 A 
HETATM    4  C13 UNL     1      23.124   4.138  50.445  1.00  0.00     0.035 A 
HETATM    5  C21 UNL     1      22.767   2.884  50.153  1.00  0.00     0.039 A 
ENDROOT
BRANCH   1   6
HETATM    6  O1  UNL     1      22.834   1.190  51.843  1.00  0.00    -0.320 OA
BRANCH   6   7
HETATM    7  C9  UNL     1      22.444   0.460  52.932  1.00  0.00     0.178 A 
HETATM    8  C6  UNL     1      23.403  -0.308  53.554  1.00  0.00     0.034 A 
HETATM    9  C7  UNL     1      22.932  -1.006  54.632  1.00  0.00     0.133 A 
HETATM   10  N1  UNL     1      21.656  -0.948  55.044  1.00  0.00    -0.253 NA
HETATM   11  C8  UNL     1      20.759  -0.188  54.410  1.00  0.00     0.235 A 
HETATM   12  N2  UNL     1      21.170   0.511  53.352  1.00  0.00    -0.217 NA
BRANCH   8  13
HETATM   13  C5  UNL     1      24.761  -0.327  53.054  1.00  0.00     0.013 C 
HETATM   14  C4  UNL     1      25.918  -0.172  53.652  1.00  0.00    -0.019 C 
BRANCH  14  15
HETATM   15  C3  UNL     1      26.709   0.069  54.854  1.00  0.00     0.090 C 
BRANCH  15  16
HETATM   16  C2  UNL     1      28.158   0.277  54.532  1.00  0.00     0.040 C 
HETATM   17  C1  UNL     1      29.180  -0.443  54.161  1.00  0.00     0.046 C 
BRANCH  16  18
HETATM   18  O3  UNL     1      28.420   1.627  54.695  1.00  0.00    -0.361 OA
HETATM   19  C22 UNL     1      28.743   2.495  53.651  1.00  0.00     0.209 C 
ENDBRANCH  16  18
ENDBRANCH  15  16
ENDBRANCH  14  15
ENDBRANCH   8  13
ENDBRANCH   6   7
ENDBRANCH   1   6
BRANCH   4  20
HETATM   20  N3  UNL     1      23.774   4.950  49.478  1.00  0.00    -0.309 N 
HETATM   21  C14 UNL     1      25.183   5.134  49.491  1.00  0.00     0.325 C 
HETATM   22  O2  UNL     1      25.816   4.557  50.379  1.00  0.00    -0.247 OA
HETATM   23  N4  UNL     1      25.869   5.938  48.542  1.00  0.00    -0.309 N 
HETATM   24  H13 UNL     1      25.215   6.362  47.849  1.00  0.00     0.170 HD
HETATM   25  H12 UNL     1      23.204   5.423  48.741  1.00  0.00     0.170 HD
BRANCH  23  26
HETATM   26  C15 UNL     1      27.244   6.207  48.441  1.00  0.00     0.036 A 
HETATM   27  C16 UNL     1      27.664   7.517  48.423  1.00  0.00     0.031 A 
HETATM   28  C17 UNL     1      28.993   7.864  48.328  1.00  0.00     0.021 A 
HETATM   29  C18 UNL     1      29.991   6.920  48.245  1.00  0.00     0.011 A 
HETATM   30 BR1  UNL     1      31.818   7.431  48.116  1.00  0.00    -0.051 Br
HETATM   31  C19 UNL     1      29.608   5.596  48.260  1.00  0.00     0.021 A 
HETATM   32  C20 UNL     1      28.268   5.295  48.356  1.00  0.00     0.031 A 
ENDBRANCH  23  26
ENDBRANCH   4  20
TORSDOF 8
ENDMDL
MODEL 3
REMARK VINA RESULT:      -8.0      2.062      2.470
REMARK  8 active torsions:
REMARK  status: ('A' for Active; 'I' for Inactive)
REMARK    1  A    between atoms: C2_2  and  C3_3 
REMARK    2  A    between atoms: C2_2  and  O3_29 
REMARK    3  A    between atoms: C3_3  and  C4_4 
REMARK    4  A    between atoms: C5_5  and  C6_6 
REMARK    5  A    between atoms: C9_11  and  O1_12 
REMARK    6  A    between atoms: O1_12  and  C10_13 
REMARK    7  A    between atoms: C13_16  and  N3_17 
REMARK       I    between atoms: N3_17  and  C14_18 
REMARK       I    between atoms: C14_18  and  N4_20 
REMARK    8  A    between atoms: N4_20  and  C15_21 
ROOT
HETATM    1  C10 UNL     1      20.994   1.281  51.322  1.00  0.00     0.178 A 
HETATM    2  C11 UNL     1      21.040   2.222  52.472  1.00  0.00     0.011 A 
HETATM    3  C12 UNL     1      21.520   3.422  52.155  1.00  0.00     0.028 A 
HETATM    4  C13 UNL     1      21.829   3.355  50.756  1.00  0.00     0.035 A 
HETATM    5  C21 UNL     1      21.550   2.159  50.230  1.00  0.00     0.039 A 
ENDROOT
BRANCH   1   6
HETATM    6  O1  UNL     1      21.816   0.177  51.544  1.00  0.00    -0.320 OA
BRANCH   6   7
HETATM    7  C9  UNL     1      21.977  -0.388  52.780  1.00  0.00     0.178 A 
HETATM    8  C6  UNL     1      23.199  -0.227  53.393  1.00  0.00     0.034 A 
HETATM    9  C7  UNL     1      23.277  -0.821  54.623  1.00  0.00     0.133 A 
HETATM   10  N1  UNL     1      22.260  -1.497  55.179  1.00  0.00    -0.253 NA
HETATM   11  C8  UNL     1      21.091  -1.629  54.546  1.00  0.00     0.235 A 
HETATM   12  N2  UNL     1      20.966  -1.067  53.344  1.00  0.00    -0.217 NA
BRANCH   8  13
HETATM   13  C5  UNL     1      24.255   0.512  52.736  1.00  0.00     0.013 C 
HETATM   14  C4  UNL     1      25.497   0.201  52.448  1.00  0.00    -0.019 C 
BRANCH  14  15
HETATM   15  C3  UNL     1      26.610  -0.741  52.466  1.00  0.00     0.090 C 
BRANCH  15  16
HETATM   16  C2  UNL     1      27.517  -0.506  53.636  1.00  0.00     0.040 C 
HETATM   17  C1  UNL     1      27.567   0.272  54.681  1.00  0.00     0.046 C 
BRANCH  16  18
HETATM   18  O3  UNL     1      28.575  -1.392  53.513  1.00  0.00    -0.361 OA
HETATM   19  C22 UNL     1      29.909  -1.057  53.748  1.00  0.00     0.209 C 
ENDBRANCH  16  18
ENDBRANCH  15  16
ENDBRANCH  14  15
ENDBRANCH   8  13
ENDBRANCH   6   7
ENDBRANCH   1   6
BRANCH   4  20
HETATM   20  N3  UNL     1      22.374   4.391  49.951  1.00  0.00    -0.309 N 
HETATM   21  C14 UNL     1      23.776   4.515  49.750  1.00  0.00     0.325 C 
HETATM   22  O2  UNL     1      24.497   3.682  50.306  1.00  0.00    -0.247 OA
HETATM   23  N4  UNL     1      24.358   5.535  48.954  1.00  0.00    -0.309 N 
HETATM   24  H13 UNL     1      23.636   6.165  48.542  1.00  0.00     0.170 HD
HETATM   25  H12 UNL     1      21.731   5.078  49.496  1.00  0.00     0.170 HD
BRANCH  23  26
HETATM   26  C15 UNL     1      25.715   5.775  48.676  1.00  0.00     0.036 A 
HETATM   27  C16 UNL     1      26.625   4.767  48.899  1.00  0.00     0.031 A 
HETATM   28  C17 UNL     1      27.970   4.921  48.650  1.00  0.00     0.021 A 
HETATM   29  C18 UNL     1      28.493   6.095  48.159  1.00  0.00     0.011 A 
HETATM   30 BR1  UNL     1      30.356   6.277  47.824  1.00  0.00    -0.051 Br
HETATM   31  C19 UNL     1      27.611   7.127  47.922  1.00  0.00     0.021 A 
HETATM   32  C20 UNL     1      26.274   6.929  48.187  1.00  0.00     0.031 A 
ENDBRANCH  23  26
ENDBRANCH   4  20
TORSDOF 8
ENDMDL
MODEL 4
REMARK VINA RESULT:      -7.8      3.356      3.970
REMARK  8 active torsions:
REMARK  status: ('A' for Active; 'I' for Inactive)
REMARK    1  A    between atoms: C2_2  and  C3_3 
REMARK    2  A    between atoms: C2_2  and  O3_29 
REMARK    3  A    between atoms: C3_3  and  C4_4 
REMARK    4  A    between atoms: C5_5  and  C6_6 
REMARK    5  A    between atoms: C9_11  and  O1_12 
REMARK    6  A    between atoms: O1_12  and  C10_13 
REMARK    7  A    between atoms: C13_16  and  N3_17 
REMARK       I    between atoms: N3_17  and  C14_18 
REMARK       I    between atoms: C14_18  and  N4_20 
REMARK    8  A    between atoms: N4_20  and  C15_21 
ROOT
HETATM    1  C10 UNL     1      24.193   3.386  49.837  1.00  0.00     0.178 A 
HETATM    2  C11 UNL     1      23.484   4.317  48.920  1.00  0.00     0.011 A 
HETATM    3  C12 UNL     1      24.201   5.392  48.599  1.00  0.00     0.028 A 
HETATM    4  C13 UNL     1      25.448   5.243  49.292  1.00  0.00     0.035 A 
HETATM    5  C21 UNL     1      25.498   4.119  50.013  1.00  0.00     0.039 A 
ENDROOT
BRANCH   1   6
HETATM    6  O1  UNL     1      23.518   3.266  51.051  1.00  0.00    -0.320 OA
BRANCH   6   7
HETATM    7  C9  UNL     1      23.030   2.073  51.511  1.00  0.00     0.178 A 
HETATM    8  C6  UNL     1      23.620   1.544  52.638  1.00  0.00     0.034 A 
HETATM    9  C7  UNL     1      23.075   0.352  53.031  1.00  0.00     0.133 A 
HETATM   10  N1  UNL     1      22.063  -0.244  52.382  1.00  0.00    -0.253 NA
HETATM   11  C8  UNL     1      21.521   0.307  51.292  1.00  0.00     0.235 A 
HETATM   12  N2  UNL     1      22.019   1.469  50.869  1.00  0.00    -0.217 NA
BRANCH   8  13
HETATM   13  C5  UNL     1      24.710   2.238  53.287  1.00  0.00     0.013 C 
HETATM   14  C4  UNL     1      26.004   2.020  53.303  1.00  0.00    -0.019 C 
BRANCH  14  15
HETATM   15  C3  UNL     1      27.169   1.242  52.898  1.00  0.00     0.090 C 
BRANCH  15  16
HETATM   16  C2  UNL     1      26.983  -0.220  53.174  1.00  0.00     0.040 C 
HETATM   17  C1  UNL     1      26.385  -1.239  52.623  1.00  0.00     0.046 C 
BRANCH  16  18
HETATM   18  O3  UNL     1      27.654  -0.499  54.352  1.00  0.00    -0.361 OA
HETATM   19  C22 UNL     1      28.687   0.284  54.871  1.00  0.00     0.209 C 
ENDBRANCH  16  18
ENDBRANCH  15  16
ENDBRANCH  14  15
ENDBRANCH   8  13
ENDBRANCH   6   7
ENDBRANCH   1   6
BRANCH   4  20
HETATM   20  N3  UNL     1      26.548   6.140  49.272  1.00  0.00    -0.309 N 
HETATM   21  C14 UNL     1      27.840   5.721  48.854  1.00  0.00     0.325 C 
HETATM   22  O2  UNL     1      27.962   4.543  48.508  1.00  0.00    -0.247 OA
HETATM   23  N4  UNL     1      28.964   6.588  48.821  1.00  0.00    -0.309 N 
HETATM   24  H13 UNL     1      28.719   7.552  49.134  1.00  0.00     0.170 HD
HETATM   25  H12 UNL     1      26.406   7.132  49.573  1.00  0.00     0.170 HD
BRANCH  23  26
HETATM   26  C15 UNL     1      30.286   6.308  48.436  1.00  0.00     0.036 A 
HETATM   27  C16 UNL     1      30.642   6.470  47.116  1.00  0.00     0.031 A 
HETATM   28  C17 UNL     1      31.915   6.219  46.660  1.00  0.00     0.021 A 
HETATM   29  C18 UNL     1      32.920   5.790  47.496  1.00  0.00     0.011 A 
HETATM   30 BR1  UNL     1      34.671   5.452  46.836  1.00  0.00    -0.051 Br
HETATM   31  C19 UNL     1      32.602   5.616  48.826  1.00  0.00     0.021 A 
HETATM   32  C20 UNL     1      31.315   5.878  49.238  1.00  0.00     0.031 A 
ENDBRANCH  23  26
ENDBRANCH   4  20
TORSDOF 8
ENDMDL
MODEL 5
REMARK VINA RESULT:      -7.7      2.855      4.286
REMARK  8 active torsions:
REMARK  status: ('A' for Active; 'I' for Inactive)
REMARK    1  A    between atoms: C2_2  and  C3_3 
REMARK    2  A    between atoms: C2_2  and  O3_29 
REMARK    3  A    between atoms: C3_3  and  C4_4 
REMARK    4  A    between atoms: C5_5  and  C6_6 
REMARK    5  A    between atoms: C9_11  and  O1_12 
REMARK    6  A    between atoms: O1_12  and  C10_13 
REMARK    7  A    between atoms: C13_16  and  N3_17 
REMARK       I    between atoms: N3_17  and  C14_18 
REMARK       I    between atoms: C14_18  and  N4_20 
REMARK    8  A    between atoms: N4_20  and  C15_21 
ROOT
HETATM    1  C10 UNL     1      24.015   5.830  49.929  1.00  0.00     0.178 A 
HETATM    2  C11 UNL     1      23.305   7.135  49.949  1.00  0.00     0.011 A 
HETATM    3  C12 UNL     1      24.098   8.164  50.240  1.00  0.00     0.028 A 
HETATM    4  C13 UNL     1      25.403   7.601  50.435  1.00  0.00     0.035 A 
HETATM    5  C21 UNL     1      25.414   6.275  50.271  1.00  0.00     0.039 A 
ENDROOT
BRANCH   1   6
HETATM    6  O1  UNL     1      23.511   4.969  50.903  1.00  0.00    -0.320 OA
BRANCH   6   7
HETATM    7  C9  UNL     1      23.072   3.705  50.617  1.00  0.00     0.178 A 
HETATM    8  C6  UNL     1      23.318   2.725  51.553  1.00  0.00     0.034 A 
HETATM    9  C7  UNL     1      22.847   1.492  51.191  1.00  0.00     0.133 A 
HETATM   10  N1  UNL     1      22.207   1.260  50.035  1.00  0.00    -0.253 NA
HETATM   11  C8  UNL     1      21.990   2.243  49.156  1.00  0.00     0.235 A 
HETATM   12  N2  UNL     1      22.431   3.463  49.463  1.00  0.00    -0.217 NA
BRANCH   8  13
HETATM   13  C5  UNL     1      24.017   3.043  52.778  1.00  0.00     0.013 C 
HETATM   14  C4  UNL     1      25.065   2.507  53.356  1.00  0.00    -0.019 C 
BRANCH  14  15
HETATM   15  C3  UNL     1      26.131   1.512  53.388  1.00  0.00     0.090 C 
BRANCH  15  16
HETATM   16  C2  UNL     1      25.657   0.209  53.959  1.00  0.00     0.040 C 
HETATM   17  C1  UNL     1      24.620  -0.574  53.851  1.00  0.00     0.046 C 
BRANCH  16  18
HETATM   18  O3  UNL     1      26.636  -0.230  54.834  1.00  0.00    -0.361 OA
HETATM   19  C22 UNL     1      27.975   0.156  54.771  1.00  0.00     0.209 C 
ENDBRANCH  16  18
ENDBRANCH  15  16
ENDBRANCH  14  15
ENDBRANCH   8  13
ENDBRANCH   6   7
ENDBRANCH   1   6
BRANCH   4  20
HETATM   20  N3  UNL     1      26.593   8.299  50.771  1.00  0.00    -0.309 N 
HETATM   21  C14 UNL     1      27.510   8.725  49.772  1.00  0.00     0.325 C 
HETATM   22  O2  UNL     1      27.225   8.461  48.601  1.00  0.00    -0.247 OA
HETATM   23  N4  UNL     1      28.710   9.424  50.068  1.00  0.00    -0.309 N 
HETATM   24  H13 UNL     1      28.823   9.584  51.093  1.00  0.00     0.170 HD
HETATM   25  H12 UNL     1      26.800   8.505  51.775  1.00  0.00     0.170 HD
BRANCH  23  26
HETATM   26  C15 UNL     1      29.698   9.897  49.188  1.00  0.00     0.036 A 
HETATM   27  C16 UNL     1      30.462   8.985  48.497  1.00  0.00     0.031 A 
HETATM   28  C17 UNL     1      31.448   9.366  47.615  1.00  0.00     0.021 A 
HETATM   29  C18 UNL     1      31.733  10.689  47.366  1.00  0.00     0.011 A 
HETATM   30 BR1  UNL     1      33.101  11.185  46.141  1.00  0.00    -0.051 Br
HETATM   31  C19 UNL     1      30.988  11.632  48.040  1.00  0.00     0.021 A 
HETATM   32  C20 UNL     1      30.012  11.205  48.913  1.00  0.00     0.031 A 
ENDBRANCH  23  26
ENDBRANCH   4  20
TORSDOF 8
ENDMDL
MODEL 6
REMARK VINA RESULT:      -7.4      3.486      3.620
REMARK  8 active torsions:
REMARK  status: ('A' for Active; 'I' for Inactive)
REMARK    1  A    between atoms: C2_2  and  C3_3 
REMARK    2  A    between atoms: C2_2  and  O3_29 
REMARK    3  A    between atoms: C3_3  and  C4_4 
REMARK    4  A    between atoms: C5_5  and  C6_6 
REMARK    5  A    between atoms: C9_11  and  O1_12 
REMARK    6  A    between atoms: O1_12  and  C10_13 
REMARK    7  A    between atoms: C13_16  and  N3_17 
REMARK       I    between atoms: N3_17  and  C14_18 
REMARK       I    between atoms: C14_18  and  N4_20 
REMARK    8  A    between atoms: N4_20  and  C15_21 
ROOT
HETATM    1  C10 UNL     1      23.408   2.319  52.027  1.00  0.00     0.178 A 
HETATM    2  C11 UNL     1      24.491   2.681  51.075  1.00  0.00     0.011 A 
HETATM    3  C12 UNL     1      24.090   3.498  50.103  1.00  0.00     0.028 A 
HETATM    4  C13 UNL     1      22.697   3.734  50.350  1.00  0.00     0.035 A 
HETATM    5  C21 UNL     1      22.255   3.087  51.432  1.00  0.00     0.039 A 
ENDROOT
BRANCH   1   6
HETATM    6  O1  UNL     1      23.160   0.947  52.006  1.00  0.00    -0.320 OA
BRANCH   6   7
HETATM    7  C9  UNL     1      22.756   0.252  53.113  1.00  0.00     0.178 A 
HETATM    8  C6  UNL     1      23.693  -0.544  53.735  1.00  0.00     0.034 A 
HETATM    9  C7  UNL     1      23.209  -1.204  54.831  1.00  0.00     0.133 A 
HETATM   10  N1  UNL     1      21.943  -1.087  55.261  1.00  0.00    -0.253 NA
HETATM   11  C8  UNL     1      21.068  -0.301  54.626  1.00  0.00     0.235 A 
HETATM   12  N2  UNL     1      21.492   0.362  53.550  1.00  0.00    -0.217 NA
BRANCH   8  13
HETATM   13  C5  UNL     1      25.040  -0.627  53.217  1.00  0.00     0.013 C 
HETATM   14  C4  UNL     1      26.197  -0.256  53.714  1.00  0.00    -0.019 C 
BRANCH  14  15
HETATM   15  C3  UNL     1      26.991   0.341  54.782  1.00  0.00     0.090 C 
BRANCH  15  16
HETATM   16  C2  UNL     1      28.285   0.896  54.266  1.00  0.00     0.040 C 
HETATM   17  C1  UNL     1      28.701   1.966  53.649  1.00  0.00     0.046 C 
BRANCH  16  18
HETATM   18  O3  UNL     1      29.269  -0.035  54.557  1.00  0.00    -0.361 OA
HETATM   19  C22 UNL     1      29.863  -0.869  53.609  1.00  0.00     0.209 C 
ENDBRANCH  16  18
ENDBRANCH  15  16
ENDBRANCH  14  15
ENDBRANCH   8  13
ENDBRANCH   6   7
ENDBRANCH   1   6
BRANCH   4  20
HETATM   20  N3  UNL     1      21.819   4.542  49.580  1.00  0.00    -0.309 N 
HETATM   21  C14 UNL     1      21.756   5.950  49.761  1.00  0.00     0.325 C 
HETATM   22  O2  UNL     1      22.499   6.439  50.616  1.00  0.00    -0.247 OA
HETATM   23  N4  UNL     1      20.891   6.791  49.012  1.00  0.00    -0.309 N 
HETATM   24  H13 UNL     1      20.323   6.249  48.325  1.00  0.00     0.170 HD
HETATM   25  H12 UNL     1      21.203   4.091  48.865  1.00  0.00     0.170 HD
BRANCH  23  26
HETATM   26  C15 UNL     1      20.726   8.184  49.089  1.00  0.00     0.036 A 
HETATM   27  C16 UNL     1      21.652   8.997  48.476  1.00  0.00     0.031 A 
HETATM   28  C17 UNL     1      21.561  10.370  48.503  1.00  0.00     0.021 A 
HETATM   29  C18 UNL     1      20.534  11.021  49.147  1.00  0.00     0.011 A 
HETATM   30 BR1  UNL     1      20.435  12.920  49.167  1.00  0.00    -0.051 Br
HETATM   31  C19 UNL     1      19.586  10.240  49.773  1.00  0.00     0.021 A 
HETATM   32  C20 UNL     1      19.718   8.870  49.720  1.00  0.00     0.031 A 
ENDBRANCH  23  26
ENDBRANCH   4  20
TORSDOF 8
ENDMDL
MODEL 7
REMARK VINA RESULT:      -7.4      2.738      3.428
REMARK  8 active torsions:
REMARK  status: ('A' for Active; 'I' for Inactive)
REMARK    1  A    between atoms: C2_2  and  C3_3 
REMARK    2  A    between atoms: C2_2  and  O3_29 
REMARK    3  A    between atoms: C3_3  and  C4_4 
REMARK    4  A    between atoms: C5_5  and  C6_6 
REMARK    5  A    between atoms: C9_11  and  O1_12 
REMARK    6  A    between atoms: O1_12  and  C10_13 
REMARK    7  A    between atoms: C13_16  and  N3_17 
REMARK       I    between atoms: N3_17  and  C14_18 
REMARK       I    between atoms: C14_18  and  N4_20 
REMARK    8  A    between atoms: N4_20  and  C15_21 
ROOT
HETATM    1  C10 UNL     1      24.122   3.528  49.548  1.00  0.00     0.178 A 
HETATM    2  C11 UNL     1      23.970   4.941  49.114  1.00  0.00     0.011 A 
HETATM    3  C12 UNL     1      25.131   5.551  48.882  1.00  0.00     0.028 A 
HETATM    4  C13 UNL     1      26.141   4.569  49.150  1.00  0.00     0.035 A 
HETATM    5  C21 UNL     1      25.623   3.398  49.535  1.00  0.00     0.039 A 
ENDROOT
BRANCH   1   6
HETATM    6  O1  UNL     1      23.615   3.341  50.834  1.00  0.00    -0.320 OA
BRANCH   6   7
HETATM    7  C9  UNL     1      23.024   2.173  51.233  1.00  0.00     0.178 A 
HETATM    8  C6  UNL     1      23.525   1.567  52.364  1.00  0.00     0.034 A 
HETATM    9  C7  UNL     1      22.880   0.406  52.694  1.00  0.00     0.133 A 
HETATM   10  N1  UNL     1      21.858  -0.094  51.984  1.00  0.00    -0.253 NA
HETATM   11  C8  UNL     1      21.404   0.529  50.892  1.00  0.00     0.235 A 
HETATM   12  N2  UNL     1      22.001   1.664  50.529  1.00  0.00    -0.217 NA
BRANCH   8  13
HETATM   13  C5  UNL     1      24.633   2.159  53.081  1.00  0.00     0.013 C 
HETATM   14  C4  UNL     1      25.931   2.008  52.971  1.00  0.00    -0.019 C 
BRANCH  14  15
HETATM   15  C3  UNL     1      27.092   1.393  52.337  1.00  0.00     0.090 C 
BRANCH  15  16
HETATM   16  C2  UNL     1      27.253  -0.041  52.745  1.00  0.00     0.040 C 
HETATM   17  C1  UNL     1      26.599  -1.161  52.621  1.00  0.00     0.046 C 
BRANCH  16  18
HETATM   18  O3  UNL     1      28.445  -0.131  53.445  1.00  0.00    -0.361 OA
HETATM   19  C22 UNL     1      29.265  -1.260  53.454  1.00  0.00     0.209 C 
ENDBRANCH  16  18
ENDBRANCH  15  16
ENDBRANCH  14  15
ENDBRANCH   8  13
ENDBRANCH   6   7
ENDBRANCH   1   6
BRANCH   4  20
HETATM   20  N3  UNL     1      27.547   4.741  49.050  1.00  0.00    -0.309 N 
HETATM   21  C14 UNL     1      28.115   5.957  48.584  1.00  0.00     0.325 C 
HETATM   22  O2  UNL     1      27.331   6.858  48.271  1.00  0.00    -0.247 OA
HETATM   23  N4  UNL     1      29.514   6.167  48.469  1.00  0.00    -0.309 N 
HETATM   24  H13 UNL     1      30.057   5.329  48.769  1.00  0.00     0.170 HD
HETATM   25  H12 UNL     1      28.180   3.954  49.324  1.00  0.00     0.170 HD
BRANCH  23  26
HETATM   26  C15 UNL     1      30.204   7.307  48.025  1.00  0.00     0.036 A 
HETATM   27  C16 UNL     1      30.648   8.219  48.956  1.00  0.00     0.031 A 
HETATM   28  C17 UNL     1      31.332   9.359  48.602  1.00  0.00     0.021 A 
HETATM   29  C18 UNL     1      31.621   9.662  47.292  1.00  0.00     0.011 A 
HETATM   30 BR1  UNL     1      32.570  11.246  46.835  1.00  0.00    -0.051 Br
HETATM   31  C19 UNL     1      31.193   8.772  46.330  1.00  0.00     0.021 A 
HETATM   32  C20 UNL     1      30.510   7.645  46.729  1.00  0.00     0.031 A 
ENDBRANCH  23  26
ENDBRANCH   4  20
TORSDOF 8
ENDMDL
MODEL 8
REMARK VINA RESULT:      -7.4      3.930      5.042
REMARK  8 active torsions:
REMARK  status: ('A' for Active; 'I' for Inactive)
REMARK    1  A    between atoms: C2_2  and  C3_3 
REMARK    2  A    between atoms: C2_2  and  O3_29 
REMARK    3  A    between atoms: C3_3  and  C4_4 
REMARK    4  A    between atoms: C5_5  and  C6_6 
REMARK    5  A    between atoms: C9_11  and  O1_12 
REMARK    6  A    between atoms: O1_12  and  C10_13 
REMARK    7  A    between atoms: C13_16  and  N3_17 
REMARK       I    between atoms: N3_17  and  C14_18 
REMARK       I    between atoms: C14_18  and  N4_20 
REMARK    8  A    between atoms: N4_20  and  C15_21 
ROOT
HETATM    1  C10 UNL     1      23.882   4.979  49.620  1.00  0.00     0.178 A 
HETATM    2  C11 UNL     1      24.151   5.999  50.668  1.00  0.00     0.011 A 
HETATM    3  C12 UNL     1      25.254   6.710  50.444  1.00  0.00     0.028 A 
HETATM    4  C13 UNL     1      25.796   6.201  49.217  1.00  0.00     0.035 A 
HETATM    5  C21 UNL     1      25.056   5.214  48.705  1.00  0.00     0.039 A 
ENDROOT
BRANCH   1   6
HETATM    6  O1  UNL     1      23.912   3.692  50.154  1.00  0.00    -0.320 OA
BRANCH   6   7
HETATM    7  C9  UNL     1      23.033   2.713  49.776  1.00  0.00     0.178 A 
HETATM    8  C6  UNL     1      22.534   1.897  50.767  1.00  0.00     0.034 A 
HETATM    9  C7  UNL     1      21.664   0.947  50.305  1.00  0.00     0.133 A 
HETATM   10  N1  UNL     1      21.328   0.823  49.012  1.00  0.00    -0.253 NA
HETATM   11  C8  UNL     1      21.837   1.639  48.085  1.00  0.00     0.235 A 
HETATM   12  N2  UNL     1      22.691   2.581  48.485  1.00  0.00    -0.217 NA
BRANCH   8  13
HETATM   13  C5  UNL     1      22.940   2.083  52.142  1.00  0.00     0.013 C 
HETATM   14  C4  UNL     1      23.868   1.507  52.869  1.00  0.00    -0.019 C 
BRANCH  14  15
HETATM   15  C3  UNL     1      24.951   0.542  53.020  1.00  0.00     0.090 C 
BRANCH  15  16
HETATM   16  C2  UNL     1      26.092   0.839  52.094  1.00  0.00     0.040 C 
HETATM   17  C1  UNL     1      26.616   1.878  51.507  1.00  0.00     0.046 C 
BRANCH  16  18
HETATM   18  O3  UNL     1      26.721  -0.366  51.827  1.00  0.00    -0.361 OA
HETATM   19  C22 UNL     1      27.092  -1.290  52.804  1.00  0.00     0.209 C 
ENDBRANCH  16  18
ENDBRANCH  15  16
ENDBRANCH  14  15
ENDBRANCH   8  13
ENDBRANCH   6   7
ENDBRANCH   1   6
BRANCH   4  20
HETATM   20  N3  UNL     1      26.978   6.635  48.561  1.00  0.00    -0.309 N 
HETATM   21  C14 UNL     1      28.157   5.842  48.553  1.00  0.00     0.325 C 
HETATM   22  O2  UNL     1      28.108   4.758  49.141  1.00  0.00    -0.247 OA
HETATM   23  N4  UNL     1      29.358   6.242  47.909  1.00  0.00    -0.309 N 
HETATM   24  H13 UNL     1      29.259   7.173  47.449  1.00  0.00     0.170 HD
HETATM   25  H12 UNL     1      26.982   7.561  48.073  1.00  0.00     0.170 HD
BRANCH  23  26
HETATM   26  C15 UNL     1      30.585   5.564  47.826  1.00  0.00     0.036 A 
HETATM   27  C16 UNL     1      31.667   6.062  48.516  1.00  0.00     0.031 A 
HETATM   28  C17 UNL     1      32.902   5.456  48.489  1.00  0.00     0.021 A 
HETATM   29  C18 UNL     1      33.137   4.308  47.768  1.00  0.00     0.011 A 
HETATM   30 BR1  UNL     1      34.855   3.493  47.750  1.00  0.00    -0.051 Br
HETATM   31  C19 UNL     1      32.077   3.778  47.063  1.00  0.00     0.021 A 
HETATM   32  C20 UNL     1      30.859   4.419  47.119  1.00  0.00     0.031 A 
ENDBRANCH  23  26
ENDBRANCH   4  20
TORSDOF 8
ENDMDL
MODEL 9
REMARK VINA RESULT:      -7.3      2.780      4.417
REMARK  8 active torsions:
REMARK  status: ('A' for Active; 'I' for Inactive)
REMARK    1  A    between atoms: C2_2  and  C3_3 
REMARK    2  A    between atoms: C2_2  and  O3_29 
REMARK    3  A    between atoms: C3_3  and  C4_4 
REMARK    4  A    between atoms: C5_5  and  C6_6 
REMARK    5  A    between atoms: C9_11  and  O1_12 
REMARK    6  A    between atoms: O1_12  and  C10_13 
REMARK    7  A    between atoms: C13_16  and  N3_17 
REMARK       I    between atoms: N3_17  and  C14_18 
REMARK       I    between atoms: C14_18  and  N4_20 
REMARK    8  A    between atoms: N4_20  and  C15_21 
ROOT
HETATM    1  C10 UNL     1      24.613   5.592  49.619  1.00  0.00     0.178 A 
HETATM    2  C11 UNL     1      23.799   6.571  50.386  1.00  0.00     0.011 A 
HETATM    3  C12 UNL     1      24.482   7.654  50.753  1.00  0.00     0.028 A 
HETATM    4  C13 UNL     1      25.810   7.461  50.248  1.00  0.00     0.035 A 
HETATM    5  C21 UNL     1      25.942   6.303  49.594  1.00  0.00     0.039 A 
ENDROOT
BRANCH   1   6
HETATM    6  O1  UNL     1      24.708   4.377  50.297  1.00  0.00    -0.320 OA
BRANCH   6   7
HETATM    7  C9  UNL     1      23.767   3.390  50.181  1.00  0.00     0.178 A 
HETATM    8  C6  UNL     1      23.275   2.847  51.347  1.00  0.00     0.034 A 
HETATM    9  C7  UNL     1      22.341   1.868  51.143  1.00  0.00     0.133 A 
HETATM   10  N1  UNL     1      21.941   1.476  49.924  1.00  0.00    -0.253 NA
HETATM   11  C8  UNL     1      22.446   2.033  48.819  1.00  0.00     0.235 A 
HETATM   12  N2  UNL     1      23.361   2.991  48.965  1.00  0.00    -0.217 NA
BRANCH   8  13
HETATM   13  C5  UNL     1      23.753   3.315  52.629  1.00  0.00     0.013 C 
HETATM   14  C4  UNL     1      24.756   2.935  53.385  1.00  0.00    -0.019 C 
BRANCH  14  15
HETATM   15  C3  UNL     1      25.902   2.070  53.638  1.00  0.00     0.090 C 
BRANCH  15  16
HETATM   16  C2  UNL     1      26.691   1.814  52.389  1.00  0.00     0.040 C 
HETATM   17  C1  UNL     1      26.540   1.173  51.264  1.00  0.00     0.046 C 
BRANCH  16  18
HETATM   18  O3  UNL     1      27.905   2.465  52.536  1.00  0.00    -0.361 OA
HETATM   19  C22 UNL     1      28.689   2.411  53.689  1.00  0.00     0.209 C 
ENDBRANCH  16  18
ENDBRANCH  15  16
ENDBRANCH  14  15
ENDBRANCH   8  13
ENDBRANCH   6   7
ENDBRANCH   1   6
BRANCH   4  20
HETATM   20  N3  UNL     1      26.913   8.344  50.387  1.00  0.00    -0.309 N 
HETATM   21  C14 UNL     1      27.121   9.420  49.482  1.00  0.00     0.325 C 
HETATM   22  O2  UNL     1      26.300   9.552  48.571  1.00  0.00    -0.247 OA
HETATM   23  N4  UNL     1      28.212  10.323  49.587  1.00  0.00    -0.309 N 
HETATM   24  H13 UNL     1      28.823  10.098  50.402  1.00  0.00     0.170 HD
HETATM   25  H12 UNL     1      27.589   8.199  51.172  1.00  0.00     0.170 HD
BRANCH  23  26
HETATM   26  C15 UNL     1      28.536  11.417  48.768  1.00  0.00     0.036 A 
HETATM   27  C16 UNL     1      27.879  12.610  48.964  1.00  0.00     0.031 A 
HETATM   28  C17 UNL     1      28.140  13.729  48.206  1.00  0.00     0.021 A 
HETATM   29  C18 UNL     1      29.080  13.728  47.201  1.00  0.00     0.011 A 
HETATM   30 BR1  UNL     1      29.420  15.290  46.171  1.00  0.00    -0.051 Br
HETATM   31  C19 UNL     1      29.760  12.550  46.976  1.00  0.00     0.021 A 
HETATM   32  C20 UNL     1      29.466  11.455  47.758  1.00  0.00     0.031 A 
ENDBRANCH  23  26
ENDBRANCH   4  20
TORSDOF 8
ENDMDL
