MODEL 1
REMARK VINA RESULT:      -9.6      0.000      0.000
REMARK  6 active torsions:
REMARK  status: ('A' for Active; 'I' for Inactive)
REMARK    1  A    between atoms: C7_11  and  N3_12 
REMARK    2  A    between atoms: N3_12  and  C8_13 
REMARK    3  A    between atoms: C12_17  and  C13_18 
REMARK    4  A    between atoms: N4_26  and  C18_27 
REMARK    5  A    between atoms: C18_27  and  C19_28 
REMARK    6  A    between atoms: C19_28  and  N5_29 
ROOT
HETATM    1  O1  UNL     1      23.048  -1.438  55.820  1.00  0.00    -0.271 OA
HETATM    2  C1  UNL     1      22.568  -1.211  54.678  1.00  0.00     0.248 C 
HETATM    3  C2  UNL     1      21.283  -1.830  54.256  1.00  0.00     0.279 C 
HETATM    4  O2  UNL     1      20.569  -0.917  53.404  1.00  0.00    -0.340 OA
HETATM    5  C3  UNL     1      21.255  -0.049  52.564  1.00  0.00     0.098 A 
HETATM    6  C4  UNL     1      20.511   0.477  51.546  1.00  0.00     0.071 A 
HETATM    7  C5  UNL     1      21.114   1.351  50.660  1.00  0.00     0.075 A 
HETATM    8  N1  UNL     1      20.436   1.909  49.632  1.00  0.00    -0.241 NA
HETATM    9  C6  UNL     1      21.002   2.763  48.760  1.00  0.00     0.236 A 
HETATM   10  N2  UNL     1      22.314   3.097  48.898  1.00  0.00    -0.224 NA
HETATM   11  C7  UNL     1      23.044   2.569  49.911  1.00  0.00     0.142 A 
HETATM   12  C15 UNL     1      22.442   1.681  50.811  1.00  0.00     0.041 A 
HETATM   13  C16 UNL     1      23.133   1.120  51.853  1.00  0.00     0.050 A 
HETATM   14  C17 UNL     1      22.599   0.244  52.771  1.00  0.00     0.071 A 
HETATM   15  N4  UNL     1      23.362  -0.325  53.857  1.00  0.00    -0.312 N 
ENDROOT
BRANCH  11  16
HETATM   16  N3  UNL     1      24.414   2.841  50.161  1.00  0.00    -0.340 N 
HETATM   17  H5  UNL     1      25.162   2.142  50.331  1.00  0.00     0.167 HD
BRANCH  16  18
HETATM   18  C8  UNL     1      24.755   4.223  50.171  1.00  0.00     0.034 A 
HETATM   19  C9  UNL     1      24.141   5.120  51.021  1.00  0.00     0.029 A 
HETATM   20  C10 UNL     1      24.474   6.460  51.036  1.00  0.00     0.003 A 
HETATM   21  C11 UNL     1      25.452   6.955  50.185  1.00  0.00     0.016 A 
HETATM   22  C12 UNL     1      26.071   6.071  49.334  1.00  0.00     0.050 A 
HETATM   23  C14 UNL     1      25.721   4.735  49.337  1.00  0.00     0.045 A 
BRANCH  22  24
HETATM   24  C13 UNL     1      27.132   6.558  48.409  1.00  0.00     0.417 C 
HETATM   25  F1  UNL     1      27.912   7.520  49.061  1.00  0.00    -0.166 F 
HETATM   26  F2  UNL     1      26.617   7.158  47.296  1.00  0.00    -0.166 F 
HETATM   27  F3  UNL     1      28.000   5.549  48.055  1.00  0.00    -0.166 F 
ENDBRANCH  22  24
ENDBRANCH  16  18
ENDBRANCH  11  16
BRANCH  15  28
HETATM   28  C18 UNL     1      24.728  -0.002  54.006  1.00  0.00     0.151 C 
BRANCH  28  29
HETATM   29  C19 UNL     1      25.731  -0.713  53.174  1.00  0.00     0.137 C 
BRANCH  29  30
HETATM   30  N5  UNL     1      26.949  -0.163  52.865  1.00  0.00    -0.407 N 
HETATM   31  C20 UNL     1      28.124  -0.592  53.428  1.00  0.00     0.143 C 
HETATM   32  C21 UNL     1      29.064   0.489  53.922  1.00  0.00     0.187 C 
HETATM   33  O3  UNL     1      29.087   1.581  53.058  1.00  0.00    -0.388 OA
HETATM   34  C22 UNL     1      27.789   2.087  53.051  1.00  0.00     0.187 C 
HETATM   35  C23 UNL     1      26.927   1.114  52.288  1.00  0.00     0.143 C 
ENDBRANCH  29  30
ENDBRANCH  28  29
ENDBRANCH  15  28
TORSDOF 6
ENDMDL
MODEL 2
REMARK VINA RESULT:      -9.4      4.096      6.452
REMARK  6 active torsions:
REMARK  status: ('A' for Active; 'I' for Inactive)
REMARK    1  A    between atoms: C7_11  and  N3_12 
REMARK    2  A    between atoms: N3_12  and  C8_13 
REMARK    3  A    between atoms: C12_17  and  C13_18 
REMARK    4  A    between atoms: N4_26  and  C18_27 
REMARK    5  A    between atoms: C18_27  and  C19_28 
REMARK    6  A    between atoms: C19_28  and  N5_29 
ROOT
HETATM    1  O1  UNL     1      27.247   2.169  51.589  1.00  0.00    -0.271 OA
HETATM    2  C1  UNL     1      26.376   2.912  51.062  1.00  0.00     0.248 C 
HETATM    3  C2  UNL     1      26.700   3.729  49.862  1.00  0.00     0.279 C 
HETATM    4  O2  UNL     1      25.538   3.820  49.018  1.00  0.00    -0.340 OA
HETATM    5  C3  UNL     1      24.262   3.828  49.567  1.00  0.00     0.098 A 
HETATM    6  C4  UNL     1      23.281   4.301  48.742  1.00  0.00     0.071 A 
HETATM    7  C5  UNL     1      21.980   4.346  49.207  1.00  0.00     0.075 A 
HETATM    8  N1  UNL     1      20.961   4.800  48.442  1.00  0.00    -0.241 NA
HETATM    9  C6  UNL     1      19.688   4.850  48.874  1.00  0.00     0.236 A 
HETATM   10  N2  UNL     1      19.386   4.431  50.133  1.00  0.00    -0.224 NA
HETATM   11  C7  UNL     1      20.367   3.965  50.945  1.00  0.00     0.142 A 
HETATM   12  C15 UNL     1      21.687   3.919  50.483  1.00  0.00     0.041 A 
HETATM   13  C16 UNL     1      22.715   3.455  51.261  1.00  0.00     0.050 A 
HETATM   14  C17 UNL     1      24.032   3.382  50.864  1.00  0.00     0.071 A 
HETATM   15  N4  UNL     1      25.088   2.886  51.716  1.00  0.00    -0.312 N 
ENDROOT
BRANCH  11  16
HETATM   16  N3  UNL     1      20.177   3.498  52.272  1.00  0.00    -0.340 N 
HETATM   17  H5  UNL     1      20.245   4.061  53.141  1.00  0.00     0.167 HD
BRANCH  16  18
HETATM   18  C8  UNL     1      19.865   2.113  52.378  1.00  0.00     0.034 A 
HETATM   19  C9  UNL     1      18.809   1.548  51.693  1.00  0.00     0.029 A 
HETATM   20  C10 UNL     1      18.508   0.204  51.791  1.00  0.00     0.003 A 
HETATM   21  C11 UNL     1      19.270  -0.634  52.592  1.00  0.00     0.016 A 
HETATM   22  C12 UNL     1      20.325  -0.083  53.279  1.00  0.00     0.050 A 
HETATM   23  C14 UNL     1      20.607   1.264  53.166  1.00  0.00     0.045 A 
BRANCH  22  24
HETATM   24  C13 UNL     1      21.175  -0.948  54.145  1.00  0.00     0.417 C 
HETATM   25  F1  UNL     1      22.277  -1.400  53.409  1.00  0.00    -0.166 F 
HETATM   26  F2  UNL     1      20.513  -2.058  54.582  1.00  0.00    -0.166 F 
HETATM   27  F3  UNL     1      21.697  -0.246  55.208  1.00  0.00    -0.166 F 
ENDBRANCH  22  24
ENDBRANCH  16  18
ENDBRANCH  11  16
BRANCH  15  28
HETATM   28  C18 UNL     1      24.795   2.462  53.030  1.00  0.00     0.151 C 
BRANCH  28  29
HETATM   29  C19 UNL     1      24.538   1.022  53.282  1.00  0.00     0.137 C 
BRANCH  29  30
HETATM   30  N5  UNL     1      25.487   0.191  53.822  1.00  0.00    -0.407 N 
HETATM   31  C20 UNL     1      26.401   0.611  54.754  1.00  0.00     0.143 C 
HETATM   32  C21 UNL     1      27.839   0.191  54.521  1.00  0.00     0.187 C 
HETATM   33  O3  UNL     1      27.917  -1.112  54.035  1.00  0.00    -0.388 OA
HETATM   34  C22 UNL     1      27.250  -1.103  52.812  1.00  0.00     0.187 C 
HETATM   35  C23 UNL     1      25.776  -0.975  53.101  1.00  0.00     0.143 C 
ENDBRANCH  29  30
ENDBRANCH  28  29
ENDBRANCH  15  28
TORSDOF 6
ENDMDL
MODEL 3
REMARK VINA RESULT:      -9.2      4.135      7.008
REMARK  6 active torsions:
REMARK  status: ('A' for Active; 'I' for Inactive)
REMARK    1  A    between atoms: C7_11  and  N3_12 
REMARK    2  A    between atoms: N3_12  and  C8_13 
REMARK    3  A    between atoms: C12_17  and  C13_18 
REMARK    4  A    between atoms: N4_26  and  C18_27 
REMARK    5  A    between atoms: C18_27  and  C19_28 
REMARK    6  A    between atoms: C19_28  and  N5_29 
ROOT
HETATM    1  O1  UNL     1      28.766   2.039  52.991  1.00  0.00    -0.271 OA
HETATM    2  C1  UNL     1      27.956   1.143  53.350  1.00  0.00     0.248 C 
HETATM    3  C2  UNL     1      28.309   0.188  54.434  1.00  0.00     0.279 C 
HETATM    4  O2  UNL     1      27.127  -0.143  55.184  1.00  0.00    -0.340 OA
HETATM    5  C3  UNL     1      25.885  -0.191  54.564  1.00  0.00     0.098 A 
HETATM    6  C4  UNL     1      24.923  -0.878  55.250  1.00  0.00     0.071 A 
HETATM    7  C5  UNL     1      23.656  -0.977  54.706  1.00  0.00     0.075 A 
HETATM    8  N1  UNL     1      22.658  -1.640  55.333  1.00  0.00    -0.241 NA
HETATM    9  C6  UNL     1      21.417  -1.747  54.822  1.00  0.00     0.236 A 
HETATM   10  N2  UNL     1      21.129  -1.172  53.623  1.00  0.00    -0.224 NA
HETATM   11  C7  UNL     1      22.091  -0.494  52.949  1.00  0.00     0.142 A 
HETATM   12  C15 UNL     1      23.377  -0.391  53.491  1.00  0.00     0.041 A 
HETATM   13  C16 UNL     1      24.385   0.284  52.853  1.00  0.00     0.050 A 
HETATM   14  C17 UNL     1      25.668   0.423  53.335  1.00  0.00     0.071 A 
HETATM   15  N4  UNL     1      26.703   1.144  52.631  1.00  0.00    -0.312 N 
ENDROOT
BRANCH  11  16
HETATM   16  N3  UNL     1      21.913   0.149  51.696  1.00  0.00    -0.340 N 
HETATM   17  H5  UNL     1      22.523   0.055  50.861  1.00  0.00     0.167 HD
BRANCH  16  18
HETATM   18  C8  UNL     1      20.775   1.000  51.619  1.00  0.00     0.034 A 
HETATM   19  C9  UNL     1      20.769   2.263  52.174  1.00  0.00     0.029 A 
HETATM   20  C10 UNL     1      19.667   3.091  52.096  1.00  0.00     0.003 A 
HETATM   21  C11 UNL     1      18.514   2.675  51.446  1.00  0.00     0.016 A 
HETATM   22  C12 UNL     1      18.508   1.419  50.889  1.00  0.00     0.050 A 
HETATM   23  C14 UNL     1      19.623   0.608  50.980  1.00  0.00     0.045 A 
BRANCH  22  24
HETATM   24  C13 UNL     1      17.294   0.934  50.174  1.00  0.00     0.417 C 
HETATM   25  F1  UNL     1      17.137   1.654  48.984  1.00  0.00    -0.166 F 
HETATM   26  F2  UNL     1      16.154   1.121  50.900  1.00  0.00    -0.166 F 
HETATM   27  F3  UNL     1      17.418  -0.386  49.800  1.00  0.00    -0.166 F 
ENDBRANCH  22  24
ENDBRANCH  16  18
ENDBRANCH  11  16
BRANCH  15  28
HETATM   28  C18 UNL     1      26.426   1.733  51.378  1.00  0.00     0.151 C 
BRANCH  28  29
HETATM   29  C19 UNL     1      25.872   3.109  51.336  1.00  0.00     0.137 C 
BRANCH  29  30
HETATM   30  N5  UNL     1      24.547   3.359  51.083  1.00  0.00    -0.407 N 
HETATM   31  C20 UNL     1      23.989   3.233  49.837  1.00  0.00     0.143 C 
HETATM   32  C21 UNL     1      23.091   4.367  49.386  1.00  0.00     0.187 C 
HETATM   33  O3  UNL     1      22.307   4.845  50.433  1.00  0.00    -0.388 OA
HETATM   34  C22 UNL     1      23.199   5.332  51.385  1.00  0.00     0.187 C 
HETATM   35  C23 UNL     1      23.871   4.146  52.026  1.00  0.00     0.143 C 
ENDBRANCH  29  30
ENDBRANCH  28  29
ENDBRANCH  15  28
TORSDOF 6
ENDMDL
MODEL 4
REMARK VINA RESULT:      -9.2      3.517      6.341
REMARK  6 active torsions:
REMARK  status: ('A' for Active; 'I' for Inactive)
REMARK    1  A    between atoms: C7_11  and  N3_12 
REMARK    2  A    between atoms: N3_12  and  C8_13 
REMARK    3  A    between atoms: C12_17  and  C13_18 
REMARK    4  A    between atoms: N4_26  and  C18_27 
REMARK    5  A    between atoms: C18_27  and  C19_28 
REMARK    6  A    between atoms: C19_28  and  N5_29 
ROOT
HETATM    1  O1  UNL     1      18.033   1.343  49.285  1.00  0.00    -0.271 OA
HETATM    2  C1  UNL     1      18.495   1.138  50.439  1.00  0.00     0.248 C 
HETATM    3  C2  UNL     1      17.586   0.884  51.588  1.00  0.00     0.279 C 
HETATM    4  O2  UNL     1      18.208  -0.045  52.494  1.00  0.00    -0.340 OA
HETATM    5  C3  UNL     1      19.588  -0.059  52.656  1.00  0.00     0.098 A 
HETATM    6  C4  UNL     1      20.030  -0.679  53.790  1.00  0.00     0.071 A 
HETATM    7  C5  UNL     1      21.390  -0.741  54.033  1.00  0.00     0.075 A 
HETATM    8  N1  UNL     1      21.894  -1.341  55.134  1.00  0.00    -0.241 NA
HETATM    9  C6  UNL     1      23.213  -1.414  55.388  1.00  0.00     0.236 A 
HETATM   10  N2  UNL     1      24.100  -0.866  54.513  1.00  0.00    -0.224 NA
HETATM   11  C7  UNL     1      23.652  -0.250  53.392  1.00  0.00     0.142 A 
HETATM   12  C15 UNL     1      22.277  -0.182  53.140  1.00  0.00     0.041 A 
HETATM   13  C16 UNL     1      21.771   0.426  52.021  1.00  0.00     0.050 A 
HETATM   14  C17 UNL     1      20.431   0.524  51.716  1.00  0.00     0.071 A 
HETATM   15  N4  UNL     1      19.937   1.173  50.523  1.00  0.00    -0.312 N 
ENDROOT
BRANCH  11  16
HETATM   16  N3  UNL     1      24.475   0.354  52.405  1.00  0.00    -0.340 N 
HETATM   17  H5  UNL     1      24.209   0.566  51.424  1.00  0.00     0.167 HD
BRANCH  16  18
HETATM   18  C8  UNL     1      25.786   0.686  52.845  1.00  0.00     0.034 A 
HETATM   19  C9  UNL     1      26.121   1.964  53.246  1.00  0.00     0.029 A 
HETATM   20  C10 UNL     1      27.392   2.286  53.678  1.00  0.00     0.003 A 
HETATM   21  C11 UNL     1      28.389   1.322  53.724  1.00  0.00     0.016 A 
HETATM   22  C12 UNL     1      28.068   0.046  53.327  1.00  0.00     0.050 A 
HETATM   23  C14 UNL     1      26.789  -0.253  52.899  1.00  0.00     0.045 A 
BRANCH  22  24
HETATM   24  C13 UNL     1      29.105  -1.023  53.368  1.00  0.00     0.417 C 
HETATM   25  F1  UNL     1      29.600  -1.140  54.672  1.00  0.00    -0.166 F 
HETATM   26  F2  UNL     1      30.174  -0.742  52.567  1.00  0.00    -0.166 F 
HETATM   27  F3  UNL     1      28.578  -2.256  53.055  1.00  0.00    -0.166 F 
ENDBRANCH  22  24
ENDBRANCH  16  18
ENDBRANCH  11  16
BRANCH  15  28
HETATM   28  C18 UNL     1      20.842   1.762  49.614  1.00  0.00     0.151 C 
BRANCH  28  29
HETATM   29  C19 UNL     1      20.873   3.240  49.482  1.00  0.00     0.137 C 
BRANCH  29  30
HETATM   30  N5  UNL     1      21.895   4.000  49.992  1.00  0.00    -0.407 N 
HETATM   31  C20 UNL     1      23.094   4.163  49.348  1.00  0.00     0.143 C 
HETATM   32  C21 UNL     1      24.339   4.007  50.199  1.00  0.00     0.187 C 
HETATM   33  O3  UNL     1      24.167   4.568  51.462  1.00  0.00    -0.388 OA
HETATM   34  C22 UNL     1      23.128   3.856  52.056  1.00  0.00     0.187 C 
HETATM   35  C23 UNL     1      21.850   4.261  51.368  1.00  0.00     0.143 C 
ENDBRANCH  29  30
ENDBRANCH  28  29
ENDBRANCH  15  28
TORSDOF 6
ENDMDL
MODEL 5
REMARK VINA RESULT:      -9.0      1.711      4.796
REMARK  6 active torsions:
REMARK  status: ('A' for Active; 'I' for Inactive)
REMARK    1  A    between atoms: C7_11  and  N3_12 
REMARK    2  A    between atoms: N3_12  and  C8_13 
REMARK    3  A    between atoms: C12_17  and  C13_18 
REMARK    4  A    between atoms: N4_26  and  C18_27 
REMARK    5  A    between atoms: C18_27  and  C19_28 
REMARK    6  A    between atoms: C19_28  and  N5_29 
ROOT
HETATM    1  O1  UNL     1      21.163  -2.211  53.940  1.00  0.00    -0.271 OA
HETATM    2  C1  UNL     1      22.143  -1.481  54.246  1.00  0.00     0.248 C 
HETATM    3  C2  UNL     1      22.774  -1.578  55.589  1.00  0.00     0.279 C 
HETATM    4  O2  UNL     1      24.188  -1.341  55.472  1.00  0.00    -0.340 OA
HETATM    5  C3  UNL     1      24.682  -0.468  54.510  1.00  0.00     0.098 A 
HETATM    6  C4  UNL     1      25.955  -0.024  54.734  1.00  0.00     0.071 A 
HETATM    7  C5  UNL     1      26.527   0.849  53.827  1.00  0.00     0.075 A 
HETATM    8  N1  UNL     1      27.782   1.326  53.986  1.00  0.00    -0.241 NA
HETATM    9  C6  UNL     1      28.358   2.174  53.115  1.00  0.00     0.236 A 
HETATM   10  N2  UNL     1      27.668   2.586  52.016  1.00  0.00    -0.224 NA
HETATM   11  C7  UNL     1      26.405   2.140  51.805  1.00  0.00     0.142 A 
HETATM   12  C15 UNL     1      25.818   1.258  52.719  1.00  0.00     0.041 A 
HETATM   13  C16 UNL     1      24.546   0.776  52.552  1.00  0.00     0.050 A 
HETATM   14  C17 UNL     1      23.914  -0.094  53.413  1.00  0.00     0.071 A 
HETATM   15  N4  UNL     1      22.571  -0.580  53.200  1.00  0.00    -0.312 N 
ENDROOT
BRANCH  11  16
HETATM   16  N3  UNL     1      25.588   2.493  50.699  1.00  0.00    -0.340 N 
HETATM   17  H5  UNL     1      25.124   1.839  50.040  1.00  0.00     0.167 HD
BRANCH  16  18
HETATM   18  C8  UNL     1      25.413   3.892  50.510  1.00  0.00     0.034 A 
HETATM   19  C9  UNL     1      24.453   4.608  51.195  1.00  0.00     0.029 A 
HETATM   20  C10 UNL     1      24.285   5.966  51.015  1.00  0.00     0.003 A 
HETATM   21  C11 UNL     1      25.089   6.667  50.128  1.00  0.00     0.016 A 
HETATM   22  C12 UNL     1      26.050   5.966  49.439  1.00  0.00     0.050 A 
HETATM   23  C14 UNL     1      26.199   4.606  49.635  1.00  0.00     0.045 A 
BRANCH  22  24
HETATM   24  C13 UNL     1      26.941   6.678  48.482  1.00  0.00     0.417 C 
HETATM   25  F1  UNL     1      27.918   5.793  48.010  1.00  0.00    -0.166 F 
HETATM   26  F2  UNL     1      27.603   7.720  49.065  1.00  0.00    -0.166 F 
HETATM   27  F3  UNL     1      26.253   7.106  47.368  1.00  0.00    -0.166 F 
ENDBRANCH  22  24
ENDBRANCH  16  18
ENDBRANCH  11  16
BRANCH  15  28
HETATM   28  C18 UNL     1      21.834  -0.151  52.075  1.00  0.00     0.151 C 
BRANCH  28  29
HETATM   29  C19 UNL     1      20.989   1.064  52.188  1.00  0.00     0.137 C 
BRANCH  29  30
HETATM   30  N5  UNL     1      21.350   2.263  51.627  1.00  0.00    -0.407 N 
HETATM   31  C20 UNL     1      20.894   3.470  52.092  1.00  0.00     0.143 C 
HETATM   32  C21 UNL     1      20.406   4.451  51.045  1.00  0.00     0.187 C 
HETATM   33  O3  UNL     1      21.206   4.423  49.906  1.00  0.00    -0.388 OA
HETATM   34  C22 UNL     1      21.096   3.132  49.395  1.00  0.00     0.187 C 
HETATM   35  C23 UNL     1      21.851   2.212  50.319  1.00  0.00     0.143 C 
ENDBRANCH  29  30
ENDBRANCH  28  29
ENDBRANCH  15  28
TORSDOF 6
ENDMDL
MODEL 6
REMARK VINA RESULT:      -8.9      2.344      3.131
REMARK  6 active torsions:
REMARK  status: ('A' for Active; 'I' for Inactive)
REMARK    1  A    between atoms: C7_11  and  N3_12 
REMARK    2  A    between atoms: N3_12  and  C8_13 
REMARK    3  A    between atoms: C12_17  and  C13_18 
REMARK    4  A    between atoms: N4_26  and  C18_27 
REMARK    5  A    between atoms: C18_27  and  C19_28 
REMARK    6  A    between atoms: C19_28  and  N5_29 
ROOT
HETATM    1  O1  UNL     1      25.313  -0.918  55.413  1.00  0.00    -0.271 OA
HETATM    2  C1  UNL     1      24.176  -1.035  54.883  1.00  0.00     0.248 C 
HETATM    3  C2  UNL     1      23.056  -1.675  55.623  1.00  0.00     0.279 C 
HETATM    4  O2  UNL     1      21.818  -1.036  55.263  1.00  0.00    -0.340 OA
HETATM    5  C3  UNL     1      21.631  -0.522  53.986  1.00  0.00     0.098 A 
HETATM    6  C4  UNL     1      20.329  -0.301  53.637  1.00  0.00     0.071 A 
HETATM    7  C5  UNL     1      20.051   0.210  52.383  1.00  0.00     0.075 A 
HETATM    8  N1  UNL     1      18.785   0.453  51.974  1.00  0.00    -0.241 NA
HETATM    9  C6  UNL     1      18.492   0.952  50.759  1.00  0.00     0.236 A 
HETATM   10  N2  UNL     1      19.496   1.231  49.884  1.00  0.00    -0.224 NA
HETATM   11  C7  UNL     1      20.785   1.006  50.239  1.00  0.00     0.142 A 
HETATM   12  C15 UNL     1      21.076   0.488  51.506  1.00  0.00     0.041 A 
HETATM   13  C16 UNL     1      22.360   0.244  51.916  1.00  0.00     0.050 A 
HETATM   14  C17 UNL     1      22.711  -0.262  53.148  1.00  0.00     0.071 A 
HETATM   15  N4  UNL     1      24.079  -0.504  53.543  1.00  0.00    -0.312 N 
ENDROOT
BRANCH  11  16
HETATM   16  N3  UNL     1      21.916   1.259  49.419  1.00  0.00    -0.340 N 
HETATM   17  H5  UNL     1      22.547   0.549  49.001  1.00  0.00     0.167 HD
BRANCH  16  18
HETATM   18  C8  UNL     1      22.175   2.636  49.170  1.00  0.00     0.034 A 
HETATM   19  C9  UNL     1      22.265   3.142  47.889  1.00  0.00     0.029 A 
HETATM   20  C10 UNL     1      22.512   4.478  47.645  1.00  0.00     0.003 A 
HETATM   21  C11 UNL     1      22.680   5.369  48.695  1.00  0.00     0.016 A 
HETATM   22  C12 UNL     1      22.593   4.878  49.976  1.00  0.00     0.050 A 
HETATM   23  C14 UNL     1      22.345   3.536  50.195  1.00  0.00     0.045 A 
BRANCH  22  24
HETATM   24  C13 UNL     1      22.759   5.800  51.133  1.00  0.00     0.417 C 
HETATM   25  F1  UNL     1      24.095   5.784  51.551  1.00  0.00    -0.166 F 
HETATM   26  F2  UNL     1      22.006   5.426  52.209  1.00  0.00    -0.166 F 
HETATM   27  F3  UNL     1      22.490   7.106  50.787  1.00  0.00    -0.166 F 
ENDBRANCH  22  24
ENDBRANCH  16  18
ENDBRANCH  11  16
BRANCH  15  28
HETATM   28  C18 UNL     1      25.132  -0.236  52.642  1.00  0.00     0.151 C 
BRANCH  28  29
HETATM   29  C19 UNL     1      26.069   0.876  52.940  1.00  0.00     0.137 C 
BRANCH  29  30
HETATM   30  N5  UNL     1      27.431   0.713  52.919  1.00  0.00    -0.407 N 
HETATM   31  C20 UNL     1      28.036  -0.513  53.023  1.00  0.00     0.143 C 
HETATM   32  C21 UNL     1      29.206  -0.604  53.983  1.00  0.00     0.187 C 
HETATM   33  O3  UNL     1      29.999   0.539  53.932  1.00  0.00    -0.388 OA
HETATM   34  C22 UNL     1      29.176   1.591  54.329  1.00  0.00     0.187 C 
HETATM   35  C23 UNL     1      28.199   1.849  53.211  1.00  0.00     0.143 C 
ENDBRANCH  29  30
ENDBRANCH  28  29
ENDBRANCH  15  28
TORSDOF 6
ENDMDL
MODEL 7
REMARK VINA RESULT:      -8.9      2.229      5.162
REMARK  6 active torsions:
REMARK  status: ('A' for Active; 'I' for Inactive)
REMARK    1  A    between atoms: C7_11  and  N3_12 
REMARK    2  A    between atoms: N3_12  and  C8_13 
REMARK    3  A    between atoms: C12_17  and  C13_18 
REMARK    4  A    between atoms: N4_26  and  C18_27 
REMARK    5  A    between atoms: C18_27  and  C19_28 
REMARK    6  A    between atoms: C19_28  and  N5_29 
ROOT
HETATM    1  O1  UNL     1      19.522  -0.868  53.066  1.00  0.00    -0.271 OA
HETATM    2  C1  UNL     1      20.677  -0.533  53.441  1.00  0.00     0.248 C 
HETATM    3  C2  UNL     1      21.304  -1.170  54.630  1.00  0.00     0.279 C 
HETATM    4  O2  UNL     1      22.723  -1.281  54.420  1.00  0.00    -0.340 OA
HETATM    5  C3  UNL     1      23.406  -0.326  53.676  1.00  0.00     0.098 A 
HETATM    6  C4  UNL     1      24.759  -0.306  53.863  1.00  0.00     0.071 A 
HETATM    7  C5  UNL     1      25.518   0.612  53.162  1.00  0.00     0.075 A 
HETATM    8  N1  UNL     1      26.861   0.685  53.299  1.00  0.00    -0.241 NA
HETATM    9  C6  UNL     1      27.618   1.569  52.625  1.00  0.00     0.236 A 
HETATM   10  N2  UNL     1      27.030   2.442  51.762  1.00  0.00    -0.224 NA
HETATM   11  C7  UNL     1      25.686   2.415  51.584  1.00  0.00     0.142 A 
HETATM   12  C15 UNL     1      24.910   1.490  52.292  1.00  0.00     0.041 A 
HETATM   13  C16 UNL     1      23.549   1.419  52.148  1.00  0.00     0.050 A 
HETATM   14  C17 UNL     1      22.732   0.531  52.812  1.00  0.00     0.071 A 
HETATM   15  N4  UNL     1      21.300   0.488  52.631  1.00  0.00    -0.312 N 
ENDROOT
BRANCH  11  16
HETATM   16  N3  UNL     1      24.959   3.268  50.713  1.00  0.00    -0.340 N 
HETATM   17  H5  UNL     1      23.937   3.244  50.535  1.00  0.00     0.167 HD
BRANCH  16  18
HETATM   18  C8  UNL     1      25.748   4.238  50.033  1.00  0.00     0.034 A 
HETATM   19  C9  UNL     1      26.828   3.883  49.251  1.00  0.00     0.029 A 
HETATM   20  C10 UNL     1      27.591   4.822  48.587  1.00  0.00     0.003 A 
HETATM   21  C11 UNL     1      27.292   6.173  48.684  1.00  0.00     0.016 A 
HETATM   22  C12 UNL     1      26.218   6.540  49.460  1.00  0.00     0.050 A 
HETATM   23  C14 UNL     1      25.469   5.582  50.115  1.00  0.00     0.045 A 
BRANCH  22  24
HETATM   24  C13 UNL     1      25.856   7.979  49.586  1.00  0.00     0.417 C 
HETATM   25  F1  UNL     1      24.524   8.087  50.004  1.00  0.00    -0.166 F 
HETATM   26  F2  UNL     1      25.950   8.646  48.399  1.00  0.00    -0.166 F 
HETATM   27  F3  UNL     1      26.604   8.609  50.555  1.00  0.00    -0.166 F 
ENDBRANCH  22  24
ENDBRANCH  16  18
ENDBRANCH  11  16
BRANCH  15  28
HETATM   28  C18 UNL     1      20.671   1.396  51.752  1.00  0.00     0.151 C 
BRANCH  28  29
HETATM   29  C19 UNL     1      19.959   2.570  52.317  1.00  0.00     0.137 C 
BRANCH  29  30
HETATM   30  N5  UNL     1      20.032   3.816  51.747  1.00  0.00    -0.407 N 
HETATM   31  C20 UNL     1      19.079   4.299  50.887  1.00  0.00     0.143 C 
HETATM   32  C21 UNL     1      19.590   4.966  49.626  1.00  0.00     0.187 C 
HETATM   33  O3  UNL     1      20.726   5.732  49.877  1.00  0.00    -0.388 OA
HETATM   34  C22 UNL     1      21.693   4.840  50.334  1.00  0.00     0.187 C 
HETATM   35  C23 UNL     1      21.298   4.417  51.726  1.00  0.00     0.143 C 
ENDBRANCH  29  30
ENDBRANCH  28  29
ENDBRANCH  15  28
TORSDOF 6
ENDMDL
MODEL 8
REMARK VINA RESULT:      -8.7      2.207      5.007
REMARK  6 active torsions:
REMARK  status: ('A' for Active; 'I' for Inactive)
REMARK    1  A    between atoms: C7_11  and  N3_12 
REMARK    2  A    between atoms: N3_12  and  C8_13 
REMARK    3  A    between atoms: C12_17  and  C13_18 
REMARK    4  A    between atoms: N4_26  and  C18_27 
REMARK    5  A    between atoms: C18_27  and  C19_28 
REMARK    6  A    between atoms: C19_28  and  N5_29 
ROOT
HETATM    1  O1  UNL     1      19.305  -0.138  52.014  1.00  0.00    -0.271 OA
HETATM    2  C1  UNL     1      20.399   0.240  52.512  1.00  0.00     0.248 C 
HETATM    3  C2  UNL     1      20.758  -0.111  53.913  1.00  0.00     0.279 C 
HETATM    4  O2  UNL     1      22.179  -0.315  54.005  1.00  0.00    -0.340 OA
HETATM    5  C3  UNL     1      23.052   0.408  53.202  1.00  0.00     0.098 A 
HETATM    6  C4  UNL     1      24.349   0.429  53.631  1.00  0.00     0.071 A 
HETATM    7  C5  UNL     1      25.287   1.125  52.892  1.00  0.00     0.075 A 
HETATM    8  N1  UNL     1      26.587   1.184  53.259  1.00  0.00    -0.241 NA
HETATM    9  C6  UNL     1      27.516   1.854  52.554  1.00  0.00     0.236 A 
HETATM   10  N2  UNL     1      27.157   2.510  51.417  1.00  0.00    -0.224 NA
HETATM   11  C7  UNL     1      25.867   2.485  51.000  1.00  0.00     0.142 A 
HETATM   12  C15 UNL     1      24.911   1.785  51.744  1.00  0.00     0.041 A 
HETATM   13  C16 UNL     1      23.595   1.726  51.366  1.00  0.00     0.050 A 
HETATM   14  C17 UNL     1      22.608   1.052  52.052  1.00  0.00     0.071 A 
HETATM   15  N4  UNL     1      21.231   1.014  51.620  1.00  0.00    -0.312 N 
ENDROOT
BRANCH  11  16
HETATM   16  N3  UNL     1      25.372   3.125  49.834  1.00  0.00    -0.340 N 
HETATM   17  H5  UNL     1      24.876   2.670  49.043  1.00  0.00     0.167 HD
BRANCH  16  18
HETATM   18  C8  UNL     1      25.600   4.528  49.781  1.00  0.00     0.034 A 
HETATM   19  C9  UNL     1      24.844   5.419  50.516  1.00  0.00     0.029 A 
HETATM   20  C10 UNL     1      25.067   6.781  50.469  1.00  0.00     0.003 A 
HETATM   21  C11 UNL     1      26.073   7.306  49.671  1.00  0.00     0.016 A 
HETATM   22  C12 UNL     1      26.833   6.429  48.934  1.00  0.00     0.050 A 
HETATM   23  C14 UNL     1      26.591   5.070  48.997  1.00  0.00     0.045 A 
BRANCH  22  24
HETATM   24  C13 UNL     1      27.929   6.948  48.069  1.00  0.00     0.417 C 
HETATM   25  F1  UNL     1      28.743   5.884  47.664  1.00  0.00    -0.166 F 
HETATM   26  F2  UNL     1      28.736   7.831  48.726  1.00  0.00    -0.166 F 
HETATM   27  F3  UNL     1      27.441   7.509  46.910  1.00  0.00    -0.166 F 
ENDBRANCH  22  24
ENDBRANCH  16  18
ENDBRANCH  11  16
BRANCH  15  28
HETATM   28  C18 UNL     1      20.837   1.702  50.452  1.00  0.00     0.151 C 
BRANCH  28  29
HETATM   29  C19 UNL     1      20.348   3.098  50.568  1.00  0.00     0.137 C 
BRANCH  29  30
HETATM   30  N5  UNL     1      21.136   4.179  50.264  1.00  0.00    -0.407 N 
HETATM   31  C20 UNL     1      21.134   5.334  51.002  1.00  0.00     0.143 C 
HETATM   32  C21 UNL     1      21.068   6.631  50.219  1.00  0.00     0.187 C 
HETATM   33  O3  UNL     1      21.841   6.569  49.062  1.00  0.00    -0.388 OA
HETATM   34  C22 UNL     1      21.287   5.551  48.289  1.00  0.00     0.187 C 
HETATM   35  C23 UNL     1      21.628   4.241  48.952  1.00  0.00     0.143 C 
ENDBRANCH  29  30
ENDBRANCH  28  29
ENDBRANCH  15  28
TORSDOF 6
ENDMDL
MODEL 9
REMARK VINA RESULT:      -8.3      2.193      5.792
REMARK  6 active torsions:
REMARK  status: ('A' for Active; 'I' for Inactive)
REMARK    1  A    between atoms: C7_11  and  N3_12 
REMARK    2  A    between atoms: N3_12  and  C8_13 
REMARK    3  A    between atoms: C12_17  and  C13_18 
REMARK    4  A    between atoms: N4_26  and  C18_27 
REMARK    5  A    between atoms: C18_27  and  C19_28 
REMARK    6  A    between atoms: C19_28  and  N5_29 
ROOT
HETATM    1  O1  UNL     1      19.289  -0.135  51.547  1.00  0.00    -0.271 OA
HETATM    2  C1  UNL     1      20.341   0.260  52.116  1.00  0.00     0.248 C 
HETATM    3  C2  UNL     1      20.608  -0.077  53.540  1.00  0.00     0.279 C 
HETATM    4  O2  UNL     1      22.022  -0.262  53.731  1.00  0.00    -0.340 OA
HETATM    5  C3  UNL     1      22.939   0.466  52.983  1.00  0.00     0.098 A 
HETATM    6  C4  UNL     1      24.203   0.505  53.500  1.00  0.00     0.071 A 
HETATM    7  C5  UNL     1      25.181   1.208  52.821  1.00  0.00     0.075 A 
HETATM    8  N1  UNL     1      26.453   1.286  53.275  1.00  0.00    -0.241 NA
HETATM    9  C6  UNL     1      27.420   1.962  52.629  1.00  0.00     0.236 A 
HETATM   10  N2  UNL     1      27.131   2.606  51.465  1.00  0.00    -0.224 NA
HETATM   11  C7  UNL     1      25.873   2.562  50.961  1.00  0.00     0.142 A 
HETATM   12  C15 UNL     1      24.877   1.855  51.644  1.00  0.00     0.041 A 
HETATM   13  C16 UNL     1      23.590   1.777  51.178  1.00  0.00     0.050 A 
HETATM   14  C17 UNL     1      22.567   1.096  51.801  1.00  0.00     0.071 A 
HETATM   15  N4  UNL     1      21.223   1.037  51.276  1.00  0.00    -0.312 N 
ENDROOT
BRANCH  11  16
HETATM   16  N3  UNL     1      25.451   3.187  49.759  1.00  0.00    -0.340 N 
HETATM   17  H5  UNL     1      24.979   2.727  48.956  1.00  0.00     0.167 HD
BRANCH  16  18
HETATM   18  C8  UNL     1      25.721   4.582  49.685  1.00  0.00     0.034 A 
HETATM   19  C9  UNL     1      24.992   5.506  50.406  1.00  0.00     0.029 A 
HETATM   20  C10 UNL     1      25.256   6.859  50.339  1.00  0.00     0.003 A 
HETATM   21  C11 UNL     1      26.278   7.342  49.534  1.00  0.00     0.016 A 
HETATM   22  C12 UNL     1      27.012   6.432  48.811  1.00  0.00     0.050 A 
HETATM   23  C14 UNL     1      26.729   5.082  48.894  1.00  0.00     0.045 A 
BRANCH  22  24
HETATM   24  C13 UNL     1      28.124   6.904  47.940  1.00  0.00     0.417 C 
HETATM   25  F1  UNL     1      28.975   5.831  47.651  1.00  0.00    -0.166 F 
HETATM   26  F2  UNL     1      28.888   7.860  48.544  1.00  0.00    -0.166 F 
HETATM   27  F3  UNL     1      27.661   7.353  46.723  1.00  0.00    -0.166 F 
ENDBRANCH  22  24
ENDBRANCH  16  18
ENDBRANCH  11  16
BRANCH  15  28
HETATM   28  C18 UNL     1      20.902   1.712  50.078  1.00  0.00     0.151 C 
BRANCH  28  29
HETATM   29  C19 UNL     1      20.358   3.091  50.152  1.00  0.00     0.137 C 
BRANCH  29  30
HETATM   30  N5  UNL     1      19.035   3.371  49.918  1.00  0.00    -0.407 N 
HETATM   31  C20 UNL     1      18.328   4.289  50.651  1.00  0.00     0.143 C 
HETATM   32  C21 UNL     1      16.953   3.856  51.121  1.00  0.00     0.187 C 
HETATM   33  O3  UNL     1      16.291   3.112  50.148  1.00  0.00    -0.388 OA
HETATM   34  C22 UNL     1      17.071   1.976  49.942  1.00  0.00     0.187 C 
HETATM   35  C23 UNL     1      18.312   2.406  49.203  1.00  0.00     0.143 C 
ENDBRANCH  29  30
ENDBRANCH  28  29
ENDBRANCH  15  28
TORSDOF 6
ENDMDL
