MODEL 1
REMARK VINA RESULT:      -8.3      0.000      0.000
REMARK  7 active torsions:
REMARK  status: ('A' for Active; 'I' for Inactive)
REMARK    1  A    between atoms: C2_2  and  O1_3 
REMARK    2  A    between atoms: C2_2  and  C4_5 
REMARK    3  A    between atoms: C4_5  and  O2_6 
REMARK    4  A    between atoms: C4_5  and  C6_8 
REMARK    5  A    between atoms: C9_13  and  N3_14 
REMARK    6  A    between atoms: N3_14  and  C10_15 
REMARK    7  A    between atoms: C13_18  and  C14_19 
ROOT
HETATM    1  C10 UNL     1      27.305   5.678  48.485  1.00  0.00     0.014 C 
HETATM    2  C11 UNL     1      27.430   4.411  48.898  1.00  0.00     0.026 C 
HETATM    3  C12 UNL     1      26.434   3.595  49.625  1.00  0.00     0.016 C 
HETATM    4  C13 UNL     1      25.158   3.852  49.634  1.00  0.00    -0.001 C 
HETATM    5  C21 UNL     1      24.354   4.895  49.014  1.00  0.00     0.011 C 
HETATM    6  C22 UNL     1      24.856   6.037  48.610  1.00  0.00    -0.020 C 
HETATM    7  C23 UNL     1      26.192   6.647  48.605  1.00  0.00     0.084 C 
ENDROOT
BRANCH   1   8
HETATM    8  N3  UNL     1      28.471   6.182  47.801  1.00  0.00    -0.344 N 
HETATM    9  H12 UNL     1      28.112   6.232  46.840  1.00  0.00     0.167 HD
BRANCH   8  10
HETATM   10  C9  UNL     1      29.723   6.495  48.368  1.00  0.00     0.140 A 
HETATM   11  C6  UNL     1      30.062   7.769  48.765  1.00  0.00     0.040 A 
HETATM   12  C7  UNL     1      31.302   7.985  49.309  1.00  0.00     0.132 A 
HETATM   13  N1  UNL     1      32.142   6.936  49.432  1.00  0.00    -0.253 NA
HETATM   14  C8  UNL     1      31.806   5.692  49.043  1.00  0.00     0.234 A 
HETATM   15  N2  UNL     1      30.577   5.454  48.500  1.00  0.00    -0.224 NA
BRANCH  11  16
HETATM   16  C4  UNL     1      29.096   8.879  48.603  1.00  0.00     0.214 C 
BRANCH  16  17
HETATM   17  C2  UNL     1      29.683   9.835  47.605  1.00  0.00     0.070 C 
HETATM   18  C1  UNL     1      29.756   9.487  46.324  1.00  0.00     0.049 C 
BRANCH  17  19
HETATM   19  O1  UNL     1      30.100  11.037  48.177  1.00  0.00    -0.358 OA
HETATM   20  C3  UNL     1      31.435  11.511  47.978  1.00  0.00     0.209 C 
ENDBRANCH  17  19
ENDBRANCH  16  17
BRANCH  16  21
HETATM   21  O2  UNL     1      28.838   9.553  49.786  1.00  0.00    -0.379 OA
HETATM   22  C5  UNL     1      27.524   9.444  50.195  1.00  0.00     0.202 C 
ENDBRANCH  16  21
ENDBRANCH  11  16
ENDBRANCH   8  10
ENDBRANCH   1   8
BRANCH   4  23
HETATM   23  C14 UNL     1      24.511   2.823  50.460  1.00  0.00     0.109 A 
HETATM   24  N4  UNL     1      23.477   2.283  50.596  1.00  0.00    -0.240 NA
HETATM   25  C15 UNL     1      23.186   1.338  51.487  1.00  0.00     0.075 A 
HETATM   26  C16 UNL     1      21.980   0.691  51.662  1.00  0.00     0.033 A 
HETATM   27  C20 UNL     1      24.221   0.938  52.362  1.00  0.00     0.035 A 
HETATM   28  C17 UNL     1      21.867  -0.267  52.644  1.00  0.00     0.002 A 
HETATM   29  C18 UNL     1      22.869  -0.658  53.497  1.00  0.00     0.002 A 
HETATM   30  C19 UNL     1      24.084  -0.027  53.340  1.00  0.00     0.021 A 
HETATM   31  S1  UNL     1      25.576   2.004  51.800  1.00  0.00    -0.068 SA
ENDBRANCH   4  23
TORSDOF 7
ENDMDL
MODEL 2
REMARK VINA RESULT:      -8.1      8.033     12.557
REMARK  7 active torsions:
REMARK  status: ('A' for Active; 'I' for Inactive)
REMARK    1  A    between atoms: C2_2  and  O1_3 
REMARK    2  A    between atoms: C2_2  and  C4_5 
REMARK    3  A    between atoms: C4_5  and  O2_6 
REMARK    4  A    between atoms: C4_5  and  C6_8 
REMARK    5  A    between atoms: C9_13  and  N3_14 
REMARK    6  A    between atoms: N3_14  and  C10_15 
REMARK    7  A    between atoms: C13_18  and  C14_19 
ROOT
HETATM    1  C10 UNL     1      20.287  -0.244  53.103  1.00  0.00     0.014 C 
HETATM    2  C11 UNL     1      21.231  -0.431  54.033  1.00  0.00     0.026 C 
HETATM    3  C12 UNL     1      22.698  -0.393  53.851  1.00  0.00     0.016 C 
HETATM    4  C13 UNL     1      23.287   0.201  52.855  1.00  0.00    -0.001 C 
HETATM    5  C21 UNL     1      22.785   0.947  51.710  1.00  0.00     0.011 C 
HETATM    6  C22 UNL     1      21.556   0.830  51.266  1.00  0.00    -0.020 C 
HETATM    7  C23 UNL     1      20.376   0.047  51.654  1.00  0.00     0.084 C 
ENDROOT
BRANCH   1   8
HETATM    8  N3  UNL     1      18.941  -0.349  53.614  1.00  0.00    -0.344 N 
HETATM    9  H12 UNL     1      18.908   0.484  54.213  1.00  0.00     0.167 HD
BRANCH   8  10
HETATM   10  C9  UNL     1      17.995  -1.351  53.321  1.00  0.00     0.140 A 
HETATM   11  C6  UNL     1      16.877  -1.118  52.551  1.00  0.00     0.040 A 
HETATM   12  C7  UNL     1      16.007  -2.152  52.315  1.00  0.00     0.132 A 
HETATM   13  N1  UNL     1      16.284  -3.359  52.850  1.00  0.00    -0.253 NA
HETATM   14  C8  UNL     1      17.377  -3.583  53.602  1.00  0.00     0.234 A 
HETATM   15  N2  UNL     1      18.257  -2.569  53.850  1.00  0.00    -0.224 NA
BRANCH  11  16
HETATM   16  C4  UNL     1      16.629   0.230  51.992  1.00  0.00     0.214 C 
BRANCH  16  17
HETATM   17  C2  UNL     1      15.156   0.497  52.113  1.00  0.00     0.070 C 
HETATM   18  C1  UNL     1      14.406   0.558  51.017  1.00  0.00     0.049 C 
BRANCH  17  19
HETATM   19  O1  UNL     1      14.735   0.654  53.433  1.00  0.00    -0.358 OA
HETATM   20  C3  UNL     1      13.370   0.415  53.793  1.00  0.00     0.209 C 
ENDBRANCH  17  19
ENDBRANCH  16  17
BRANCH  16  21
HETATM   21  O2  UNL     1      17.008   0.348  50.664  1.00  0.00    -0.379 OA
HETATM   22  C5  UNL     1      17.540   1.585  50.360  1.00  0.00     0.202 C 
ENDBRANCH  16  21
ENDBRANCH  11  16
ENDBRANCH   8  10
ENDBRANCH   1   8
BRANCH   4  23
HETATM   23  C14 UNL     1      24.734   0.016  53.029  1.00  0.00     0.109 A 
HETATM   24  N4  UNL     1      25.561  -0.816  52.959  1.00  0.00    -0.240 NA
HETATM   25  C15 UNL     1      26.862  -0.664  53.191  1.00  0.00     0.075 A 
HETATM   26  C16 UNL     1      27.847  -1.627  53.113  1.00  0.00     0.033 A 
HETATM   27  C20 UNL     1      27.304   0.626  53.559  1.00  0.00     0.035 A 
HETATM   28  C17 UNL     1      29.150  -1.281  53.391  1.00  0.00     0.002 A 
HETATM   29  C18 UNL     1      29.584  -0.028  53.750  1.00  0.00     0.002 A 
HETATM   30  C19 UNL     1      28.618   0.951  53.833  1.00  0.00     0.021 A 
HETATM   31  S1  UNL     1      25.740   1.543  53.539  1.00  0.00    -0.068 SA
ENDBRANCH   4  23
TORSDOF 7
ENDMDL
MODEL 3
REMARK VINA RESULT:      -7.9      3.625      9.199
REMARK  7 active torsions:
REMARK  status: ('A' for Active; 'I' for Inactive)
REMARK    1  A    between atoms: C2_2  and  O1_3 
REMARK    2  A    between atoms: C2_2  and  C4_5 
REMARK    3  A    between atoms: C4_5  and  O2_6 
REMARK    4  A    between atoms: C4_5  and  C6_8 
REMARK    5  A    between atoms: C9_13  and  N3_14 
REMARK    6  A    between atoms: N3_14  and  C10_15 
REMARK    7  A    between atoms: C13_18  and  C14_19 
ROOT
HETATM    1  C10 UNL     1      24.983   5.124  49.069  1.00  0.00     0.014 C 
HETATM    2  C11 UNL     1      26.068   4.392  49.348  1.00  0.00     0.026 C 
HETATM    3  C12 UNL     1      27.459   4.636  48.911  1.00  0.00     0.016 C 
HETATM    4  C13 UNL     1      27.900   5.795  48.519  1.00  0.00    -0.001 C 
HETATM    5  C21 UNL     1      27.269   7.100  48.384  1.00  0.00     0.011 C 
HETATM    6  C22 UNL     1      25.971   7.258  48.286  1.00  0.00    -0.020 C 
HETATM    7  C23 UNL     1      24.808   6.360  48.273  1.00  0.00     0.084 C 
ENDROOT
BRANCH   1   8
HETATM    8  N3  UNL     1      23.769   4.607  49.652  1.00  0.00    -0.344 N 
HETATM    9  H12 UNL     1      23.593   5.319  50.370  1.00  0.00     0.167 HD
BRANCH   8  10
HETATM   10  C9  UNL     1      23.076   3.437  49.281  1.00  0.00     0.140 A 
HETATM   11  C6  UNL     1      22.661   2.495  50.195  1.00  0.00     0.040 A 
HETATM   12  C7  UNL     1      21.992   1.386  49.747  1.00  0.00     0.132 A 
HETATM   13  N1  UNL     1      21.768   1.263  48.422  1.00  0.00    -0.253 NA
HETATM   14  C8  UNL     1      22.174   2.185  47.531  1.00  0.00     0.234 A 
HETATM   15  N2  UNL     1      22.842   3.298  47.955  1.00  0.00    -0.224 NA
BRANCH  11  16
HETATM   16  C4  UNL     1      22.938   2.688  51.636  1.00  0.00     0.214 C 
BRANCH  16  17
HETATM   17  C2  UNL     1      23.869   1.589  52.060  1.00  0.00     0.070 C 
HETATM   18  C1  UNL     1      23.455   0.675  52.932  1.00  0.00     0.049 C 
BRANCH  17  19
HETATM   19  O1  UNL     1      25.122   1.665  51.452  1.00  0.00    -0.358 OA
HETATM   20  C3  UNL     1      26.243   0.971  52.008  1.00  0.00     0.209 C 
ENDBRANCH  17  19
ENDBRANCH  16  17
BRANCH  16  21
HETATM   21  O2  UNL     1      21.797   2.649  52.421  1.00  0.00    -0.379 OA
HETATM   22  C5  UNL     1      20.999   3.766  52.271  1.00  0.00     0.202 C 
ENDBRANCH  16  21
ENDBRANCH  11  16
ENDBRANCH   8  10
ENDBRANCH   1   8
BRANCH   4  23
HETATM   23  C14 UNL     1      29.319   5.629  48.172  1.00  0.00     0.109 A 
HETATM   24  N4  UNL     1      30.076   4.810  47.804  1.00  0.00    -0.240 NA
HETATM   25  C15 UNL     1      31.374   4.979  47.567  1.00  0.00     0.075 A 
HETATM   26  C16 UNL     1      32.280   4.031  47.135  1.00  0.00     0.033 A 
HETATM   27  C20 UNL     1      31.904   6.272  47.776  1.00  0.00     0.035 A 
HETATM   28  C17 UNL     1      33.594   4.394  46.943  1.00  0.00     0.002 A 
HETATM   29  C18 UNL     1      34.113   5.649  47.146  1.00  0.00     0.002 A 
HETATM   30  C19 UNL     1      33.228   6.612  47.576  1.00  0.00     0.021 A 
HETATM   31  S1  UNL     1      30.423   7.166  48.319  1.00  0.00    -0.068 SA
ENDBRANCH   4  23
TORSDOF 7
ENDMDL
MODEL 4
REMARK VINA RESULT:      -7.9      2.352      3.592
REMARK  7 active torsions:
REMARK  status: ('A' for Active; 'I' for Inactive)
REMARK    1  A    between atoms: C2_2  and  O1_3 
REMARK    2  A    between atoms: C2_2  and  C4_5 
REMARK    3  A    between atoms: C4_5  and  O2_6 
REMARK    4  A    between atoms: C4_5  and  C6_8 
REMARK    5  A    between atoms: C9_13  and  N3_14 
REMARK    6  A    between atoms: N3_14  and  C10_15 
REMARK    7  A    between atoms: C13_18  and  C14_19 
ROOT
HETATM    1  C10 UNL     1      27.837   6.969  47.905  1.00  0.00     0.014 C 
HETATM    2  C11 UNL     1      28.312   5.757  48.214  1.00  0.00     0.026 C 
HETATM    3  C12 UNL     1      27.672   4.724  49.057  1.00  0.00     0.016 C 
HETATM    4  C13 UNL     1      26.395   4.684  49.306  1.00  0.00    -0.001 C 
HETATM    5  C21 UNL     1      25.281   5.529  48.899  1.00  0.00     0.011 C 
HETATM    6  C22 UNL     1      25.436   6.762  48.480  1.00  0.00    -0.020 C 
HETATM    7  C23 UNL     1      26.581   7.658  48.276  1.00  0.00     0.084 C 
ENDROOT
BRANCH   1   8
HETATM    8  N3  UNL     1      28.717   7.737  47.056  1.00  0.00    -0.344 N 
HETATM    9  H12 UNL     1      28.485   7.334  46.141  1.00  0.00     0.167 HD
BRANCH   8  10
HETATM   10  C9  UNL     1      29.617   8.745  47.453  1.00  0.00     0.140 A 
HETATM   11  C6  UNL     1      30.980   8.553  47.493  1.00  0.00     0.040 A 
HETATM   12  C7  UNL     1      31.784   9.590  47.891  1.00  0.00     0.132 A 
HETATM   13  N1  UNL     1      31.204  10.760  48.230  1.00  0.00    -0.253 NA
HETATM   14  C8  UNL     1      29.872  10.944  48.189  1.00  0.00     0.234 A 
HETATM   15  N2  UNL     1      29.052   9.926  47.796  1.00  0.00    -0.224 NA
BRANCH  11  16
HETATM   16  C4  UNL     1      31.556   7.245  47.109  1.00  0.00     0.214 C 
BRANCH  16  17
HETATM   17  C2  UNL     1      32.314   6.728  48.298  1.00  0.00     0.070 C 
HETATM   18  C1  UNL     1      31.652   6.326  49.378  1.00  0.00     0.049 C 
BRANCH  17  19
HETATM   19  O1  UNL     1      33.697   6.732  48.111  1.00  0.00    -0.358 OA
HETATM   20  C3  UNL     1      34.523   5.771  48.776  1.00  0.00     0.209 C 
ENDBRANCH  17  19
ENDBRANCH  16  17
BRANCH  16  21
HETATM   21  O2  UNL     1      32.410   7.323  46.021  1.00  0.00    -0.379 OA
HETATM   22  C5  UNL     1      31.744   7.446  44.818  1.00  0.00     0.202 C 
ENDBRANCH  16  21
ENDBRANCH  11  16
ENDBRANCH   8  10
ENDBRANCH   1   8
BRANCH   4  23
HETATM   23  C14 UNL     1      26.154   3.522  50.172  1.00  0.00     0.109 A 
HETATM   24  N4  UNL     1      26.720   2.610  50.651  1.00  0.00    -0.240 NA
HETATM   25  C15 UNL     1      26.194   1.674  51.435  1.00  0.00     0.075 A 
HETATM   26  C16 UNL     1      26.841   0.597  52.008  1.00  0.00     0.033 A 
HETATM   27  C20 UNL     1      24.816   1.777  51.727  1.00  0.00     0.035 A 
HETATM   28  C17 UNL     1      26.126  -0.275  52.798  1.00  0.00     0.002 A 
HETATM   29  C18 UNL     1      24.787  -0.179  53.083  1.00  0.00     0.002 A 
HETATM   30  C19 UNL     1      24.119   0.889  52.524  1.00  0.00     0.021 A 
HETATM   31  S1  UNL     1      24.382   3.277  50.806  1.00  0.00    -0.068 SA
ENDBRANCH   4  23
TORSDOF 7
ENDMDL
MODEL 5
REMARK VINA RESULT:      -7.9      6.989      9.353
REMARK  7 active torsions:
REMARK  status: ('A' for Active; 'I' for Inactive)
REMARK    1  A    between atoms: C2_2  and  O1_3 
REMARK    2  A    between atoms: C2_2  and  C4_5 
REMARK    3  A    between atoms: C4_5  and  O2_6 
REMARK    4  A    between atoms: C4_5  and  C6_8 
REMARK    5  A    between atoms: C9_13  and  N3_14 
REMARK    6  A    between atoms: N3_14  and  C10_15 
REMARK    7  A    between atoms: C13_18  and  C14_19 
ROOT
HETATM    1  C10 UNL     1      21.381   2.702  52.374  1.00  0.00     0.014 C 
HETATM    2  C11 UNL     1      22.651   2.978  52.058  1.00  0.00     0.026 C 
HETATM    3  C12 UNL     1      23.849   2.155  52.332  1.00  0.00     0.016 C 
HETATM    4  C13 UNL     1      23.808   0.877  52.572  1.00  0.00    -0.001 C 
HETATM    5  C21 UNL     1      22.715  -0.081  52.649  1.00  0.00     0.011 C 
HETATM    6  C22 UNL     1      21.470   0.273  52.858  1.00  0.00    -0.020 C 
HETATM    7  C23 UNL     1      20.767   1.546  53.067  1.00  0.00     0.084 C 
ENDROOT
BRANCH   1   8
HETATM    8  N3  UNL     1      20.446   3.722  51.962  1.00  0.00    -0.344 N 
HETATM    9  H12 UNL     1      20.902   4.555  52.352  1.00  0.00     0.167 HD
BRANCH   8  10
HETATM   10  C9  UNL     1      19.257   3.541  51.229  1.00  0.00     0.140 A 
HETATM   11  C6  UNL     1      19.249   3.232  49.887  1.00  0.00     0.040 A 
HETATM   12  C7  UNL     1      18.045   3.073  49.251  1.00  0.00     0.132 A 
HETATM   13  N1  UNL     1      16.913   3.226  49.969  1.00  0.00    -0.253 NA
HETATM   14  C8  UNL     1      16.924   3.526  51.280  1.00  0.00     0.234 A 
HETATM   15  N2  UNL     1      18.111   3.689  51.934  1.00  0.00    -0.224 NA
BRANCH  11  16
HETATM   16  C4  UNL     1      20.525   3.078  49.154  1.00  0.00     0.214 C 
BRANCH  16  17
HETATM   17  C2  UNL     1      20.607   4.204  48.163  1.00  0.00     0.070 C 
HETATM   18  C1  UNL     1      20.891   5.433  48.585  1.00  0.00     0.049 C 
BRANCH  17  19
HETATM   19  O1  UNL     1      20.363   3.798  46.851  1.00  0.00    -0.358 OA
HETATM   20  C3  UNL     1      21.402   3.855  45.869  1.00  0.00     0.209 C 
ENDBRANCH  17  19
ENDBRANCH  16  17
BRANCH  16  21
HETATM   21  O2  UNL     1      20.626   1.870  48.483  1.00  0.00    -0.379 OA
HETATM   22  C5  UNL     1      21.582   1.031  49.020  1.00  0.00     0.202 C 
ENDBRANCH  16  21
ENDBRANCH  11  16
ENDBRANCH   8  10
ENDBRANCH   1   8
BRANCH   4  23
HETATM   23  C14 UNL     1      25.190   0.429  52.792  1.00  0.00     0.109 A 
HETATM   24  N4  UNL     1      25.853  -0.540  52.739  1.00  0.00    -0.240 NA
HETATM   25  C15 UNL     1      27.151  -0.630  53.016  1.00  0.00     0.075 A 
HETATM   26  C16 UNL     1      27.946  -1.757  52.959  1.00  0.00     0.033 A 
HETATM   27  C20 UNL     1      27.808   0.555  53.416  1.00  0.00     0.035 A 
HETATM   28  C17 UNL     1      29.280  -1.657  53.285  1.00  0.00     0.002 A 
HETATM   29  C18 UNL     1      29.922  -0.508  53.675  1.00  0.00     0.002 A 
HETATM   30  C19 UNL     1      29.149   0.631  53.738  1.00  0.00     0.021 A 
HETATM   31  S1  UNL     1      26.439   1.743  53.355  1.00  0.00    -0.068 SA
ENDBRANCH   4  23
TORSDOF 7
ENDMDL
MODEL 6
REMARK VINA RESULT:      -7.9      8.087     11.998
REMARK  7 active torsions:
REMARK  status: ('A' for Active; 'I' for Inactive)
REMARK    1  A    between atoms: C2_2  and  O1_3 
REMARK    2  A    between atoms: C2_2  and  C4_5 
REMARK    3  A    between atoms: C4_5  and  O2_6 
REMARK    4  A    between atoms: C4_5  and  C6_8 
REMARK    5  A    between atoms: C9_13  and  N3_14 
REMARK    6  A    between atoms: N3_14  and  C10_15 
REMARK    7  A    between atoms: C13_18  and  C14_19 
ROOT
HETATM    1  C10 UNL     1      20.640   0.317  52.406  1.00  0.00     0.014 C 
HETATM    2  C11 UNL     1      21.745   0.317  51.652  1.00  0.00     0.026 C 
HETATM    3  C12 UNL     1      23.148   0.204  52.105  1.00  0.00     0.016 C 
HETATM    4  C13 UNL     1      23.497  -0.296  53.255  1.00  0.00    -0.001 C 
HETATM    5  C21 UNL     1      22.737  -0.851  54.365  1.00  0.00     0.011 C 
HETATM    6  C22 UNL     1      21.465  -0.594  54.557  1.00  0.00    -0.020 C 
HETATM    7  C23 UNL     1      20.447   0.211  53.870  1.00  0.00     0.084 C 
ENDROOT
BRANCH   1   8
HETATM    8  N3  UNL     1      19.420   0.446  51.646  1.00  0.00    -0.344 N 
HETATM    9  H12 UNL     1      19.384  -0.477  51.199  1.00  0.00     0.167 HD
BRANCH   8  10
HETATM   10  C9  UNL     1      18.567   1.566  51.587  1.00  0.00     0.140 A 
HETATM   11  C6  UNL     1      17.201   1.471  51.731  1.00  0.00     0.040 A 
HETATM   12  C7  UNL     1      16.445   2.613  51.661  1.00  0.00     0.132 A 
HETATM   13  N1  UNL     1      17.075   3.788  51.453  1.00  0.00    -0.253 NA
HETATM   14  C8  UNL     1      18.410   3.878  51.314  1.00  0.00     0.234 A 
HETATM   15  N2  UNL     1      19.182   2.754  51.380  1.00  0.00    -0.224 NA
BRANCH  11  16
HETATM   16  C4  UNL     1      16.569   0.151  51.956  1.00  0.00     0.214 C 
BRANCH  16  17
HETATM   17  C2  UNL     1      15.087   0.377  52.036  1.00  0.00     0.070 C 
HETATM   18  C1  UNL     1      14.338   0.227  50.947  1.00  0.00     0.049 C 
BRANCH  17  19
HETATM   19  O1  UNL     1      14.654   0.733  53.313  1.00  0.00    -0.358 OA
HETATM   20  C3  UNL     1      13.374   0.307  53.792  1.00  0.00     0.209 C 
ENDBRANCH  17  19
ENDBRANCH  16  17
BRANCH  16  21
HETATM   21  O2  UNL     1      17.001  -0.468  53.118  1.00  0.00    -0.379 OA
HETATM   22  C5  UNL     1      17.121  -1.837  52.990  1.00  0.00     0.202 C 
ENDBRANCH  16  21
ENDBRANCH  11  16
ENDBRANCH   8  10
ENDBRANCH   1   8
BRANCH   4  23
HETATM   23  C14 UNL     1      24.964  -0.233  53.331  1.00  0.00     0.109 A 
HETATM   24  N4  UNL     1      25.909  -0.928  53.277  1.00  0.00    -0.240 NA
HETATM   25  C15 UNL     1      27.179  -0.551  53.390  1.00  0.00     0.075 A 
HETATM   26  C16 UNL     1      28.302  -1.352  53.328  1.00  0.00     0.033 A 
HETATM   27  C20 UNL     1      27.427   0.824  53.597  1.00  0.00     0.035 A 
HETATM   28  C17 UNL     1      29.546  -0.778  53.468  1.00  0.00     0.002 A 
HETATM   29  C18 UNL     1      29.791   0.558  53.670  1.00  0.00     0.002 A 
HETATM   30  C19 UNL     1      28.685   1.377  53.734  1.00  0.00     0.021 A 
HETATM   31  S1  UNL     1      25.736   1.478  53.612  1.00  0.00    -0.068 SA
ENDBRANCH   4  23
TORSDOF 7
ENDMDL
MODEL 7
REMARK VINA RESULT:      -7.9      5.349      8.430
REMARK  7 active torsions:
REMARK  status: ('A' for Active; 'I' for Inactive)
REMARK    1  A    between atoms: C2_2  and  O1_3 
REMARK    2  A    between atoms: C2_2  and  C4_5 
REMARK    3  A    between atoms: C4_5  and  O2_6 
REMARK    4  A    between atoms: C4_5  and  C6_8 
REMARK    5  A    between atoms: C9_13  and  N3_14 
REMARK    6  A    between atoms: N3_14  and  C10_15 
REMARK    7  A    between atoms: C13_18  and  C14_19 
ROOT
HETATM    1  C10 UNL     1      22.724   1.158  53.181  1.00  0.00     0.014 C 
HETATM    2  C11 UNL     1      21.427   1.347  52.912  1.00  0.00     0.026 C 
HETATM    3  C12 UNL     1      20.338   0.348  52.970  1.00  0.00     0.016 C 
HETATM    4  C13 UNL     1      20.406  -0.756  53.655  1.00  0.00    -0.001 C 
HETATM    5  C21 UNL     1      21.440  -1.333  54.502  1.00  0.00     0.011 C 
HETATM    6  C22 UNL     1      22.703  -0.986  54.423  1.00  0.00    -0.020 C 
HETATM    7  C23 UNL     1      23.477  -0.044  53.604  1.00  0.00     0.084 C 
ENDROOT
BRANCH   1   8
HETATM    8  N3  UNL     1      23.527   2.348  53.026  1.00  0.00    -0.344 N 
HETATM    9  H12 UNL     1      23.073   2.965  53.709  1.00  0.00     0.167 HD
BRANCH   8  10
HETATM   10  C9  UNL     1      24.619   2.531  52.154  1.00  0.00     0.140 A 
HETATM   11  C6  UNL     1      24.512   3.207  50.959  1.00  0.00     0.040 A 
HETATM   12  C7  UNL     1      25.625   3.339  50.170  1.00  0.00     0.132 A 
HETATM   13  N1  UNL     1      26.785   2.798  50.600  1.00  0.00    -0.253 NA
HETATM   14  C8  UNL     1      26.886   2.139  51.768  1.00  0.00     0.234 A 
HETATM   15  N2  UNL     1      25.790   1.995  52.569  1.00  0.00    -0.224 NA
BRANCH  11  16
HETATM   16  C4  UNL     1      23.211   3.777  50.544  1.00  0.00     0.214 C 
BRANCH  16  17
HETATM   17  C2  UNL     1      22.748   3.000  49.345  1.00  0.00     0.070 C 
HETATM   18  C1  UNL     1      22.646   3.606  48.166  1.00  0.00     0.049 C 
BRANCH  17  19
HETATM   19  O1  UNL     1      22.467   1.664  49.632  1.00  0.00    -0.358 OA
HETATM   20  C3  UNL     1      21.392   0.990  48.972  1.00  0.00     0.209 C 
ENDBRANCH  17  19
ENDBRANCH  16  17
BRANCH  16  21
HETATM   21  O2  UNL     1      23.284   5.122  50.216  1.00  0.00    -0.379 OA
HETATM   22  C5  UNL     1      22.570   5.929  51.079  1.00  0.00     0.202 C 
ENDBRANCH  16  21
ENDBRANCH  11  16
ENDBRANCH   8  10
ENDBRANCH   1   8
BRANCH   4  23
HETATM   23  C14 UNL     1      19.138  -1.472  53.459  1.00  0.00     0.109 A 
HETATM   24  N4  UNL     1      18.612  -2.484  53.736  1.00  0.00    -0.240 NA
HETATM   25  C15 UNL     1      17.385  -2.863  53.388  1.00  0.00     0.075 A 
HETATM   26  C16 UNL     1      16.749  -4.047  53.704  1.00  0.00     0.033 A 
HETATM   27  C20 UNL     1      16.632  -1.962  52.602  1.00  0.00     0.035 A 
HETATM   28  C17 UNL     1      15.468  -4.265  53.250  1.00  0.00     0.002 A 
HETATM   29  C18 UNL     1      14.733  -3.392  52.486  1.00  0.00     0.002 A 
HETATM   30  C19 UNL     1      15.346  -2.203  52.158  1.00  0.00     0.021 A 
HETATM   31  S1  UNL     1      17.807  -0.593  52.429  1.00  0.00    -0.068 SA
ENDBRANCH   4  23
TORSDOF 7
ENDMDL
MODEL 8
REMARK VINA RESULT:      -7.8      6.458      8.231
REMARK  7 active torsions:
REMARK  status: ('A' for Active; 'I' for Inactive)
REMARK    1  A    between atoms: C2_2  and  O1_3 
REMARK    2  A    between atoms: C2_2  and  C4_5 
REMARK    3  A    between atoms: C4_5  and  O2_6 
REMARK    4  A    between atoms: C4_5  and  C6_8 
REMARK    5  A    between atoms: C9_13  and  N3_14 
REMARK    6  A    between atoms: N3_14  and  C10_15 
REMARK    7  A    between atoms: C13_18  and  C14_19 
ROOT
HETATM    1  C10 UNL     1      21.720   2.973  52.118  1.00  0.00     0.014 C 
HETATM    2  C11 UNL     1      23.006   3.135  51.787  1.00  0.00     0.026 C 
HETATM    3  C12 UNL     1      24.142   2.246  52.115  1.00  0.00     0.016 C 
HETATM    4  C13 UNL     1      24.008   0.992  52.436  1.00  0.00    -0.001 C 
HETATM    5  C21 UNL     1      22.848   0.124  52.572  1.00  0.00     0.011 C 
HETATM    6  C22 UNL     1      21.633   0.581  52.757  1.00  0.00    -0.020 C 
HETATM    7  C23 UNL     1      21.026   1.912  52.882  1.00  0.00     0.084 C 
ENDROOT
BRANCH   1   8
HETATM    8  N3  UNL     1      20.861   4.030  51.640  1.00  0.00    -0.344 N 
HETATM    9  H12 UNL     1      19.991   3.794  52.130  1.00  0.00     0.167 HD
BRANCH   8  10
HETATM   10  C9  UNL     1      21.201   5.065  50.745  1.00  0.00     0.140 A 
HETATM   11  C6  UNL     1      21.025   4.959  49.383  1.00  0.00     0.040 A 
HETATM   12  C7  UNL     1      21.383   6.015  48.585  1.00  0.00     0.132 A 
HETATM   13  N1  UNL     1      21.894   7.118  49.170  1.00  0.00    -0.253 NA
HETATM   14  C8  UNL     1      22.064   7.218  50.501  1.00  0.00     0.234 A 
HETATM   15  N2  UNL     1      21.715   6.180  51.315  1.00  0.00    -0.224 NA
BRANCH  11  16
HETATM   16  C4  UNL     1      20.459   3.721  48.802  1.00  0.00     0.214 C 
BRANCH  16  17
HETATM   17  C2  UNL     1      21.468   3.187  47.826  1.00  0.00     0.070 C 
HETATM   18  C1  UNL     1      22.602   2.659  48.274  1.00  0.00     0.049 C 
BRANCH  17  19
HETATM   19  O1  UNL     1      21.066   3.318  46.497  1.00  0.00    -0.358 OA
HETATM   20  C3  UNL     1      21.871   4.045  45.563  1.00  0.00     0.209 C 
ENDBRANCH  17  19
ENDBRANCH  16  17
BRANCH  16  21
HETATM   21  O2  UNL     1      19.255   3.927  48.149  1.00  0.00    -0.379 OA
HETATM   22  C5  UNL     1      18.191   3.299  48.764  1.00  0.00     0.202 C 
ENDBRANCH  16  21
ENDBRANCH  11  16
ENDBRANCH   8  10
ENDBRANCH   1   8
BRANCH   4  23
HETATM   23  C14 UNL     1      25.355   0.459  52.686  1.00  0.00     0.109 A 
HETATM   24  N4  UNL     1      25.954  -0.551  52.659  1.00  0.00    -0.240 NA
HETATM   25  C15 UNL     1      27.238  -0.720  52.960  1.00  0.00     0.075 A 
HETATM   26  C16 UNL     1      27.959  -1.897  52.933  1.00  0.00     0.033 A 
HETATM   27  C20 UNL     1      27.964   0.426  53.354  1.00  0.00     0.035 A 
HETATM   28  C17 UNL     1      29.291  -1.878  53.280  1.00  0.00     0.002 A 
HETATM   29  C18 UNL     1      30.000  -0.766  53.665  1.00  0.00     0.002 A 
HETATM   30  C19 UNL     1      29.302   0.421  53.699  1.00  0.00     0.021 A 
HETATM   31  S1  UNL     1      26.676   1.698  53.253  1.00  0.00    -0.068 SA
ENDBRANCH   4  23
TORSDOF 7
ENDMDL
MODEL 9
REMARK VINA RESULT:      -7.8      2.404      3.511
REMARK  7 active torsions:
REMARK  status: ('A' for Active; 'I' for Inactive)
REMARK    1  A    between atoms: C2_2  and  O1_3 
REMARK    2  A    between atoms: C2_2  and  C4_5 
REMARK    3  A    between atoms: C4_5  and  O2_6 
REMARK    4  A    between atoms: C4_5  and  C6_8 
REMARK    5  A    between atoms: C9_13  and  N3_14 
REMARK    6  A    between atoms: N3_14  and  C10_15 
REMARK    7  A    between atoms: C13_18  and  C14_19 
ROOT
HETATM    1  C10 UNL     1      28.283   6.484  47.984  1.00  0.00     0.014 C 
HETATM    2  C11 UNL     1      28.341   5.197  48.345  1.00  0.00     0.026 C 
HETATM    3  C12 UNL     1      27.325   4.420  49.087  1.00  0.00     0.016 C 
HETATM    4  C13 UNL     1      26.071   4.758  49.162  1.00  0.00    -0.001 C 
HETATM    5  C21 UNL     1      25.312   5.874  48.617  1.00  0.00     0.011 C 
HETATM    6  C22 UNL     1      25.871   6.996  48.232  1.00  0.00    -0.020 C 
HETATM    7  C23 UNL     1      27.243   7.518  48.189  1.00  0.00     0.084 C 
ENDROOT
BRANCH   1   8
HETATM    8  N3  UNL     1      29.449   6.938  47.266  1.00  0.00    -0.344 N 
HETATM    9  H12 UNL     1      29.089   6.926  46.305  1.00  0.00     0.167 HD
BRANCH   8  10
HETATM   10  C9  UNL     1      30.703   7.283  47.810  1.00  0.00     0.140 A 
HETATM   11  C6  UNL     1      31.889   7.061  47.146  1.00  0.00     0.040 A 
HETATM   12  C7  UNL     1      33.064   7.428  47.749  1.00  0.00     0.132 A 
HETATM   13  N1  UNL     1      33.009   7.995  48.972  1.00  0.00    -0.253 NA
HETATM   14  C8  UNL     1      31.849   8.211  49.618  1.00  0.00     0.234 A 
HETATM   15  N2  UNL     1      30.667   7.853  49.037  1.00  0.00    -0.224 NA
BRANCH  11  16
HETATM   16  C4  UNL     1      31.882   6.435  45.805  1.00  0.00     0.214 C 
BRANCH  16  17
HETATM   17  C2  UNL     1      32.596   5.119  45.926  1.00  0.00     0.070 C 
HETATM   18  C1  UNL     1      33.698   4.900  45.215  1.00  0.00     0.049 C 
BRANCH  17  19
HETATM   19  O1  UNL     1      31.982   4.242  46.820  1.00  0.00    -0.358 OA
HETATM   20  C3  UNL     1      32.765   3.490  47.753  1.00  0.00     0.209 C 
ENDBRANCH  17  19
ENDBRANCH  16  17
BRANCH  16  21
HETATM   21  O2  UNL     1      32.508   7.207  44.840  1.00  0.00    -0.379 OA
HETATM   22  C5  UNL     1      31.647   8.077  44.201  1.00  0.00     0.202 C 
ENDBRANCH  16  21
ENDBRANCH  11  16
ENDBRANCH   8  10
ENDBRANCH   1   8
BRANCH   4  23
HETATM   23  C14 UNL     1      25.392   3.742  49.980  1.00  0.00     0.109 A 
HETATM   24  N4  UNL     1      24.317   3.331  50.214  1.00  0.00    -0.240 NA
HETATM   25  C15 UNL     1      24.009   2.344  51.051  1.00  0.00     0.075 A 
HETATM   26  C16 UNL     1      22.755   1.847  51.339  1.00  0.00     0.033 A 
HETATM   27  C20 UNL     1      25.079   1.722  51.733  1.00  0.00     0.035 A 
HETATM   28  C17 UNL     1      22.631   0.813  52.240  1.00  0.00     0.002 A 
HETATM   29  C18 UNL     1      23.667   0.207  52.906  1.00  0.00     0.002 A 
HETATM   30  C19 UNL     1      24.929   0.685  52.635  1.00  0.00     0.021 A 
HETATM   31  S1  UNL     1      26.490   2.653  51.081  1.00  0.00    -0.068 SA
ENDBRANCH   4  23
TORSDOF 7
ENDMDL
