MODEL 1
REMARK VINA RESULT:      -7.6      0.000      0.000
REMARK  3 active torsions:
REMARK  status: ('A' for Active; 'I' for Inactive)
REMARK    1  A    between atoms: P1_5  and  C5_6 
REMARK    2  A    between atoms: C5_6  and  N1_7 
REMARK    3  A    between atoms: C8_11  and  C9_12 
ROOT
HETATM    1  N1  UNL     1      24.050  -0.053  54.333  1.00  0.00    -0.246 NA
HETATM    2  C6  UNL     1      23.773   0.307  52.967  1.00  0.00     0.150 C 
HETATM    3  C7  UNL     1      22.568   1.137  52.787  1.00  0.00     0.105 C 
HETATM    4  N2  UNL     1      21.309   0.851  52.979  1.00  0.00    -0.263 NA
HETATM    5  C8  UNL     1      20.689  -0.345  53.422  1.00  0.00     0.073 C 
HETATM    6  C15 UNL     1      21.329  -1.159  54.234  1.00  0.00     0.094 C 
HETATM    7  S1  UNL     1      22.904  -1.184  55.005  1.00  0.00    -0.051 SA
ENDROOT
BRANCH   1   8
HETATM    8  C5  UNL     1      25.342  -0.733  54.316  1.00  0.00     0.139 C 
BRANCH   8   9
HETATM    9  P1  UNL     1      26.150  -0.694  52.729  1.00  0.00    -0.078 P 
HETATM   10  C3  UNL     1      27.925  -1.650  52.824  1.00  0.00     0.027 A 
HETATM   11  C2  UNL     1      28.521  -0.605  53.443  1.00  0.00    -0.068 C 
HETATM   12  C4  UNL     1      26.698  -2.229  52.109  1.00  0.00     0.057 A 
HETATM   13  C1  UNL     1      29.911  -0.999  53.888  1.00  0.00     0.044 C 
HETATM   14  C17 UNL     1      27.907   0.743  53.604  1.00  0.00     0.016 C 
HETATM   15  C16 UNL     1      26.998   0.700  52.543  1.00  0.00    -0.022 C 
ENDBRANCH   8   9
ENDBRANCH   1   8
BRANCH   5  16
HETATM   16  C9  UNL     1      19.345  -0.610  52.940  1.00  0.00    -0.007 A 
HETATM   17  C10 UNL     1      18.406  -1.433  53.474  1.00  0.00     0.014 A 
HETATM   18  C11 UNL     1      17.155  -1.620  52.945  1.00  0.00     0.001 A 
HETATM   19  C12 UNL     1      16.763  -0.969  51.816  1.00  0.00     0.000 A 
HETATM   20  C13 UNL     1      17.691  -0.125  51.249  1.00  0.00     0.001 A 
HETATM   21  C14 UNL     1      18.929   0.041  51.798  1.00  0.00     0.014 A 
ENDBRANCH   5  16
TORSDOF 3
ENDMDL
MODEL 2
REMARK VINA RESULT:      -7.4      5.088      8.559
REMARK  3 active torsions:
REMARK  status: ('A' for Active; 'I' for Inactive)
REMARK    1  A    between atoms: P1_5  and  C5_6 
REMARK    2  A    between atoms: C5_6  and  N1_7 
REMARK    3  A    between atoms: C8_11  and  C9_12 
ROOT
HETATM    1  N1  UNL     1      22.370   4.116  51.209  1.00  0.00    -0.246 NA
HETATM    2  C6  UNL     1      23.336   4.757  52.064  1.00  0.00     0.150 C 
HETATM    3  C7  UNL     1      23.897   6.007  51.518  1.00  0.00     0.105 C 
HETATM    4  N2  UNL     1      24.665   6.206  50.481  1.00  0.00    -0.263 NA
HETATM    5  C8  UNL     1      25.207   5.293  49.543  1.00  0.00     0.073 C 
HETATM    6  C15 UNL     1      24.564   4.181  49.255  1.00  0.00     0.094 C 
HETATM    7  S1  UNL     1      23.062   3.431  49.762  1.00  0.00    -0.051 SA
ENDROOT
BRANCH   1   8
HETATM    8  C5  UNL     1      21.832   2.999  51.980  1.00  0.00     0.139 C 
BRANCH   8   9
HETATM    9  P1  UNL     1      22.380   1.404  51.407  1.00  0.00    -0.078 P 
HETATM   10  C3  UNL     1      21.478  -0.064  52.458  1.00  0.00     0.027 A 
HETATM   11  C2  UNL     1      22.288   0.120  53.525  1.00  0.00    -0.068 C 
HETATM   12  C4  UNL     1      21.126   0.262  51.001  1.00  0.00     0.057 A 
HETATM   13  C1  UNL     1      21.803  -0.716  54.687  1.00  0.00     0.044 C 
HETATM   14  C17 UNL     1      23.506   0.978  53.521  1.00  0.00     0.016 C 
HETATM   15  C16 UNL     1      23.778   0.970  52.150  1.00  0.00    -0.022 C 
ENDBRANCH   8   9
ENDBRANCH   1   8
BRANCH   5  16
HETATM   16  C9  UNL     1      26.479   5.647  48.935  1.00  0.00    -0.007 A 
HETATM   17  C10 UNL     1      27.585   4.873  48.787  1.00  0.00     0.014 A 
HETATM   18  C11 UNL     1      28.748   5.297  48.196  1.00  0.00     0.001 A 
HETATM   19  C12 UNL     1      28.868   6.560  47.704  1.00  0.00     0.000 A 
HETATM   20  C13 UNL     1      27.763   7.371  47.837  1.00  0.00     0.001 A 
HETATM   21  C14 UNL     1      26.619   6.921  48.431  1.00  0.00     0.014 A 
ENDBRANCH   5  16
TORSDOF 3
ENDMDL
MODEL 3
REMARK VINA RESULT:      -7.4      2.527      8.348
REMARK  3 active torsions:
REMARK  status: ('A' for Active; 'I' for Inactive)
REMARK    1  A    between atoms: P1_5  and  C5_6 
REMARK    2  A    between atoms: C5_6  and  N1_7 
REMARK    3  A    between atoms: C8_11  and  C9_12 
ROOT
HETATM    1  N1  UNL     1      23.083   2.010  51.547  1.00  0.00    -0.246 NA
HETATM    2  C6  UNL     1      23.079   0.638  51.984  1.00  0.00     0.150 C 
HETATM    3  C7  UNL     1      23.806   0.398  53.245  1.00  0.00     0.105 C 
HETATM    4  N2  UNL     1      25.079   0.494  53.518  1.00  0.00    -0.263 NA
HETATM    5  C8  UNL     1      26.176   0.859  52.697  1.00  0.00     0.073 C 
HETATM    6  C15 UNL     1      26.001   1.691  51.693  1.00  0.00     0.094 C 
HETATM    7  S1  UNL     1      24.645   2.569  51.009  1.00  0.00    -0.051 SA
ENDROOT
BRANCH   1   8
HETATM    8  C5  UNL     1      22.200   2.064  50.386  1.00  0.00     0.139 C 
BRANCH   8   9
HETATM    9  P1  UNL     1      20.638   2.856  50.710  1.00  0.00    -0.078 P 
HETATM   10  C3  UNL     1      19.658   1.891  52.188  1.00  0.00     0.027 A 
HETATM   11  C2  UNL     1      19.275   0.891  51.361  1.00  0.00    -0.068 C 
HETATM   12  C4  UNL     1      20.315   3.264  52.374  1.00  0.00     0.057 A 
HETATM   13  C1  UNL     1      18.624  -0.214  52.161  1.00  0.00     0.044 C 
HETATM   14  C17 UNL     1      19.427   0.916  49.879  1.00  0.00     0.016 C 
HETATM   15  C16 UNL     1      19.482   2.299  49.686  1.00  0.00    -0.022 C 
ENDBRANCH   8   9
ENDBRANCH   1   8
BRANCH   5  16
HETATM   16  C9  UNL     1      27.467   0.278  53.022  1.00  0.00    -0.007 A 
HETATM   17  C10 UNL     1      28.599   0.913  53.421  1.00  0.00     0.014 A 
HETATM   18  C11 UNL     1      29.779   0.275  53.709  1.00  0.00     0.001 A 
HETATM   19  C12 UNL     1      29.890  -1.077  53.610  1.00  0.00     0.000 A 
HETATM   20  C13 UNL     1      28.760  -1.752  53.209  1.00  0.00     0.001 A 
HETATM   21  C14 UNL     1      27.599  -1.091  52.929  1.00  0.00     0.014 A 
ENDBRANCH   5  16
TORSDOF 3
ENDMDL
MODEL 4
REMARK VINA RESULT:      -7.3      2.366      8.240
REMARK  3 active torsions:
REMARK  status: ('A' for Active; 'I' for Inactive)
REMARK    1  A    between atoms: P1_5  and  C5_6 
REMARK    2  A    between atoms: C5_6  and  N1_7 
REMARK    3  A    between atoms: C8_11  and  C9_12 
ROOT
HETATM    1  N1  UNL     1      22.580   1.553  52.981  1.00  0.00    -0.246 NA
HETATM    2  C6  UNL     1      22.768   0.154  52.692  1.00  0.00     0.150 C 
HETATM    3  C7  UNL     1      23.597  -0.566  53.677  1.00  0.00     0.105 C 
HETATM    4  N2  UNL     1      24.864  -0.443  53.966  1.00  0.00    -0.263 NA
HETATM    5  C8  UNL     1      25.855   0.418  53.432  1.00  0.00     0.073 C 
HETATM    6  C15 UNL     1      25.519   1.600  52.961  1.00  0.00     0.094 C 
HETATM    7  S1  UNL     1      24.028   2.507  52.789  1.00  0.00    -0.051 SA
ENDROOT
BRANCH   1   8
HETATM    8  C5  UNL     1      21.626   2.043  51.991  1.00  0.00     0.139 C 
BRANCH   8   9
HETATM    9  P1  UNL     1      21.012   0.775  50.901  1.00  0.00    -0.078 P 
HETATM   10  C3  UNL     1      20.164   1.607  49.269  1.00  0.00     0.027 A 
HETATM   11  C2  UNL     1      19.039   1.933  49.946  1.00  0.00    -0.068 C 
HETATM   12  C4  UNL     1      21.517   0.885  49.235  1.00  0.00     0.057 A 
HETATM   13  C1  UNL     1      18.150   2.793  49.079  1.00  0.00     0.044 C 
HETATM   14  C17 UNL     1      18.715   1.458  51.321  1.00  0.00     0.016 C 
HETATM   15  C16 UNL     1      19.504   0.305  51.349  1.00  0.00    -0.022 C 
ENDBRANCH   8   9
ENDBRANCH   1   8
BRANCH   5  16
HETATM   16  C9  UNL     1      27.224  -0.068  53.436  1.00  0.00    -0.007 A 
HETATM   17  C10 UNL     1      27.678  -1.304  53.103  1.00  0.00     0.014 A 
HETATM   18  C11 UNL     1      28.999  -1.674  53.138  1.00  0.00     0.001 A 
HETATM   19  C12 UNL     1      29.966  -0.796  53.518  1.00  0.00     0.000 A 
HETATM   20  C13 UNL     1      29.539   0.467  53.861  1.00  0.00     0.001 A 
HETATM   21  C14 UNL     1      28.218   0.806  53.818  1.00  0.00     0.014 A 
ENDBRANCH   5  16
TORSDOF 3
ENDMDL
MODEL 5
REMARK VINA RESULT:      -7.2      3.560      8.117
REMARK  3 active torsions:
REMARK  status: ('A' for Active; 'I' for Inactive)
REMARK    1  A    between atoms: P1_5  and  C5_6 
REMARK    2  A    between atoms: C5_6  and  N1_7 
REMARK    3  A    between atoms: C8_11  and  C9_12 
ROOT
HETATM    1  N1  UNL     1      22.982   2.090  52.814  1.00  0.00    -0.246 NA
HETATM    2  C6  UNL     1      23.082   0.769  52.250  1.00  0.00     0.150 C 
HETATM    3  C7  UNL     1      23.715  -0.226  53.136  1.00  0.00     0.105 C 
HETATM    4  N2  UNL     1      24.942  -0.308  53.574  1.00  0.00    -0.263 NA
HETATM    5  C8  UNL     1      26.064   0.529  53.344  1.00  0.00     0.073 C 
HETATM    6  C15 UNL     1      25.894   1.812  53.108  1.00  0.00     0.094 C 
HETATM    7  S1  UNL     1      24.520   2.896  52.984  1.00  0.00    -0.051 SA
ENDROOT
BRANCH   1   8
HETATM    8  C5  UNL     1      22.206   2.876  51.861  1.00  0.00     0.139 C 
BRANCH   8   9
HETATM    9  P1  UNL     1      23.199   3.931  50.825  1.00  0.00    -0.078 P 
HETATM   10  C3  UNL     1      22.018   5.089  49.668  1.00  0.00     0.027 A 
HETATM   11  C2  UNL     1      21.750   4.071  48.819  1.00  0.00    -0.068 C 
HETATM   12  C4  UNL     1      22.812   5.631  50.864  1.00  0.00     0.057 A 
HETATM   13  C1  UNL     1      20.683   4.492  47.836  1.00  0.00     0.044 C 
HETATM   14  C17 UNL     1      22.452   2.757  48.829  1.00  0.00     0.016 C 
HETATM   15  C16 UNL     1      23.641   3.146  49.452  1.00  0.00    -0.022 C 
ENDBRANCH   8   9
ENDBRANCH   1   8
BRANCH   5  16
HETATM   16  C9  UNL     1      27.374  -0.098  53.384  1.00  0.00    -0.007 A 
HETATM   17  C10 UNL     1      27.699  -1.386  53.101  1.00  0.00     0.014 A 
HETATM   18  C11 UNL     1      28.973  -1.890  53.167  1.00  0.00     0.001 A 
HETATM   19  C12 UNL     1      30.024  -1.105  53.529  1.00  0.00     0.000 A 
HETATM   20  C13 UNL     1      29.728   0.207  53.822  1.00  0.00     0.001 A 
HETATM   21  C14 UNL     1      28.450   0.681  53.748  1.00  0.00     0.014 A 
ENDBRANCH   5  16
TORSDOF 3
ENDMDL
MODEL 6
REMARK VINA RESULT:      -7.1      5.515      9.166
REMARK  3 active torsions:
REMARK  status: ('A' for Active; 'I' for Inactive)
REMARK    1  A    between atoms: P1_5  and  C5_6 
REMARK    2  A    between atoms: C5_6  and  N1_7 
REMARK    3  A    between atoms: C8_11  and  C9_12 
ROOT
HETATM    1  N1  UNL     1      24.334   4.431  48.977  1.00  0.00    -0.246 NA
HETATM    2  C6  UNL     1      25.591   5.003  49.384  1.00  0.00     0.150 C 
HETATM    3  C7  UNL     1      26.729   4.065  49.342  1.00  0.00     0.105 C 
HETATM    4  N2  UNL     1      26.971   2.998  50.053  1.00  0.00    -0.263 NA
HETATM    5  C8  UNL     1      26.223   2.391  51.094  1.00  0.00     0.073 C 
HETATM    6  C15 UNL     1      24.912   2.498  51.114  1.00  0.00     0.094 C 
HETATM    7  S1  UNL     1      23.697   3.265  50.107  1.00  0.00    -0.051 SA
ENDROOT
BRANCH   1   8
HETATM    8  C5  UNL     1      23.382   5.537  48.943  1.00  0.00     0.139 C 
BRANCH   8   9
HETATM    9  P1  UNL     1      23.123   6.307  50.528  1.00  0.00    -0.078 P 
HETATM   10  C3  UNL     1      21.330   7.235  50.570  1.00  0.00     0.027 A 
HETATM   11  C2  UNL     1      21.789   8.281  49.847  1.00  0.00    -0.068 C 
HETATM   12  C4  UNL     1      21.618   5.931  51.326  1.00  0.00     0.057 A 
HETATM   13  C1  UNL     1      20.639   9.188  49.472  1.00  0.00     0.044 C 
HETATM   14  C17 UNL     1      23.224   8.521  49.525  1.00  0.00     0.016 C 
HETATM   15  C16 UNL     1      23.808   7.798  50.569  1.00  0.00    -0.022 C 
ENDBRANCH   8   9
ENDBRANCH   1   8
BRANCH   5  16
HETATM   16  C9  UNL     1      26.970   1.665  52.106  1.00  0.00    -0.007 A 
HETATM   17  C10 UNL     1      27.856   2.155  53.011  1.00  0.00     0.014 A 
HETATM   18  C11 UNL     1      28.517   1.387  53.935  1.00  0.00     0.001 A 
HETATM   19  C12 UNL     1      28.317   0.043  54.006  1.00  0.00     0.000 A 
HETATM   20  C13 UNL     1      27.423  -0.487  53.104  1.00  0.00     0.001 A 
HETATM   21  C14 UNL     1      26.780   0.303  52.194  1.00  0.00     0.014 A 
ENDBRANCH   5  16
TORSDOF 3
ENDMDL
MODEL 7
REMARK VINA RESULT:      -7.0      4.329      8.297
REMARK  3 active torsions:
REMARK  status: ('A' for Active; 'I' for Inactive)
REMARK    1  A    between atoms: P1_5  and  C5_6 
REMARK    2  A    between atoms: C5_6  and  N1_7 
REMARK    3  A    between atoms: C8_11  and  C9_12 
ROOT
HETATM    1  N1  UNL     1      23.643   2.779  51.378  1.00  0.00    -0.246 NA
HETATM    2  C6  UNL     1      24.894   3.492  51.427  1.00  0.00     0.150 C 
HETATM    3  C7  UNL     1      26.025   2.783  50.799  1.00  0.00     0.105 C 
HETATM    4  N2  UNL     1      26.627   1.679  51.147  1.00  0.00    -0.263 NA
HETATM    5  C8  UNL     1      26.394   0.801  52.236  1.00  0.00     0.073 C 
HETATM    6  C15 UNL     1      25.183   0.675  52.735  1.00  0.00     0.094 C 
HETATM    7  S1  UNL     1      23.606   1.362  52.395  1.00  0.00    -0.051 SA
ENDROOT
BRANCH   1   8
HETATM    8  C5  UNL     1      22.638   3.695  51.906  1.00  0.00     0.139 C 
BRANCH   8   9
HETATM    9  P1  UNL     1      21.467   4.253  50.685  1.00  0.00    -0.078 P 
HETATM   10  C3  UNL     1      22.399   4.602  48.929  1.00  0.00     0.027 A 
HETATM   11  C2  UNL     1      22.902   5.780  49.362  1.00  0.00    -0.068 C 
HETATM   12  C4  UNL     1      21.477   3.399  49.164  1.00  0.00     0.057 A 
HETATM   13  C1  UNL     1      23.878   6.326  48.346  1.00  0.00     0.044 C 
HETATM   14  C17 UNL     1      22.500   6.455  50.628  1.00  0.00     0.016 C 
HETATM   15  C16 UNL     1      21.239   5.875  50.797  1.00  0.00    -0.022 C 
ENDBRANCH   8   9
ENDBRANCH   1   8
BRANCH   5  16
HETATM   16  C9  UNL     1      27.539   0.071  52.752  1.00  0.00    -0.007 A 
HETATM   17  C10 UNL     1      27.719  -1.273  52.818  1.00  0.00     0.014 A 
HETATM   18  C11 UNL     1      28.842  -1.876  53.326  1.00  0.00     0.001 A 
HETATM   19  C12 UNL     1      29.879  -1.139  53.809  1.00  0.00     0.000 A 
HETATM   20  C13 UNL     1      29.729   0.228  53.756  1.00  0.00     0.001 A 
HETATM   21  C14 UNL     1      28.599   0.800  53.246  1.00  0.00     0.014 A 
ENDBRANCH   5  16
TORSDOF 3
ENDMDL
MODEL 8
REMARK VINA RESULT:      -6.8      5.115      6.563
REMARK  3 active torsions:
REMARK  status: ('A' for Active; 'I' for Inactive)
REMARK    1  A    between atoms: P1_5  and  C5_6 
REMARK    2  A    between atoms: C5_6  and  N1_7 
REMARK    3  A    between atoms: C8_11  and  C9_12 
ROOT
HETATM    1  N1  UNL     1      23.227   4.986  50.767  1.00  0.00    -0.246 NA
HETATM    2  C6  UNL     1      24.346   4.287  51.345  1.00  0.00     0.150 C 
HETATM    3  C7  UNL     1      24.378   2.841  51.054  1.00  0.00     0.105 C 
HETATM    4  N2  UNL     1      23.572   1.886  51.430  1.00  0.00    -0.263 NA
HETATM    5  C8  UNL     1      22.406   1.922  52.236  1.00  0.00     0.073 C 
HETATM    6  C15 UNL     1      21.655   3.003  52.262  1.00  0.00     0.094 C 
HETATM    7  S1  UNL     1      21.696   4.581  51.498  1.00  0.00    -0.051 SA
ENDROOT
BRANCH   1   8
HETATM    8  C5  UNL     1      23.455   6.401  51.038  1.00  0.00     0.139 C 
BRANCH   8   9
HETATM    9  P1  UNL     1      23.749   7.372  49.573  1.00  0.00    -0.078 P 
HETATM   10  C3  UNL     1      24.980   6.384  48.315  1.00  0.00     0.027 A 
HETATM   11  C2  UNL     1      26.073   6.688  49.050  1.00  0.00    -0.068 C 
HETATM   12  C4  UNL     1      23.480   6.565  48.051  1.00  0.00     0.057 A 
HETATM   13  C1  UNL     1      27.273   5.938  48.520  1.00  0.00     0.044 C 
HETATM   14  C17 UNL     1      26.088   7.664  50.177  1.00  0.00     0.016 C 
HETATM   15  C16 UNL     1      24.978   8.433  49.818  1.00  0.00    -0.022 C 
ENDBRANCH   8   9
ENDBRANCH   1   8
BRANCH   5  16
HETATM   16  C9  UNL     1      22.099   0.731  53.008  1.00  0.00    -0.007 A 
HETATM   17  C10 UNL     1      22.963  -0.159  53.560  1.00  0.00     0.014 A 
HETATM   18  C11 UNL     1      22.578  -1.263  54.278  1.00  0.00     0.001 A 
HETATM   19  C12 UNL     1      21.263  -1.542  54.489  1.00  0.00     0.000 A 
HETATM   20  C13 UNL     1      20.360  -0.658  53.943  1.00  0.00     0.001 A 
HETATM   21  C14 UNL     1      20.773   0.432  53.232  1.00  0.00     0.014 A 
ENDBRANCH   5  16
TORSDOF 3
ENDMDL
MODEL 9
REMARK VINA RESULT:      -6.8      4.305      5.422
REMARK  3 active torsions:
REMARK  status: ('A' for Active; 'I' for Inactive)
REMARK    1  A    between atoms: P1_5  and  C5_6 
REMARK    2  A    between atoms: C5_6  and  N1_7 
REMARK    3  A    between atoms: C8_11  and  C9_12 
ROOT
HETATM    1  N1  UNL     1      22.236   3.673  48.980  1.00  0.00    -0.246 NA
HETATM    2  C6  UNL     1      21.988   2.403  48.349  1.00  0.00     0.150 C 
HETATM    3  C7  UNL     1      20.583   1.958  48.405  1.00  0.00     0.105 C 
HETATM    4  N2  UNL     1      19.848   1.608  49.425  1.00  0.00    -0.263 NA
HETATM    5  C8  UNL     1      20.156   1.540  50.807  1.00  0.00     0.073 C 
HETATM    6  C15 UNL     1      21.053   2.351  51.324  1.00  0.00     0.094 C 
HETATM    7  S1  UNL     1      22.089   3.630  50.718  1.00  0.00    -0.051 SA
ENDROOT
BRANCH   1   8
HETATM    8  C5  UNL     1      23.628   4.001  48.690  1.00  0.00     0.139 C 
BRANCH   8   9
HETATM    9  P1  UNL     1      24.535   4.589  50.105  1.00  0.00    -0.078 P 
HETATM   10  C3  UNL     1      26.074   5.755  49.515  1.00  0.00     0.027 A 
HETATM   11  C2  UNL     1      26.822   4.688  49.154  1.00  0.00    -0.068 C 
HETATM   12  C4  UNL     1      24.808   6.310  50.181  1.00  0.00     0.057 A 
HETATM   13  C1  UNL     1      28.071   5.154  48.443  1.00  0.00     0.044 C 
HETATM   14  C17 UNL     1      26.479   3.272  49.469  1.00  0.00     0.016 C 
HETATM   15  C16 UNL     1      25.655   3.485  50.577  1.00  0.00    -0.022 C 
ENDBRANCH   8   9
ENDBRANCH   1   8
BRANCH   5  16
HETATM   16  C9  UNL     1      19.441   0.551  51.595  1.00  0.00    -0.007 A 
HETATM   17  C10 UNL     1      18.212   0.020  51.365  1.00  0.00     0.014 A 
HETATM   18  C11 UNL     1      17.615  -0.916  52.170  1.00  0.00     0.001 A 
HETATM   19  C12 UNL     1      18.237  -1.386  53.285  1.00  0.00     0.000 A 
HETATM   20  C13 UNL     1      19.486  -0.869  53.547  1.00  0.00     0.001 A 
HETATM   21  C14 UNL     1      20.055   0.063  52.728  1.00  0.00     0.014 A 
ENDBRANCH   5  16
TORSDOF 3
ENDMDL
