MODEL 1
REMARK VINA RESULT:      -9.4      0.000      0.000
REMARK  4 active torsions:
REMARK  status: ('A' for Active; 'I' for Inactive)
REMARK    1  A    between atoms: C5_5  and  N1_6 
REMARK    2  A    between atoms: N1_6  and  C6_7 
REMARK    3  A    between atoms: C10_13  and  C11_14 
REMARK    4  A    between atoms: C12_15  and  C13_16 
ROOT
HETATM    1  C1  UNL     1      22.850  -0.895  53.903  1.00  0.00     0.076 C 
HETATM    2  C2  UNL     1      23.465   0.163  53.091  1.00  0.00     0.043 C 
HETATM    3  C3  UNL     1      23.560   1.139  52.238  1.00  0.00     0.044 C 
HETATM    4  C4  UNL     1      24.158   2.180  51.438  1.00  0.00    -0.018 C 
HETATM    5  C5  UNL     1      23.215   2.758  50.725  1.00  0.00     0.101 C 
HETATM    6  C14 UNL     1      25.560   2.542  51.396  1.00  0.00     0.014 C 
HETATM    7  C15 UNL     1      26.774   2.341  51.827  1.00  0.00     0.016 C 
HETATM    8  C16 UNL     1      27.470   1.470  52.759  1.00  0.00     0.011 A 
HETATM    9  C17 UNL     1      28.618   1.872  53.398  1.00  0.00     0.127 A 
HETATM   10  F1  UNL     1      29.095   3.129  53.151  1.00  0.00    -0.205 F 
HETATM   11  C18 UNL     1      29.350   1.116  54.289  1.00  0.00     0.043 A 
HETATM   12  C19 UNL     1      28.860  -0.146  54.537  1.00  0.00     0.004 A 
HETATM   13  C20 UNL     1      27.728  -0.649  53.959  1.00  0.00     0.010 A 
HETATM   14  C21 UNL     1      27.096   0.199  53.097  1.00  0.00    -0.021 A 
HETATM   15  C22 UNL     1      25.831  -0.306  52.475  1.00  0.00     0.214 C 
HETATM   16  O1  UNL     1      24.801   0.280  53.285  1.00  0.00    -0.351 OA
ENDROOT
BRANCH   5  17
HETATM   17  N1  UNL     1      23.141   3.799  49.780  1.00  0.00    -0.349 N 
HETATM   18  H6  UNL     1      23.255   3.326  48.835  1.00  0.00     0.167 HD
BRANCH  17  19
HETATM   19  C6  UNL     1      22.952   5.174  50.048  1.00  0.00     0.149 A 
HETATM   20  N2  UNL     1      21.691   5.499  50.463  1.00  0.00    -0.223 NA
HETATM   21  C7  UNL     1      21.466   6.823  50.726  1.00  0.00     0.235 A 
HETATM   22  N3  UNL     1      22.438   7.753  50.582  1.00  0.00    -0.245 NA
HETATM   23  C8  UNL     1      23.668   7.388  50.170  1.00  0.00     0.054 A 
HETATM   24  C9  UNL     1      24.734   8.430  50.013  1.00  0.00     0.072 C 
HETATM   25  C10 UNL     1      23.984   6.057  49.881  1.00  0.00     0.088 A 
BRANCH  25  26
HETATM   26  C11 UNL     1      25.283   5.630  49.444  1.00  0.00    -0.060 C 
HETATM   27  C12 UNL     1      26.365   5.252  49.080  1.00  0.00    -0.086 C 
BRANCH  27  28
HETATM   28  C13 UNL     1      27.678   4.767  48.638  1.00  0.00     0.208 C 
HETATM   29 CL1  UNL     1      28.782   6.118  48.252  1.00  0.00    -0.117 Cl
ENDBRANCH  27  28
ENDBRANCH  25  26
ENDBRANCH  17  19
ENDBRANCH   5  17
TORSDOF 4
ENDMDL
MODEL 2
REMARK VINA RESULT:      -8.9      2.936      4.872
REMARK  4 active torsions:
REMARK  status: ('A' for Active; 'I' for Inactive)
REMARK    1  A    between atoms: C5_5  and  N1_6 
REMARK    2  A    between atoms: N1_6  and  C6_7 
REMARK    3  A    between atoms: C10_13  and  C11_14 
REMARK    4  A    between atoms: C12_15  and  C13_16 
ROOT
HETATM    1  C1  UNL     1      28.306  -0.531  53.509  1.00  0.00     0.076 C 
HETATM    2  C2  UNL     1      27.294   0.242  52.778  1.00  0.00     0.043 C 
HETATM    3  C3  UNL     1      26.791   1.095  51.938  1.00  0.00     0.044 C 
HETATM    4  C4  UNL     1      25.801   1.857  51.216  1.00  0.00    -0.018 C 
HETATM    5  C5  UNL     1      26.416   2.650  50.366  1.00  0.00     0.101 C 
HETATM    6  C14 UNL     1      24.364   1.790  51.387  1.00  0.00     0.014 C 
HETATM    7  C15 UNL     1      23.339   1.261  51.995  1.00  0.00     0.016 C 
HETATM    8  C16 UNL     1      23.074   0.266  53.021  1.00  0.00     0.011 A 
HETATM    9  C17 UNL     1      21.907  -0.459  53.035  1.00  0.00     0.127 A 
HETATM   10  F1  UNL     1      20.990  -0.235  52.047  1.00  0.00    -0.205 F 
HETATM   11  C18 UNL     1      21.565  -1.414  53.969  1.00  0.00     0.043 A 
HETATM   12  C19 UNL     1      22.495  -1.637  54.957  1.00  0.00     0.004 A 
HETATM   13  C20 UNL     1      23.689  -0.976  55.040  1.00  0.00     0.010 A 
HETATM   14  C21 UNL     1      23.908  -0.057  54.057  1.00  0.00    -0.021 A 
HETATM   15  C22 UNL     1      25.222   0.660  54.095  1.00  0.00     0.214 C 
HETATM   16  O1  UNL     1      26.024  -0.058  53.145  1.00  0.00    -0.351 OA
ENDROOT
BRANCH   5  17
HETATM   17  N1  UNL     1      26.040   3.610  49.408  1.00  0.00    -0.349 N 
HETATM   18  H6  UNL     1      25.180   3.206  48.931  1.00  0.00     0.167 HD
BRANCH  17  19
HETATM   19  C6  UNL     1      26.677   4.845  49.150  1.00  0.00     0.149 A 
HETATM   20  N2  UNL     1      27.915   4.734  48.581  1.00  0.00    -0.223 NA
HETATM   21  C7  UNL     1      28.567   5.908  48.323  1.00  0.00     0.235 A 
HETATM   22  N3  UNL     1      28.016   7.109  48.616  1.00  0.00    -0.245 NA
HETATM   23  C8  UNL     1      26.793   7.172  49.177  1.00  0.00     0.054 A 
HETATM   24  C9  UNL     1      26.196   8.510  49.499  1.00  0.00     0.072 C 
HETATM   25  C10 UNL     1      26.056   6.021  49.474  1.00  0.00     0.088 A 
BRANCH  25  26
HETATM   26  C11 UNL     1      24.749   6.050  50.068  1.00  0.00    -0.060 C 
HETATM   27  C12 UNL     1      23.653   6.052  50.562  1.00  0.00    -0.086 C 
BRANCH  27  28
HETATM   28  C13 UNL     1      22.315   6.030  51.165  1.00  0.00     0.208 C 
HETATM   29 CL1  UNL     1      22.137   4.678  52.321  1.00  0.00    -0.117 Cl
ENDBRANCH  27  28
ENDBRANCH  25  26
ENDBRANCH  17  19
ENDBRANCH   5  17
TORSDOF 4
ENDMDL
MODEL 3
REMARK VINA RESULT:      -8.9      3.164      6.824
REMARK  4 active torsions:
REMARK  status: ('A' for Active; 'I' for Inactive)
REMARK    1  A    between atoms: C5_5  and  N1_6 
REMARK    2  A    between atoms: N1_6  and  C6_7 
REMARK    3  A    between atoms: C10_13  and  C11_14 
REMARK    4  A    between atoms: C12_15  and  C13_16 
ROOT
HETATM    1  C1  UNL     1      20.910   6.685  50.411  1.00  0.00     0.076 C 
HETATM    2  C2  UNL     1      21.725   5.466  50.492  1.00  0.00     0.043 C 
HETATM    3  C3  UNL     1      22.025   4.216  50.686  1.00  0.00     0.044 C 
HETATM    4  C4  UNL     1      22.820   3.015  50.767  1.00  0.00    -0.018 C 
HETATM    5  C5  UNL     1      22.041   2.017  51.124  1.00  0.00     0.101 C 
HETATM    6  C14 UNL     1      24.242   2.900  50.514  1.00  0.00     0.014 C 
HETATM    7  C15 UNL     1      25.362   3.476  50.176  1.00  0.00     0.016 C 
HETATM    8  C16 UNL     1      25.841   4.798  49.807  1.00  0.00     0.011 A 
HETATM    9  C17 UNL     1      26.923   4.964  48.976  1.00  0.00     0.127 A 
HETATM   10  F1  UNL     1      27.543   3.850  48.484  1.00  0.00    -0.205 F 
HETATM   11  C18 UNL     1      27.453   6.173  48.578  1.00  0.00     0.043 A 
HETATM   12  C19 UNL     1      26.820   7.289  49.073  1.00  0.00     0.004 A 
HETATM   13  C20 UNL     1      25.736   7.242  49.905  1.00  0.00     0.010 A 
HETATM   14  C21 UNL     1      25.309   5.987  50.223  1.00  0.00    -0.021 A 
HETATM   15  C22 UNL     1      24.099   5.897  51.103  1.00  0.00     0.214 C 
HETATM   16  O1  UNL     1      23.027   5.670  50.176  1.00  0.00    -0.351 OA
ENDROOT
BRANCH   5  17
HETATM   17  N1  UNL     1      22.194   0.640  51.371  1.00  0.00    -0.349 N 
HETATM   18  H6  UNL     1      22.494   0.221  50.441  1.00  0.00     0.167 HD
BRANCH  17  19
HETATM   19  C6  UNL     1      21.992  -0.027  52.601  1.00  0.00     0.149 A 
HETATM   20  N2  UNL     1      20.684  -0.288  52.894  1.00  0.00    -0.223 NA
HETATM   21  C7  UNL     1      20.447  -0.927  54.080  1.00  0.00     0.235 A 
HETATM   22  N3  UNL     1      21.454  -1.278  54.913  1.00  0.00    -0.245 NA
HETATM   23  C8  UNL     1      22.731  -1.000  54.585  1.00  0.00     0.054 A 
HETATM   24  C9  UNL     1      23.836  -1.393  55.520  1.00  0.00     0.072 C 
HETATM   25  C10 UNL     1      23.062  -0.351  53.392  1.00  0.00     0.088 A 
BRANCH  25  26
HETATM   26  C11 UNL     1      24.410  -0.043  53.007  1.00  0.00    -0.060 C 
HETATM   27  C12 UNL     1      25.547   0.198  52.696  1.00  0.00    -0.086 C 
BRANCH  27  28
HETATM   28  C13 UNL     1      26.941   0.470  52.327  1.00  0.00     0.208 C 
HETATM   29 CL1  UNL     1      28.084  -0.422  53.372  1.00  0.00    -0.117 Cl
ENDBRANCH  27  28
ENDBRANCH  25  26
ENDBRANCH  17  19
ENDBRANCH   5  17
TORSDOF 4
ENDMDL
MODEL 4
REMARK VINA RESULT:      -8.6      2.882      4.617
REMARK  4 active torsions:
REMARK  status: ('A' for Active; 'I' for Inactive)
REMARK    1  A    between atoms: C5_5  and  N1_6 
REMARK    2  A    between atoms: N1_6  and  C6_7 
REMARK    3  A    between atoms: C10_13  and  C11_14 
REMARK    4  A    between atoms: C12_15  and  C13_16 
ROOT
HETATM    1  C1  UNL     1      28.144  -0.377  53.103  1.00  0.00     0.076 C 
HETATM    2  C2  UNL     1      27.141   0.446  52.414  1.00  0.00     0.043 C 
HETATM    3  C3  UNL     1      26.648   1.345  51.615  1.00  0.00     0.044 C 
HETATM    4  C4  UNL     1      25.668   2.156  50.935  1.00  0.00    -0.018 C 
HETATM    5  C5  UNL     1      26.292   2.974  50.116  1.00  0.00     0.101 C 
HETATM    6  C14 UNL     1      24.231   2.108  51.114  1.00  0.00     0.014 C 
HETATM    7  C15 UNL     1      23.201   1.571  51.707  1.00  0.00     0.016 C 
HETATM    8  C16 UNL     1      22.925   0.537  52.690  1.00  0.00     0.011 A 
HETATM    9  C17 UNL     1      21.744  -0.166  52.682  1.00  0.00     0.127 A 
HETATM   10  F1  UNL     1      20.824   0.118  51.711  1.00  0.00    -0.205 F 
HETATM   11  C18 UNL     1      21.390  -1.155  53.575  1.00  0.00     0.043 A 
HETATM   12  C19 UNL     1      22.324  -1.438  54.546  1.00  0.00     0.004 A 
HETATM   13  C20 UNL     1      23.530  -0.803  54.649  1.00  0.00     0.010 A 
HETATM   14  C21 UNL     1      23.759   0.155  53.704  1.00  0.00    -0.021 A 
HETATM   15  C22 UNL     1      25.087   0.845  53.763  1.00  0.00     0.214 C 
HETATM   16  O1  UNL     1      25.868   0.154  52.777  1.00  0.00    -0.351 OA
ENDROOT
BRANCH   5  17
HETATM   17  N1  UNL     1      25.927   3.981  49.202  1.00  0.00    -0.349 N 
HETATM   18  H6  UNL     1      26.249   3.627  48.253  1.00  0.00     0.167 HD
BRANCH  17  19
HETATM   19  C6  UNL     1      25.269   5.196  49.500  1.00  0.00     0.149 A 
HETATM   20  N2  UNL     1      26.072   6.150  50.058  1.00  0.00    -0.223 NA
HETATM   21  C7  UNL     1      25.469   7.339  50.367  1.00  0.00     0.235 A 
HETATM   22  N3  UNL     1      24.153   7.553  50.133  1.00  0.00    -0.245 NA
HETATM   23  C8  UNL     1      23.398   6.583  49.581  1.00  0.00     0.054 A 
HETATM   24  C9  UNL     1      21.942   6.834  49.330  1.00  0.00     0.072 C 
HETATM   25  C10 UNL     1      23.934   5.339  49.234  1.00  0.00     0.088 A 
BRANCH  25  26
HETATM   26  C11 UNL     1      23.162   4.284  48.641  1.00  0.00    -0.060 C 
HETATM   27  C12 UNL     1      22.497   3.408  48.153  1.00  0.00    -0.086 C 
BRANCH  27  28
HETATM   28  C13 UNL     1      21.665   2.352  47.565  1.00  0.00     0.208 C 
HETATM   29 CL1  UNL     1      21.513   0.948  48.661  1.00  0.00    -0.117 Cl
ENDBRANCH  27  28
ENDBRANCH  25  26
ENDBRANCH  17  19
ENDBRANCH   5  17
TORSDOF 4
ENDMDL
MODEL 5
REMARK VINA RESULT:      -8.5      3.212      7.180
REMARK  4 active torsions:
REMARK  status: ('A' for Active; 'I' for Inactive)
REMARK    1  A    between atoms: C5_5  and  N1_6 
REMARK    2  A    between atoms: N1_6  and  C6_7 
REMARK    3  A    between atoms: C10_13  and  C11_14 
REMARK    4  A    between atoms: C12_15  and  C13_16 
ROOT
HETATM    1  C1  UNL     1      21.533   5.514  47.423  1.00  0.00     0.076 C 
HETATM    2  C2  UNL     1      22.539   4.842  48.255  1.00  0.00     0.043 C 
HETATM    3  C3  UNL     1      23.050   3.987  49.089  1.00  0.00     0.044 C 
HETATM    4  C4  UNL     1      24.033   3.322  49.909  1.00  0.00    -0.018 C 
HETATM    5  C5  UNL     1      23.454   2.319  50.532  1.00  0.00     0.101 C 
HETATM    6  C14 UNL     1      25.429   3.684  50.051  1.00  0.00     0.014 C 
HETATM    7  C15 UNL     1      26.412   4.473  49.721  1.00  0.00     0.016 C 
HETATM    8  C16 UNL     1      26.646   5.627  48.867  1.00  0.00     0.011 A 
HETATM    9  C17 UNL     1      27.879   5.870  48.310  1.00  0.00     0.127 A 
HETATM   10  F1  UNL     1      28.893   4.991  48.565  1.00  0.00    -0.205 F 
HETATM   11  C18 UNL     1      28.197   6.937  47.498  1.00  0.00     0.043 A 
HETATM   12  C19 UNL     1      27.169   7.815  47.242  1.00  0.00     0.004 A 
HETATM   13  C20 UNL     1      25.904   7.671  47.742  1.00  0.00     0.010 A 
HETATM   14  C21 UNL     1      25.719   6.574  48.531  1.00  0.00    -0.021 A 
HETATM   15  C22 UNL     1      24.335   6.363  49.065  1.00  0.00     0.214 C 
HETATM   16  O1  UNL     1      23.770   5.400  48.163  1.00  0.00    -0.351 OA
ENDROOT
BRANCH   5  17
HETATM   17  N1  UNL     1      23.845   1.319  51.443  1.00  0.00    -0.349 N 
HETATM   18  H6  UNL     1      24.898   1.232  51.327  1.00  0.00     0.167 HD
BRANCH  17  19
HETATM   19  C6  UNL     1      23.004   0.598  52.321  1.00  0.00     0.149 A 
HETATM   20  N2  UNL     1      21.684   0.603  51.970  1.00  0.00    -0.223 NA
HETATM   21  C7  UNL     1      20.836  -0.079  52.800  1.00  0.00     0.235 A 
HETATM   22  N3  UNL     1      21.284  -0.720  53.904  1.00  0.00    -0.245 NA
HETATM   23  C8  UNL     1      22.595  -0.699  54.214  1.00  0.00     0.054 A 
HETATM   24  C9  UNL     1      23.075  -1.412  55.442  1.00  0.00     0.072 C 
HETATM   25  C10 UNL     1      23.530  -0.027  53.420  1.00  0.00     0.088 A 
BRANCH  25  26
HETATM   26  C11 UNL     1      24.934   0.014  53.716  1.00  0.00    -0.060 C 
HETATM   27  C12 UNL     1      26.106   0.050  53.984  1.00  0.00    -0.086 C 
BRANCH  27  28
HETATM   28  C13 UNL     1      27.529   0.093  54.337  1.00  0.00     0.208 C 
HETATM   29 CL1  UNL     1      28.504  -0.955  53.267  1.00  0.00    -0.117 Cl
ENDBRANCH  27  28
ENDBRANCH  25  26
ENDBRANCH  17  19
ENDBRANCH   5  17
TORSDOF 4
ENDMDL
MODEL 6
REMARK VINA RESULT:      -8.4      3.269      5.260
REMARK  4 active torsions:
REMARK  status: ('A' for Active; 'I' for Inactive)
REMARK    1  A    between atoms: C5_5  and  N1_6 
REMARK    2  A    between atoms: N1_6  and  C6_7 
REMARK    3  A    between atoms: C10_13  and  C11_14 
REMARK    4  A    between atoms: C12_15  and  C13_16 
ROOT
HETATM    1  C1  UNL     1      27.565   0.653  53.099  1.00  0.00     0.076 C 
HETATM    2  C2  UNL     1      26.882   1.470  52.087  1.00  0.00     0.043 C 
HETATM    3  C3  UNL     1      26.720   2.344  51.139  1.00  0.00     0.044 C 
HETATM    4  C4  UNL     1      26.055   3.149  50.144  1.00  0.00    -0.018 C 
HETATM    5  C5  UNL     1      26.949   3.912  49.552  1.00  0.00     0.101 C 
HETATM    6  C14 UNL     1      24.640   3.148  49.834  1.00  0.00     0.014 C 
HETATM    7  C15 UNL     1      23.450   2.667  50.067  1.00  0.00     0.016 C 
HETATM    8  C16 UNL     1      22.821   1.687  50.937  1.00  0.00     0.011 A 
HETATM    9  C17 UNL     1      21.683   1.017  50.559  1.00  0.00     0.127 A 
HETATM   10  F1  UNL     1      21.150   1.280  49.328  1.00  0.00    -0.205 F 
HETATM   11  C18 UNL     1      21.012   0.080  51.317  1.00  0.00     0.043 A 
HETATM   12  C19 UNL     1      21.558  -0.183  52.552  1.00  0.00     0.004 A 
HETATM   13  C20 UNL     1      22.686   0.423  53.030  1.00  0.00     0.010 A 
HETATM   14  C21 UNL     1      23.255   1.329  52.184  1.00  0.00    -0.021 A 
HETATM   15  C22 UNL     1      24.515   1.985  52.659  1.00  0.00     0.214 C 
HETATM   16  O1  UNL     1      25.550   1.229  52.014  1.00  0.00    -0.351 OA
ENDROOT
BRANCH   5  17
HETATM   17  N1  UNL     1      26.949   4.886  48.536  1.00  0.00    -0.349 N 
HETATM   18  H6  UNL     1      26.441   4.435  47.718  1.00  0.00     0.167 HD
BRANCH  17  19
HETATM   19  C6  UNL     1      27.507   6.182  48.606  1.00  0.00     0.149 A 
HETATM   20  N2  UNL     1      28.720   6.309  47.991  1.00  0.00    -0.223 NA
HETATM   21  C7  UNL     1      29.296   7.549  48.043  1.00  0.00     0.235 A 
HETATM   22  N3  UNL     1      28.695   8.588  48.669  1.00  0.00    -0.245 NA
HETATM   23  C8  UNL     1      27.498   8.418  49.264  1.00  0.00     0.054 A 
HETATM   24  C9  UNL     1      26.846   9.577  49.956  1.00  0.00     0.072 C 
HETATM   25  C10 UNL     1      26.839   7.184  49.257  1.00  0.00     0.088 A 
BRANCH  25  26
HETATM   26  C11 UNL     1      25.562   6.967  49.876  1.00  0.00    -0.060 C 
HETATM   27  C12 UNL     1      24.502   6.774  50.410  1.00  0.00    -0.086 C 
BRANCH  27  28
HETATM   28  C13 UNL     1      23.221   6.527  51.081  1.00  0.00     0.208 C 
HETATM   29 CL1  UNL     1      23.389   5.338  52.404  1.00  0.00    -0.117 Cl
ENDBRANCH  27  28
ENDBRANCH  25  26
ENDBRANCH  17  19
ENDBRANCH   5  17
TORSDOF 4
ENDMDL
MODEL 7
REMARK VINA RESULT:      -8.4      3.967      7.883
REMARK  4 active torsions:
REMARK  status: ('A' for Active; 'I' for Inactive)
REMARK    1  A    between atoms: C5_5  and  N1_6 
REMARK    2  A    between atoms: N1_6  and  C6_7 
REMARK    3  A    between atoms: C10_13  and  C11_14 
REMARK    4  A    between atoms: C12_15  and  C13_16 
ROOT
HETATM    1  C1  UNL     1      23.466   7.755  50.788  1.00  0.00     0.076 C 
HETATM    2  C2  UNL     1      23.612   6.321  51.071  1.00  0.00     0.043 C 
HETATM    3  C3  UNL     1      23.948   5.235  51.701  1.00  0.00     0.044 C 
HETATM    4  C4  UNL     1      24.094   3.828  51.985  1.00  0.00    -0.018 C 
HETATM    5  C5  UNL     1      24.714   3.692  53.137  1.00  0.00     0.101 C 
HETATM    6  C14 UNL     1      23.652   2.728  51.153  1.00  0.00     0.014 C 
HETATM    7  C15 UNL     1      23.066   2.325  50.060  1.00  0.00     0.016 C 
HETATM    8  C16 UNL     1      22.429   2.901  48.887  1.00  0.00     0.011 A 
HETATM    9  C17 UNL     1      21.430   2.240  48.214  1.00  0.00     0.127 A 
HETATM   10  F1  UNL     1      21.029   1.019  48.679  1.00  0.00    -0.205 F 
HETATM   11  C18 UNL     1      20.775   2.701  47.092  1.00  0.00     0.043 A 
HETATM   12  C19 UNL     1      21.181   3.933  46.633  1.00  0.00     0.004 A 
HETATM   13  C20 UNL     1      22.163   4.679  47.224  1.00  0.00     0.010 A 
HETATM   14  C21 UNL     1      22.732   4.111  48.327  1.00  0.00    -0.021 A 
HETATM   15  C22 UNL     1      23.785   4.917  49.022  1.00  0.00     0.214 C 
HETATM   16  O1  UNL     1      23.076   5.528  50.111  1.00  0.00    -0.351 OA
ENDROOT
BRANCH   5  17
HETATM   17  N1  UNL     1      25.146   2.624  53.945  1.00  0.00    -0.349 N 
HETATM   18  H6  UNL     1      24.501   2.636  54.791  1.00  0.00     0.167 HD
BRANCH  17  19
HETATM   19  C6  UNL     1      26.208   1.732  53.674  1.00  0.00     0.149 A 
HETATM   20  N2  UNL     1      27.452   2.289  53.774  1.00  0.00    -0.223 NA
HETATM   21  C7  UNL     1      28.506   1.458  53.511  1.00  0.00     0.235 A 
HETATM   22  N3  UNL     1      28.325   0.161  53.172  1.00  0.00    -0.245 NA
HETATM   23  C8  UNL     1      27.080  -0.347  53.085  1.00  0.00     0.054 A 
HETATM   24  C9  UNL     1      26.894  -1.785  52.705  1.00  0.00     0.072 C 
HETATM   25  C10 UNL     1      25.946   0.431  53.337  1.00  0.00     0.088 A 
BRANCH  25  26
HETATM   26  C11 UNL     1      24.606  -0.076  53.258  1.00  0.00    -0.060 C 
HETATM   27  C12 UNL     1      23.475  -0.481  53.196  1.00  0.00    -0.086 C 
BRANCH  27  28
HETATM   28  C13 UNL     1      22.087  -0.951  53.120  1.00  0.00     0.208 C 
HETATM   29 CL1  UNL     1      21.134  -0.004  51.941  1.00  0.00    -0.117 Cl
ENDBRANCH  27  28
ENDBRANCH  25  26
ENDBRANCH  17  19
ENDBRANCH   5  17
TORSDOF 4
ENDMDL
MODEL 8
REMARK VINA RESULT:      -8.3      3.251      4.819
REMARK  4 active torsions:
REMARK  status: ('A' for Active; 'I' for Inactive)
REMARK    1  A    between atoms: C5_5  and  N1_6 
REMARK    2  A    between atoms: N1_6  and  C6_7 
REMARK    3  A    between atoms: C10_13  and  C11_14 
REMARK    4  A    between atoms: C12_15  and  C13_16 
ROOT
HETATM    1  C1  UNL     1      22.408   4.898  51.923  1.00  0.00     0.076 C 
HETATM    2  C2  UNL     1      23.669   4.346  51.411  1.00  0.00     0.043 C 
HETATM    3  C3  UNL     1      24.765   4.260  50.718  1.00  0.00     0.044 C 
HETATM    4  C4  UNL     1      26.004   3.723  50.212  1.00  0.00    -0.018 C 
HETATM    5  C5  UNL     1      26.509   4.573  49.345  1.00  0.00     0.101 C 
HETATM    6  C14 UNL     1      26.610   2.457  50.572  1.00  0.00     0.014 C 
HETATM    7  C15 UNL     1      26.562   1.362  51.278  1.00  0.00     0.016 C 
HETATM    8  C16 UNL     1      25.695   0.735  52.262  1.00  0.00     0.011 A 
HETATM    9  C17 UNL     1      26.190  -0.122  53.214  1.00  0.00     0.127 A 
HETATM   10  F1  UNL     1      27.534  -0.371  53.230  1.00  0.00    -0.205 F 
HETATM   11  C18 UNL     1      25.447  -0.768  54.179  1.00  0.00     0.043 A 
HETATM   12  C19 UNL     1      24.097  -0.508  54.160  1.00  0.00     0.004 A 
HETATM   13  C20 UNL     1      23.496   0.328  53.260  1.00  0.00     0.010 A 
HETATM   14  C21 UNL     1      24.341   0.905  52.358  1.00  0.00    -0.021 A 
HETATM   15  C22 UNL     1      23.723   1.857  51.381  1.00  0.00     0.214 C 
HETATM   16  O1  UNL     1      23.987   3.146  51.955  1.00  0.00    -0.351 OA
ENDROOT
BRANCH   5  17
HETATM   17  N1  UNL     1      27.653   4.641  48.527  1.00  0.00    -0.349 N 
HETATM   18  H6  UNL     1      27.679   3.714  48.006  1.00  0.00     0.167 HD
BRANCH  17  19
HETATM   19  C6  UNL     1      28.561   5.720  48.428  1.00  0.00     0.149 A 
HETATM   20  N2  UNL     1      29.863   5.387  48.675  1.00  0.00    -0.223 NA
HETATM   21  C7  UNL     1      30.771   6.407  48.595  1.00  0.00     0.235 A 
HETATM   22  N3  UNL     1      30.398   7.671  48.290  1.00  0.00    -0.245 NA
HETATM   23  C8  UNL     1      29.102   7.955  48.054  1.00  0.00     0.054 A 
HETATM   24  C9  UNL     1      28.703   9.361  47.720  1.00  0.00     0.072 C 
HETATM   25  C10 UNL     1      28.109   6.973  48.113  1.00  0.00     0.088 A 
BRANCH  25  26
HETATM   26  C11 UNL     1      26.720   7.237  47.865  1.00  0.00    -0.060 C 
HETATM   27  C12 UNL     1      25.551   7.439  47.664  1.00  0.00    -0.086 C 
BRANCH  27  28
HETATM   28  C13 UNL     1      24.120   7.664  47.430  1.00  0.00     0.208 C 
HETATM   29 CL1  UNL     1      23.166   6.180  47.718  1.00  0.00    -0.117 Cl
ENDBRANCH  27  28
ENDBRANCH  25  26
ENDBRANCH  17  19
ENDBRANCH   5  17
TORSDOF 4
ENDMDL
MODEL 9
REMARK VINA RESULT:      -8.3      3.889      6.152
REMARK  4 active torsions:
REMARK  status: ('A' for Active; 'I' for Inactive)
REMARK    1  A    between atoms: C5_5  and  N1_6 
REMARK    2  A    between atoms: N1_6  and  C6_7 
REMARK    3  A    between atoms: C10_13  and  C11_14 
REMARK    4  A    between atoms: C12_15  and  C13_16 
ROOT
HETATM    1  C1  UNL     1      22.491   6.528  49.589  1.00  0.00     0.076 C 
HETATM    2  C2  UNL     1      23.828   5.929  49.494  1.00  0.00     0.043 C 
HETATM    3  C3  UNL     1      25.082   5.802  49.179  1.00  0.00     0.044 C 
HETATM    4  C4  UNL     1      26.398   5.219  49.083  1.00  0.00    -0.018 C 
HETATM    5  C5  UNL     1      27.179   6.046  48.423  1.00  0.00     0.101 C 
HETATM    6  C14 UNL     1      26.815   3.933  49.606  1.00  0.00     0.014 C 
HETATM    7  C15 UNL     1      26.510   2.844  50.253  1.00  0.00     0.016 C 
HETATM    8  C16 UNL     1      25.357   2.253  50.912  1.00  0.00     0.011 A 
HETATM    9  C17 UNL     1      25.499   1.382  51.966  1.00  0.00     0.127 A 
HETATM   10  F1  UNL     1      26.760   1.086  52.400  1.00  0.00    -0.205 F 
HETATM   11  C18 UNL     1      24.468   0.768  52.645  1.00  0.00     0.043 A 
HETATM   12  C19 UNL     1      23.202   1.076  52.205  1.00  0.00     0.004 A 
HETATM   13  C20 UNL     1      22.943   1.929  51.169  1.00  0.00     0.010 A 
HETATM   14  C21 UNL     1      24.048   2.471  50.580  1.00  0.00    -0.021 A 
HETATM   15  C22 UNL     1      23.801   3.440  49.465  1.00  0.00     0.214 C 
HETATM   16  O1  UNL     1      23.918   4.721  50.102  1.00  0.00    -0.351 OA
ENDROOT
BRANCH   5  17
HETATM   17  N1  UNL     1      28.524   6.069  48.005  1.00  0.00    -0.349 N 
HETATM   18  H6  UNL     1      28.628   5.232  47.357  1.00  0.00     0.167 HD
BRANCH  17  19
HETATM   19  C6  UNL     1      29.509   7.012  48.374  1.00  0.00     0.149 A 
HETATM   20  N2  UNL     1      29.011   8.183  48.871  1.00  0.00    -0.223 NA
HETATM   21  C7  UNL     1      29.935   9.126  49.233  1.00  0.00     0.235 A 
HETATM   22  N3  UNL     1      31.263   8.907  49.104  1.00  0.00    -0.245 NA
HETATM   23  C8  UNL     1      31.711   7.737  48.608  1.00  0.00     0.054 A 
HETATM   24  C9  UNL     1      33.187   7.510  48.469  1.00  0.00     0.072 C 
HETATM   25  C10 UNL     1      30.836   6.720  48.215  1.00  0.00     0.088 A 
BRANCH  25  26
HETATM   26  C11 UNL     1      31.277   5.460  47.686  1.00  0.00    -0.060 C 
HETATM   27  C12 UNL     1      31.625   4.399  47.238  1.00  0.00    -0.086 C 
BRANCH  27  28
HETATM   28  C13 UNL     1      32.026   3.101  46.684  1.00  0.00     0.208 C 
HETATM   29 CL1  UNL     1      33.077   2.199  47.814  1.00  0.00    -0.117 Cl
ENDBRANCH  27  28
ENDBRANCH  25  26
ENDBRANCH  17  19
ENDBRANCH   5  17
TORSDOF 4
ENDMDL
