MODEL 1
REMARK VINA RESULT:      -6.9      0.000      0.000
REMARK  9 active torsions:
REMARK  status: ('A' for Active; 'I' for Inactive)
REMARK    1  A    between atoms: O1_1  and  C1_2 
REMARK    2  A    between atoms: C2_3  and  C3_4 
REMARK    3  A    between atoms: C3_4  and  C4_5 
REMARK    4  A    between atoms: C4_5  and  C5_6 
REMARK    5  A    between atoms: C5_6  and  N1_7 
REMARK    6  A    between atoms: N1_7  and  C6_8 
REMARK    7  A    between atoms: C9_13  and  N4_14 
REMARK    8  A    between atoms: N4_14  and  C10_15 
REMARK    9  A    between atoms: C10_15  and  C11_16 
ROOT
HETATM    1  C6  UNL     1      26.914   1.758  53.476  1.00  0.00     0.092 A 
HETATM    2  C7  UNL     1      28.150   2.236  53.816  1.00  0.00     0.151 A 
HETATM    3  N2  UNL     1      29.087   1.563  54.528  1.00  0.00    -0.252 NA
HETATM    4  C8  UNL     1      28.784   0.304  54.946  1.00  0.00     0.235 A 
HETATM    5  N3  UNL     1      27.574  -0.173  54.617  1.00  0.00    -0.222 NA
HETATM    6  C9  UNL     1      26.641   0.481  53.915  1.00  0.00     0.153 A 
ENDROOT
BRANCH   1   7
HETATM    7  N1  UNL     1      25.969   2.495  52.754  1.00  0.00    -0.386 N 
HETATM    8  H10 UNL     1      26.147   2.765  51.766  1.00  0.00     0.159 HD
BRANCH   7   9
HETATM    9  C5  UNL     1      24.672   3.012  53.134  1.00  0.00     0.120 C 
BRANCH   9  10
HETATM   10  C4  UNL     1      23.863   3.332  51.921  1.00  0.00     0.023 C 
BRANCH  10  11
HETATM   11  C3  UNL     1      24.459   2.868  50.622  1.00  0.00     0.030 C 
BRANCH  11  12
HETATM   12  C2  UNL     1      24.837   3.955  49.719  1.00  0.00    -0.003 C 
HETATM   13  C1  UNL     1      26.082   4.417  49.628  1.00  0.00     0.127 C 
BRANCH  13  14
HETATM   14  O1  UNL     1      27.037   3.800  50.458  1.00  0.00    -0.373 OA
HETATM   15  H1  UNL     1      27.979   3.612  50.109  1.00  0.00     0.216 HD
ENDBRANCH  13  14
ENDBRANCH  11  12
ENDBRANCH  10  11
ENDBRANCH   9  10
ENDBRANCH   7   9
ENDBRANCH   1   7
BRANCH   6  16
HETATM   16  N4  UNL     1      25.441  -0.233  53.697  1.00  0.00    -0.369 N 
HETATM   17  H13 UNL     1      25.168  -0.301  52.695  1.00  0.00     0.161 HD
BRANCH  16  18
HETATM   18  C10 UNL     1      24.542  -0.876  54.600  1.00  0.00     0.160 C 
BRANCH  18  19
HETATM   19  C11 UNL     1      23.138  -0.659  54.173  1.00  0.00    -0.041 A 
HETATM   20  C12 UNL     1      21.950  -0.853  54.834  1.00  0.00     0.009 A 
HETATM   21  C13 UNL     1      20.759  -0.587  54.209  1.00  0.00     0.001 A 
HETATM   22  C14 UNL     1      20.674  -0.122  52.914  1.00  0.00     0.000 A 
HETATM   23  C15 UNL     1      21.867   0.077  52.244  1.00  0.00     0.001 A 
HETATM   24  C16 UNL     1      23.047  -0.187  52.864  1.00  0.00     0.009 A 
ENDBRANCH  18  19
ENDBRANCH  16  18
ENDBRANCH   6  16
TORSDOF 9
ENDMDL
MODEL 2
REMARK VINA RESULT:      -6.8      1.320      1.996
REMARK  9 active torsions:
REMARK  status: ('A' for Active; 'I' for Inactive)
REMARK    1  A    between atoms: O1_1  and  C1_2 
REMARK    2  A    between atoms: C2_3  and  C3_4 
REMARK    3  A    between atoms: C3_4  and  C4_5 
REMARK    4  A    between atoms: C4_5  and  C5_6 
REMARK    5  A    between atoms: C5_6  and  N1_7 
REMARK    6  A    between atoms: N1_7  and  C6_8 
REMARK    7  A    between atoms: C9_13  and  N4_14 
REMARK    8  A    between atoms: N4_14  and  C10_15 
REMARK    9  A    between atoms: C10_15  and  C11_16 
ROOT
HETATM    1  C6  UNL     1      27.193   2.027  53.103  1.00  0.00     0.092 A 
HETATM    2  C7  UNL     1      28.455   2.354  53.518  1.00  0.00     0.151 A 
HETATM    3  N2  UNL     1      29.202   1.647  54.401  1.00  0.00    -0.252 NA
HETATM    4  C8  UNL     1      28.661   0.515  54.928  1.00  0.00     0.235 A 
HETATM    5  N3  UNL     1      27.424   0.188  54.527  1.00  0.00    -0.222 NA
HETATM    6  C9  UNL     1      26.676   0.876  53.656  1.00  0.00     0.153 A 
ENDROOT
BRANCH   1   7
HETATM    7  N1  UNL     1      26.450   2.796  52.202  1.00  0.00    -0.386 N 
HETATM    8  H10 UNL     1      25.971   3.665  52.512  1.00  0.00     0.159 HD
BRANCH   7   9
HETATM    9  C5  UNL     1      26.179   2.614  50.791  1.00  0.00     0.120 C 
BRANCH   9  10
HETATM   10  C4  UNL     1      26.125   3.935  50.097  1.00  0.00     0.023 C 
BRANCH  10  11
HETATM   11  C3  UNL     1      27.197   4.154  49.068  1.00  0.00     0.030 C 
BRANCH  11  12
HETATM   12  C2  UNL     1      27.235   5.512  48.526  1.00  0.00    -0.003 C 
HETATM   13  C1  UNL     1      28.350   6.237  48.474  1.00  0.00     0.127 C 
BRANCH  13  14
HETATM   14  O1  UNL     1      29.514   5.625  48.974  1.00  0.00    -0.373 OA
HETATM   15  H1  UNL     1      30.303   6.195  49.288  1.00  0.00     0.216 HD
ENDBRANCH  13  14
ENDBRANCH  11  12
ENDBRANCH  10  11
ENDBRANCH   9  10
ENDBRANCH   7   9
ENDBRANCH   1   7
BRANCH   6  16
HETATM   16  N4  UNL     1      25.400   0.329  53.393  1.00  0.00    -0.369 N 
HETATM   17  H13 UNL     1      24.939   0.726  52.550  1.00  0.00     0.161 HD
BRANCH  16  18
HETATM   18  C10 UNL     1      24.636  -0.666  54.074  1.00  0.00     0.160 C 
BRANCH  18  19
HETATM   19  C11 UNL     1      23.196  -0.529  53.741  1.00  0.00    -0.041 A 
HETATM   20  C12 UNL     1      22.557   0.217  52.781  1.00  0.00     0.009 A 
HETATM   21  C13 UNL     1      21.190   0.186  52.679  1.00  0.00     0.001 A 
HETATM   22  C14 UNL     1      20.388  -0.572  53.506  1.00  0.00     0.000 A 
HETATM   23  C15 UNL     1      21.027  -1.324  54.474  1.00  0.00     0.001 A 
HETATM   24  C16 UNL     1      22.382  -1.294  54.575  1.00  0.00     0.009 A 
ENDBRANCH  18  19
ENDBRANCH  16  18
ENDBRANCH   6  16
TORSDOF 9
ENDMDL
MODEL 3
REMARK VINA RESULT:      -6.6      2.256      5.468
REMARK  9 active torsions:
REMARK  status: ('A' for Active; 'I' for Inactive)
REMARK    1  A    between atoms: O1_1  and  C1_2 
REMARK    2  A    between atoms: C2_3  and  C3_4 
REMARK    3  A    between atoms: C3_4  and  C4_5 
REMARK    4  A    between atoms: C4_5  and  C5_6 
REMARK    5  A    between atoms: C5_6  and  N1_7 
REMARK    6  A    between atoms: N1_7  and  C6_8 
REMARK    7  A    between atoms: C9_13  and  N4_14 
REMARK    8  A    between atoms: N4_14  and  C10_15 
REMARK    9  A    between atoms: C10_15  and  C11_16 
ROOT
HETATM    1  C6  UNL     1      26.125   1.447  53.259  1.00  0.00     0.092 A 
HETATM    2  C7  UNL     1      26.698   0.606  54.174  1.00  0.00     0.151 A 
HETATM    3  N2  UNL     1      28.029   0.476  54.400  1.00  0.00    -0.252 NA
HETATM    4  C8  UNL     1      28.876   1.241  53.660  1.00  0.00     0.235 A 
HETATM    5  N3  UNL     1      28.323   2.068  52.760  1.00  0.00    -0.222 NA
HETATM    6  C9  UNL     1      27.012   2.206  52.528  1.00  0.00     0.153 A 
ENDROOT
BRANCH   1   7
HETATM    7  N1  UNL     1      24.746   1.536  53.046  1.00  0.00    -0.386 N 
HETATM    8  H10 UNL     1      24.159   2.177  53.617  1.00  0.00     0.159 HD
BRANCH   7   9
HETATM    9  C5  UNL     1      23.881   0.852  52.108  1.00  0.00     0.120 C 
BRANCH   9  10
HETATM   10  C4  UNL     1      23.028   1.835  51.375  1.00  0.00     0.023 C 
BRANCH  10  11
HETATM   11  C3  UNL     1      22.316   2.829  52.248  1.00  0.00     0.030 C 
BRANCH  11  12
HETATM   12  C2  UNL     1      22.539   4.224  51.866  1.00  0.00    -0.003 C 
HETATM   13  C1  UNL     1      23.487   4.979  52.416  1.00  0.00     0.127 C 
BRANCH  13  14
HETATM   14  O1  UNL     1      24.280   4.362  53.402  1.00  0.00    -0.373 OA
HETATM   15  H1  UNL     1      24.987   3.672  53.139  1.00  0.00     0.216 HD
ENDBRANCH  13  14
ENDBRANCH  11  12
ENDBRANCH  10  11
ENDBRANCH   9  10
ENDBRANCH   7   9
ENDBRANCH   1   7
BRANCH   6  16
HETATM   16  N4  UNL     1      26.673   3.142  51.525  1.00  0.00    -0.369 N 
HETATM   17  H13 UNL     1      26.603   4.121  51.871  1.00  0.00     0.161 HD
BRANCH  16  18
HETATM   18  C10 UNL     1      26.412   2.986  50.130  1.00  0.00     0.160 C 
BRANCH  18  19
HETATM   19  C11 UNL     1      26.330   4.312  49.469  1.00  0.00    -0.041 A 
HETATM   20  C12 UNL     1      25.272   5.169  49.289  1.00  0.00     0.009 A 
HETATM   21  C13 UNL     1      25.449   6.354  48.621  1.00  0.00     0.001 A 
HETATM   22  C14 UNL     1      26.661   6.754  48.102  1.00  0.00     0.000 A 
HETATM   23  C15 UNL     1      27.730   5.896  48.282  1.00  0.00     0.001 A 
HETATM   24  C16 UNL     1      27.555   4.721  48.944  1.00  0.00     0.009 A 
ENDBRANCH  18  19
ENDBRANCH  16  18
ENDBRANCH   6  16
TORSDOF 9
ENDMDL
MODEL 4
REMARK VINA RESULT:      -6.6      1.774      5.581
REMARK  9 active torsions:
REMARK  status: ('A' for Active; 'I' for Inactive)
REMARK    1  A    between atoms: O1_1  and  C1_2 
REMARK    2  A    between atoms: C2_3  and  C3_4 
REMARK    3  A    between atoms: C3_4  and  C4_5 
REMARK    4  A    between atoms: C4_5  and  C5_6 
REMARK    5  A    between atoms: C5_6  and  N1_7 
REMARK    6  A    between atoms: N1_7  and  C6_8 
REMARK    7  A    between atoms: C9_13  and  N4_14 
REMARK    8  A    between atoms: N4_14  and  C10_15 
REMARK    9  A    between atoms: C10_15  and  C11_16 
ROOT
HETATM    1  C6  UNL     1      24.567  -0.545  54.167  1.00  0.00     0.092 A 
HETATM    2  C7  UNL     1      24.043  -1.265  55.207  1.00  0.00     0.151 A 
HETATM    3  N2  UNL     1      22.725  -1.379  55.501  1.00  0.00    -0.252 NA
HETATM    4  C8  UNL     1      21.837  -0.726  54.703  1.00  0.00     0.235 A 
HETATM    5  N3  UNL     1      22.342  -0.017  53.682  1.00  0.00    -0.222 NA
HETATM    6  C9  UNL     1      23.641   0.103  53.380  1.00  0.00     0.153 A 
ENDROOT
BRANCH   1   7
HETATM    7  N1  UNL     1      25.938  -0.440  53.911  1.00  0.00    -0.386 N 
HETATM    8  H10 UNL     1      26.539   0.189  54.480  1.00  0.00     0.159 HD
BRANCH   7   9
HETATM    9  C5  UNL     1      26.774  -1.084  52.919  1.00  0.00     0.120 C 
BRANCH   9  10
HETATM   10  C4  UNL     1      28.208  -1.026  53.331  1.00  0.00     0.023 C 
BRANCH  10  11
HETATM   11  C3  UNL     1      28.547   0.080  54.290  1.00  0.00     0.030 C 
BRANCH  11  12
HETATM   12  C2  UNL     1      29.138   1.258  53.655  1.00  0.00    -0.003 C 
HETATM   13  C1  UNL     1      28.495   2.419  53.552  1.00  0.00     0.127 C 
BRANCH  13  14
HETATM   14  O1  UNL     1      27.196   2.462  54.091  1.00  0.00    -0.373 OA
HETATM   15  H1  UNL     1      26.434   1.946  53.644  1.00  0.00     0.216 HD
ENDBRANCH  13  14
ENDBRANCH  11  12
ENDBRANCH  10  11
ENDBRANCH   9  10
ENDBRANCH   7   9
ENDBRANCH   1   7
BRANCH   6  16
HETATM   16  N4  UNL     1      23.926   0.908  52.255  1.00  0.00    -0.369 N 
HETATM   17  H13 UNL     1      24.551   0.452  51.560  1.00  0.00     0.161 HD
BRANCH  16  18
HETATM   18  C10 UNL     1      23.510   2.227  51.902  1.00  0.00     0.160 C 
BRANCH  18  19
HETATM   19  C11 UNL     1      24.533   2.879  51.047  1.00  0.00    -0.041 A 
HETATM   20  C12 UNL     1      25.865   2.601  50.858  1.00  0.00     0.009 A 
HETATM   21  C13 UNL     1      26.618   3.371  50.009  1.00  0.00     0.001 A 
HETATM   22  C14 UNL     1      26.106   4.443  49.308  1.00  0.00     0.000 A 
HETATM   23  C15 UNL     1      24.766   4.726  49.494  1.00  0.00     0.001 A 
HETATM   24  C16 UNL     1      24.020   3.962  50.336  1.00  0.00     0.009 A 
ENDBRANCH  18  19
ENDBRANCH  16  18
ENDBRANCH   6  16
TORSDOF 9
ENDMDL
MODEL 5
REMARK VINA RESULT:      -6.5      2.337      6.040
REMARK  9 active torsions:
REMARK  status: ('A' for Active; 'I' for Inactive)
REMARK    1  A    between atoms: O1_1  and  C1_2 
REMARK    2  A    between atoms: C2_3  and  C3_4 
REMARK    3  A    between atoms: C3_4  and  C4_5 
REMARK    4  A    between atoms: C4_5  and  C5_6 
REMARK    5  A    between atoms: C5_6  and  N1_7 
REMARK    6  A    between atoms: N1_7  and  C6_8 
REMARK    7  A    between atoms: C9_13  and  N4_14 
REMARK    8  A    between atoms: N4_14  and  C10_15 
REMARK    9  A    between atoms: C10_15  and  C11_16 
ROOT
HETATM    1  C6  UNL     1      26.171   2.071  53.575  1.00  0.00     0.092 A 
HETATM    2  C7  UNL     1      26.429   1.193  54.593  1.00  0.00     0.151 A 
HETATM    3  N2  UNL     1      27.565   0.469  54.739  1.00  0.00    -0.252 NA
HETATM    4  C8  UNL     1      28.539   0.617  53.801  1.00  0.00     0.235 A 
HETATM    5  N3  UNL     1      28.294   1.475  52.799  1.00  0.00    -0.222 NA
HETATM    6  C9  UNL     1      27.178   2.197  52.643  1.00  0.00     0.153 A 
ENDROOT
BRANCH   1   7
HETATM    7  N1  UNL     1      24.976   2.787  53.453  1.00  0.00    -0.386 N 
HETATM    8  H10 UNL     1      24.848   3.697  53.938  1.00  0.00     0.159 HD
BRANCH   7   9
HETATM    9  C5  UNL     1      23.760   2.492  52.724  1.00  0.00     0.120 C 
BRANCH   9  10
HETATM   10  C4  UNL     1      23.720   1.050  52.340  1.00  0.00     0.023 C 
BRANCH  10  11
HETATM   11  C3  UNL     1      22.487   0.312  52.778  1.00  0.00     0.030 C 
BRANCH  11  12
HETATM   12  C2  UNL     1      22.727  -0.677  53.829  1.00  0.00    -0.003 C 
HETATM   13  C1  UNL     1      21.922  -0.822  54.879  1.00  0.00     0.127 C 
BRANCH  13  14
HETATM   14  O1  UNL     1      20.808   0.036  54.933  1.00  0.00    -0.373 OA
HETATM   15  H1  UNL     1      19.993  -0.212  55.500  1.00  0.00     0.216 HD
ENDBRANCH  13  14
ENDBRANCH  11  12
ENDBRANCH  10  11
ENDBRANCH   9  10
ENDBRANCH   7   9
ENDBRANCH   1   7
BRANCH   6  16
HETATM   16  N4  UNL     1      27.154   3.032  51.503  1.00  0.00    -0.369 N 
HETATM   17  H13 UNL     1      27.745   3.883  51.594  1.00  0.00     0.161 HD
BRANCH  16  18
HETATM   18  C10 UNL     1      26.470   2.915  50.256  1.00  0.00     0.160 C 
BRANCH  18  19
HETATM   19  C11 UNL     1      26.535   4.196  49.510  1.00  0.00    -0.041 A 
HETATM   20  C12 UNL     1      27.579   4.819  48.871  1.00  0.00     0.009 A 
HETATM   21  C13 UNL     1      27.389   6.027  48.252  1.00  0.00     0.001 A 
HETATM   22  C14 UNL     1      26.175   6.680  48.229  1.00  0.00     0.000 A 
HETATM   23  C15 UNL     1      25.120   6.057  48.869  1.00  0.00     0.001 A 
HETATM   24  C16 UNL     1      25.309   4.858  49.483  1.00  0.00     0.009 A 
ENDBRANCH  18  19
ENDBRANCH  16  18
ENDBRANCH   6  16
TORSDOF 9
ENDMDL
MODEL 6
REMARK VINA RESULT:      -6.4      2.275      4.792
REMARK  9 active torsions:
REMARK  status: ('A' for Active; 'I' for Inactive)
REMARK    1  A    between atoms: O1_1  and  C1_2 
REMARK    2  A    between atoms: C2_3  and  C3_4 
REMARK    3  A    between atoms: C3_4  and  C4_5 
REMARK    4  A    between atoms: C4_5  and  C5_6 
REMARK    5  A    between atoms: C5_6  and  N1_7 
REMARK    6  A    between atoms: N1_7  and  C6_8 
REMARK    7  A    between atoms: C9_13  and  N4_14 
REMARK    8  A    between atoms: N4_14  and  C10_15 
REMARK    9  A    between atoms: C10_15  and  C11_16 
ROOT
HETATM    1  C6  UNL     1      27.009   0.512  53.309  1.00  0.00     0.092 A 
HETATM    2  C7  UNL     1      27.773   0.432  54.441  1.00  0.00     0.151 A 
HETATM    3  N2  UNL     1      28.766   1.290  54.783  1.00  0.00    -0.252 NA
HETATM    4  C8  UNL     1      29.035   2.321  53.938  1.00  0.00     0.235 A 
HETATM    5  N3  UNL     1      28.291   2.406  52.825  1.00  0.00    -0.222 NA
HETATM    6  C9  UNL     1      27.308   1.567  52.475  1.00  0.00     0.153 A 
ENDROOT
BRANCH   1   7
HETATM    7  N1  UNL     1      26.005  -0.406  52.985  1.00  0.00    -0.386 N 
HETATM    8  H10 UNL     1      26.157  -1.122  52.246  1.00  0.00     0.159 HD
BRANCH   7   9
HETATM    9  C5  UNL     1      24.669  -0.583  53.514  1.00  0.00     0.120 C 
BRANCH   9  10
HETATM   10  C4  UNL     1      23.733   0.407  52.903  1.00  0.00     0.023 C 
BRANCH  10  11
HETATM   11  C3  UNL     1      22.312  -0.063  52.770  1.00  0.00     0.030 C 
BRANCH  11  12
HETATM   12  C2  UNL     1      22.021  -1.294  53.506  1.00  0.00    -0.003 C 
HETATM   13  C1  UNL     1      21.177  -1.336  54.534  1.00  0.00     0.127 C 
BRANCH  13  14
HETATM   14  O1  UNL     1      20.567  -0.118  54.889  1.00  0.00    -0.373 OA
HETATM   15  H1  UNL     1      20.091   0.447  54.181  1.00  0.00     0.216 HD
ENDBRANCH  13  14
ENDBRANCH  11  12
ENDBRANCH  10  11
ENDBRANCH   9  10
ENDBRANCH   7   9
ENDBRANCH   1   7
BRANCH   6  16
HETATM   16  N4  UNL     1      26.668   1.865  51.251  1.00  0.00    -0.369 N 
HETATM   17  H13 UNL     1      26.500   1.032  50.652  1.00  0.00     0.161 HD
BRANCH  16  18
HETATM   18  C10 UNL     1      26.213   3.098  50.693  1.00  0.00     0.160 C 
BRANCH  18  19
HETATM   19  C11 UNL     1      24.732   3.172  50.745  1.00  0.00    -0.041 A 
HETATM   20  C12 UNL     1      23.773   2.743  49.860  1.00  0.00     0.009 A 
HETATM   21  C13 UNL     1      22.444   2.942  50.132  1.00  0.00     0.001 A 
HETATM   22  C14 UNL     1      21.992   3.566  51.275  1.00  0.00     0.000 A 
HETATM   23  C15 UNL     1      22.954   3.998  52.170  1.00  0.00     0.001 A 
HETATM   24  C16 UNL     1      24.272   3.801  51.901  1.00  0.00     0.009 A 
ENDBRANCH  18  19
ENDBRANCH  16  18
ENDBRANCH   6  16
TORSDOF 9
ENDMDL
MODEL 7
REMARK VINA RESULT:      -6.4      2.047      5.428
REMARK  9 active torsions:
REMARK  status: ('A' for Active; 'I' for Inactive)
REMARK    1  A    between atoms: O1_1  and  C1_2 
REMARK    2  A    between atoms: C2_3  and  C3_4 
REMARK    3  A    between atoms: C3_4  and  C4_5 
REMARK    4  A    between atoms: C4_5  and  C5_6 
REMARK    5  A    between atoms: C5_6  and  N1_7 
REMARK    6  A    between atoms: N1_7  and  C6_8 
REMARK    7  A    between atoms: C9_13  and  N4_14 
REMARK    8  A    between atoms: N4_14  and  C10_15 
REMARK    9  A    between atoms: C10_15  and  C11_16 
ROOT
HETATM    1  C6  UNL     1      26.491   1.303  53.401  1.00  0.00     0.092 A 
HETATM    2  C7  UNL     1      27.077   0.652  54.453  1.00  0.00     0.151 A 
HETATM    3  N2  UNL     1      28.360   0.807  54.859  1.00  0.00    -0.252 NA
HETATM    4  C8  UNL     1      29.144   1.680  54.170  1.00  0.00     0.235 A 
HETATM    5  N3  UNL     1      28.578   2.322  53.137  1.00  0.00    -0.222 NA
HETATM    6  C9  UNL     1      27.313   2.179  52.726  1.00  0.00     0.153 A 
ENDROOT
BRANCH   1   7
HETATM    7  N1  UNL     1      25.165   1.099  53.004  1.00  0.00    -0.386 N 
HETATM    8  H10 UNL     1      24.872   0.202  52.567  1.00  0.00     0.159 HD
BRANCH   7   9
HETATM    9  C5  UNL     1      24.006   1.962  53.079  1.00  0.00     0.120 C 
BRANCH   9  10
HETATM   10  C4  UNL     1      22.763   1.190  52.781  1.00  0.00     0.023 C 
BRANCH  10  11
HETATM   11  C3  UNL     1      22.894  -0.300  52.918  1.00  0.00     0.030 C 
BRANCH  11  12
HETATM   12  C2  UNL     1      22.188  -0.856  54.072  1.00  0.00    -0.003 C 
HETATM   13  C1  UNL     1      22.815  -1.265  55.172  1.00  0.00     0.127 C 
BRANCH  13  14
HETATM   14  O1  UNL     1      24.216  -1.135  55.175  1.00  0.00    -0.373 OA
HETATM   15  H1  UNL     1      24.649  -0.208  55.155  1.00  0.00     0.216 HD
ENDBRANCH  13  14
ENDBRANCH  11  12
ENDBRANCH  10  11
ENDBRANCH   9  10
ENDBRANCH   7   9
ENDBRANCH   1   7
BRANCH   6  16
HETATM   16  N4  UNL     1      26.949   2.965  51.610  1.00  0.00    -0.369 N 
HETATM   17  H13 UNL     1      27.012   3.990  51.779  1.00  0.00     0.161 HD
BRANCH  16  18
HETATM   18  C10 UNL     1      26.515   2.607  50.298  1.00  0.00     0.160 C 
BRANCH  18  19
HETATM   19  C11 UNL     1      25.757   3.725  49.682  1.00  0.00    -0.041 A 
HETATM   20  C12 UNL     1      26.152   4.984  49.301  1.00  0.00     0.009 A 
HETATM   21  C13 UNL     1      25.246   5.857  48.756  1.00  0.00     0.001 A 
HETATM   22  C14 UNL     1      23.919   5.542  48.559  1.00  0.00     0.000 A 
HETATM   23  C15 UNL     1      23.516   4.275  48.940  1.00  0.00     0.001 A 
HETATM   24  C16 UNL     1      24.415   3.409  49.480  1.00  0.00     0.009 A 
ENDBRANCH  18  19
ENDBRANCH  16  18
ENDBRANCH   6  16
TORSDOF 9
ENDMDL
MODEL 8
REMARK VINA RESULT:      -6.3      2.759      5.842
REMARK  9 active torsions:
REMARK  status: ('A' for Active; 'I' for Inactive)
REMARK    1  A    between atoms: O1_1  and  C1_2 
REMARK    2  A    between atoms: C2_3  and  C3_4 
REMARK    3  A    between atoms: C3_4  and  C4_5 
REMARK    4  A    between atoms: C4_5  and  C5_6 
REMARK    5  A    between atoms: C5_6  and  N1_7 
REMARK    6  A    between atoms: N1_7  and  C6_8 
REMARK    7  A    between atoms: C9_13  and  N4_14 
REMARK    8  A    between atoms: N4_14  and  C10_15 
REMARK    9  A    between atoms: C10_15  and  C11_16 
ROOT
HETATM    1  C6  UNL     1      24.394   2.877  51.087  1.00  0.00     0.092 A 
HETATM    2  C7  UNL     1      24.339   3.714  50.005  1.00  0.00     0.151 A 
HETATM    3  N2  UNL     1      25.405   4.138  49.283  1.00  0.00    -0.252 NA
HETATM    4  C8  UNL     1      26.639   3.703  49.656  1.00  0.00     0.235 A 
HETATM    5  N3  UNL     1      26.702   2.883  50.716  1.00  0.00    -0.222 NA
HETATM    6  C9  UNL     1      25.658   2.456  51.436  1.00  0.00     0.153 A 
ENDROOT
BRANCH   1   7
HETATM    7  N1  UNL     1      23.268   2.478  51.815  1.00  0.00    -0.386 N 
HETATM    8  H10 UNL     1      23.142   2.774  52.804  1.00  0.00     0.159 HD
BRANCH   7   9
HETATM    9  C5  UNL     1      22.136   1.656  51.445  1.00  0.00     0.120 C 
BRANCH   9  10
HETATM   10  C4  UNL     1      21.669   0.855  52.615  1.00  0.00     0.023 C 
BRANCH  10  11
HETATM   11  C3  UNL     1      22.302  -0.500  52.749  1.00  0.00     0.030 C 
BRANCH  11  12
HETATM   12  C2  UNL     1      23.029  -0.697  54.004  1.00  0.00    -0.003 C 
HETATM   13  C1  UNL     1      22.462  -1.213  55.091  1.00  0.00     0.127 C 
BRANCH  13  14
HETATM   14  O1  UNL     1      21.104  -1.568  54.977  1.00  0.00    -0.373 OA
HETATM   15  H1  UNL     1      20.425  -1.238  55.667  1.00  0.00     0.216 HD
ENDBRANCH  13  14
ENDBRANCH  11  12
ENDBRANCH  10  11
ENDBRANCH   9  10
ENDBRANCH   7   9
ENDBRANCH   1   7
BRANCH   6  16
HETATM   16  N4  UNL     1      25.979   1.596  52.510  1.00  0.00    -0.369 N 
HETATM   17  H13 UNL     1      25.175   1.032  52.851  1.00  0.00     0.161 HD
BRANCH  16  18
HETATM   18  C10 UNL     1      27.204   1.364  53.206  1.00  0.00     0.160 C 
BRANCH  18  19
HETATM   19  C11 UNL     1      27.602  -0.061  53.088  1.00  0.00    -0.041 A 
HETATM   20  C12 UNL     1      26.897  -1.166  52.677  1.00  0.00     0.009 A 
HETATM   21  C13 UNL     1      27.493  -2.401  52.668  1.00  0.00     0.001 A 
HETATM   22  C14 UNL     1      28.798  -2.613  53.060  1.00  0.00     0.000 A 
HETATM   23  C15 UNL     1      29.511  -1.504  53.474  1.00  0.00     0.001 A 
HETATM   24  C16 UNL     1      28.921  -0.279  53.482  1.00  0.00     0.009 A 
ENDBRANCH  18  19
ENDBRANCH  16  18
ENDBRANCH   6  16
TORSDOF 9
ENDMDL
MODEL 9
REMARK VINA RESULT:      -6.3      2.503      4.976
REMARK  9 active torsions:
REMARK  status: ('A' for Active; 'I' for Inactive)
REMARK    1  A    between atoms: O1_1  and  C1_2 
REMARK    2  A    between atoms: C2_3  and  C3_4 
REMARK    3  A    between atoms: C3_4  and  C4_5 
REMARK    4  A    between atoms: C4_5  and  C5_6 
REMARK    5  A    between atoms: C5_6  and  N1_7 
REMARK    6  A    between atoms: N1_7  and  C6_8 
REMARK    7  A    between atoms: C9_13  and  N4_14 
REMARK    8  A    between atoms: N4_14  and  C10_15 
REMARK    9  A    between atoms: C10_15  and  C11_16 
ROOT
HETATM    1  C6  UNL     1      25.256   3.117  51.015  1.00  0.00     0.092 A 
HETATM    2  C7  UNL     1      25.820   4.099  50.247  1.00  0.00     0.151 A 
HETATM    3  N2  UNL     1      25.203   4.760  49.237  1.00  0.00    -0.252 NA
HETATM    4  C8  UNL     1      23.915   4.427  48.952  1.00  0.00     0.235 A 
HETATM    5  N3  UNL     1      23.355   3.464  49.700  1.00  0.00    -0.222 NA
HETATM    6  C9  UNL     1      23.952   2.804  50.700  1.00  0.00     0.153 A 
ENDROOT
BRANCH   1   7
HETATM    7  N1  UNL     1      25.936   2.447  52.038  1.00  0.00    -0.386 N 
HETATM    8  H10 UNL     1      25.655   2.568  53.032  1.00  0.00     0.159 HD
BRANCH   7   9
HETATM    9  C5  UNL     1      27.060   1.536  51.997  1.00  0.00     0.120 C 
BRANCH   9  10
HETATM   10  C4  UNL     1      26.584   0.122  51.991  1.00  0.00     0.023 C 
BRANCH  10  11
HETATM   11  C3  UNL     1      27.007  -0.694  53.180  1.00  0.00     0.030 C 
BRANCH  11  12
HETATM   12  C2  UNL     1      28.456  -0.839  53.317  1.00  0.00    -0.003 C 
HETATM   13  C1  UNL     1      29.081  -2.004  53.164  1.00  0.00     0.127 C 
BRANCH  13  14
HETATM   14  O1  UNL     1      28.268  -3.112  52.857  1.00  0.00    -0.373 OA
HETATM   15  H1  UNL     1      27.826  -3.650  53.605  1.00  0.00     0.216 HD
ENDBRANCH  13  14
ENDBRANCH  11  12
ENDBRANCH  10  11
ENDBRANCH   9  10
ENDBRANCH   7   9
ENDBRANCH   1   7
BRANCH   6  16
HETATM   16  N4  UNL     1      23.154   1.829  51.339  1.00  0.00    -0.369 N 
HETATM   17  H13 UNL     1      23.472   0.853  51.174  1.00  0.00     0.161 HD
BRANCH  16  18
HETATM   18  C10 UNL     1      21.998   1.944  52.169  1.00  0.00     0.160 C 
BRANCH  18  19
HETATM   19  C11 UNL     1      21.872   0.754  53.046  1.00  0.00    -0.041 A 
HETATM   20  C12 UNL     1      20.769   0.051  53.464  1.00  0.00     0.009 A 
HETATM   21  C13 UNL     1      20.912  -1.026  54.301  1.00  0.00     0.001 A 
HETATM   22  C14 UNL     1      22.134  -1.464  54.765  1.00  0.00     0.000 A 
HETATM   23  C15 UNL     1      23.248  -0.760  54.346  1.00  0.00     0.001 A 
HETATM   24  C16 UNL     1      23.106   0.308  53.517  1.00  0.00     0.009 A 
ENDBRANCH  18  19
ENDBRANCH  16  18
ENDBRANCH   6  16
TORSDOF 9
ENDMDL
