MODEL 1
REMARK VINA RESULT:      -8.5      0.000      0.000
REMARK  7 active torsions:
REMARK  status: ('A' for Active; 'I' for Inactive)
REMARK    1  A    between atoms: C2_2  and  C3_3 
REMARK    2  A    between atoms: C4_5  and  C5_6 
REMARK    3  A    between atoms: C7_8  and  N1_9 
REMARK    4  A    between atoms: N1_9  and  C8_10 
REMARK    5  A    between atoms: C8_10  and  C9_11 
REMARK    6  A    between atoms: C10_12  and  C11_14 
REMARK    7  A    between atoms: C12_18  and  N3_19 
ROOT
HETATM    1  C5  UNL     1      25.790   0.545  52.494  1.00  0.00    -0.002 C 
HETATM    2  C6  UNL     1      26.063   1.489  51.652  1.00  0.00     0.037 C 
HETATM    3  C7  UNL     1      26.961   2.387  51.822  1.00  0.00     0.155 C 
HETATM    4  N2  UNL     1      27.983   2.517  52.809  1.00  0.00    -0.045 NA
HETATM    5  C12 UNL     1      28.362   1.678  53.728  1.00  0.00     0.721 C 
HETATM    6  N4  UNL     1      27.790   0.378  53.942  1.00  0.00    -0.075 NA
HETATM    7  C13 UNL     1      26.697  -0.111  53.422  1.00  0.00     0.148 C 
ENDROOT
BRANCH   1   8
HETATM    8  C4  UNL     1      24.407   0.128  52.469  1.00  0.00     0.034 C 
HETATM    9  C3  UNL     1      23.258   0.773  52.375  1.00  0.00     0.021 C 
HETATM   10 CL1  UNL     1      22.821   2.484  52.233  1.00  0.00    -0.088 Cl
BRANCH   9  11
HETATM   11  C2  UNL     1      21.836   0.346  52.348  1.00  0.00     0.002 C 
HETATM   12  C1  UNL     1      21.236   0.334  50.972  1.00  0.00     0.022 C 
HETATM   13  C14 UNL     1      21.012   1.062  53.381  1.00  0.00     0.043 C 
HETATM   14  C15 UNL     1      21.486   0.364  54.633  1.00  0.00    -0.006 C 
HETATM   15  C16 UNL     1      21.906  -0.882  54.342  1.00  0.00     0.009 C 
HETATM   16 CL2  UNL     1      22.557  -2.132  55.419  1.00  0.00    -0.089 Cl
HETATM   17  C17 UNL     1      21.738  -1.090  52.879  1.00  0.00     0.066 C 
ENDBRANCH   9  11
ENDBRANCH   1   8
BRANCH   3  18
HETATM   18  N1  UNL     1      26.950   3.449  50.869  1.00  0.00    -0.370 N 
HETATM   19  H5  UNL     1      27.530   4.223  51.310  1.00  0.00     0.161 HD
BRANCH  18  20
HETATM   20  C8  UNL     1      26.350   3.639  49.547  1.00  0.00     0.151 C 
BRANCH  20  21
HETATM   21  C9  UNL     1      26.375   5.084  49.220  1.00  0.00     0.036 C 
HETATM   22  C10 UNL     1      27.418   5.511  48.518  1.00  0.00     0.155 C 
HETATM   23  F1  UNL     1      28.232   4.463  48.271  1.00  0.00    -0.205 F 
BRANCH  22  24
HETATM   24  C11 UNL     1      27.708   6.883  48.053  1.00  0.00     0.414 C 
HETATM   25  F2  UNL     1      26.694   7.347  47.251  1.00  0.00    -0.207 F 
HETATM   26  F3  UNL     1      28.876   6.859  47.281  1.00  0.00    -0.207 F 
ENDBRANCH  22  24
ENDBRANCH  20  21
ENDBRANCH  18  20
ENDBRANCH   3  18
BRANCH   5  27
HETATM   27  N3  UNL     1      29.424   2.081  54.584  1.00  0.00    -0.231 N 
HETATM   28  H10 UNL     1      29.531   1.252  55.228  1.00  0.00     0.174 HD
HETATM   29  H11 UNL     1      29.575   3.012  54.145  1.00  0.00     0.174 HD
ENDBRANCH   5  27
TORSDOF 7
ENDMDL
MODEL 2
REMARK VINA RESULT:      -8.3      2.051      2.445
REMARK  7 active torsions:
REMARK  status: ('A' for Active; 'I' for Inactive)
REMARK    1  A    between atoms: C2_2  and  C3_3 
REMARK    2  A    between atoms: C4_5  and  C5_6 
REMARK    3  A    between atoms: C7_8  and  N1_9 
REMARK    4  A    between atoms: N1_9  and  C8_10 
REMARK    5  A    between atoms: C8_10  and  C9_11 
REMARK    6  A    between atoms: C10_12  and  C11_14 
REMARK    7  A    between atoms: C12_18  and  N3_19 
ROOT
HETATM    1  C5  UNL     1      25.828   0.555  52.460  1.00  0.00    -0.002 C 
HETATM    2  C6  UNL     1      26.114   1.495  51.616  1.00  0.00     0.037 C 
HETATM    3  C7  UNL     1      27.012   2.392  51.792  1.00  0.00     0.155 C 
HETATM    4  N2  UNL     1      28.023   2.524  52.789  1.00  0.00    -0.045 NA
HETATM    5  C12 UNL     1      28.389   1.689  53.717  1.00  0.00     0.721 C 
HETATM    6  N4  UNL     1      27.812   0.391  53.931  1.00  0.00    -0.075 NA
HETATM    7  C13 UNL     1      26.724  -0.098  53.402  1.00  0.00     0.148 C 
ENDROOT
BRANCH   1   8
HETATM    8  C4  UNL     1      24.445   0.142  52.421  1.00  0.00     0.034 C 
HETATM    9  C3  UNL     1      23.296   0.791  52.372  1.00  0.00     0.021 C 
HETATM   10 CL1  UNL     1      22.861   2.508  52.328  1.00  0.00    -0.088 Cl
BRANCH   9  11
HETATM   11  C2  UNL     1      21.873   0.368  52.331  1.00  0.00     0.002 C 
HETATM   12  C1  UNL     1      21.290   0.349  50.948  1.00  0.00     0.022 C 
HETATM   13  C14 UNL     1      21.040   1.092  53.350  1.00  0.00     0.043 C 
HETATM   14  C15 UNL     1      21.497   0.401  54.612  1.00  0.00    -0.006 C 
HETATM   15  C16 UNL     1      21.918  -0.848  54.334  1.00  0.00     0.009 C 
HETATM   16 CL2  UNL     1      22.554  -2.092  55.426  1.00  0.00    -0.089 Cl
HETATM   17  C17 UNL     1      21.766  -1.064  52.870  1.00  0.00     0.066 C 
ENDBRANCH   9  11
ENDBRANCH   1   8
BRANCH   3  18
HETATM   18  N1  UNL     1      27.014   3.448  50.834  1.00  0.00    -0.370 N 
HETATM   19  H5  UNL     1      27.532   4.249  51.304  1.00  0.00     0.161 HD
BRANCH  18  20
HETATM   20  C8  UNL     1      26.490   3.607  49.476  1.00  0.00     0.151 C 
BRANCH  20  21
HETATM   21  C9  UNL     1      25.376   4.584  49.510  1.00  0.00     0.036 C 
HETATM   22  C10 UNL     1      24.153   4.087  49.371  1.00  0.00     0.155 C 
HETATM   23  F1  UNL     1      24.243   2.749  49.226  1.00  0.00    -0.205 F 
BRANCH  22  24
HETATM   24  C11 UNL     1      22.866   4.814  49.365  1.00  0.00     0.414 C 
HETATM   25  F2  UNL     1      22.807   5.704  50.407  1.00  0.00    -0.207 F 
HETATM   26  F3  UNL     1      21.828   3.890  49.542  1.00  0.00    -0.207 F 
ENDBRANCH  22  24
ENDBRANCH  20  21
ENDBRANCH  18  20
ENDBRANCH   3  18
BRANCH   5  27
HETATM   27  N3  UNL     1      29.442   2.093  54.583  1.00  0.00    -0.231 N 
HETATM   28  H10 UNL     1      30.282   1.603  54.174  1.00  0.00     0.174 HD
HETATM   29  H11 UNL     1      28.855   2.685  55.205  1.00  0.00     0.174 HD
ENDBRANCH   5  27
TORSDOF 7
ENDMDL
MODEL 3
REMARK VINA RESULT:      -8.3      1.039      2.325
REMARK  7 active torsions:
REMARK  status: ('A' for Active; 'I' for Inactive)
REMARK    1  A    between atoms: C2_2  and  C3_3 
REMARK    2  A    between atoms: C4_5  and  C5_6 
REMARK    3  A    between atoms: C7_8  and  N1_9 
REMARK    4  A    between atoms: N1_9  and  C8_10 
REMARK    5  A    between atoms: C8_10  and  C9_11 
REMARK    6  A    between atoms: C10_12  and  C11_14 
REMARK    7  A    between atoms: C12_18  and  N3_19 
ROOT
HETATM    1  C5  UNL     1      25.161   1.302  52.895  1.00  0.00    -0.002 C 
HETATM    2  C6  UNL     1      25.642   1.969  51.896  1.00  0.00     0.037 C 
HETATM    3  C7  UNL     1      26.805   2.506  51.863  1.00  0.00     0.155 C 
HETATM    4  N2  UNL     1      27.914   2.396  52.752  1.00  0.00    -0.045 NA
HETATM    5  C12 UNL     1      28.087   1.607  53.772  1.00  0.00     0.721 C 
HETATM    6  N4  UNL     1      27.135   0.632  54.229  1.00  0.00    -0.075 NA
HETATM    7  C13 UNL     1      25.891   0.497  53.862  1.00  0.00     0.148 C 
ENDROOT
BRANCH   1   8
HETATM    8  C4  UNL     1      23.726   1.400  53.021  1.00  0.00     0.034 C 
HETATM    9  C3  UNL     1      22.749   0.514  53.091  1.00  0.00     0.021 C 
HETATM   10 CL1  UNL     1      22.699  -1.257  53.066  1.00  0.00    -0.088 Cl
BRANCH   9  11
HETATM   11  C2  UNL     1      21.274   0.613  53.221  1.00  0.00     0.002 C 
HETATM   12  C1  UNL     1      20.776   0.397  54.621  1.00  0.00     0.022 C 
HETATM   13  C14 UNL     1      20.559  -0.193  52.173  1.00  0.00     0.043 C 
HETATM   14  C15 UNL     1      20.789   0.677  50.961  1.00  0.00    -0.006 C 
HETATM   15  C16 UNL     1      20.947   1.962  51.333  1.00  0.00     0.009 C 
HETATM   16 CL2  UNL     1      21.242   3.397  50.332  1.00  0.00    -0.089 Cl
HETATM   17  C17 UNL     1      20.833   2.025  52.815  1.00  0.00     0.066 C 
ENDBRANCH   9  11
ENDBRANCH   1   8
BRANCH   3  18
HETATM   18  N1  UNL     1      27.047   3.368  50.752  1.00  0.00    -0.370 N 
HETATM   19  H5  UNL     1      27.878   3.965  51.041  1.00  0.00     0.161 HD
BRANCH  18  20
HETATM   20  C8  UNL     1      26.427   3.554  49.439  1.00  0.00     0.151 C 
BRANCH  20  21
HETATM   21  C9  UNL     1      26.367   5.005  49.145  1.00  0.00     0.036 C 
HETATM   22  C10 UNL     1      27.408   5.519  48.503  1.00  0.00     0.155 C 
HETATM   23  F1  UNL     1      28.302   4.536  48.270  1.00  0.00    -0.205 F 
BRANCH  22  24
HETATM   24  C11 UNL     1      27.622   6.919  48.082  1.00  0.00     0.414 C 
HETATM   25  F2  UNL     1      26.523   7.398  47.413  1.00  0.00    -0.207 F 
HETATM   26  F3  UNL     1      28.705   6.962  47.194  1.00  0.00    -0.207 F 
ENDBRANCH  22  24
ENDBRANCH  20  21
ENDBRANCH  18  20
ENDBRANCH   3  18
BRANCH   5  27
HETATM   27  N3  UNL     1      29.312   1.718  54.486  1.00  0.00    -0.231 N 
HETATM   28  H10 UNL     1      29.000   1.672  55.493  1.00  0.00     0.174 HD
HETATM   29  H11 UNL     1      29.924   1.791  53.648  1.00  0.00     0.174 HD
ENDBRANCH   5  27
TORSDOF 7
ENDMDL
MODEL 4
REMARK VINA RESULT:      -8.3      4.505      6.931
REMARK  7 active torsions:
REMARK  status: ('A' for Active; 'I' for Inactive)
REMARK    1  A    between atoms: C2_2  and  C3_3 
REMARK    2  A    between atoms: C4_5  and  C5_6 
REMARK    3  A    between atoms: C7_8  and  N1_9 
REMARK    4  A    between atoms: N1_9  and  C8_10 
REMARK    5  A    between atoms: C8_10  and  C9_11 
REMARK    6  A    between atoms: C10_12  and  C11_14 
REMARK    7  A    between atoms: C12_18  and  N3_19 
ROOT
HETATM    1  C5  UNL     1      25.044   1.351  52.657  1.00  0.00    -0.002 C 
HETATM    2  C6  UNL     1      24.398   0.494  53.382  1.00  0.00     0.037 C 
HETATM    3  C7  UNL     1      24.941  -0.364  54.163  1.00  0.00     0.155 C 
HETATM    4  N2  UNL     1      26.292  -0.517  54.594  1.00  0.00    -0.045 NA
HETATM    5  C12 UNL     1      27.316   0.264  54.412  1.00  0.00     0.721 C 
HETATM    6  N4  UNL     1      27.285   1.509  53.696  1.00  0.00    -0.075 NA
HETATM    7  C13 UNL     1      26.324   1.978  52.949  1.00  0.00     0.148 C 
ENDROOT
BRANCH   1   8
HETATM    8  C4  UNL     1      24.372   1.692  51.425  1.00  0.00     0.034 C 
HETATM    9  C3  UNL     1      23.137   2.054  51.125  1.00  0.00     0.021 C 
HETATM   10 CL1  UNL     1      21.668   2.305  52.083  1.00  0.00    -0.088 Cl
BRANCH   9  11
HETATM   11  C2  UNL     1      22.445   2.406  49.860  1.00  0.00     0.002 C 
HETATM   12  C1  UNL     1      21.520   1.333  49.360  1.00  0.00     0.022 C 
HETATM   13  C14 UNL     1      23.394   2.942  48.827  1.00  0.00     0.043 C 
HETATM   14  C15 UNL     1      23.656   4.318  49.390  1.00  0.00    -0.006 C 
HETATM   15  C16 UNL     1      22.605   4.728  50.126  1.00  0.00     0.009 C 
HETATM   16 CL2  UNL     1      22.373   6.248  51.010  1.00  0.00    -0.089 Cl
HETATM   17  C17 UNL     1      21.580   3.651  50.097  1.00  0.00     0.066 C 
ENDBRANCH   9  11
ENDBRANCH   1   8
BRANCH   3  18
HETATM   18  N1  UNL     1      24.055  -1.343  54.701  1.00  0.00    -0.370 N 
HETATM   19  H5  UNL     1      24.533  -2.277  54.525  1.00  0.00     0.161 HD
BRANCH  18  20
HETATM   20  C8  UNL     1      22.756  -1.297  55.375  1.00  0.00     0.151 C 
BRANCH  20  21
HETATM   21  C9  UNL     1      21.692  -1.521  54.368  1.00  0.00     0.036 C 
HETATM   22  C10 UNL     1      20.765  -0.575  54.272  1.00  0.00     0.155 C 
HETATM   23  F1  UNL     1      21.044   0.397  55.164  1.00  0.00    -0.205 F 
BRANCH  22  24
HETATM   24  C11 UNL     1      19.598  -0.529  53.367  1.00  0.00     0.414 C 
HETATM   25  F2  UNL     1      18.874  -1.692  53.448  1.00  0.00    -0.207 F 
HETATM   26  F3  UNL     1      20.056  -0.410  52.048  1.00  0.00    -0.207 F 
ENDBRANCH  22  24
ENDBRANCH  20  21
ENDBRANCH  18  20
ENDBRANCH   3  18
BRANCH   5  27
HETATM   27  N3  UNL     1      28.560  -0.148  54.964  1.00  0.00    -0.231 N 
HETATM   28  H10 UNL     1      29.231   0.001  54.164  1.00  0.00     0.174 HD
HETATM   29  H11 UNL     1      28.188  -0.399  55.903  1.00  0.00     0.174 HD
ENDBRANCH   5  27
TORSDOF 7
ENDMDL
MODEL 5
REMARK VINA RESULT:      -8.3      4.559      6.906
REMARK  7 active torsions:
REMARK  status: ('A' for Active; 'I' for Inactive)
REMARK    1  A    between atoms: C2_2  and  C3_3 
REMARK    2  A    between atoms: C4_5  and  C5_6 
REMARK    3  A    between atoms: C7_8  and  N1_9 
REMARK    4  A    between atoms: N1_9  and  C8_10 
REMARK    5  A    between atoms: C8_10  and  C9_11 
REMARK    6  A    between atoms: C10_12  and  C11_14 
REMARK    7  A    between atoms: C12_18  and  N3_19 
ROOT
HETATM    1  C5  UNL     1      25.012   1.760  52.653  1.00  0.00    -0.002 C 
HETATM    2  C6  UNL     1      24.235   0.847  53.142  1.00  0.00     0.037 C 
HETATM    3  C7  UNL     1      24.625  -0.149  53.848  1.00  0.00     0.155 C 
HETATM    4  N2  UNL     1      25.893  -0.446  54.429  1.00  0.00    -0.045 NA
HETATM    5  C12 UNL     1      26.964   0.288  54.510  1.00  0.00     0.721 C 
HETATM    6  N4  UNL     1      27.086   1.624  53.997  1.00  0.00    -0.075 NA
HETATM    7  C13 UNL     1      26.261   2.257  53.208  1.00  0.00     0.148 C 
ENDROOT
BRANCH   1   8
HETATM    8  C4  UNL     1      24.537   2.319  51.409  1.00  0.00     0.034 C 
HETATM    9  C3  UNL     1      24.033   3.491  51.065  1.00  0.00     0.021 C 
HETATM   10 CL1  UNL     1      23.680   4.981  51.955  1.00  0.00    -0.088 Cl
BRANCH   9  11
HETATM   11  C2  UNL     1      23.545   4.068  49.787  1.00  0.00     0.002 C 
HETATM   12  C1  UNL     1      24.559   4.927  49.088  1.00  0.00     0.022 C 
HETATM   13  C14 UNL     1      22.189   4.697  49.933  1.00  0.00     0.043 C 
HETATM   14  C15 UNL     1      21.327   3.461  50.024  1.00  0.00    -0.006 C 
HETATM   15  C16 UNL     1      21.916   2.434  49.381  1.00  0.00     0.009 C 
HETATM   16 CL2  UNL     1      21.354   0.765  49.172  1.00  0.00    -0.089 Cl
HETATM   17  C17 UNL     1      23.205   2.924  48.823  1.00  0.00     0.066 C 
ENDBRANCH   9  11
ENDBRANCH   1   8
BRANCH   3  18
HETATM   18  N1  UNL     1      23.633  -1.140  54.104  1.00  0.00    -0.370 N 
HETATM   19  H5  UNL     1      23.881  -1.953  53.466  1.00  0.00     0.161 HD
BRANCH  18  20
HETATM   20  C8  UNL     1      22.467  -1.227  54.987  1.00  0.00     0.151 C 
BRANCH  20  21
HETATM   21  C9  UNL     1      21.271  -1.518  54.163  1.00  0.00     0.036 C 
HETATM   22  C10 UNL     1      20.454  -0.498  53.929  1.00  0.00     0.155 C 
HETATM   23  F1  UNL     1      20.950   0.601  54.534  1.00  0.00    -0.205 F 
BRANCH  22  24
HETATM   24  C11 UNL     1      19.199  -0.492  53.149  1.00  0.00     0.414 C 
HETATM   25  F2  UNL     1      18.567  -1.707  53.239  1.00  0.00    -0.207 F 
HETATM   26  F3  UNL     1      19.509  -0.279  51.800  1.00  0.00    -0.207 F 
ENDBRANCH  22  24
ENDBRANCH  20  21
ENDBRANCH  18  20
ENDBRANCH   3  18
BRANCH   5  27
HETATM   27  N3  UNL     1      28.098  -0.277  55.155  1.00  0.00    -0.231 N 
HETATM   28  H10 UNL     1      27.665  -0.955  55.838  1.00  0.00     0.174 HD
HETATM   29  H11 UNL     1      28.810   0.266  54.625  1.00  0.00     0.174 HD
ENDBRANCH   5  27
TORSDOF 7
ENDMDL
MODEL 6
REMARK VINA RESULT:      -8.2      4.023      6.214
REMARK  7 active torsions:
REMARK  status: ('A' for Active; 'I' for Inactive)
REMARK    1  A    between atoms: C2_2  and  C3_3 
REMARK    2  A    between atoms: C4_5  and  C5_6 
REMARK    3  A    between atoms: C7_8  and  N1_9 
REMARK    4  A    between atoms: N1_9  and  C8_10 
REMARK    5  A    between atoms: C8_10  and  C9_11 
REMARK    6  A    between atoms: C10_12  and  C11_14 
REMARK    7  A    between atoms: C12_18  and  N3_19 
ROOT
HETATM    1  C5  UNL     1      22.755  -0.149  53.543  1.00  0.00    -0.002 C 
HETATM    2  C6  UNL     1      22.086   0.903  53.195  1.00  0.00     0.037 C 
HETATM    3  C7  UNL     1      20.819   0.938  53.004  1.00  0.00     0.155 C 
HETATM    4  N2  UNL     1      19.804  -0.027  53.269  1.00  0.00    -0.045 NA
HETATM    5  C12 UNL     1      19.879  -1.159  53.906  1.00  0.00     0.721 C 
HETATM    6  N4  UNL     1      21.073  -1.689  54.504  1.00  0.00    -0.075 NA
HETATM    7  C13 UNL     1      22.298  -1.266  54.354  1.00  0.00     0.148 C 
ENDROOT
BRANCH   1   8
HETATM    8  C4  UNL     1      24.109  -0.166  53.042  1.00  0.00     0.034 C 
HETATM    9  C3  UNL     1      25.297  -0.257  53.614  1.00  0.00     0.021 C 
HETATM   10 CL1  UNL     1      25.838  -0.404  55.295  1.00  0.00    -0.088 Cl
BRANCH   9  11
HETATM   11  C2  UNL     1      26.689  -0.276  53.102  1.00  0.00     0.002 C 
HETATM   12  C1  UNL     1      27.239  -1.658  52.902  1.00  0.00     0.022 C 
HETATM   13  C14 UNL     1      27.588   0.647  53.875  1.00  0.00     0.043 C 
HETATM   14  C15 UNL     1      27.119   1.982  53.349  1.00  0.00    -0.006 C 
HETATM   15  C16 UNL     1      26.618   1.844  52.106  1.00  0.00     0.009 C 
HETATM   16 CL2  UNL     1      25.933   3.072  51.025  1.00  0.00    -0.089 Cl
HETATM   17  C17 UNL     1      26.723   0.409  51.729  1.00  0.00     0.066 C 
ENDBRANCH   9  11
ENDBRANCH   1   8
BRANCH   3  18
HETATM   18  N1  UNL     1      20.323   2.143  52.424  1.00  0.00    -0.370 N 
HETATM   19  H5  UNL     1      19.293   1.958  52.236  1.00  0.00     0.161 HD
BRANCH  18  20
HETATM   20  C8  UNL     1      20.912   3.439  52.081  1.00  0.00     0.151 C 
BRANCH  20  21
HETATM   21  C9  UNL     1      21.254   3.437  50.639  1.00  0.00     0.036 C 
HETATM   22  C10 UNL     1      22.435   3.948  50.314  1.00  0.00     0.155 C 
HETATM   23  F1  UNL     1      23.054   4.360  51.439  1.00  0.00    -0.205 F 
BRANCH  22  24
HETATM   24  C11 UNL     1      23.036   4.077  48.970  1.00  0.00     0.414 C 
HETATM   25  F2  UNL     1      23.521   2.868  48.537  1.00  0.00    -0.207 F 
HETATM   26  F3  UNL     1      24.120   4.961  49.045  1.00  0.00    -0.207 F 
ENDBRANCH  22  24
ENDBRANCH  20  21
ENDBRANCH  18  20
ENDBRANCH   3  18
BRANCH   5  27
HETATM   27  N3  UNL     1      18.688  -1.927  54.020  1.00  0.00    -0.231 N 
HETATM   28  H10 UNL     1      18.056  -1.297  54.583  1.00  0.00     0.174 HD
HETATM   29  H11 UNL     1      19.032  -2.748  53.481  1.00  0.00     0.174 HD
ENDBRANCH   5  27
TORSDOF 7
ENDMDL
MODEL 7
REMARK VINA RESULT:      -8.1      4.317      6.690
REMARK  7 active torsions:
REMARK  status: ('A' for Active; 'I' for Inactive)
REMARK    1  A    between atoms: C2_2  and  C3_3 
REMARK    2  A    between atoms: C4_5  and  C5_6 
REMARK    3  A    between atoms: C7_8  and  N1_9 
REMARK    4  A    between atoms: N1_9  and  C8_10 
REMARK    5  A    between atoms: C8_10  and  C9_11 
REMARK    6  A    between atoms: C10_12  and  C11_14 
REMARK    7  A    between atoms: C12_18  and  N3_19 
ROOT
HETATM    1  C5  UNL     1      25.106   0.994  52.482  1.00  0.00    -0.002 C 
HETATM    2  C6  UNL     1      24.629   0.501  53.579  1.00  0.00     0.037 C 
HETATM    3  C7  UNL     1      25.101  -0.522  54.191  1.00  0.00     0.155 C 
HETATM    4  N2  UNL     1      26.302  -1.264  53.988  1.00  0.00    -0.045 NA
HETATM    5  C12 UNL     1      27.311  -1.015  53.206  1.00  0.00     0.721 C 
HETATM    6  N4  UNL     1      27.420   0.127  52.341  1.00  0.00    -0.075 NA
HETATM    7  C13 UNL     1      26.488   0.985  52.028  1.00  0.00     0.148 C 
ENDROOT
BRANCH   1   8
HETATM    8  C4  UNL     1      24.108   1.617  51.645  1.00  0.00     0.034 C 
HETATM    9  C3  UNL     1      23.472   2.775  51.683  1.00  0.00     0.021 C 
HETATM   10 CL1  UNL     1      23.519   4.161  52.786  1.00  0.00    -0.088 Cl
BRANCH   9  11
HETATM   11  C2  UNL     1      22.447   3.418  50.824  1.00  0.00     0.002 C 
HETATM   12  C1  UNL     1      21.150   3.685  51.531  1.00  0.00     0.022 C 
HETATM   13  C14 UNL     1      22.304   2.723  49.500  1.00  0.00     0.043 C 
HETATM   14  C15 UNL     1      23.567   3.186  48.815  1.00  0.00    -0.006 C 
HETATM   15  C16 UNL     1      23.956   4.377  49.309  1.00  0.00     0.009 C 
HETATM   16 CL2  UNL     1      25.358   5.374  48.876  1.00  0.00    -0.089 Cl
HETATM   17  C17 UNL     1      22.976   4.779  50.353  1.00  0.00     0.066 C 
ENDBRANCH   9  11
ENDBRANCH   1   8
BRANCH   3  18
HETATM   18  N1  UNL     1      24.298  -1.016  55.261  1.00  0.00    -0.370 N 
HETATM   19  H5  UNL     1      24.850  -0.801  56.144  1.00  0.00     0.161 HD
BRANCH  18  20
HETATM   20  C8  UNL     1      23.001  -1.690  55.348  1.00  0.00     0.151 C 
BRANCH  20  21
HETATM   21  C9  UNL     1      21.940  -0.723  54.980  1.00  0.00     0.036 C 
HETATM   22  C10 UNL     1      21.503  -0.779  53.728  1.00  0.00     0.155 C 
HETATM   23  F1  UNL     1      22.172  -1.752  53.078  1.00  0.00    -0.205 F 
BRANCH  22  24
HETATM   24  C11 UNL     1      20.464   0.052  53.085  1.00  0.00     0.414 C 
HETATM   25  F2  UNL     1      20.736   0.223  51.750  1.00  0.00    -0.207 F 
HETATM   26  F3  UNL     1      20.469   1.320  53.680  1.00  0.00    -0.207 F 
ENDBRANCH  22  24
ENDBRANCH  20  21
ENDBRANCH  18  20
ENDBRANCH   3  18
BRANCH   5  27
HETATM   27  N3  UNL     1      28.388  -1.944  53.210  1.00  0.00    -0.231 N 
HETATM   28  H10 UNL     1      28.713  -1.920  54.213  1.00  0.00     0.174 HD
HETATM   29  H11 UNL     1      28.324  -2.194  52.202  1.00  0.00     0.174 HD
ENDBRANCH   5  27
TORSDOF 7
ENDMDL
MODEL 8
REMARK VINA RESULT:      -8.0      4.494      7.127
REMARK  7 active torsions:
REMARK  status: ('A' for Active; 'I' for Inactive)
REMARK    1  A    between atoms: C2_2  and  C3_3 
REMARK    2  A    between atoms: C4_5  and  C5_6 
REMARK    3  A    between atoms: C7_8  and  N1_9 
REMARK    4  A    between atoms: N1_9  and  C8_10 
REMARK    5  A    between atoms: C8_10  and  C9_11 
REMARK    6  A    between atoms: C10_12  and  C11_14 
REMARK    7  A    between atoms: C12_18  and  N3_19 
ROOT
HETATM    1  C5  UNL     1      24.523   2.942  50.891  1.00  0.00    -0.002 C 
HETATM    2  C6  UNL     1      23.402   2.353  50.626  1.00  0.00     0.037 C 
HETATM    3  C7  UNL     1      22.245   2.896  50.729  1.00  0.00     0.155 C 
HETATM    4  N2  UNL     1      21.862   4.249  50.964  1.00  0.00    -0.045 NA
HETATM    5  C12 UNL     1      22.591   5.325  51.002  1.00  0.00     0.721 C 
HETATM    6  N4  UNL     1      24.014   5.363  50.803  1.00  0.00    -0.075 NA
HETATM    7  C13 UNL     1      24.841   4.355  50.755  1.00  0.00     0.148 C 
ENDROOT
BRANCH   1   8
HETATM    8  C4  UNL     1      25.548   2.047  51.375  1.00  0.00     0.034 C 
HETATM    9  C3  UNL     1      26.070   1.810  52.565  1.00  0.00     0.021 C 
HETATM   10 CL1  UNL     1      25.782   2.472  54.182  1.00  0.00    -0.088 Cl
BRANCH   9  11
HETATM   11  C2  UNL     1      27.122   0.890  53.064  1.00  0.00     0.002 C 
HETATM   12  C1  UNL     1      28.459   1.547  53.254  1.00  0.00     0.022 C 
HETATM   13  C14 UNL     1      27.164  -0.395  52.287  1.00  0.00     0.043 C 
HETATM   14  C15 UNL     1      25.927  -1.074  52.823  1.00  0.00    -0.006 C 
HETATM   15  C16 UNL     1      25.659  -0.640  54.069  1.00  0.00     0.009 C 
HETATM   16 CL2  UNL     1      24.339  -1.096  55.163  1.00  0.00    -0.089 Cl
HETATM   17  C17 UNL     1      26.702   0.354  54.440  1.00  0.00     0.066 C 
ENDBRANCH   9  11
ENDBRANCH   1   8
BRANCH   3  18
HETATM   18  N1  UNL     1      21.140   2.005  50.589  1.00  0.00    -0.370 N 
HETATM   19  H5  UNL     1      20.302   2.631  50.399  1.00  0.00     0.161 HD
BRANCH  18  20
HETATM   20  C8  UNL     1      20.974   0.551  50.655  1.00  0.00     0.151 C 
BRANCH  20  21
HETATM   21  C9  UNL     1      20.333   0.206  51.945  1.00  0.00     0.036 C 
HETATM   22  C10 UNL     1      21.133  -0.271  52.891  1.00  0.00     0.155 C 
HETATM   23  F1  UNL     1      22.392  -0.322  52.408  1.00  0.00    -0.205 F 
BRANCH  22  24
HETATM   24  C11 UNL     1      20.778  -0.695  54.260  1.00  0.00     0.414 C 
HETATM   25  F2  UNL     1      21.335   0.147  55.190  1.00  0.00    -0.207 F 
HETATM   26  F3  UNL     1      21.303  -1.975  54.486  1.00  0.00    -0.207 F 
ENDBRANCH  22  24
ENDBRANCH  20  21
ENDBRANCH  18  20
ENDBRANCH   3  18
BRANCH   5  27
HETATM   27  N3  UNL     1      21.929   6.557  51.259  1.00  0.00    -0.231 N 
HETATM   28  H10 UNL     1      21.141   6.549  50.558  1.00  0.00     0.174 HD
HETATM   29  H11 UNL     1      22.559   6.865  52.028  1.00  0.00     0.174 HD
ENDBRANCH   5  27
TORSDOF 7
ENDMDL
MODEL 9
REMARK VINA RESULT:      -8.0      4.231      6.849
REMARK  7 active torsions:
REMARK  status: ('A' for Active; 'I' for Inactive)
REMARK    1  A    between atoms: C2_2  and  C3_3 
REMARK    2  A    between atoms: C4_5  and  C5_6 
REMARK    3  A    between atoms: C7_8  and  N1_9 
REMARK    4  A    between atoms: N1_9  and  C8_10 
REMARK    5  A    between atoms: C8_10  and  C9_11 
REMARK    6  A    between atoms: C10_12  and  C11_14 
REMARK    7  A    between atoms: C12_18  and  N3_19 
ROOT
HETATM    1  C5  UNL     1      25.765   2.484  50.863  1.00  0.00    -0.002 C 
HETATM    2  C6  UNL     1      24.495   2.523  51.106  1.00  0.00     0.037 C 
HETATM    3  C7  UNL     1      23.784   3.590  51.133  1.00  0.00     0.155 C 
HETATM    4  N2  UNL     1      24.091   4.930  50.754  1.00  0.00    -0.045 NA
HETATM    5  C12 UNL     1      25.140   5.403  50.149  1.00  0.00     0.721 C 
HETATM    6  N4  UNL     1      26.265   4.621  49.718  1.00  0.00    -0.075 NA
HETATM    7  C13 UNL     1      26.538   3.380  50.017  1.00  0.00     0.148 C 
ENDROOT
BRANCH   1   8
HETATM    8  C4  UNL     1      26.451   1.405  51.534  1.00  0.00     0.034 C 
HETATM    9  C3  UNL     1      26.059   0.421  52.324  1.00  0.00     0.021 C 
HETATM   10 CL1  UNL     1      24.486  -0.080  52.967  1.00  0.00    -0.088 Cl
BRANCH   9  11
HETATM   11  C2  UNL     1      26.761  -0.690  53.013  1.00  0.00     0.002 C 
HETATM   12  C1  UNL     1      26.728  -1.987  52.257  1.00  0.00     0.022 C 
HETATM   13  C14 UNL     1      26.363  -0.800  54.457  1.00  0.00     0.043 C 
HETATM   14  C15 UNL     1      27.096   0.388  55.031  1.00  0.00    -0.006 C 
HETATM   15  C16 UNL     1      28.185   0.667  54.287  1.00  0.00     0.009 C 
HETATM   16 CL2  UNL     1      29.396   1.946  54.498  1.00  0.00    -0.089 Cl
HETATM   17  C17 UNL     1      28.241  -0.318  53.174  1.00  0.00     0.066 C 
ENDBRANCH   9  11
ENDBRANCH   1   8
BRANCH   3  18
HETATM   18  N1  UNL     1      22.456   3.425  51.626  1.00  0.00    -0.370 N 
HETATM   19  H5  UNL     1      22.312   4.227  52.309  1.00  0.00     0.161 HD
BRANCH  18  20
HETATM   20  C8  UNL     1      21.381   2.460  51.386  1.00  0.00     0.151 C 
BRANCH  20  21
HETATM   21  C9  UNL     1      20.989   1.856  52.681  1.00  0.00     0.036 C 
HETATM   22  C10 UNL     1      21.012   0.531  52.743  1.00  0.00     0.155 C 
HETATM   23  F1  UNL     1      21.405   0.048  51.546  1.00  0.00    -0.205 F 
BRANCH  22  24
HETATM   24  C11 UNL     1      20.675  -0.337  53.890  1.00  0.00     0.414 C 
HETATM   25  F2  UNL     1      20.968   0.291  55.075  1.00  0.00    -0.207 F 
HETATM   26  F3  UNL     1      21.460  -1.495  53.824  1.00  0.00    -0.207 F 
ENDBRANCH  22  24
ENDBRANCH  20  21
ENDBRANCH  18  20
ENDBRANCH   3  18
BRANCH   5  27
HETATM   27  N3  UNL     1      25.174   6.802  49.895  1.00  0.00    -0.231 N 
HETATM   28  H10 UNL     1      25.500   6.850  48.892  1.00  0.00     0.174 HD
HETATM   29  H11 UNL     1      24.855   7.096  50.840  1.00  0.00     0.174 HD
ENDBRANCH   5  27
TORSDOF 7
ENDMDL
