MODEL 1
REMARK VINA RESULT:      -8.2      0.000      0.000
REMARK  3 active torsions:
REMARK  status: ('A' for Active; 'I' for Inactive)
REMARK    1  A    between atoms: N1_1  and  C1_2 
REMARK    2  A    between atoms: C6_7  and  C7_8 
REMARK    3  A    between atoms: C7_8  and  C8_9 
ROOT
HETATM    1  C8  UNL     1      24.686   1.564  52.175  1.00  0.00    -0.022 A 
HETATM    2  C9  UNL     1      24.728   3.043  52.033  1.00  0.00     0.018 C 
HETATM    3  C10 UNL     1      23.487   3.719  52.633  1.00  0.00     0.081 C 
HETATM    4  C11 UNL     1      22.228   3.154  52.107  1.00  0.00     0.160 C 
HETATM    5  O1  UNL     1      21.308   3.924  51.880  1.00  0.00    -0.296 OA
HETATM    6  C12 UNL     1      22.131   1.686  51.879  1.00  0.00     0.295 C 
HETATM    7  N2  UNL     1      21.425   1.150  53.057  1.00  0.00     0.099 N 
HETATM    8  C13 UNL     1      21.271  -0.283  53.032  1.00  0.00     0.297 C 
HETATM    9  C14 UNL     1      22.497  -0.963  53.601  1.00  0.00    -0.001 C 
HETATM   10  C15 UNL     1      23.709  -0.361  53.711  1.00  0.00    -0.023 C 
HETATM   11  C16 UNL     1      23.940   1.024  53.281  1.00  0.00     0.024 A 
HETATM   12  C17 UNL     1      23.419   1.009  51.815  1.00  0.00     0.044 A 
HETATM   13  H14 UNL     1      20.499   1.616  53.166  1.00  0.00     0.317 HD
ENDROOT
BRANCH   1  14
HETATM   14  C7  UNL     1      25.915   0.808  51.779  1.00  0.00     0.051 C 
BRANCH  14  15
HETATM   15  C6  UNL     1      27.051   0.860  52.679  1.00  0.00    -0.031 A 
HETATM   16  C1  UNL     1      27.637  -0.138  53.418  1.00  0.00     0.032 A 
HETATM   17  C2  UNL     1      28.708  -0.047  54.274  1.00  0.00     0.029 A 
HETATM   18  C3  UNL     1      29.254   1.236  54.392  1.00  0.00     0.002 A 
HETATM   19  C4  UNL     1      28.723   2.290  53.682  1.00  0.00     0.001 A 
HETATM   20  C5  UNL     1      27.642   2.119  52.839  1.00  0.00     0.009 A 
BRANCH  16  21
HETATM   21  N1  UNL     1      27.080  -1.435  53.268  1.00  0.00    -0.399 N 
HETATM   22  H1  UNL     1      27.484  -2.254  53.816  1.00  0.00     0.156 HD
HETATM   23  H2  UNL     1      26.325  -1.935  52.749  1.00  0.00     0.156 HD
ENDBRANCH  16  21
ENDBRANCH  14  15
ENDBRANCH   1  14
TORSDOF 3
ENDMDL
MODEL 2
REMARK VINA RESULT:      -8.1      2.457      5.866
REMARK  3 active torsions:
REMARK  status: ('A' for Active; 'I' for Inactive)
REMARK    1  A    between atoms: N1_1  and  C1_2 
REMARK    2  A    between atoms: C6_7  and  C7_8 
REMARK    3  A    between atoms: C7_8  and  C8_9 
ROOT
HETATM    1  C8  UNL     1      26.022   0.196  53.832  1.00  0.00    -0.022 A 
HETATM    2  C9  UNL     1      26.026   1.680  53.908  1.00  0.00     0.018 C 
HETATM    3  C10 UNL     1      27.363   2.281  53.454  1.00  0.00     0.081 C 
HETATM    4  C11 UNL     1      28.516   1.693  54.166  1.00  0.00     0.160 C 
HETATM    5  O1  UNL     1      29.430   2.437  54.484  1.00  0.00    -0.296 OA
HETATM    6  C12 UNL     1      28.517   0.234  54.463  1.00  0.00     0.295 C 
HETATM    7  N2  UNL     1      29.349  -0.381  53.412  1.00  0.00     0.099 N 
HETATM    8  C13 UNL     1      29.437  -1.816  53.515  1.00  0.00     0.297 C 
HETATM    9  C14 UNL     1      28.268  -2.474  52.813  1.00  0.00    -0.001 C 
HETATM   10  C15 UNL     1      27.109  -1.832  52.517  1.00  0.00    -0.023 C 
HETATM   11  C16 UNL     1      26.883  -0.421  52.857  1.00  0.00     0.024 A 
HETATM   12  C17 UNL     1      27.204  -0.390  54.380  1.00  0.00     0.044 A 
HETATM   13  H14 UNL     1      30.302   0.044  53.411  1.00  0.00     0.317 HD
ENDROOT
BRANCH   1  14
HETATM   14  C7  UNL     1      24.719  -0.494  54.088  1.00  0.00     0.051 C 
BRANCH  14  15
HETATM   15  C6  UNL     1      23.539   0.041  53.436  1.00  0.00    -0.031 A 
HETATM   16  C1  UNL     1      22.217  -0.047  53.795  1.00  0.00     0.032 A 
HETATM   17  C2  UNL     1      21.121   0.462  53.142  1.00  0.00     0.029 A 
HETATM   18  C3  UNL     1      21.414   1.154  51.961  1.00  0.00     0.002 A 
HETATM   19  C4  UNL     1      22.717   1.287  51.533  1.00  0.00     0.001 A 
HETATM   20  C5  UNL     1      23.768   0.744  52.248  1.00  0.00     0.009 A 
BRANCH  16  21
HETATM   21  N1  UNL     1      21.944  -0.735  55.007  1.00  0.00    -0.399 N 
HETATM   22  H1  UNL     1      20.950  -0.768  55.387  1.00  0.00     0.156 HD
HETATM   23  H2  UNL     1      22.428  -1.288  55.749  1.00  0.00     0.156 HD
ENDBRANCH  16  21
ENDBRANCH  14  15
ENDBRANCH   1  14
TORSDOF 3
ENDMDL
MODEL 3
REMARK VINA RESULT:      -8.1      2.882      5.519
REMARK  3 active torsions:
REMARK  status: ('A' for Active; 'I' for Inactive)
REMARK    1  A    between atoms: N1_1  and  C1_2 
REMARK    2  A    between atoms: C6_7  and  C7_8 
REMARK    3  A    between atoms: C7_8  and  C8_9 
ROOT
HETATM    1  C8  UNL     1      24.579   0.953  52.567  1.00  0.00    -0.022 A 
HETATM    2  C9  UNL     1      25.850   0.932  51.798  1.00  0.00     0.018 C 
HETATM    3  C10 UNL     1      26.722  -0.281  52.153  1.00  0.00     0.081 C 
HETATM    4  C11 UNL     1      26.957  -0.400  53.606  1.00  0.00     0.160 C 
HETATM    5  O1  UNL     1      28.065  -0.753  53.978  1.00  0.00    -0.296 OA
HETATM    6  C12 UNL     1      25.847  -0.090  54.549  1.00  0.00     0.295 C 
HETATM    7  N2  UNL     1      25.277  -1.395  54.929  1.00  0.00     0.099 N 
HETATM    8  C13 UNL     1      24.149  -1.291  55.821  1.00  0.00     0.297 C 
HETATM    9  C14 UNL     1      22.868  -1.088  55.040  1.00  0.00    -0.001 C 
HETATM   10  C15 UNL     1      22.829  -0.641  53.759  1.00  0.00    -0.023 C 
HETATM   11  C16 UNL     1      24.046  -0.310  53.005  1.00  0.00     0.024 A 
HETATM   12  C17 UNL     1      24.767   0.688  53.958  1.00  0.00     0.044 A 
HETATM   13  H14 UNL     1      26.015  -2.005  55.342  1.00  0.00     0.317 HD
ENDROOT
BRANCH   1  14
HETATM   14  C7  UNL     1      23.573   1.994  52.187  1.00  0.00     0.051 C 
BRANCH  14  15
HETATM   15  C6  UNL     1      23.054   1.961  50.832  1.00  0.00    -0.031 A 
HETATM   16  C1  UNL     1      23.403   2.708  49.736  1.00  0.00     0.032 A 
HETATM   17  C2  UNL     1      22.876   2.659  48.468  1.00  0.00     0.029 A 
HETATM   18  C3  UNL     1      21.854   1.717  48.297  1.00  0.00     0.002 A 
HETATM   19  C4  UNL     1      21.448   0.927  49.349  1.00  0.00     0.001 A 
HETATM   20  C5  UNL     1      22.028   1.038  50.598  1.00  0.00     0.009 A 
BRANCH  16  21
HETATM   21  N1  UNL     1      24.455   3.643  49.926  1.00  0.00    -0.399 N 
HETATM   22  H1  UNL     1      24.229   4.667  50.111  1.00  0.00     0.156 HD
HETATM   23  H2  UNL     1      25.497   3.691  49.952  1.00  0.00     0.156 HD
ENDBRANCH  16  21
ENDBRANCH  14  15
ENDBRANCH   1  14
TORSDOF 3
ENDMDL
MODEL 4
REMARK VINA RESULT:      -8.1      1.870      3.327
REMARK  3 active torsions:
REMARK  status: ('A' for Active; 'I' for Inactive)
REMARK    1  A    between atoms: N1_1  and  C1_2 
REMARK    2  A    between atoms: C6_7  and  C7_8 
REMARK    3  A    between atoms: C7_8  and  C8_9 
ROOT
HETATM    1  C8  UNL     1      25.330   1.105  53.370  1.00  0.00    -0.022 A 
HETATM    2  C9  UNL     1      24.359   0.078  53.829  1.00  0.00     0.018 C 
HETATM    3  C10 UNL     1      23.248  -0.171  52.800  1.00  0.00     0.081 C 
HETATM    4  C11 UNL     1      22.572   1.076  52.387  1.00  0.00     0.160 C 
HETATM    5  O1  UNL     1      21.364   1.041  52.218  1.00  0.00    -0.296 OA
HETATM    6  C12 UNL     1      23.382   2.310  52.194  1.00  0.00     0.295 C 
HETATM    7  N2  UNL     1      23.608   2.410  50.741  1.00  0.00     0.099 N 
HETATM    8  C13 UNL     1      24.418   3.540  50.361  1.00  0.00     0.297 C 
HETATM    9  C14 UNL     1      25.889   3.196  50.450  1.00  0.00    -0.001 C 
HETATM   10  C15 UNL     1      26.378   2.157  51.175  1.00  0.00    -0.023 C 
HETATM   11  C16 UNL     1      25.508   1.263  51.950  1.00  0.00     0.024 A 
HETATM   12  C17 UNL     1      24.695   2.263  52.823  1.00  0.00     0.044 A 
HETATM   13  H14 UNL     1      22.696   2.428  50.234  1.00  0.00     0.317 HD
ENDROOT
BRANCH   1  14
HETATM   14  C7  UNL     1      26.549   1.313  54.212  1.00  0.00     0.051 C 
BRANCH  14  15
HETATM   15  C6  UNL     1      27.711   0.496  53.920  1.00  0.00    -0.031 A 
HETATM   16  C1  UNL     1      29.046   0.812  53.971  1.00  0.00     0.032 A 
HETATM   17  C2  UNL     1      30.123   0.013  53.671  1.00  0.00     0.029 A 
HETATM   18  C3  UNL     1      29.791  -1.286  53.266  1.00  0.00     0.002 A 
HETATM   19  C4  UNL     1      28.473  -1.680  53.191  1.00  0.00     0.001 A 
HETATM   20  C5  UNL     1      27.444  -0.815  53.509  1.00  0.00     0.009 A 
BRANCH  16  21
HETATM   21  N1  UNL     1      29.361   2.127  54.404  1.00  0.00    -0.399 N 
HETATM   22  H1  UNL     1      28.713   2.936  54.161  1.00  0.00     0.156 HD
HETATM   23  H2  UNL     1      30.090   2.648  54.940  1.00  0.00     0.156 HD
ENDBRANCH  16  21
ENDBRANCH  14  15
ENDBRANCH   1  14
TORSDOF 3
ENDMDL
MODEL 5
REMARK VINA RESULT:      -7.9      3.679      4.996
REMARK  3 active torsions:
REMARK  status: ('A' for Active; 'I' for Inactive)
REMARK    1  A    between atoms: N1_1  and  C1_2 
REMARK    2  A    between atoms: C6_7  and  C7_8 
REMARK    3  A    between atoms: C7_8  and  C8_9 
ROOT
HETATM    1  C8  UNL     1      21.889   1.223  52.799  1.00  0.00    -0.022 A 
HETATM    2  C9  UNL     1      23.237   0.821  53.278  1.00  0.00     0.018 C 
HETATM    3  C10 UNL     1      23.292  -0.659  53.681  1.00  0.00     0.081 C 
HETATM    4  C11 UNL     1      22.236  -1.019  54.649  1.00  0.00     0.160 C 
HETATM    5  O1  UNL     1      22.525  -1.795  55.546  1.00  0.00    -0.296 OA
HETATM    6  C12 UNL     1      20.878  -0.430  54.494  1.00  0.00     0.295 C 
HETATM    7  N2  UNL     1      20.073  -1.467  53.823  1.00  0.00     0.099 N 
HETATM    8  C13 UNL     1      18.718  -1.056  53.550  1.00  0.00     0.297 C 
HETATM    9  C14 UNL     1      18.641  -0.309  52.236  1.00  0.00    -0.001 C 
HETATM   10  C15 UNL     1      19.714   0.262  51.630  1.00  0.00    -0.023 C 
HETATM   11  C16 UNL     1      21.064   0.204  52.205  1.00  0.00     0.024 A 
HETATM   12  C17 UNL     1      20.837   0.752  53.644  1.00  0.00     0.044 A 
HETATM   13  H14 UNL     1      20.083  -2.348  54.380  1.00  0.00     0.317 HD
ENDROOT
BRANCH   1  14
HETATM   14  C7  UNL     1      21.755   2.596  52.221  1.00  0.00     0.051 C 
BRANCH  14  15
HETATM   15  C6  UNL     1      22.798   3.049  51.320  1.00  0.00    -0.031 A 
HETATM   16  C1  UNL     1      23.859   3.888  51.551  1.00  0.00     0.032 A 
HETATM   17  C2  UNL     1      24.822   4.308  50.665  1.00  0.00     0.029 A 
HETATM   18  C3  UNL     1      24.684   3.800  49.368  1.00  0.00     0.002 A 
HETATM   19  C4  UNL     1      23.646   2.949  49.058  1.00  0.00     0.001 A 
HETATM   20  C5  UNL     1      22.714   2.574  50.006  1.00  0.00     0.009 A 
BRANCH  16  21
HETATM   21  N1  UNL     1      23.993   4.376  52.878  1.00  0.00    -0.399 N 
HETATM   22  H1  UNL     1      23.150   4.386  53.528  1.00  0.00     0.156 HD
HETATM   23  H2  UNL     1      24.710   4.777  53.522  1.00  0.00     0.156 HD
ENDBRANCH  16  21
ENDBRANCH  14  15
ENDBRANCH   1  14
TORSDOF 3
ENDMDL
MODEL 6
REMARK VINA RESULT:      -7.7      1.792      3.031
REMARK  3 active torsions:
REMARK  status: ('A' for Active; 'I' for Inactive)
REMARK    1  A    between atoms: N1_1  and  C1_2 
REMARK    2  A    between atoms: C6_7  and  C7_8 
REMARK    3  A    between atoms: C7_8  and  C8_9 
ROOT
HETATM    1  C8  UNL     1      23.921   0.941  52.305  1.00  0.00    -0.022 A 
HETATM    2  C9  UNL     1      23.821  -0.131  53.330  1.00  0.00     0.018 C 
HETATM    3  C10 UNL     1      22.375  -0.607  53.532  1.00  0.00     0.081 C 
HETATM    4  C11 UNL     1      21.449   0.509  53.813  1.00  0.00     0.160 C 
HETATM    5  O1  UNL     1      20.570   0.325  54.640  1.00  0.00    -0.296 OA
HETATM    6  C12 UNL     1      21.621   1.796  53.086  1.00  0.00     0.295 C 
HETATM    7  N2  UNL     1      20.634   1.766  51.992  1.00  0.00     0.099 N 
HETATM    8  C13 UNL     1      20.680   2.931  51.144  1.00  0.00     0.297 C 
HETATM    9  C14 UNL     1      21.719   2.759  50.057  1.00  0.00    -0.001 C 
HETATM   10  C15 UNL     1      22.736   1.862  50.121  1.00  0.00    -0.023 C 
HETATM   11  C16 UNL     1      22.921   0.966  51.270  1.00  0.00     0.024 A 
HETATM   12  C17 UNL     1      22.931   1.959  52.469  1.00  0.00     0.044 A 
HETATM   13  H14 UNL     1      19.674   1.630  52.376  1.00  0.00     0.317 HD
ENDROOT
BRANCH   1  14
HETATM   14  C7  UNL     1      25.296   1.368  51.901  1.00  0.00     0.051 C 
BRANCH  14  15
HETATM   15  C6  UNL     1      26.416   0.781  52.612  1.00  0.00    -0.031 A 
HETATM   16  C1  UNL     1      27.215   1.314  53.593  1.00  0.00     0.032 A 
HETATM   17  C2  UNL     1      28.280   0.730  54.235  1.00  0.00     0.029 A 
HETATM   18  C3  UNL     1      28.568  -0.575  53.820  1.00  0.00     0.002 A 
HETATM   19  C4  UNL     1      27.811  -1.181  52.842  1.00  0.00     0.001 A 
HETATM   20  C5  UNL     1      26.753  -0.526  52.241  1.00  0.00     0.009 A 
BRANCH  16  21
HETATM   21  N1  UNL     1      26.893   2.631  54.013  1.00  0.00    -0.399 N 
HETATM   22  H1  UNL     1      25.875   2.934  54.081  1.00  0.00     0.156 HD
HETATM   23  H2  UNL     1      27.354   3.518  54.316  1.00  0.00     0.156 HD
ENDBRANCH  16  21
ENDBRANCH  14  15
ENDBRANCH   1  14
TORSDOF 3
ENDMDL
MODEL 7
REMARK VINA RESULT:      -7.6      2.609      4.030
REMARK  3 active torsions:
REMARK  status: ('A' for Active; 'I' for Inactive)
REMARK    1  A    between atoms: N1_1  and  C1_2 
REMARK    2  A    between atoms: C6_7  and  C7_8 
REMARK    3  A    between atoms: C7_8  and  C8_9 
ROOT
HETATM    1  C8  UNL     1      24.062   2.076  51.978  1.00  0.00    -0.022 A 
HETATM    2  C9  UNL     1      24.290   3.040  53.086  1.00  0.00     0.018 C 
HETATM    3  C10 UNL     1      23.560   4.371  52.856  1.00  0.00     0.081 C 
HETATM    4  C11 UNL     1      23.871   4.965  51.540  1.00  0.00     0.160 C 
HETATM    5  O1  UNL     1      24.009   6.176  51.480  1.00  0.00    -0.296 OA
HETATM    6  C12 UNL     1      24.001   4.074  50.355  1.00  0.00     0.295 C 
HETATM    7  N2  UNL     1      22.708   4.160  49.653  1.00  0.00     0.099 N 
HETATM    8  C13 UNL     1      22.631   3.322  48.483  1.00  0.00     0.297 C 
HETATM    9  C14 UNL     1      22.204   1.919  48.858  1.00  0.00    -0.001 C 
HETATM   10  C15 UNL     1      22.299   1.413  50.114  1.00  0.00    -0.023 C 
HETATM   11  C16 UNL     1      22.833   2.194  51.237  1.00  0.00     0.024 A 
HETATM   12  C17 UNL     1      24.209   2.671  50.686  1.00  0.00     0.044 A 
HETATM   13  H14 UNL     1      22.496   5.151  49.407  1.00  0.00     0.317 HD
ENDROOT
BRANCH   1  14
HETATM   14  C7  UNL     1      24.584   0.687  52.167  1.00  0.00     0.051 C 
BRANCH  14  15
HETATM   15  C6  UNL     1      24.150  -0.036  53.348  1.00  0.00    -0.031 A 
HETATM   16  C1  UNL     1      24.887  -0.580  54.369  1.00  0.00     0.032 A 
HETATM   17  C2  UNL     1      24.439  -1.274  55.467  1.00  0.00     0.029 A 
HETATM   18  C3  UNL     1      23.050  -1.434  55.531  1.00  0.00     0.002 A 
HETATM   19  C4  UNL     1      22.241  -0.915  54.543  1.00  0.00     0.001 A 
HETATM   20  C5  UNL     1      22.769  -0.229  53.467  1.00  0.00     0.009 A 
BRANCH  16  21
HETATM   21  N1  UNL     1      26.292  -0.389  54.296  1.00  0.00    -0.399 N 
HETATM   22  H1  UNL     1      26.686   0.565  54.037  1.00  0.00     0.156 HD
HETATM   23  H2  UNL     1      27.186  -0.915  54.420  1.00  0.00     0.156 HD
ENDBRANCH  16  21
ENDBRANCH  14  15
ENDBRANCH   1  14
TORSDOF 3
ENDMDL
MODEL 8
REMARK VINA RESULT:      -7.4      2.510      5.845
REMARK  3 active torsions:
REMARK  status: ('A' for Active; 'I' for Inactive)
REMARK    1  A    between atoms: N1_1  and  C1_2 
REMARK    2  A    between atoms: C6_7  and  C7_8 
REMARK    3  A    between atoms: C7_8  and  C8_9 
ROOT
HETATM    1  C8  UNL     1      25.052  -0.018  53.125  1.00  0.00    -0.022 A 
HETATM    2  C9  UNL     1      25.684  -0.491  54.384  1.00  0.00     0.018 C 
HETATM    3  C10 UNL     1      26.735   0.495  54.912  1.00  0.00     0.081 C 
HETATM    4  C11 UNL     1      27.742   0.846  53.891  1.00  0.00     0.160 C 
HETATM    5  O1  UNL     1      28.903   0.963  54.251  1.00  0.00    -0.296 OA
HETATM    6  C12 UNL     1      27.308   1.040  52.480  1.00  0.00     0.295 C 
HETATM    7  N2  UNL     1      27.189   2.499  52.302  1.00  0.00     0.099 N 
HETATM    8  C13 UNL     1      26.735   2.882  50.989  1.00  0.00     0.297 C 
HETATM    9  C14 UNL     1      25.223   2.867  50.921  1.00  0.00    -0.001 C 
HETATM   10  C15 UNL     1      24.436   2.191  51.797  1.00  0.00    -0.023 C 
HETATM   11  C16 UNL     1      24.992   1.403  52.906  1.00  0.00     0.024 A 
HETATM   12  C17 UNL     1      26.003   0.470  52.177  1.00  0.00     0.044 A 
HETATM   13  H14 UNL     1      28.095   2.965  52.527  1.00  0.00     0.317 HD
ENDROOT
BRANCH   1  14
HETATM   14  C7  UNL     1      23.895  -0.812  52.605  1.00  0.00     0.051 C 
BRANCH  14  15
HETATM   15  C6  UNL     1      22.565  -0.409  53.021  1.00  0.00    -0.031 A 
HETATM   16  C1  UNL     1      21.521   0.082  52.278  1.00  0.00     0.032 A 
HETATM   17  C2  UNL     1      20.275   0.469  52.711  1.00  0.00     0.029 A 
HETATM   18  C3  UNL     1      20.069   0.336  54.089  1.00  0.00     0.002 A 
HETATM   19  C4  UNL     1      21.068  -0.151  54.902  1.00  0.00     0.001 A 
HETATM   20  C5  UNL     1      22.298  -0.519  54.390  1.00  0.00     0.009 A 
BRANCH  16  21
HETATM   21  N1  UNL     1      21.744   0.190  50.880  1.00  0.00    -0.399 N 
HETATM   22  H1  UNL     1      22.719   0.028  50.484  1.00  0.00     0.156 HD
HETATM   23  H2  UNL     1      21.232   0.398  49.994  1.00  0.00     0.156 HD
ENDBRANCH  16  21
ENDBRANCH  14  15
ENDBRANCH   1  14
TORSDOF 3
ENDMDL
MODEL 9
REMARK VINA RESULT:      -7.4      8.547     10.077
REMARK  3 active torsions:
REMARK  status: ('A' for Active; 'I' for Inactive)
REMARK    1  A    between atoms: N1_1  and  C1_2 
REMARK    2  A    between atoms: C6_7  and  C7_8 
REMARK    3  A    between atoms: C7_8  and  C8_9 
ROOT
HETATM    1  C8  UNL     1      31.225   6.642  47.606  1.00  0.00    -0.022 A 
HETATM    2  C9  UNL     1      32.337   7.419  48.212  1.00  0.00     0.018 C 
HETATM    3  C10 UNL     1      31.904   8.154  49.489  1.00  0.00     0.081 C 
HETATM    4  C11 UNL     1      30.702   8.987  49.279  1.00  0.00     0.160 C 
HETATM    5  O1  UNL     1      30.658  10.073  49.834  1.00  0.00    -0.296 OA
HETATM    6  C12 UNL     1      29.607   8.475  48.410  1.00  0.00     0.295 C 
HETATM    7  N2  UNL     1      28.593   7.933  49.333  1.00  0.00     0.099 N 
HETATM    8  C13 UNL     1      27.458   7.350  48.662  1.00  0.00     0.297 C 
HETATM    9  C14 UNL     1      27.735   5.906  48.302  1.00  0.00    -0.001 C 
HETATM   10  C15 UNL     1      28.982   5.375  48.224  1.00  0.00    -0.023 C 
HETATM   11  C16 UNL     1      30.191   6.166  48.487  1.00  0.00     0.024 A 
HETATM   12  C17 UNL     1      30.006   7.383  47.533  1.00  0.00     0.044 A 
HETATM   13  H14 UNL     1      28.283   8.670  50.003  1.00  0.00     0.317 HD
ENDROOT
BRANCH   1  14
HETATM   14  C7  UNL     1      31.568   5.751  46.454  1.00  0.00     0.051 C 
BRANCH  14  15
HETATM   15  C6  UNL     1      32.695   4.851  46.615  1.00  0.00    -0.031 A 
HETATM   16  C1  UNL     1      33.961   4.921  46.092  1.00  0.00     0.032 A 
HETATM   17  C2  UNL     1      35.001   4.038  46.255  1.00  0.00     0.029 A 
HETATM   18  C3  UNL     1      34.708   2.934  47.064  1.00  0.00     0.002 A 
HETATM   19  C4  UNL     1      33.459   2.793  47.628  1.00  0.00     0.001 A 
HETATM   20  C5  UNL     1      32.463   3.726  47.415  1.00  0.00     0.009 A 
BRANCH  16  21
HETATM   21  N1  UNL     1      34.244   6.059  45.291  1.00  0.00    -0.399 N 
HETATM   22  H1  UNL     1      35.239   6.434  45.232  1.00  0.00     0.156 HD
HETATM   23  H2  UNL     1      33.767   6.744  44.663  1.00  0.00     0.156 HD
ENDBRANCH  16  21
ENDBRANCH  14  15
ENDBRANCH   1  14
TORSDOF 3
ENDMDL
