MODEL 1
REMARK VINA RESULT:      -8.1      0.000      0.000
REMARK  3 active torsions:
REMARK  status: ('A' for Active; 'I' for Inactive)
REMARK    1  A    between atoms: C4_4  and  N1_5 
REMARK    2  A    between atoms: C9_10  and  S1_11 
REMARK    3  A    between atoms: C10_13  and  C11_14 
ROOT
HETATM    1  C1  UNL     1      21.652  -0.591  53.135  1.00  0.00     0.048 C 
HETATM    2  C2  UNL     1      22.040   0.537  52.253  1.00  0.00    -0.059 A 
HETATM    3  C3  UNL     1      21.750   0.412  50.920  1.00  0.00     0.036 A 
HETATM    4  C4  UNL     1      22.109   1.463  50.085  1.00  0.00     0.033 A 
HETATM    5  C5  UNL     1      22.737   2.604  50.554  1.00  0.00    -0.018 A 
HETATM    6  C6  UNL     1      23.032   2.735  51.897  1.00  0.00    -0.045 A 
HETATM    7  C7  UNL     1      22.668   1.688  52.697  1.00  0.00     0.014 A 
HETATM    8  C8  UNL     1      23.695   4.030  52.135  1.00  0.00     0.084 C 
HETATM    9  C9  UNL     1      23.334   4.831  50.924  1.00  0.00     0.111 C 
HETATM   10  N2  UNL     1      24.463   5.620  50.516  1.00  0.00    -0.271 NA
HETATM   11  C10 UNL     1      25.175   4.998  49.641  1.00  0.00     0.042 C 
HETATM   12  C17 UNL     1      24.611   3.667  49.329  1.00  0.00     0.072 C 
HETATM   13  C18 UNL     1      23.194   3.814  49.841  1.00  0.00     0.068 C 
ENDROOT
BRANCH  11  14
HETATM   14  C11 UNL     1      26.398   5.528  49.020  1.00  0.00    -0.012 A 
HETATM   15  C12 UNL     1      27.513   4.757  48.824  1.00  0.00     0.015 A 
HETATM   16  C13 UNL     1      28.658   5.263  48.239  1.00  0.00     0.020 A 
HETATM   17  C14 UNL     1      28.722   6.565  47.830  1.00  0.00     0.011 A 
HETATM   18 BR1  UNL     1      30.321   7.223  47.028  1.00  0.00    -0.051 Br
HETATM   19  C15 UNL     1      27.620   7.373  48.010  1.00  0.00     0.020 A 
HETATM   20  C16 UNL     1      26.489   6.838  48.598  1.00  0.00     0.015 A 
ENDBRANCH  11  14
BRANCH   9  21
HETATM   21  S1  UNL     1      21.841   5.820  51.158  1.00  0.00    -0.148 SA
HETATM   22  H10 UNL     1      20.730   4.980  50.865  1.00  0.00     0.104 HD
ENDBRANCH   9  21
BRANCH   4  23
HETATM   23  N1  UNL     1      21.799   1.315  48.700  1.00  0.00    -0.399 N 
HETATM   24  H5  UNL     1      21.385   0.338  48.680  1.00  0.00     0.156 HD
HETATM   25  H6  UNL     1      21.819   1.759  47.762  1.00  0.00     0.156 HD
ENDBRANCH   4  23
TORSDOF 3
ENDMDL
MODEL 2
REMARK VINA RESULT:      -7.7      4.969      6.116
REMARK  3 active torsions:
REMARK  status: ('A' for Active; 'I' for Inactive)
REMARK    1  A    between atoms: C4_4  and  N1_5 
REMARK    2  A    between atoms: C9_10  and  S1_11 
REMARK    3  A    between atoms: C10_13  and  C11_14 
ROOT
HETATM    1  C1  UNL     1      18.809   2.867  48.307  1.00  0.00     0.048 C 
HETATM    2  C2  UNL     1      19.727   2.647  49.452  1.00  0.00    -0.059 A 
HETATM    3  C3  UNL     1      20.216   3.761  50.080  1.00  0.00     0.036 A 
HETATM    4  C4  UNL     1      21.076   3.567  51.155  1.00  0.00     0.033 A 
HETATM    5  C5  UNL     1      21.443   2.306  51.593  1.00  0.00    -0.018 A 
HETATM    6  C6  UNL     1      20.953   1.178  50.963  1.00  0.00    -0.045 A 
HETATM    7  C7  UNL     1      20.109   1.398  49.911  1.00  0.00     0.014 A 
HETATM    8  C8  UNL     1      21.492  -0.028  51.617  1.00  0.00     0.084 C 
HETATM    9  C9  UNL     1      21.942   0.474  52.952  1.00  0.00     0.111 C 
HETATM   10  N2  UNL     1      23.176  -0.166  53.314  1.00  0.00    -0.271 NA
HETATM   11  C10 UNL     1      24.192   0.532  52.937  1.00  0.00     0.042 C 
HETATM   12  C17 UNL     1      23.773   1.773  52.250  1.00  0.00     0.072 C 
HETATM   13  C18 UNL     1      22.331   1.892  52.698  1.00  0.00     0.068 C 
ENDROOT
BRANCH  11  14
HETATM   14  C11 UNL     1      25.598   0.159  53.154  1.00  0.00    -0.012 A 
HETATM   15  C12 UNL     1      26.170  -0.923  52.540  1.00  0.00     0.015 A 
HETATM   16  C13 UNL     1      27.492  -1.267  52.749  1.00  0.00     0.020 A 
HETATM   17  C14 UNL     1      28.285  -0.533  53.585  1.00  0.00     0.011 A 
HETATM   18 BR1  UNL     1      30.104  -1.043  53.845  1.00  0.00    -0.051 Br
HETATM   19  C15 UNL     1      27.745   0.562  54.221  1.00  0.00     0.020 A 
HETATM   20  C16 UNL     1      26.420   0.882  53.993  1.00  0.00     0.015 A 
ENDBRANCH  11  14
BRANCH   9  21
HETATM   21  S1  UNL     1      20.673   0.310  54.226  1.00  0.00    -0.148 SA
HETATM   22  H10 UNL     1      19.674  -0.566  53.714  1.00  0.00     0.104 HD
ENDBRANCH   9  21
BRANCH   4  23
HETATM   23  N1  UNL     1      21.575   4.740  51.796  1.00  0.00    -0.399 N 
HETATM   24  H5  UNL     1      20.904   4.835  52.612  1.00  0.00     0.156 HD
HETATM   25  H6  UNL     1      22.292   5.491  51.778  1.00  0.00     0.156 HD
ENDBRANCH   4  23
TORSDOF 3
ENDMDL
MODEL 3
REMARK VINA RESULT:      -7.6      3.936      5.727
REMARK  3 active torsions:
REMARK  status: ('A' for Active; 'I' for Inactive)
REMARK    1  A    between atoms: C4_4  and  N1_5 
REMARK    2  A    between atoms: C9_10  and  S1_11 
REMARK    3  A    between atoms: C10_13  and  C11_14 
ROOT
HETATM    1  C1  UNL     1      21.293   4.251  45.347  1.00  0.00     0.048 C 
HETATM    2  C2  UNL     1      21.907   4.111  46.690  1.00  0.00    -0.059 A 
HETATM    3  C3  UNL     1      22.595   5.192  47.175  1.00  0.00     0.036 A 
HETATM    4  C4  UNL     1      23.175   5.072  48.433  1.00  0.00     0.033 A 
HETATM    5  C5  UNL     1      23.077   3.916  49.188  1.00  0.00    -0.018 A 
HETATM    6  C6  UNL     1      22.386   2.822  48.703  1.00  0.00    -0.045 A 
HETATM    7  C7  UNL     1      21.825   2.968  47.465  1.00  0.00     0.014 A 
HETATM    8  C8  UNL     1      22.431   1.730  49.692  1.00  0.00     0.084 C 
HETATM    9  C9  UNL     1      22.787   2.429  50.965  1.00  0.00     0.111 C 
HETATM   10  N2  UNL     1      23.703   1.618  51.718  1.00  0.00    -0.271 NA
HETATM   11  C10 UNL     1      24.926   1.921  51.449  1.00  0.00     0.042 C 
HETATM   12  C17 UNL     1      25.008   3.008  50.449  1.00  0.00     0.072 C 
HETATM   13  C18 UNL     1      23.613   3.592  50.525  1.00  0.00     0.068 C 
ENDROOT
BRANCH  11  14
HETATM   14  C11 UNL     1      26.105   1.279  52.049  1.00  0.00    -0.012 A 
HETATM   15  C12 UNL     1      26.216  -0.081  52.168  1.00  0.00     0.015 A 
HETATM   16  C13 UNL     1      27.327  -0.677  52.732  1.00  0.00     0.020 A 
HETATM   17  C14 UNL     1      28.367   0.076  53.200  1.00  0.00     0.011 A 
HETATM   18 BR1  UNL     1      29.882  -0.787  53.972  1.00  0.00    -0.051 Br
HETATM   19  C15 UNL     1      28.292   1.448  53.098  1.00  0.00     0.020 A 
HETATM   20  C16 UNL     1      27.168   2.015  52.528  1.00  0.00     0.015 A 
ENDBRANCH  11  14
BRANCH   9  21
HETATM   21  S1  UNL     1      21.339   2.918  51.924  1.00  0.00    -0.148 SA
HETATM   22  H10 UNL     1      21.758   3.931  52.834  1.00  0.00     0.104 HD
ENDBRANCH   9  21
BRANCH   4  23
HETATM   23  N1  UNL     1      23.887   6.208  48.920  1.00  0.00    -0.399 N 
HETATM   24  H5  UNL     1      23.109   6.925  49.001  1.00  0.00     0.156 HD
HETATM   25  H6  UNL     1      24.810   6.586  49.208  1.00  0.00     0.156 HD
ENDBRANCH   4  23
TORSDOF 3
ENDMDL
MODEL 4
REMARK VINA RESULT:      -7.5      5.397      8.037
REMARK  3 active torsions:
REMARK  status: ('A' for Active; 'I' for Inactive)
REMARK    1  A    between atoms: C4_4  and  N1_5 
REMARK    2  A    between atoms: C9_10  and  S1_11 
REMARK    3  A    between atoms: C10_13  and  C11_14 
ROOT
HETATM    1  C1  UNL     1      28.890  -1.251  52.895  1.00  0.00     0.048 C 
HETATM    2  C2  UNL     1      27.518  -0.723  53.094  1.00  0.00    -0.059 A 
HETATM    3  C3  UNL     1      26.898  -1.032  54.275  1.00  0.00     0.036 A 
HETATM    4  C4  UNL     1      25.612  -0.543  54.472  1.00  0.00     0.033 A 
HETATM    5  C5  UNL     1      24.958   0.228  53.527  1.00  0.00    -0.018 A 
HETATM    6  C6  UNL     1      25.578   0.542  52.332  1.00  0.00    -0.045 A 
HETATM    7  C7  UNL     1      26.842   0.049  52.165  1.00  0.00     0.014 A 
HETATM    8  C8  UNL     1      24.676   1.366  51.508  1.00  0.00     0.084 C 
HETATM    9  C9  UNL     1      23.689   1.897  52.498  1.00  0.00     0.111 C 
HETATM   10  N2  UNL     1      22.377   1.904  51.913  1.00  0.00    -0.271 NA
HETATM   11  C10 UNL     1      21.743   0.813  52.173  1.00  0.00     0.042 C 
HETATM   12  C17 UNL     1      22.561  -0.107  52.992  1.00  0.00     0.072 C 
HETATM   13  C18 UNL     1      23.612   0.834  53.543  1.00  0.00     0.068 C 
ENDROOT
BRANCH  11  14
HETATM   14  C11 UNL     1      20.378   0.504  51.721  1.00  0.00    -0.012 A 
HETATM   15  C12 UNL     1      19.904   0.902  50.500  1.00  0.00     0.015 A 
HETATM   16  C13 UNL     1      18.621   0.607  50.083  1.00  0.00     0.020 A 
HETATM   17  C14 UNL     1      17.767  -0.099  50.882  1.00  0.00     0.011 A 
HETATM   18 BR1  UNL     1      16.004  -0.485  50.267  1.00  0.00    -0.051 Br
HETATM   19  C15 UNL     1      18.208  -0.517  52.118  1.00  0.00     0.020 A 
HETATM   20  C16 UNL     1      19.497  -0.208  52.508  1.00  0.00     0.015 A 
ENDBRANCH  11  14
BRANCH   9  21
HETATM   21  S1  UNL     1      24.163   3.506  53.165  1.00  0.00    -0.148 SA
HETATM   22  H10 UNL     1      22.964   4.178  53.536  1.00  0.00     0.104 HD
ENDBRANCH   9  21
BRANCH   4  23
HETATM   23  N1  UNL     1      24.983  -0.876  55.709  1.00  0.00    -0.399 N 
HETATM   24  H5  UNL     1      25.685  -0.499  56.410  1.00  0.00     0.156 HD
HETATM   25  H6  UNL     1      24.160  -1.315  56.164  1.00  0.00     0.156 HD
ENDBRANCH   4  23
TORSDOF 3
ENDMDL
MODEL 5
REMARK VINA RESULT:      -7.2      4.234      9.054
REMARK  3 active torsions:
REMARK  status: ('A' for Active; 'I' for Inactive)
REMARK    1  A    between atoms: C4_4  and  N1_5 
REMARK    2  A    between atoms: C9_10  and  S1_11 
REMARK    3  A    between atoms: C10_13  and  C11_14 
ROOT
HETATM    1  C1  UNL     1      33.406   7.495  43.827  1.00  0.00     0.048 C 
HETATM    2  C2  UNL     1      32.542   7.275  45.013  1.00  0.00    -0.059 A 
HETATM    3  C3  UNL     1      33.067   6.528  46.034  1.00  0.00     0.036 A 
HETATM    4  C4  UNL     1      32.266   6.316  47.150  1.00  0.00     0.033 A 
HETATM    5  C5  UNL     1      30.984   6.827  47.253  1.00  0.00    -0.018 A 
HETATM    6  C6  UNL     1      30.450   7.580  46.225  1.00  0.00    -0.045 A 
HETATM    7  C7  UNL     1      31.258   7.775  45.140  1.00  0.00     0.014 A 
HETATM    8  C8  UNL     1      29.082   8.002  46.579  1.00  0.00     0.084 C 
HETATM    9  C9  UNL     1      29.044   7.841  48.066  1.00  0.00     0.111 C 
HETATM   10  N2  UNL     1      27.763   7.323  48.460  1.00  0.00    -0.271 NA
HETATM   11  C10 UNL     1      27.780   6.036  48.526  1.00  0.00     0.042 C 
HETATM   12  C17 UNL     1      29.110   5.492  48.176  1.00  0.00     0.072 C 
HETATM   13  C18 UNL     1      29.987   6.716  48.336  1.00  0.00     0.068 C 
ENDROOT
BRANCH  11  14
HETATM   14  C11 UNL     1      26.632   5.197  48.901  1.00  0.00    -0.012 A 
HETATM   15  C12 UNL     1      26.782   3.914  49.357  1.00  0.00     0.015 A 
HETATM   16  C13 UNL     1      25.698   3.132  49.707  1.00  0.00     0.020 A 
HETATM   17  C14 UNL     1      24.423   3.615  49.610  1.00  0.00     0.011 A 
HETATM   18 BR1  UNL     1      22.955   2.502  50.104  1.00  0.00    -0.051 Br
HETATM   19  C15 UNL     1      24.232   4.901  49.156  1.00  0.00     0.020 A 
HETATM   20  C16 UNL     1      25.336   5.659  48.813  1.00  0.00     0.015 A 
ENDBRANCH  11  14
BRANCH   9  21
HETATM   21  S1  UNL     1      29.484   9.355  48.945  1.00  0.00    -0.148 SA
HETATM   22  H10 UNL     1      30.674   9.086  49.679  1.00  0.00     0.104 HD
ENDBRANCH   9  21
BRANCH   4  23
HETATM   23  N1  UNL     1      32.830   5.535  48.204  1.00  0.00    -0.399 N 
HETATM   24  H5  UNL     1      32.525   6.083  49.059  1.00  0.00     0.156 HD
HETATM   25  H6  UNL     1      33.389   4.694  48.446  1.00  0.00     0.156 HD
ENDBRANCH   4  23
TORSDOF 3
ENDMDL
MODEL 6
REMARK VINA RESULT:      -7.2      4.643      9.463
REMARK  3 active torsions:
REMARK  status: ('A' for Active; 'I' for Inactive)
REMARK    1  A    between atoms: C4_4  and  N1_5 
REMARK    2  A    between atoms: C9_10  and  S1_11 
REMARK    3  A    between atoms: C10_13  and  C11_14 
ROOT
HETATM    1  C1  UNL     1      33.129  11.492  47.111  1.00  0.00     0.048 C 
HETATM    2  C2  UNL     1      32.324  10.249  47.020  1.00  0.00    -0.059 A 
HETATM    3  C3  UNL     1      31.700   9.999  45.828  1.00  0.00     0.036 A 
HETATM    4  C4  UNL     1      30.943   8.837  45.731  1.00  0.00     0.033 A 
HETATM    5  C5  UNL     1      30.807   7.950  46.785  1.00  0.00    -0.018 A 
HETATM    6  C6  UNL     1      31.434   8.198  47.991  1.00  0.00    -0.045 A 
HETATM    7  C7  UNL     1      32.172   9.346  48.058  1.00  0.00     0.014 A 
HETATM    8  C8  UNL     1      31.132   7.110  48.939  1.00  0.00     0.084 C 
HETATM    9  C9  UNL     1      30.683   5.992  48.052  1.00  0.00     0.111 C 
HETATM   10  N2  UNL     1      29.589   5.298  48.672  1.00  0.00    -0.271 NA
HETATM   11  C10 UNL     1      28.455   5.780  48.293  1.00  0.00     0.042 C 
HETATM   12  C17 UNL     1      28.633   6.898  47.341  1.00  0.00     0.072 C 
HETATM   13  C18 UNL     1      30.060   6.680  46.884  1.00  0.00     0.068 C 
ENDROOT
BRANCH  11  14
HETATM   14  C11 UNL     1      27.142   5.295  48.741  1.00  0.00    -0.012 A 
HETATM   15  C12 UNL     1      26.957   4.027  49.226  1.00  0.00     0.015 A 
HETATM   16  C13 UNL     1      25.719   3.579  49.646  1.00  0.00     0.020 A 
HETATM   17  C14 UNL     1      24.622   4.391  49.591  1.00  0.00     0.011 A 
HETATM   18 BR1  UNL     1      22.932   3.732  50.180  1.00  0.00    -0.051 Br
HETATM   19  C15 UNL     1      24.768   5.674  49.109  1.00  0.00     0.020 A 
HETATM   20  C16 UNL     1      26.019   6.094  48.697  1.00  0.00     0.015 A 
ENDBRANCH  11  14
BRANCH   9  21
HETATM   21  S1  UNL     1      32.032   4.888  47.582  1.00  0.00    -0.148 SA
HETATM   22  H10 UNL     1      31.457   3.809  46.852  1.00  0.00     0.104 HD
ENDBRANCH   9  21
BRANCH   4  23
HETATM   23  N1  UNL     1      30.301   8.593  44.480  1.00  0.00    -0.399 N 
HETATM   24  H5  UNL     1      29.561   9.353  44.472  1.00  0.00     0.156 HD
HETATM   25  H6  UNL     1      30.274   7.999  43.629  1.00  0.00     0.156 HD
ENDBRANCH   4  23
TORSDOF 3
ENDMDL
MODEL 7
REMARK VINA RESULT:      -7.0      4.436      5.755
REMARK  3 active torsions:
REMARK  status: ('A' for Active; 'I' for Inactive)
REMARK    1  A    between atoms: C4_4  and  N1_5 
REMARK    2  A    between atoms: C9_10  and  S1_11 
REMARK    3  A    between atoms: C10_13  and  C11_14 
ROOT
HETATM    1  C1  UNL     1      16.343   3.896  51.793  1.00  0.00     0.048 C 
HETATM    2  C2  UNL     1      17.585   3.129  51.528  1.00  0.00    -0.059 A 
HETATM    3  C3  UNL     1      17.507   1.765  51.626  1.00  0.00     0.036 A 
HETATM    4  C4  UNL     1      18.665   1.037  51.379  1.00  0.00     0.033 A 
HETATM    5  C5  UNL     1      19.865   1.641  51.046  1.00  0.00    -0.018 A 
HETATM    6  C6  UNL     1      19.950   3.016  50.947  1.00  0.00    -0.045 A 
HETATM    7  C7  UNL     1      18.797   3.708  51.193  1.00  0.00     0.014 A 
HETATM    8  C8  UNL     1      21.326   3.403  50.583  1.00  0.00     0.084 C 
HETATM    9  C9  UNL     1      21.902   2.143  50.019  1.00  0.00     0.111 C 
HETATM   10  N2  UNL     1      23.268   2.008  50.443  1.00  0.00    -0.271 NA
HETATM   11  C10 UNL     1      23.355   1.320  51.529  1.00  0.00     0.042 C 
HETATM   12  C17 UNL     1      22.023   0.884  52.002  1.00  0.00     0.072 C 
HETATM   13  C18 UNL     1      21.188   1.055  50.751  1.00  0.00     0.068 C 
ENDROOT
BRANCH  11  14
HETATM   14  C11 UNL     1      24.610   0.999  52.224  1.00  0.00    -0.012 A 
HETATM   15  C12 UNL     1      25.819   1.496  51.818  1.00  0.00     0.015 A 
HETATM   16  C13 UNL     1      26.994   1.190  52.477  1.00  0.00     0.020 A 
HETATM   17  C14 UNL     1      26.993   0.372  53.571  1.00  0.00     0.011 A 
HETATM   18 BR1  UNL     1      28.637  -0.025  54.452  1.00  0.00    -0.051 Br
HETATM   19  C15 UNL     1      25.796  -0.148  54.011  1.00  0.00     0.020 A 
HETATM   20  C16 UNL     1      24.637   0.176  53.331  1.00  0.00     0.015 A 
ENDBRANCH  11  14
BRANCH   9  21
HETATM   21  S1  UNL     1      21.713   2.027  48.228  1.00  0.00    -0.148 SA
HETATM   22  H10 UNL     1      20.544   1.254  47.976  1.00  0.00     0.104 HD
ENDBRANCH   9  21
BRANCH   4  23
HETATM   23  N1  UNL     1      18.563  -0.383  51.486  1.00  0.00    -0.399 N 
HETATM   24  H5  UNL     1      17.824  -0.484  52.239  1.00  0.00     0.156 HD
HETATM   25  H6  UNL     1      18.909  -1.298  51.137  1.00  0.00     0.156 HD
ENDBRANCH   4  23
TORSDOF 3
ENDMDL
MODEL 8
REMARK VINA RESULT:      -6.9      4.096      5.625
REMARK  3 active torsions:
REMARK  status: ('A' for Active; 'I' for Inactive)
REMARK    1  A    between atoms: C4_4  and  N1_5 
REMARK    2  A    between atoms: C9_10  and  S1_11 
REMARK    3  A    between atoms: C10_13  and  C11_14 
ROOT
HETATM    1  C1  UNL     1      27.831  -0.680  53.090  1.00  0.00     0.048 C 
HETATM    2  C2  UNL     1      26.581   0.026  52.714  1.00  0.00    -0.059 A 
HETATM    3  C3  UNL     1      25.402  -0.543  53.113  1.00  0.00     0.036 A 
HETATM    4  C4  UNL     1      24.225   0.111  52.766  1.00  0.00     0.033 A 
HETATM    5  C5  UNL     1      24.216   1.292  52.045  1.00  0.00    -0.018 A 
HETATM    6  C6  UNL     1      25.404   1.870  51.640  1.00  0.00    -0.045 A 
HETATM    7  C7  UNL     1      26.545   1.208  51.995  1.00  0.00     0.014 A 
HETATM    8  C8  UNL     1      25.121   3.111  50.895  1.00  0.00     0.084 C 
HETATM    9  C9  UNL     1      23.725   3.452  51.307  1.00  0.00     0.111 C 
HETATM   10  N2  UNL     1      22.999   3.956  50.174  1.00  0.00    -0.271 NA
HETATM   11  C10 UNL     1      22.370   3.010  49.565  1.00  0.00     0.042 C 
HETATM   12  C17 UNL     1      22.590   1.703  50.220  1.00  0.00     0.072 C 
HETATM   13  C18 UNL     1      23.091   2.130  51.584  1.00  0.00     0.068 C 
ENDROOT
BRANCH  11  14
HETATM   14  C11 UNL     1      21.534   3.189  48.369  1.00  0.00    -0.012 A 
HETATM   15  C12 UNL     1      20.181   2.977  48.383  1.00  0.00     0.015 A 
HETATM   16  C13 UNL     1      19.403   3.148  47.255  1.00  0.00     0.020 A 
HETATM   17  C14 UNL     1      19.959   3.539  46.069  1.00  0.00     0.011 A 
HETATM   18 BR1  UNL     1      18.849   3.763  44.536  1.00  0.00    -0.051 Br
HETATM   19  C15 UNL     1      21.318   3.763  46.016  1.00  0.00     0.020 A 
HETATM   20  C16 UNL     1      22.070   3.584  47.161  1.00  0.00     0.015 A 
ENDBRANCH  11  14
BRANCH   9  21
HETATM   21  S1  UNL     1      23.667   4.570  52.723  1.00  0.00    -0.148 SA
HETATM   22  H10 UNL     1      23.332   3.787  53.865  1.00  0.00     0.104 HD
ENDBRANCH   9  21
BRANCH   4  23
HETATM   23  N1  UNL     1      23.005  -0.498  53.191  1.00  0.00    -0.399 N 
HETATM   24  H5  UNL     1      22.445  -0.497  52.290  1.00  0.00     0.156 HD
HETATM   25  H6  UNL     1      22.484  -0.914  53.987  1.00  0.00     0.156 HD
ENDBRANCH   4  23
TORSDOF 3
ENDMDL
MODEL 9
REMARK VINA RESULT:      -6.8      5.045      7.391
REMARK  3 active torsions:
REMARK  status: ('A' for Active; 'I' for Inactive)
REMARK    1  A    between atoms: C4_4  and  N1_5 
REMARK    2  A    between atoms: C9_10  and  S1_11 
REMARK    3  A    between atoms: C10_13  and  C11_14 
ROOT
HETATM    1  C1  UNL     1      27.943  -1.197  52.776  1.00  0.00     0.048 C 
HETATM    2  C2  UNL     1      26.601  -0.571  52.871  1.00  0.00    -0.059 A 
HETATM    3  C3  UNL     1      25.788  -0.995  53.888  1.00  0.00     0.036 A 
HETATM    4  C4  UNL     1      24.528  -0.415  53.986  1.00  0.00     0.033 A 
HETATM    5  C5  UNL     1      24.087   0.556  53.104  1.00  0.00    -0.018 A 
HETATM    6  C6  UNL     1      24.904   0.988  52.076  1.00  0.00    -0.045 A 
HETATM    7  C7  UNL     1      26.137   0.402  52.003  1.00  0.00     0.014 A 
HETATM    8  C8  UNL     1      24.204   2.018  51.287  1.00  0.00     0.084 C 
HETATM    9  C9  UNL     1      23.123   2.485  52.209  1.00  0.00     0.111 C 
HETATM   10  N2  UNL     1      21.920   2.717  51.458  1.00  0.00    -0.271 NA
HETATM   11  C10 UNL     1      21.170   1.669  51.442  1.00  0.00     0.042 C 
HETATM   12  C17 UNL     1      21.780   0.554  52.198  1.00  0.00     0.072 C 
HETATM   13  C18 UNL     1      22.805   1.286  53.038  1.00  0.00     0.068 C 
ENDROOT
BRANCH  11  14
HETATM   14  C11 UNL     1      19.870   1.574  50.762  1.00  0.00    -0.012 A 
HETATM   15  C12 UNL     1      19.061   0.475  50.879  1.00  0.00     0.015 A 
HETATM   16  C13 UNL     1      17.841   0.394  50.237  1.00  0.00     0.020 A 
HETATM   17  C14 UNL     1      17.390   1.418  49.453  1.00  0.00     0.011 A 
HETATM   18 BR1  UNL     1      15.699   1.266  48.585  1.00  0.00    -0.051 Br
HETATM   19  C15 UNL     1      18.175   2.541  49.310  1.00  0.00     0.020 A 
HETATM   20  C16 UNL     1      19.392   2.593  49.965  1.00  0.00     0.015 A 
ENDBRANCH  11  14
BRANCH   9  21
HETATM   21  S1  UNL     1      23.614   3.914  53.196  1.00  0.00    -0.148 SA
HETATM   22  H10 UNL     1      23.663   3.491  54.555  1.00  0.00     0.104 HD
ENDBRANCH   9  21
BRANCH   4  23
HETATM   23  N1  UNL     1      23.695  -0.870  55.052  1.00  0.00    -0.399 N 
HETATM   24  H5  UNL     1      24.416  -1.162  55.773  1.00  0.00     0.156 HD
HETATM   25  H6  UNL     1      22.721  -1.020  55.377  1.00  0.00     0.156 HD
ENDBRANCH   4  23
TORSDOF 3
ENDMDL
