MODEL 1
REMARK VINA RESULT:      -8.5      0.000      0.000
REMARK  8 active torsions:
REMARK  status: ('A' for Active; 'I' for Inactive)
REMARK    1  A    between atoms: O1_2  and  C2_3 
REMARK    2  A    between atoms: C2_3  and  C3_4 
REMARK    3  A    between atoms: C4_5  and  C5_6 
REMARK       I    between atoms: C5_6  and  N1_8 
REMARK    4  A    between atoms: N1_8  and  C6_9 
REMARK    5  A    between atoms: C10_13  and  C11_14 
REMARK    6  A    between atoms: C11_14  and  C16_22 
REMARK    7  A    between atoms: C12_15  and  C13_16 
REMARK    8  A    between atoms: C12_15  and  C14_19 
ROOT
HETATM    1  C14 UNL     1      26.962   1.390  51.951  1.00  0.00     0.164 C 
HETATM    2  C15 UNL     1      27.808   2.067  52.971  1.00  0.00     0.063 C 
HETATM    3  N3  UNL     1      28.470   2.592  53.743  1.00  0.00    -0.197 NA
ENDROOT
BRANCH   1   4
HETATM    4  C12 UNL     1      25.945   0.561  52.611  1.00  0.00    -0.013 C 
HETATM    5  C11 UNL     1      24.689   0.854  52.919  1.00  0.00    -0.007 C 
BRANCH   5   6
HETATM    6  C10 UNL     1      23.724   0.034  53.618  1.00  0.00    -0.022 A 
HETATM    7  C9  UNL     1      23.927  -0.868  54.632  1.00  0.00     0.012 A 
HETATM    8  C8  UNL     1      22.905  -1.630  55.197  1.00  0.00     0.003 A 
HETATM    9  C7  UNL     1      21.641  -1.442  54.684  1.00  0.00     0.029 A 
HETATM   10  C6  UNL     1      21.352  -0.550  53.659  1.00  0.00     0.036 A 
HETATM   11  C22 UNL     1      22.410   0.170  53.148  1.00  0.00     0.042 A 
BRANCH  10  12
HETATM   12  N1  UNL     1      19.995  -0.494  53.261  1.00  0.00    -0.316 N 
HETATM   13  C5  UNL     1      19.312   0.046  52.130  1.00  0.00     0.301 C 
HETATM   14  O2  UNL     1      20.006   0.610  51.263  1.00  0.00    -0.258 OA
HETATM   15  H6  UNL     1      19.461  -0.976  54.017  1.00  0.00     0.170 HD
BRANCH  13  16
HETATM   16  C4  UNL     1      17.886  -0.087  52.056  1.00  0.00    -0.003 C 
HETATM   17  C3  UNL     1      16.669  -0.218  51.988  1.00  0.00    -0.070 C 
BRANCH  17  18
HETATM   18  C2  UNL     1      15.216  -0.392  51.921  1.00  0.00     0.261 C 
BRANCH  18  19
HETATM   19  O1  UNL     1      14.639   0.152  53.043  1.00  0.00    -0.384 OA
HETATM   20  C1  UNL     1      14.345   1.478  52.837  1.00  0.00     0.202 C 
ENDBRANCH  18  19
ENDBRANCH  17  18
ENDBRANCH  13  16
ENDBRANCH  10  12
ENDBRANCH   5   6
BRANCH   5  21
HETATM   21  C16 UNL     1      24.183   2.144  52.472  1.00  0.00    -0.023 A 
HETATM   22  C17 UNL     1      24.004   3.328  53.192  1.00  0.00     0.012 A 
HETATM   23  C18 UNL     1      23.471   4.422  52.548  1.00  0.00     0.002 A 
HETATM   24  C19 UNL     1      23.091   4.442  51.220  1.00  0.00     0.019 A 
HETATM   25  C20 UNL     1      23.276   3.263  50.528  1.00  0.00     0.011 A 
HETATM   26 BR1  UNL     1      22.740   3.315  48.688  1.00  0.00    -0.051 Br
HETATM   27  C21 UNL     1      23.810   2.143  51.143  1.00  0.00     0.031 A 
ENDBRANCH   5  21
BRANCH   4  28
HETATM   28  C13 UNL     1      26.649  -0.700  52.916  1.00  0.00     0.160 C 
HETATM   29  N2  UNL     1      26.713  -1.856  52.359  1.00  0.00    -0.099 NA
HETATM   30  F1  UNL     1      27.458  -2.856  52.867  1.00  0.00    -0.075 F 
ENDBRANCH   4  28
ENDBRANCH   1   4
TORSDOF 8
ENDMDL
MODEL 2
REMARK VINA RESULT:      -8.2      4.538      8.335
REMARK  8 active torsions:
REMARK  status: ('A' for Active; 'I' for Inactive)
REMARK    1  A    between atoms: O1_2  and  C2_3 
REMARK    2  A    between atoms: C2_3  and  C3_4 
REMARK    3  A    between atoms: C4_5  and  C5_6 
REMARK       I    between atoms: C5_6  and  N1_8 
REMARK    4  A    between atoms: N1_8  and  C6_9 
REMARK    5  A    between atoms: C10_13  and  C11_14 
REMARK    6  A    between atoms: C11_14  and  C16_22 
REMARK    7  A    between atoms: C12_15  and  C13_16 
REMARK    8  A    between atoms: C12_15  and  C14_19 
ROOT
HETATM    1  C14 UNL     1      21.998   0.256  54.574  1.00  0.00     0.164 C 
HETATM    2  C15 UNL     1      21.739  -1.209  54.581  1.00  0.00     0.063 C 
HETATM    3  N3  UNL     1      21.545  -2.337  54.603  1.00  0.00    -0.197 NA
ENDROOT
BRANCH   1   4
HETATM    4  C12 UNL     1      21.977   0.764  53.196  1.00  0.00    -0.013 C 
HETATM    5  C11 UNL     1      22.984   1.148  52.424  1.00  0.00    -0.007 C 
BRANCH   5   6
HETATM    6  C10 UNL     1      22.928   1.695  51.086  1.00  0.00    -0.022 A 
HETATM    7  C9  UNL     1      22.113   1.342  50.040  1.00  0.00     0.012 A 
HETATM    8  C8  UNL     1      22.190   1.928  48.777  1.00  0.00     0.003 A 
HETATM    9  C7  UNL     1      23.144   2.906  48.608  1.00  0.00     0.029 A 
HETATM   10  C6  UNL     1      24.007   3.321  49.615  1.00  0.00     0.036 A 
HETATM   11  C22 UNL     1      23.876   2.698  50.838  1.00  0.00     0.042 A 
BRANCH  10  12
HETATM   12  N1  UNL     1      24.925   4.336  49.257  1.00  0.00    -0.316 N 
HETATM   13  C5  UNL     1      26.348   4.412  49.188  1.00  0.00     0.301 C 
HETATM   14  O2  UNL     1      26.987   3.391  49.503  1.00  0.00    -0.258 OA
HETATM   15  H6  UNL     1      24.342   5.164  49.003  1.00  0.00     0.170 HD
BRANCH  13  16
HETATM   16  C4  UNL     1      26.955   5.641  48.767  1.00  0.00    -0.003 C 
HETATM   17  C3  UNL     1      27.483   6.683  48.394  1.00  0.00    -0.070 C 
BRANCH  17  18
HETATM   18  C2  UNL     1      28.108   7.923  47.929  1.00  0.00     0.261 C 
BRANCH  18  19
HETATM   19  O1  UNL     1      28.659   8.586  48.999  1.00  0.00    -0.384 OA
HETATM   20  C1  UNL     1      27.682   9.220  49.727  1.00  0.00     0.202 C 
ENDBRANCH  18  19
ENDBRANCH  17  18
ENDBRANCH  13  16
ENDBRANCH  10  12
ENDBRANCH   5   6
BRANCH   5  21
HETATM   21  C16 UNL     1      24.328   0.971  52.955  1.00  0.00    -0.023 A 
HETATM   22  C17 UNL     1      25.098   1.835  53.737  1.00  0.00     0.012 A 
HETATM   23  C18 UNL     1      26.372   1.453  54.093  1.00  0.00     0.002 A 
HETATM   24  C19 UNL     1      26.961   0.257  53.729  1.00  0.00     0.019 A 
HETATM   25  C20 UNL     1      26.184  -0.582  52.957  1.00  0.00     0.011 A 
HETATM   26 BR1  UNL     1      27.023  -2.233  52.465  1.00  0.00    -0.051 Br
HETATM   27  C21 UNL     1      24.898  -0.230  52.582  1.00  0.00     0.031 A 
ENDBRANCH   5  21
BRANCH   4  28
HETATM   28  C13 UNL     1      20.543   0.803  52.847  1.00  0.00     0.160 C 
HETATM   29  N2  UNL     1      19.722  -0.022  52.303  1.00  0.00    -0.099 NA
HETATM   30  F1  UNL     1      18.427   0.284  52.099  1.00  0.00    -0.075 F 
ENDBRANCH   4  28
ENDBRANCH   1   4
TORSDOF 8
ENDMDL
MODEL 3
REMARK VINA RESULT:      -7.8      5.164      8.876
REMARK  8 active torsions:
REMARK  status: ('A' for Active; 'I' for Inactive)
REMARK    1  A    between atoms: O1_2  and  C2_3 
REMARK    2  A    between atoms: C2_3  and  C3_4 
REMARK    3  A    between atoms: C4_5  and  C5_6 
REMARK       I    between atoms: C5_6  and  N1_8 
REMARK    4  A    between atoms: N1_8  and  C6_9 
REMARK    5  A    between atoms: C10_13  and  C11_14 
REMARK    6  A    between atoms: C11_14  and  C16_22 
REMARK    7  A    between atoms: C12_15  and  C13_16 
REMARK    8  A    between atoms: C12_15  and  C14_19 
ROOT
HETATM    1  C14 UNL     1      25.733   0.065  52.268  1.00  0.00     0.164 C 
HETATM    2  C15 UNL     1      25.854  -0.232  53.721  1.00  0.00     0.063 C 
HETATM    3  N3  UNL     1      25.944  -0.477  54.836  1.00  0.00    -0.197 NA
ENDROOT
BRANCH   1   4
HETATM    4  C12 UNL     1      25.630   1.515  52.057  1.00  0.00    -0.013 C 
HETATM    5  C11 UNL     1      24.583   2.241  51.695  1.00  0.00    -0.007 C 
BRANCH   5   6
HETATM    6  C10 UNL     1      24.524   3.665  51.443  1.00  0.00    -0.022 A 
HETATM    7  C9  UNL     1      23.605   4.584  51.882  1.00  0.00     0.012 A 
HETATM    8  C8  UNL     1      23.643   5.933  51.530  1.00  0.00     0.003 A 
HETATM    9  C7  UNL     1      24.668   6.325  50.699  1.00  0.00     0.029 A 
HETATM   10  C6  UNL     1      25.638   5.458  50.212  1.00  0.00     0.036 A 
HETATM   11  C22 UNL     1      25.539   4.139  50.599  1.00  0.00     0.042 A 
BRANCH  10  12
HETATM   12  N1  UNL     1      26.612   6.039  49.367  1.00  0.00    -0.316 N 
HETATM   13  C5  UNL     1      27.705   5.525  48.607  1.00  0.00     0.301 C 
HETATM   14  O2  UNL     1      27.903   4.297  48.656  1.00  0.00    -0.258 OA
HETATM   15  H6  UNL     1      26.403   7.062  49.361  1.00  0.00     0.170 HD
BRANCH  13  16
HETATM   16  C4  UNL     1      28.504   6.438  47.841  1.00  0.00    -0.003 C 
HETATM   17  C3  UNL     1      29.200   7.205  47.186  1.00  0.00    -0.070 C 
BRANCH  17  18
HETATM   18  C2  UNL     1      30.035   8.106  46.389  1.00  0.00     0.261 C 
BRANCH  18  19
HETATM   19  O1  UNL     1      29.258   9.120  45.882  1.00  0.00    -0.384 OA
HETATM   20  C1  UNL     1      29.945  10.309  45.902  1.00  0.00     0.202 C 
ENDBRANCH  18  19
ENDBRANCH  17  18
ENDBRANCH  13  16
ENDBRANCH  10  12
ENDBRANCH   5   6
BRANCH   5  21
HETATM   21  C16 UNL     1      23.310   1.546  51.565  1.00  0.00    -0.023 A 
HETATM   22  C17 UNL     1      22.546   1.294  50.424  1.00  0.00     0.012 A 
HETATM   23  C18 UNL     1      21.343   0.637  50.561  1.00  0.00     0.002 A 
HETATM   24  C19 UNL     1      20.823   0.200  51.763  1.00  0.00     0.019 A 
HETATM   25  C20 UNL     1      21.593   0.458  52.878  1.00  0.00     0.011 A 
HETATM   26 BR1  UNL     1      20.849  -0.157  54.534  1.00  0.00    -0.051 Br
HETATM   27  C21 UNL     1      22.808   1.116  52.777  1.00  0.00     0.031 A 
ENDBRANCH   5  21
BRANCH   4  28
HETATM   28  C13 UNL     1      27.000   2.012  52.297  1.00  0.00     0.160 C 
HETATM   29  N2  UNL     1      27.625   2.482  53.317  1.00  0.00    -0.099 NA
HETATM   30  F1  UNL     1      28.912   2.871  53.251  1.00  0.00    -0.075 F 
ENDBRANCH   4  28
ENDBRANCH   1   4
TORSDOF 8
ENDMDL
MODEL 4
REMARK VINA RESULT:      -7.7      4.295      8.131
REMARK  8 active torsions:
REMARK  status: ('A' for Active; 'I' for Inactive)
REMARK    1  A    between atoms: O1_2  and  C2_3 
REMARK    2  A    between atoms: C2_3  and  C3_4 
REMARK    3  A    between atoms: C4_5  and  C5_6 
REMARK       I    between atoms: C5_6  and  N1_8 
REMARK    4  A    between atoms: N1_8  and  C6_9 
REMARK    5  A    between atoms: C10_13  and  C11_14 
REMARK    6  A    between atoms: C11_14  and  C16_22 
REMARK    7  A    between atoms: C12_15  and  C13_16 
REMARK    8  A    between atoms: C12_15  and  C14_19 
ROOT
HETATM    1  C14 UNL     1      25.417  -0.562  54.063  1.00  0.00     0.164 C 
HETATM    2  C15 UNL     1      26.199  -1.362  53.082  1.00  0.00     0.063 C 
HETATM    3  N3  UNL     1      26.803  -1.989  52.339  1.00  0.00    -0.197 NA
ENDROOT
BRANCH   1   4
HETATM    4  C12 UNL     1      25.139   0.773  53.517  1.00  0.00    -0.013 C 
HETATM    5  C11 UNL     1      23.983   1.309  53.151  1.00  0.00    -0.007 C 
BRANCH   5   6
HETATM    6  C10 UNL     1      23.746   2.610  52.565  1.00  0.00    -0.022 A 
HETATM    7  C9  UNL     1      22.633   3.408  52.650  1.00  0.00     0.012 A 
HETATM    8  C8  UNL     1      22.517   4.635  51.997  1.00  0.00     0.003 A 
HETATM    9  C7  UNL     1      23.594   5.033  51.238  1.00  0.00     0.029 A 
HETATM   10  C6  UNL     1      24.757   4.285  51.100  1.00  0.00     0.036 A 
HETATM   11  C22 UNL     1      24.802   3.082  51.772  1.00  0.00     0.042 A 
BRANCH  10  12
HETATM   12  N1  UNL     1      25.757   4.852  50.277  1.00  0.00    -0.316 N 
HETATM   13  C5  UNL     1      26.721   4.318  49.371  1.00  0.00     0.301 C 
HETATM   14  O2  UNL     1      26.742   3.081  49.228  1.00  0.00    -0.258 OA
HETATM   15  H6  UNL     1      25.697   5.883  50.433  1.00  0.00     0.170 HD
BRANCH  13  16
HETATM   16  C4  UNL     1      27.600   5.221  48.685  1.00  0.00    -0.003 C 
HETATM   17  C3  UNL     1      28.362   5.979  48.095  1.00  0.00    -0.070 C 
BRANCH  17  18
HETATM   18  C2  UNL     1      29.272   6.870  47.373  1.00  0.00     0.261 C 
BRANCH  18  19
HETATM   19  O1  UNL     1      29.746   7.832  48.233  1.00  0.00    -0.384 OA
HETATM   20  C1  UNL     1      30.444   8.793  47.542  1.00  0.00     0.202 C 
ENDBRANCH  18  19
ENDBRANCH  17  18
ENDBRANCH  13  16
ENDBRANCH  10  12
ENDBRANCH   5   6
BRANCH   5  21
HETATM   21  C16 UNL     1      22.783   0.522  53.396  1.00  0.00    -0.023 A 
HETATM   22  C17 UNL     1      22.518  -0.407  54.405  1.00  0.00     0.012 A 
HETATM   23  C18 UNL     1      21.304  -1.056  54.408  1.00  0.00     0.002 A 
HETATM   24  C19 UNL     1      20.306  -0.856  53.473  1.00  0.00     0.019 A 
HETATM   25  C20 UNL     1      20.588   0.066  52.486  1.00  0.00     0.011 A 
HETATM   26 BR1  UNL     1      19.189   0.324  51.201  1.00  0.00    -0.051 Br
HETATM   27  C21 UNL     1      21.799   0.737  52.453  1.00  0.00     0.031 A 
ENDBRANCH   5  21
BRANCH   4  28
HETATM   28  C13 UNL     1      26.469   1.404  53.410  1.00  0.00     0.160 C 
HETATM   29  N2  UNL     1      27.195   2.120  54.193  1.00  0.00    -0.099 NA
HETATM   30  F1  UNL     1      28.407   2.576  53.828  1.00  0.00    -0.075 F 
ENDBRANCH   4  28
ENDBRANCH   1   4
TORSDOF 8
ENDMDL
MODEL 5
REMARK VINA RESULT:      -7.7      5.776     10.032
REMARK  8 active torsions:
REMARK  status: ('A' for Active; 'I' for Inactive)
REMARK    1  A    between atoms: O1_2  and  C2_3 
REMARK    2  A    between atoms: C2_3  and  C3_4 
REMARK    3  A    between atoms: C4_5  and  C5_6 
REMARK       I    between atoms: C5_6  and  N1_8 
REMARK    4  A    between atoms: N1_8  and  C6_9 
REMARK    5  A    between atoms: C10_13  and  C11_14 
REMARK    6  A    between atoms: C11_14  and  C16_22 
REMARK    7  A    between atoms: C12_15  and  C13_16 
REMARK    8  A    between atoms: C12_15  and  C14_19 
ROOT
HETATM    1  C14 UNL     1      21.891   1.587  48.795  1.00  0.00     0.164 C 
HETATM    2  C15 UNL     1      20.448   1.683  49.148  1.00  0.00     0.063 C 
HETATM    3  N3  UNL     1      19.336   1.741  49.410  1.00  0.00    -0.197 NA
ENDROOT
BRANCH   1   4
HETATM    4  C12 UNL     1      22.557   2.871  49.050  1.00  0.00    -0.013 C 
HETATM    5  C11 UNL     1      23.187   3.292  50.137  1.00  0.00    -0.007 C 
BRANCH   5   6
HETATM    6  C10 UNL     1      23.790   4.585  50.379  1.00  0.00    -0.022 A 
HETATM    7  C9  UNL     1      23.321   5.631  51.133  1.00  0.00     0.012 A 
HETATM    8  C8  UNL     1      23.988   6.851  51.251  1.00  0.00     0.003 A 
HETATM    9  C7  UNL     1      25.174   6.973  50.562  1.00  0.00     0.029 A 
HETATM   10  C6  UNL     1      25.716   5.963  49.779  1.00  0.00     0.036 A 
HETATM   11  C22 UNL     1      25.004   4.785  49.706  1.00  0.00     0.042 A 
BRANCH  10  12
HETATM   12  N1  UNL     1      26.942   6.271  49.143  1.00  0.00    -0.316 N 
HETATM   13  C5  UNL     1      27.993   5.490  48.577  1.00  0.00     0.301 C 
HETATM   14  O2  UNL     1      27.869   4.252  48.621  1.00  0.00    -0.258 OA
HETATM   15  H6  UNL     1      26.997   7.314  49.132  1.00  0.00     0.170 HD
BRANCH  13  16
HETATM   16  C4  UNL     1      29.120   6.164  47.997  1.00  0.00    -0.003 C 
HETATM   17  C3  UNL     1      30.072   6.743  47.487  1.00  0.00    -0.070 C 
BRANCH  17  18
HETATM   18  C2  UNL     1      31.198   7.453  46.875  1.00  0.00     0.261 C 
BRANCH  18  19
HETATM   19  O1  UNL     1      31.940   8.065  47.856  1.00  0.00    -0.384 OA
HETATM   20  C1  UNL     1      33.223   8.287  47.421  1.00  0.00     0.202 C 
ENDBRANCH  18  19
ENDBRANCH  17  18
ENDBRANCH  13  16
ENDBRANCH  10  12
ENDBRANCH   5   6
BRANCH   5  21
HETATM   21  C16 UNL     1      23.338   2.337  51.225  1.00  0.00    -0.023 A 
HETATM   22  C17 UNL     1      22.434   1.978  52.228  1.00  0.00     0.012 A 
HETATM   23  C18 UNL     1      22.824   1.062  53.178  1.00  0.00     0.002 A 
HETATM   24  C19 UNL     1      24.065   0.456  53.219  1.00  0.00     0.019 A 
HETATM   25  C20 UNL     1      24.943   0.823  52.220  1.00  0.00     0.011 A 
HETATM   26 BR1  UNL     1      26.658  -0.029  52.300  1.00  0.00    -0.051 Br
HETATM   27  C21 UNL     1      24.584   1.742  51.248  1.00  0.00     0.031 A 
ENDBRANCH   5  21
BRANCH   4  28
HETATM   28  C13 UNL     1      22.333   3.646  47.813  1.00  0.00     0.160 C 
HETATM   29  N2  UNL     1      22.191   3.345  46.572  1.00  0.00    -0.099 NA
HETATM   30  F1  UNL     1      21.992   4.282  45.626  1.00  0.00    -0.075 F 
ENDBRANCH   4  28
ENDBRANCH   1   4
TORSDOF 8
ENDMDL
MODEL 6
REMARK VINA RESULT:      -7.6      4.394      7.112
REMARK  8 active torsions:
REMARK  status: ('A' for Active; 'I' for Inactive)
REMARK    1  A    between atoms: O1_2  and  C2_3 
REMARK    2  A    between atoms: C2_3  and  C3_4 
REMARK    3  A    between atoms: C4_5  and  C5_6 
REMARK       I    between atoms: C5_6  and  N1_8 
REMARK    4  A    between atoms: N1_8  and  C6_9 
REMARK    5  A    between atoms: C10_13  and  C11_14 
REMARK    6  A    between atoms: C11_14  and  C16_22 
REMARK    7  A    between atoms: C12_15  and  C13_16 
REMARK    8  A    between atoms: C12_15  and  C14_19 
ROOT
HETATM    1  C14 UNL     1      25.436   0.382  53.561  1.00  0.00     0.164 C 
HETATM    2  C15 UNL     1      26.299  -0.793  53.258  1.00  0.00     0.063 C 
HETATM    3  N3  UNL     1      26.958  -1.703  53.041  1.00  0.00    -0.197 NA
ENDROOT
BRANCH   1   4
HETATM    4  C12 UNL     1      25.743   1.482  52.639  1.00  0.00    -0.013 C 
HETATM    5  C11 UNL     1      24.997   2.011  51.679  1.00  0.00    -0.007 C 
BRANCH   5   6
HETATM    6  C10 UNL     1      25.347   3.062  50.749  1.00  0.00    -0.022 A 
HETATM    7  C9  UNL     1      26.500   3.229  50.025  1.00  0.00     0.012 A 
HETATM    8  C8  UNL     1      26.728   4.320  49.186  1.00  0.00     0.003 A 
HETATM    9  C7  UNL     1      25.722   5.256  49.107  1.00  0.00     0.029 A 
HETATM   10  C6  UNL     1      24.526   5.162  49.807  1.00  0.00     0.036 A 
HETATM   11  C22 UNL     1      24.368   4.058  50.617  1.00  0.00     0.042 A 
BRANCH  10  12
HETATM   12  N1  UNL     1      23.611   6.221  49.603  1.00  0.00    -0.316 N 
HETATM   13  C5  UNL     1      23.549   7.580  50.035  1.00  0.00     0.301 C 
HETATM   14  O2  UNL     1      24.477   7.988  50.758  1.00  0.00    -0.258 OA
HETATM   15  H6  UNL     1      22.858   5.829  48.995  1.00  0.00     0.170 HD
BRANCH  13  16
HETATM   16  C4  UNL     1      22.439   8.388  49.619  1.00  0.00    -0.003 C 
HETATM   17  C3  UNL     1      21.501   9.093  49.266  1.00  0.00    -0.070 C 
BRANCH  17  18
HETATM   18  C2  UNL     1      20.393   9.946  48.830  1.00  0.00     0.261 C 
BRANCH  18  19
HETATM   19  O1  UNL     1      20.307  11.041  49.657  1.00  0.00    -0.384 OA
HETATM   20  C1  UNL     1      20.498  12.199  48.943  1.00  0.00     0.202 C 
ENDBRANCH  18  19
ENDBRANCH  17  18
ENDBRANCH  13  16
ENDBRANCH  10  12
ENDBRANCH   5   6
BRANCH   5  21
HETATM   21  C16 UNL     1      23.635   1.513  51.552  1.00  0.00    -0.023 A 
HETATM   22  C17 UNL     1      22.829   1.405  50.417  1.00  0.00     0.012 A 
HETATM   23  C18 UNL     1      21.545   0.927  50.556  1.00  0.00     0.002 A 
HETATM   24  C19 UNL     1      20.980   0.538  51.755  1.00  0.00     0.019 A 
HETATM   25  C20 UNL     1      21.792   0.652  52.864  1.00  0.00     0.011 A 
HETATM   26 BR1  UNL     1      20.985   0.108  54.515  1.00  0.00    -0.051 Br
HETATM   27  C21 UNL     1      23.089   1.128  52.761  1.00  0.00     0.031 A 
ENDBRANCH   5  21
BRANCH   4  28
HETATM   28  C13 UNL     1      27.127   1.865  52.981  1.00  0.00     0.160 C 
HETATM   29  N2  UNL     1      27.672   2.521  53.944  1.00  0.00    -0.099 NA
HETATM   30  F1  UNL     1      29.000   2.726  54.009  1.00  0.00    -0.075 F 
ENDBRANCH   4  28
ENDBRANCH   1   4
TORSDOF 8
ENDMDL
MODEL 7
REMARK VINA RESULT:      -7.5      3.001      4.146
REMARK  8 active torsions:
REMARK  status: ('A' for Active; 'I' for Inactive)
REMARK    1  A    between atoms: O1_2  and  C2_3 
REMARK    2  A    between atoms: C2_3  and  C3_4 
REMARK    3  A    between atoms: C4_5  and  C5_6 
REMARK       I    between atoms: C5_6  and  N1_8 
REMARK    4  A    between atoms: N1_8  and  C6_9 
REMARK    5  A    between atoms: C10_13  and  C11_14 
REMARK    6  A    between atoms: C11_14  and  C16_22 
REMARK    7  A    between atoms: C12_15  and  C13_16 
REMARK    8  A    between atoms: C12_15  and  C14_19 
ROOT
HETATM    1  C14 UNL     1      25.214   2.190  53.193  1.00  0.00     0.164 C 
HETATM    2  C15 UNL     1      26.223   1.121  52.960  1.00  0.00     0.063 C 
HETATM    3  N3  UNL     1      27.010   0.309  52.788  1.00  0.00    -0.197 NA
ENDROOT
BRANCH   1   4
HETATM    4  C12 UNL     1      23.978   1.884  52.461  1.00  0.00    -0.013 C 
HETATM    5  C11 UNL     1      23.498   2.432  51.354  1.00  0.00    -0.007 C 
BRANCH   5   6
HETATM    6  C10 UNL     1      22.248   2.146  50.683  1.00  0.00    -0.022 A 
HETATM    7  C9  UNL     1      22.036   1.535  49.473  1.00  0.00     0.012 A 
HETATM    8  C8  UNL     1      20.769   1.355  48.916  1.00  0.00     0.003 A 
HETATM    9  C7  UNL     1      19.703   1.827  49.648  1.00  0.00     0.029 A 
HETATM   10  C6  UNL     1      19.833   2.456  50.880  1.00  0.00     0.036 A 
HETATM   11  C22 UNL     1      21.113   2.601  51.369  1.00  0.00     0.042 A 
BRANCH  10  12
HETATM   12  N1  UNL     1      18.624   2.877  51.483  1.00  0.00    -0.316 N 
HETATM   13  C5  UNL     1      17.599   3.799  51.117  1.00  0.00     0.301 C 
HETATM   14  O2  UNL     1      17.737   4.404  50.038  1.00  0.00    -0.258 OA
HETATM   15  H6  UNL     1      18.557   2.344  52.378  1.00  0.00     0.170 HD
BRANCH  13  16
HETATM   16  C4  UNL     1      16.482   3.977  52.000  1.00  0.00    -0.003 C 
HETATM   17  C3  UNL     1      15.527   4.146  52.750  1.00  0.00    -0.070 C 
BRANCH  17  18
HETATM   18  C2  UNL     1      14.376   4.358  53.630  1.00  0.00     0.261 C 
BRANCH  18  19
HETATM   19  O1  UNL     1      13.274   4.674  52.872  1.00  0.00    -0.384 OA
HETATM   20  C1  UNL     1      12.603   3.535  52.500  1.00  0.00     0.202 C 
ENDBRANCH  18  19
ENDBRANCH  17  18
ENDBRANCH  13  16
ENDBRANCH  10  12
ENDBRANCH   5   6
BRANCH   5  21
HETATM   21  C16 UNL     1      24.333   3.422  50.690  1.00  0.00    -0.023 A 
HETATM   22  C17 UNL     1      25.452   3.240  49.873  1.00  0.00     0.012 A 
HETATM   23  C18 UNL     1      26.104   4.348  49.382  1.00  0.00     0.002 A 
HETATM   24  C19 UNL     1      25.732   5.654  49.639  1.00  0.00     0.019 A 
HETATM   25  C20 UNL     1      24.625   5.812  50.447  1.00  0.00     0.011 A 
HETATM   26 BR1  UNL     1      24.131   7.632  50.791  1.00  0.00    -0.051 Br
HETATM   27  C21 UNL     1      23.945   4.719  50.959  1.00  0.00     0.031 A 
ENDBRANCH   5  21
BRANCH   4  28
HETATM   28  C13 UNL     1      23.332   0.831  53.268  1.00  0.00     0.160 C 
HETATM   29  N2  UNL     1      23.029  -0.402  53.069  1.00  0.00    -0.099 NA
HETATM   30  F1  UNL     1      22.425  -1.152  54.009  1.00  0.00    -0.075 F 
ENDBRANCH   4  28
ENDBRANCH   1   4
TORSDOF 8
ENDMDL
MODEL 8
REMARK VINA RESULT:      -7.4      4.484      7.133
REMARK  8 active torsions:
REMARK  status: ('A' for Active; 'I' for Inactive)
REMARK    1  A    between atoms: O1_2  and  C2_3 
REMARK    2  A    between atoms: C2_3  and  C3_4 
REMARK    3  A    between atoms: C4_5  and  C5_6 
REMARK       I    between atoms: C5_6  and  N1_8 
REMARK    4  A    between atoms: N1_8  and  C6_9 
REMARK    5  A    between atoms: C10_13  and  C11_14 
REMARK    6  A    between atoms: C11_14  and  C16_22 
REMARK    7  A    between atoms: C12_15  and  C13_16 
REMARK    8  A    between atoms: C12_15  and  C14_19 
ROOT
HETATM    1  C14 UNL     1      21.589   0.240  54.553  1.00  0.00     0.164 C 
HETATM    2  C15 UNL     1      21.565  -1.247  54.591  1.00  0.00     0.063 C 
HETATM    3  N3  UNL     1      21.553  -2.391  54.635  1.00  0.00    -0.197 NA
ENDROOT
BRANCH   1   4
HETATM    4  C12 UNL     1      21.327   0.713  53.188  1.00  0.00    -0.013 C 
HETATM    5  C11 UNL     1      22.141   1.320  52.336  1.00  0.00    -0.007 C 
BRANCH   5   6
HETATM    6  C10 UNL     1      21.839   1.823  51.013  1.00  0.00    -0.022 A 
HETATM    7  C9  UNL     1      21.897   1.174  49.806  1.00  0.00     0.012 A 
HETATM    8  C8  UNL     1      21.615   1.793  48.589  1.00  0.00     0.003 A 
HETATM    9  C7  UNL     1      21.265   3.124  48.640  1.00  0.00     0.029 A 
HETATM   10  C6  UNL     1      21.183   3.852  49.821  1.00  0.00     0.036 A 
HETATM   11  C22 UNL     1      21.476   3.177  50.986  1.00  0.00     0.042 A 
BRANCH  10  12
HETATM   12  N1  UNL     1      20.811   5.210  49.678  1.00  0.00    -0.316 N 
HETATM   13  C5  UNL     1      21.228   6.425  50.298  1.00  0.00     0.301 C 
HETATM   14  O2  UNL     1      22.113   6.345  51.169  1.00  0.00    -0.258 OA
HETATM   15  H6  UNL     1      20.072   5.222  48.941  1.00  0.00     0.170 HD
BRANCH  13  16
HETATM   16  C4  UNL     1      20.613   7.656  49.889  1.00  0.00    -0.003 C 
HETATM   17  C3  UNL     1      20.103   8.713  49.534  1.00  0.00    -0.070 C 
BRANCH  17  18
HETATM   18  C2  UNL     1      19.504   9.973  49.091  1.00  0.00     0.261 C 
BRANCH  18  19
HETATM   19  O1  UNL     1      20.219  11.026  49.610  1.00  0.00    -0.384 OA
HETATM   20  C1  UNL     1      20.055  12.148  48.835  1.00  0.00     0.202 C 
ENDBRANCH  18  19
ENDBRANCH  17  18
ENDBRANCH  13  16
ENDBRANCH  10  12
ENDBRANCH   5   6
BRANCH   5  21
HETATM   21  C16 UNL     1      23.530   1.474  52.745  1.00  0.00    -0.023 A 
HETATM   22  C17 UNL     1      24.194   2.603  53.231  1.00  0.00     0.012 A 
HETATM   23  C18 UNL     1      25.537   2.509  53.522  1.00  0.00     0.002 A 
HETATM   24  C19 UNL     1      26.294   1.364  53.368  1.00  0.00     0.019 A 
HETATM   25  C20 UNL     1      25.619   0.261  52.887  1.00  0.00     0.011 A 
HETATM   26 BR1  UNL     1      26.691  -1.314  52.681  1.00  0.00    -0.051 Br
HETATM   27  C21 UNL     1      24.268   0.319  52.584  1.00  0.00     0.031 A 
ENDBRANCH   5  21
BRANCH   4  28
HETATM   28  C13 UNL     1      19.900   0.405  52.967  1.00  0.00     0.160 C 
HETATM   29  N2  UNL     1      19.237  -0.188  52.040  1.00  0.00    -0.099 NA
HETATM   30  F1  UNL     1      17.900  -0.334  52.096  1.00  0.00    -0.075 F 
ENDBRANCH   4  28
ENDBRANCH   1   4
TORSDOF 8
ENDMDL
MODEL 9
REMARK VINA RESULT:      -7.3      4.296      6.463
REMARK  8 active torsions:
REMARK  status: ('A' for Active; 'I' for Inactive)
REMARK    1  A    between atoms: O1_2  and  C2_3 
REMARK    2  A    between atoms: C2_3  and  C3_4 
REMARK    3  A    between atoms: C4_5  and  C5_6 
REMARK       I    between atoms: C5_6  and  N1_8 
REMARK    4  A    between atoms: N1_8  and  C6_9 
REMARK    5  A    between atoms: C10_13  and  C11_14 
REMARK    6  A    between atoms: C11_14  and  C16_22 
REMARK    7  A    between atoms: C12_15  and  C13_16 
REMARK    8  A    between atoms: C12_15  and  C14_19 
ROOT
HETATM    1  C14 UNL     1      26.375   0.432  51.969  1.00  0.00     0.164 C 
HETATM    2  C15 UNL     1      27.511   0.823  52.847  1.00  0.00     0.063 C 
HETATM    3  N3  UNL     1      28.388   1.106  53.525  1.00  0.00    -0.197 NA
ENDROOT
BRANCH   1   4
HETATM    4  C12 UNL     1      25.538   1.603  51.678  1.00  0.00    -0.013 C 
HETATM    5  C11 UNL     1      24.268   1.828  51.983  1.00  0.00    -0.007 C 
BRANCH   5   6
HETATM    6  C10 UNL     1      23.453   2.973  51.636  1.00  0.00    -0.022 A 
HETATM    7  C9  UNL     1      22.983   3.977  52.444  1.00  0.00     0.012 A 
HETATM    8  C8  UNL     1      22.165   5.010  51.985  1.00  0.00     0.003 A 
HETATM    9  C7  UNL     1      21.835   4.987  50.649  1.00  0.00     0.029 A 
HETATM   10  C6  UNL     1      22.270   4.007  49.765  1.00  0.00     0.036 A 
HETATM   11  C22 UNL     1      23.074   3.016  50.287  1.00  0.00     0.042 A 
BRANCH  10  12
HETATM   12  N1  UNL     1      21.826   4.146  48.429  1.00  0.00    -0.316 N 
HETATM   13  C5  UNL     1      22.221   4.965  47.330  1.00  0.00     0.301 C 
HETATM   14  O2  UNL     1      23.160   5.760  47.522  1.00  0.00    -0.258 OA
HETATM   15  H6  UNL     1      21.044   3.462  48.321  1.00  0.00     0.170 HD
BRANCH  13  16
HETATM   16  C4  UNL     1      21.526   4.830  46.082  1.00  0.00    -0.003 C 
HETATM   17  C3  UNL     1      20.923   4.730  45.019  1.00  0.00    -0.070 C 
BRANCH  17  18
HETATM   18  C2  UNL     1      20.210   4.632  43.744  1.00  0.00     0.261 C 
BRANCH  18  19
HETATM   19  O1  UNL     1      20.710   3.575  43.022  1.00  0.00    -0.384 OA
HETATM   20  C1  UNL     1      19.870   3.263  41.981  1.00  0.00     0.202 C 
ENDBRANCH  18  19
ENDBRANCH  17  18
ENDBRANCH  13  16
ENDBRANCH  10  12
ENDBRANCH   5   6
BRANCH   5  21
HETATM   21  C16 UNL     1      23.599   0.830  52.805  1.00  0.00    -0.023 A 
HETATM   22  C17 UNL     1      24.130  -0.030  53.769  1.00  0.00     0.012 A 
HETATM   23  C18 UNL     1      23.290  -0.921  54.398  1.00  0.00     0.002 A 
HETATM   24  C19 UNL     1      21.937  -1.035  54.145  1.00  0.00     0.019 A 
HETATM   25  C20 UNL     1      21.433  -0.177  53.190  1.00  0.00     0.011 A 
HETATM   26 BR1  UNL     1      19.554  -0.356  52.855  1.00  0.00    -0.051 Br
HETATM   27  C21 UNL     1      22.249   0.733  52.537  1.00  0.00     0.031 A 
ENDBRANCH   5  21
BRANCH   4  28
HETATM   28  C13 UNL     1      26.423   2.495  50.903  1.00  0.00     0.160 C 
HETATM   29  N2  UNL     1      26.381   3.012  49.727  1.00  0.00    -0.099 NA
HETATM   30  F1  UNL     1      27.355   3.816  49.263  1.00  0.00    -0.075 F 
ENDBRANCH   4  28
ENDBRANCH   1   4
TORSDOF 8
ENDMDL
