MODEL 1
REMARK VINA RESULT:      -7.8      0.000      0.000
REMARK  7 active torsions:
REMARK  status: ('A' for Active; 'I' for Inactive)
REMARK    1  A    between atoms: C2_2  and  C3_3 
REMARK    2  A    between atoms: C3_3  and  C4_4 
REMARK    3  A    between atoms: C4_4  and  N1_5 
REMARK    4  A    between atoms: N1_5  and  C5_6 
REMARK       I    between atoms: N1_5  and  C14_16 
REMARK    5  A    between atoms: C5_6  and  C6_7 
REMARK    6  A    between atoms: C13_14  and  O1_15 
REMARK       I    between atoms: C14_16  and  N2_18 
REMARK    7  A    between atoms: N2_18  and  C15_19 
ROOT
HETATM    1  N1  UNL     1      25.000   2.673  51.680  1.00  0.00    -0.330 N 
HETATM    2  C14 UNL     1      26.028   1.783  52.198  1.00  0.00     0.323 C 
HETATM    3  O2  UNL     1      26.899   1.731  51.263  1.00  0.00    -0.247 OA
HETATM    4  N2  UNL     1      26.236   1.042  53.395  1.00  0.00    -0.309 N 
HETATM    5  H21 UNL     1      25.413   1.225  54.007  1.00  0.00     0.170 HD
ENDROOT
BRANCH   1   6
HETATM    6  C4  UNL     1      25.354   3.110  50.359  1.00  0.00     0.128 C 
BRANCH   6   7
HETATM    7  C3  UNL     1      24.791   4.362  49.852  1.00  0.00     0.020 C 
BRANCH   7   8
HETATM    8  C2  UNL     1      25.928   5.259  49.334  1.00  0.00    -0.003 C 
HETATM    9  C1  UNL     1      27.122   4.393  48.958  1.00  0.00     0.005 C 
ENDBRANCH   7   8
ENDBRANCH   6   7
ENDBRANCH   1   6
BRANCH   1  10
HETATM   10  C5  UNL     1      23.885   2.916  52.559  1.00  0.00     0.169 C 
BRANCH  10  11
HETATM   11  C6  UNL     1      22.858   1.852  52.558  1.00  0.00    -0.006 A 
HETATM   12  C7  UNL     1      22.775   0.812  53.457  1.00  0.00     0.018 A 
HETATM   13  C8  UNL     1      21.820  -0.173  53.475  1.00  0.00    -0.061 A 
HETATM   14  C9  UNL     1      21.800  -1.257  54.476  1.00  0.00     0.048 C 
HETATM   15  C10 UNL     1      20.839  -0.142  52.510  1.00  0.00     0.016 A 
HETATM   16  C11 UNL     1      20.834   0.858  51.564  1.00  0.00    -0.028 A 
HETATM   17  C12 UNL     1      19.770   0.880  50.528  1.00  0.00     0.051 C 
HETATM   18  C13 UNL     1      21.827   1.817  51.609  1.00  0.00     0.079 A 
BRANCH  18  19
HETATM   19  O1  UNL     1      21.753   2.779  50.626  1.00  0.00    -0.360 OA
HETATM   20  H20 UNL     1      22.332   2.695  49.801  1.00  0.00     0.217 HD
ENDBRANCH  18  19
ENDBRANCH  10  11
ENDBRANCH   1  10
BRANCH   4  21
HETATM   21  C15 UNL     1      27.446   0.296  53.419  1.00  0.00     0.036 A 
HETATM   22  C16 UNL     1      27.450  -1.053  53.055  1.00  0.00     0.029 A 
HETATM   23  C17 UNL     1      28.625  -1.775  53.083  1.00  0.00     0.002 A 
HETATM   24  C18 UNL     1      29.793  -1.148  53.472  1.00  0.00     0.000 A 
HETATM   25  C19 UNL     1      29.793   0.183  53.832  1.00  0.00     0.002 A 
HETATM   26  C20 UNL     1      28.631   0.929  53.814  1.00  0.00     0.029 A 
ENDBRANCH   4  21
TORSDOF 7
ENDMDL
MODEL 2
REMARK VINA RESULT:      -7.8      1.628      4.629
REMARK  7 active torsions:
REMARK  status: ('A' for Active; 'I' for Inactive)
REMARK    1  A    between atoms: C2_2  and  C3_3 
REMARK    2  A    between atoms: C3_3  and  C4_4 
REMARK    3  A    between atoms: C4_4  and  N1_5 
REMARK    4  A    between atoms: N1_5  and  C5_6 
REMARK       I    between atoms: N1_5  and  C14_16 
REMARK    5  A    between atoms: C5_6  and  C6_7 
REMARK    6  A    between atoms: C13_14  and  O1_15 
REMARK       I    between atoms: C14_16  and  N2_18 
REMARK    7  A    between atoms: N2_18  and  C15_19 
ROOT
HETATM    1  N1  UNL     1      23.693   0.539  53.364  1.00  0.00    -0.330 N 
HETATM    2  C14 UNL     1      25.126   0.287  53.378  1.00  0.00     0.323 C 
HETATM    3  O2  UNL     1      25.223  -0.955  53.669  1.00  0.00    -0.247 OA
HETATM    4  N2  UNL     1      26.305   1.053  53.162  1.00  0.00    -0.309 N 
HETATM    5  H21 UNL     1      25.995   2.024  52.947  1.00  0.00     0.170 HD
ENDROOT
BRANCH   1   6
HETATM    6  C4  UNL     1      22.982  -0.666  53.690  1.00  0.00     0.128 C 
BRANCH   6   7
HETATM    7  C3  UNL     1      21.875  -0.599  54.645  1.00  0.00     0.020 C 
BRANCH   7   8
HETATM    8  C2  UNL     1      20.602  -1.159  53.989  1.00  0.00    -0.003 C 
HETATM    9  C1  UNL     1      20.088  -0.165  52.956  1.00  0.00     0.005 C 
ENDBRANCH   7   8
ENDBRANCH   6   7
ENDBRANCH   1   6
BRANCH   1  10
HETATM   10  C5  UNL     1      23.301   1.888  53.047  1.00  0.00     0.169 C 
BRANCH  10  11
HETATM   11  C6  UNL     1      23.312   2.210  51.604  1.00  0.00    -0.006 A 
HETATM   12  C7  UNL     1      22.431   1.724  50.663  1.00  0.00     0.018 A 
HETATM   13  C8  UNL     1      22.422   2.023  49.324  1.00  0.00    -0.061 A 
HETATM   14  C9  UNL     1      21.440   1.460  48.379  1.00  0.00     0.048 C 
HETATM   15  C10 UNL     1      23.379   2.892  48.849  1.00  0.00     0.016 A 
HETATM   16  C11 UNL     1      24.308   3.432  49.710  1.00  0.00    -0.028 A 
HETATM   17  C12 UNL     1      25.335   4.367  49.185  1.00  0.00     0.051 C 
HETATM   18  C13 UNL     1      24.253   3.085  51.045  1.00  0.00     0.079 A 
BRANCH  18  19
HETATM   19  O1  UNL     1      25.219   3.665  51.838  1.00  0.00    -0.360 OA
HETATM   20  H20 UNL     1      26.188   3.633  51.549  1.00  0.00     0.217 HD
ENDBRANCH  18  19
ENDBRANCH  10  11
ENDBRANCH   1  10
BRANCH   4  21
HETATM   21  C15 UNL     1      27.515   0.317  53.296  1.00  0.00     0.036 A 
HETATM   22  C16 UNL     1      28.652   0.923  53.837  1.00  0.00     0.029 A 
HETATM   23  C17 UNL     1      29.824   0.208  53.963  1.00  0.00     0.002 A 
HETATM   24  C18 UNL     1      29.858  -1.110  53.550  1.00  0.00     0.000 A 
HETATM   25  C19 UNL     1      28.738  -1.711  53.016  1.00  0.00     0.002 A 
HETATM   26  C20 UNL     1      27.552  -1.018  52.878  1.00  0.00     0.029 A 
ENDBRANCH   4  21
TORSDOF 7
ENDMDL
MODEL 3
REMARK VINA RESULT:      -7.8      2.169      5.396
REMARK  7 active torsions:
REMARK  status: ('A' for Active; 'I' for Inactive)
REMARK    1  A    between atoms: C2_2  and  C3_3 
REMARK    2  A    between atoms: C3_3  and  C4_4 
REMARK    3  A    between atoms: C4_4  and  N1_5 
REMARK    4  A    between atoms: N1_5  and  C5_6 
REMARK       I    between atoms: N1_5  and  C14_16 
REMARK    5  A    between atoms: C5_6  and  C6_7 
REMARK    6  A    between atoms: C13_14  and  O1_15 
REMARK       I    between atoms: C14_16  and  N2_18 
REMARK    7  A    between atoms: N2_18  and  C15_19 
ROOT
HETATM    1  N1  UNL     1      22.785   2.688  50.651  1.00  0.00    -0.330 N 
HETATM    2  C14 UNL     1      23.907   3.507  50.217  1.00  0.00     0.323 C 
HETATM    3  O2  UNL     1      23.958   3.324  48.952  1.00  0.00    -0.247 OA
HETATM    4  N2  UNL     1      24.850   4.369  50.841  1.00  0.00    -0.309 N 
HETATM    5  H21 UNL     1      24.629   4.367  51.859  1.00  0.00     0.170 HD
ENDROOT
BRANCH   1   6
HETATM    6  C4  UNL     1      22.213   2.007  49.523  1.00  0.00     0.128 C 
BRANCH   6   7
HETATM    7  C3  UNL     1      21.351   0.848  49.759  1.00  0.00     0.020 C 
BRANCH   7   8
HETATM    8  C2  UNL     1      19.884   1.306  49.814  1.00  0.00    -0.003 C 
HETATM    9  C1  UNL     1      19.151   0.524  50.895  1.00  0.00     0.005 C 
ENDBRANCH   7   8
ENDBRANCH   6   7
ENDBRANCH   1   6
BRANCH   1  10
HETATM   10  C5  UNL     1      22.498   2.722  52.062  1.00  0.00     0.169 C 
BRANCH  10  11
HETATM   11  C6  UNL     1      22.833   1.479  52.789  1.00  0.00    -0.006 A 
HETATM   12  C7  UNL     1      21.929   0.553  53.262  1.00  0.00     0.018 A 
HETATM   13  C8  UNL     1      22.227  -0.609  53.926  1.00  0.00    -0.061 A 
HETATM   14  C9  UNL     1      21.197  -1.552  54.401  1.00  0.00     0.048 C 
HETATM   15  C10 UNL     1      23.553  -0.902  54.156  1.00  0.00     0.016 A 
HETATM   16  C11 UNL     1      24.534  -0.039  53.723  1.00  0.00    -0.028 A 
HETATM   17  C12 UNL     1      25.960  -0.366  53.978  1.00  0.00     0.051 C 
HETATM   18  C13 UNL     1      24.158   1.112  53.060  1.00  0.00     0.079 A 
BRANCH  18  19
HETATM   19  O1  UNL     1      25.200   1.923  52.664  1.00  0.00    -0.360 OA
HETATM   20  H20 UNL     1      26.035   1.975  53.231  1.00  0.00     0.217 HD
ENDBRANCH  18  19
ENDBRANCH  10  11
ENDBRANCH   1  10
BRANCH   4  21
HETATM   21  C15 UNL     1      25.785   4.960  49.947  1.00  0.00     0.036 A 
HETATM   22  C16 UNL     1      26.867   4.217  49.465  1.00  0.00     0.029 A 
HETATM   23  C17 UNL     1      27.773   4.795  48.601  1.00  0.00     0.002 A 
HETATM   24  C18 UNL     1      27.597   6.111  48.219  1.00  0.00     0.000 A 
HETATM   25  C19 UNL     1      26.531   6.846  48.692  1.00  0.00     0.002 A 
HETATM   26  C20 UNL     1      25.610   6.293  49.559  1.00  0.00     0.029 A 
ENDBRANCH   4  21
TORSDOF 7
ENDMDL
MODEL 4
REMARK VINA RESULT:      -7.7      1.675      6.416
REMARK  7 active torsions:
REMARK  status: ('A' for Active; 'I' for Inactive)
REMARK    1  A    between atoms: C2_2  and  C3_3 
REMARK    2  A    between atoms: C3_3  and  C4_4 
REMARK    3  A    between atoms: C4_4  and  N1_5 
REMARK    4  A    between atoms: N1_5  and  C5_6 
REMARK       I    between atoms: N1_5  and  C14_16 
REMARK    5  A    between atoms: C5_6  and  C6_7 
REMARK    6  A    between atoms: C13_14  and  O1_15 
REMARK       I    between atoms: C14_16  and  N2_18 
REMARK    7  A    between atoms: N2_18  and  C15_19 
ROOT
HETATM    1  N1  UNL     1      23.564   1.797  51.837  1.00  0.00    -0.330 N 
HETATM    2  C14 UNL     1      24.142   2.940  51.146  1.00  0.00     0.323 C 
HETATM    3  O2  UNL     1      23.530   2.971  50.023  1.00  0.00    -0.247 OA
HETATM    4  N2  UNL     1      25.136   3.916  51.432  1.00  0.00    -0.309 N 
HETATM    5  H21 UNL     1      25.501   3.702  52.384  1.00  0.00     0.170 HD
ENDROOT
BRANCH   1   6
HETATM    6  C4  UNL     1      22.580   1.168  51.000  1.00  0.00     0.128 C 
BRANCH   6   7
HETATM    7  C3  UNL     1      21.651   0.208  51.598  1.00  0.00     0.020 C 
BRANCH   7   8
HETATM    8  C2  UNL     1      20.209   0.699  51.392  1.00  0.00    -0.003 C 
HETATM    9  C1  UNL     1      19.274  -0.086  52.302  1.00  0.00     0.005 C 
ENDBRANCH   7   8
ENDBRANCH   6   7
ENDBRANCH   1   6
BRANCH   1  10
HETATM   10  C5  UNL     1      24.080   1.540  53.157  1.00  0.00     0.169 C 
BRANCH  10  11
HETATM   11  C6  UNL     1      25.407   0.888  53.182  1.00  0.00    -0.006 A 
HETATM   12  C7  UNL     1      25.671  -0.417  52.830  1.00  0.00     0.018 A 
HETATM   13  C8  UNL     1      26.898  -1.030  52.837  1.00  0.00    -0.061 A 
HETATM   14  C9  UNL     1      27.098  -2.437  52.443  1.00  0.00     0.048 C 
HETATM   15  C10 UNL     1      27.990  -0.289  53.232  1.00  0.00     0.016 A 
HETATM   16  C11 UNL     1      27.831   1.027  53.605  1.00  0.00    -0.028 A 
HETATM   17  C12 UNL     1      29.016   1.814  54.030  1.00  0.00     0.051 C 
HETATM   18  C13 UNL     1      26.564   1.576  53.572  1.00  0.00     0.079 A 
BRANCH  18  19
HETATM   19  O1  UNL     1      26.491   2.895  53.963  1.00  0.00    -0.360 OA
HETATM   20  H20 UNL     1      25.928   3.543  53.430  1.00  0.00     0.217 HD
ENDBRANCH  18  19
ENDBRANCH  10  11
ENDBRANCH   1  10
BRANCH   4  21
HETATM   21  C15 UNL     1      25.345   4.863  50.391  1.00  0.00     0.036 A 
HETATM   22  C16 UNL     1      24.463   5.935  50.226  1.00  0.00     0.029 A 
HETATM   23  C17 UNL     1      24.668   6.849  49.214  1.00  0.00     0.002 A 
HETATM   24  C18 UNL     1      25.751   6.692  48.371  1.00  0.00     0.000 A 
HETATM   25  C19 UNL     1      26.622   5.636  48.532  1.00  0.00     0.002 A 
HETATM   26  C20 UNL     1      26.441   4.706  49.535  1.00  0.00     0.029 A 
ENDBRANCH   4  21
TORSDOF 7
ENDMDL
MODEL 5
REMARK VINA RESULT:      -7.7      2.732      5.708
REMARK  7 active torsions:
REMARK  status: ('A' for Active; 'I' for Inactive)
REMARK    1  A    between atoms: C2_2  and  C3_3 
REMARK    2  A    between atoms: C3_3  and  C4_4 
REMARK    3  A    between atoms: C4_4  and  N1_5 
REMARK    4  A    between atoms: N1_5  and  C5_6 
REMARK       I    between atoms: N1_5  and  C14_16 
REMARK    5  A    between atoms: C5_6  and  C6_7 
REMARK    6  A    between atoms: C13_14  and  O1_15 
REMARK       I    between atoms: C14_16  and  N2_18 
REMARK    7  A    between atoms: N2_18  and  C15_19 
ROOT
HETATM    1  N1  UNL     1      24.362   3.287  51.215  1.00  0.00    -0.330 N 
HETATM    2  C14 UNL     1      25.465   2.612  51.882  1.00  0.00     0.323 C 
HETATM    3  O2  UNL     1      25.141   2.627  53.119  1.00  0.00    -0.247 OA
HETATM    4  N2  UNL     1      26.691   2.010  51.483  1.00  0.00    -0.309 N 
HETATM    5  H21 UNL     1      26.753   2.114  50.449  1.00  0.00     0.170 HD
ENDROOT
BRANCH   1   6
HETATM    6  C4  UNL     1      23.389   3.705  52.185  1.00  0.00     0.128 C 
BRANCH   6   7
HETATM    7  C3  UNL     1      22.997   5.115  52.233  1.00  0.00     0.020 C 
BRANCH   7   8
HETATM    8  C2  UNL     1      21.714   5.316  51.410  1.00  0.00    -0.003 C 
HETATM    9  C1  UNL     1      21.631   6.765  50.951  1.00  0.00     0.005 C 
ENDBRANCH   7   8
ENDBRANCH   6   7
ENDBRANCH   1   6
BRANCH   1  10
HETATM   10  C5  UNL     1      24.474   3.399  49.783  1.00  0.00     0.169 C 
BRANCH  10  11
HETATM   11  C6  UNL     1      25.169   4.616  49.313  1.00  0.00    -0.006 A 
HETATM   12  C7  UNL     1      24.589   5.850  49.117  1.00  0.00     0.018 A 
HETATM   13  C8  UNL     1      25.224   6.990  48.693  1.00  0.00    -0.061 A 
HETATM   14  C9  UNL     1      24.530   8.278  48.508  1.00  0.00     0.048 C 
HETATM   15  C10 UNL     1      26.574   6.919  48.430  1.00  0.00     0.016 A 
HETATM   16  C11 UNL     1      27.247   5.728  48.594  1.00  0.00    -0.028 A 
HETATM   17  C12 UNL     1      28.702   5.666  48.307  1.00  0.00     0.051 C 
HETATM   18  C13 UNL     1      26.540   4.623  49.025  1.00  0.00     0.079 A 
BRANCH  18  19
HETATM   19  O1  UNL     1      27.286   3.472  49.160  1.00  0.00    -0.360 OA
HETATM   20  H20 UNL     1      28.072   3.459  49.795  1.00  0.00     0.217 HD
ENDBRANCH  18  19
ENDBRANCH  10  11
ENDBRANCH   1  10
BRANCH   4  21
HETATM   21  C15 UNL     1      27.451   1.464  52.554  1.00  0.00     0.036 A 
HETATM   22  C16 UNL     1      28.319   2.277  53.288  1.00  0.00     0.029 A 
HETATM   23  C17 UNL     1      29.057   1.744  54.324  1.00  0.00     0.002 A 
HETATM   24  C18 UNL     1      28.926   0.402  54.626  1.00  0.00     0.000 A 
HETATM   25  C19 UNL     1      28.070  -0.402  53.904  1.00  0.00     0.002 A 
HETATM   26  C20 UNL     1      27.320   0.105  52.862  1.00  0.00     0.029 A 
ENDBRANCH   4  21
TORSDOF 7
ENDMDL
MODEL 6
REMARK VINA RESULT:      -7.6      1.615      6.507
REMARK  7 active torsions:
REMARK  status: ('A' for Active; 'I' for Inactive)
REMARK    1  A    between atoms: C2_2  and  C3_3 
REMARK    2  A    between atoms: C3_3  and  C4_4 
REMARK    3  A    between atoms: C4_4  and  N1_5 
REMARK    4  A    between atoms: N1_5  and  C5_6 
REMARK       I    between atoms: N1_5  and  C14_16 
REMARK    5  A    between atoms: C5_6  and  C6_7 
REMARK    6  A    between atoms: C13_14  and  O1_15 
REMARK       I    between atoms: C14_16  and  N2_18 
REMARK    7  A    between atoms: N2_18  and  C15_19 
ROOT
HETATM    1  N1  UNL     1      24.398   2.544  51.736  1.00  0.00    -0.330 N 
HETATM    2  C14 UNL     1      22.977   2.232  51.717  1.00  0.00     0.323 C 
HETATM    3  O2  UNL     1      22.637   2.389  50.494  1.00  0.00    -0.247 OA
HETATM    4  N2  UNL     1      22.001   1.834  52.672  1.00  0.00    -0.309 N 
HETATM    5  H21 UNL     1      22.488   1.772  53.590  1.00  0.00     0.170 HD
ENDROOT
BRANCH   1   6
HETATM    6  C4  UNL     1      24.834   2.912  50.418  1.00  0.00     0.128 C 
BRANCH   6   7
HETATM    7  C3  UNL     1      26.194   3.424  50.239  1.00  0.00     0.020 C 
BRANCH   7   8
HETATM    8  C2  UNL     1      26.148   4.702  49.386  1.00  0.00    -0.003 C 
HETATM    9  C1  UNL     1      27.481   4.880  48.672  1.00  0.00     0.005 C 
ENDBRANCH   7   8
ENDBRANCH   6   7
ENDBRANCH   1   6
BRANCH   1  10
HETATM   10  C5  UNL     1      25.043   2.432  53.019  1.00  0.00     0.169 C 
BRANCH  10  11
HETATM   11  C6  UNL     1      26.092   1.392  53.092  1.00  0.00    -0.006 A 
HETATM   12  C7  UNL     1      25.970   0.093  52.649  1.00  0.00     0.018 A 
HETATM   13  C8  UNL     1      26.938  -0.878  52.698  1.00  0.00    -0.061 A 
HETATM   14  C9  UNL     1      26.729  -2.250  52.200  1.00  0.00     0.048 C 
HETATM   15  C10 UNL     1      28.160  -0.547  53.241  1.00  0.00     0.016 A 
HETATM   16  C11 UNL     1      28.381   0.728  53.714  1.00  0.00    -0.028 A 
HETATM   17  C12 UNL     1      29.703   1.071  54.297  1.00  0.00     0.051 C 
HETATM   18  C13 UNL     1      27.359   1.652  53.629  1.00  0.00     0.079 A 
BRANCH  18  19
HETATM   19  O1  UNL     1      27.661   2.901  54.127  1.00  0.00    -0.360 OA
HETATM   20  H20 UNL     1      28.561   3.062  54.558  1.00  0.00     0.217 HD
ENDBRANCH  18  19
ENDBRANCH  10  11
ENDBRANCH   1  10
BRANCH   4  21
HETATM   21  C15 UNL     1      20.697   1.645  52.134  1.00  0.00     0.036 A 
HETATM   22  C16 UNL     1      20.294   0.381  51.693  1.00  0.00     0.029 A 
HETATM   23  C17 UNL     1      19.030   0.202  51.171  1.00  0.00     0.002 A 
HETATM   24  C18 UNL     1      18.173   1.282  51.091  1.00  0.00     0.000 A 
HETATM   25  C19 UNL     1      18.568   2.530  51.525  1.00  0.00     0.002 A 
HETATM   26  C20 UNL     1      19.827   2.738  52.052  1.00  0.00     0.029 A 
ENDBRANCH   4  21
TORSDOF 7
ENDMDL
MODEL 7
REMARK VINA RESULT:      -7.5      1.209      2.213
REMARK  7 active torsions:
REMARK  status: ('A' for Active; 'I' for Inactive)
REMARK    1  A    between atoms: C2_2  and  C3_3 
REMARK    2  A    between atoms: C3_3  and  C4_4 
REMARK    3  A    between atoms: C4_4  and  N1_5 
REMARK    4  A    between atoms: N1_5  and  C5_6 
REMARK       I    between atoms: N1_5  and  C14_16 
REMARK    5  A    between atoms: C5_6  and  C6_7 
REMARK    6  A    between atoms: C13_14  and  O1_15 
REMARK       I    between atoms: C14_16  and  N2_18 
REMARK    7  A    between atoms: N2_18  and  C15_19 
ROOT
HETATM    1  N1  UNL     1      25.244   2.935  51.712  1.00  0.00    -0.330 N 
HETATM    2  C14 UNL     1      26.226   1.991  52.224  1.00  0.00     0.323 C 
HETATM    3  O2  UNL     1      27.218   2.104  51.424  1.00  0.00    -0.247 OA
HETATM    4  N2  UNL     1      26.297   1.071  53.306  1.00  0.00    -0.309 N 
HETATM    5  H21 UNL     1      25.392   1.139  53.817  1.00  0.00     0.170 HD
ENDROOT
BRANCH   1   6
HETATM    6  C4  UNL     1      25.758   3.584  50.538  1.00  0.00     0.128 C 
BRANCH   6   7
HETATM    7  C3  UNL     1      24.937   3.612  49.327  1.00  0.00     0.020 C 
BRANCH   7   8
HETATM    8  C2  UNL     1      24.538   5.064  49.015  1.00  0.00    -0.003 C 
HETATM    9  C1  UNL     1      23.075   5.275  49.380  1.00  0.00     0.005 C 
ENDBRANCH   7   8
ENDBRANCH   6   7
ENDBRANCH   1   6
BRANCH   1  10
HETATM   10  C5  UNL     1      24.011   3.015  52.452  1.00  0.00     0.169 C 
BRANCH  10  11
HETATM   11  C6  UNL     1      22.999   2.006  52.072  1.00  0.00    -0.006 A 
HETATM   12  C7  UNL     1      22.186   2.058  50.961  1.00  0.00     0.018 A 
HETATM   13  C8  UNL     1      21.253   1.124  50.591  1.00  0.00    -0.061 A 
HETATM   14  C9  UNL     1      20.419   1.254  49.381  1.00  0.00     0.048 C 
HETATM   15  C10 UNL     1      21.093   0.015  51.392  1.00  0.00     0.016 A 
HETATM   16  C11 UNL     1      21.859  -0.130  52.527  1.00  0.00    -0.028 A 
HETATM   17  C12 UNL     1      21.676  -1.330  53.383  1.00  0.00     0.051 C 
HETATM   18  C13 UNL     1      22.779   0.852  52.836  1.00  0.00     0.079 A 
BRANCH  18  19
HETATM   19  O1  UNL     1      23.501   0.632  53.989  1.00  0.00    -0.360 OA
HETATM   20  H20 UNL     1      24.036   1.388  54.394  1.00  0.00     0.217 HD
ENDBRANCH  18  19
ENDBRANCH  10  11
ENDBRANCH   1  10
BRANCH   4  21
HETATM   21  C15 UNL     1      27.521   0.351  53.384  1.00  0.00     0.036 A 
HETATM   22  C16 UNL     1      27.569  -0.998  53.021  1.00  0.00     0.029 A 
HETATM   23  C17 UNL     1      28.757  -1.694  53.100  1.00  0.00     0.002 A 
HETATM   24  C18 UNL     1      29.893  -1.042  53.540  1.00  0.00     0.000 A 
HETATM   25  C19 UNL     1      29.849   0.288  53.898  1.00  0.00     0.002 A 
HETATM   26  C20 UNL     1      28.674   1.009  53.829  1.00  0.00     0.029 A 
ENDBRANCH   4  21
TORSDOF 7
ENDMDL
MODEL 8
REMARK VINA RESULT:      -7.5      2.602      5.624
REMARK  7 active torsions:
REMARK  status: ('A' for Active; 'I' for Inactive)
REMARK    1  A    between atoms: C2_2  and  C3_3 
REMARK    2  A    between atoms: C3_3  and  C4_4 
REMARK    3  A    between atoms: C4_4  and  N1_5 
REMARK    4  A    between atoms: N1_5  and  C5_6 
REMARK       I    between atoms: N1_5  and  C14_16 
REMARK    5  A    between atoms: C5_6  and  C6_7 
REMARK    6  A    between atoms: C13_14  and  O1_15 
REMARK       I    between atoms: C14_16  and  N2_18 
REMARK    7  A    between atoms: N2_18  and  C15_19 
ROOT
HETATM    1  N1  UNL     1      24.438   3.282  51.159  1.00  0.00    -0.330 N 
HETATM    2  C14 UNL     1      25.523   2.601  51.850  1.00  0.00     0.323 C 
HETATM    3  O2  UNL     1      25.210   2.686  53.087  1.00  0.00    -0.247 OA
HETATM    4  N2  UNL     1      26.722   1.937  51.473  1.00  0.00    -0.309 N 
HETATM    5  H21 UNL     1      26.780   1.989  50.434  1.00  0.00     0.170 HD
ENDROOT
BRANCH   1   6
HETATM    6  C4  UNL     1      23.488   3.780  52.114  1.00  0.00     0.128 C 
BRANCH   6   7
HETATM    7  C3  UNL     1      22.072   3.826  51.747  1.00  0.00     0.020 C 
BRANCH   7   8
HETATM    8  C2  UNL     1      21.689   5.267  51.374  1.00  0.00    -0.003 C 
HETATM    9  C1  UNL     1      20.655   5.242  50.257  1.00  0.00     0.005 C 
ENDBRANCH   7   8
ENDBRANCH   6   7
ENDBRANCH   1   6
BRANCH   1  10
HETATM   10  C5  UNL     1      24.541   3.322  49.723  1.00  0.00     0.169 C 
BRANCH  10  11
HETATM   11  C6  UNL     1      24.996   4.617  49.174  1.00  0.00    -0.006 A 
HETATM   12  C7  UNL     1      24.181   5.645  48.755  1.00  0.00     0.018 A 
HETATM   13  C8  UNL     1      24.589   6.856  48.256  1.00  0.00    -0.061 A 
HETATM   14  C9  UNL     1      23.650   7.909  47.828  1.00  0.00     0.048 C 
HETATM   15  C10 UNL     1      25.942   7.090  48.152  1.00  0.00     0.016 A 
HETATM   16  C11 UNL     1      26.841   6.123  48.544  1.00  0.00    -0.028 A 
HETATM   17  C12 UNL     1      28.297   6.389  48.426  1.00  0.00     0.051 C 
HETATM   18  C13 UNL     1      26.356   4.929  49.038  1.00  0.00     0.079 A 
BRANCH  18  19
HETATM   19  O1  UNL     1      27.319   4.015  49.404  1.00  0.00    -0.360 OA
HETATM   20  H20 UNL     1      28.257   4.333  49.607  1.00  0.00     0.217 HD
ENDBRANCH  18  19
ENDBRANCH  10  11
ENDBRANCH   1  10
BRANCH   4  21
HETATM   21  C15 UNL     1      27.472   1.415  52.563  1.00  0.00     0.036 A 
HETATM   22  C16 UNL     1      27.337   0.075  52.935  1.00  0.00     0.029 A 
HETATM   23  C17 UNL     1      28.063  -0.427  53.995  1.00  0.00     0.002 A 
HETATM   24  C18 UNL     1      28.924   0.410  54.679  1.00  0.00     0.000 A 
HETATM   25  C19 UNL     1      29.060   1.733  54.314  1.00  0.00     0.002 A 
HETATM   26  C20 UNL     1      28.345   2.261  53.258  1.00  0.00     0.029 A 
ENDBRANCH   4  21
TORSDOF 7
ENDMDL
MODEL 9
REMARK VINA RESULT:      -7.4      1.493      5.188
REMARK  7 active torsions:
REMARK  status: ('A' for Active; 'I' for Inactive)
REMARK    1  A    between atoms: C2_2  and  C3_3 
REMARK    2  A    between atoms: C3_3  and  C4_4 
REMARK    3  A    between atoms: C4_4  and  N1_5 
REMARK    4  A    between atoms: N1_5  and  C5_6 
REMARK       I    between atoms: N1_5  and  C14_16 
REMARK    5  A    between atoms: C5_6  and  C6_7 
REMARK    6  A    between atoms: C13_14  and  O1_15 
REMARK       I    between atoms: C14_16  and  N2_18 
REMARK    7  A    between atoms: N2_18  and  C15_19 
ROOT
HETATM    1  N1  UNL     1      23.723   1.992  51.732  1.00  0.00    -0.330 N 
HETATM    2  C14 UNL     1      25.020   1.508  52.179  1.00  0.00     0.323 C 
HETATM    3  O2  UNL     1      24.814   1.124  53.382  1.00  0.00    -0.247 OA
HETATM    4  N2  UNL     1      26.321   1.390  51.616  1.00  0.00    -0.309 N 
HETATM    5  H21 UNL     1      26.261   1.761  50.645  1.00  0.00     0.170 HD
ENDROOT
BRANCH   1   6
HETATM    6  C4  UNL     1      22.763   1.867  52.794  1.00  0.00     0.128 C 
BRANCH   6   7
HETATM    7  C3  UNL     1      21.337   1.953  52.474  1.00  0.00     0.020 C 
BRANCH   7   8
HETATM    8  C2  UNL     1      20.598   0.769  53.118  1.00  0.00    -0.003 C 
HETATM    9  C1  UNL     1      21.481   0.147  54.191  1.00  0.00     0.005 C 
ENDBRANCH   7   8
ENDBRANCH   6   7
ENDBRANCH   1   6
BRANCH   1  10
HETATM   10  C5  UNL     1      23.673   2.483  50.379  1.00  0.00     0.169 C 
BRANCH  10  11
HETATM   11  C6  UNL     1      24.401   3.750  50.156  1.00  0.00    -0.006 A 
HETATM   12  C7  UNL     1      25.606   3.883  49.501  1.00  0.00     0.018 A 
HETATM   13  C8  UNL     1      26.285   5.053  49.276  1.00  0.00    -0.061 A 
HETATM   14  C9  UNL     1      27.575   5.111  48.563  1.00  0.00     0.048 C 
HETATM   15  C10 UNL     1      25.731   6.224  49.743  1.00  0.00     0.016 A 
HETATM   16  C11 UNL     1      24.528   6.197  50.412  1.00  0.00    -0.028 A 
HETATM   17  C12 UNL     1      23.941   7.467  50.910  1.00  0.00     0.051 C 
HETATM   18  C13 UNL     1      23.901   4.982  50.600  1.00  0.00     0.079 A 
BRANCH  18  19
HETATM   19  O1  UNL     1      22.705   5.042  51.282  1.00  0.00    -0.360 OA
HETATM   20  H20 UNL     1      22.166   5.897  51.269  1.00  0.00     0.217 HD
ENDBRANCH  18  19
ENDBRANCH  10  11
ENDBRANCH   1  10
BRANCH   4  21
HETATM   21  C15 UNL     1      27.290   0.830  52.493  1.00  0.00     0.036 A 
HETATM   22  C16 UNL     1      28.123   1.661  53.248  1.00  0.00     0.029 A 
HETATM   23  C17 UNL     1      29.064   1.115  54.095  1.00  0.00     0.002 A 
HETATM   24  C18 UNL     1      29.171  -0.260  54.187  1.00  0.00     0.000 A 
HETATM   25  C19 UNL     1      28.351  -1.082  53.444  1.00  0.00     0.002 A 
HETATM   26  C20 UNL     1      27.401  -0.562  52.588  1.00  0.00     0.029 A 
ENDBRANCH   4  21
TORSDOF 7
ENDMDL
