MODEL 1
REMARK VINA RESULT:      -7.9      0.000      0.000
REMARK  5 active torsions:
REMARK  status: ('A' for Active; 'I' for Inactive)
REMARK    1  A    between atoms: N1_2  and  C2_3 
REMARK    2  A    between atoms: C6_8  and  C7_9 
REMARK    3  A    between atoms: C8_10  and  C9_11 
REMARK    4  A    between atoms: N5_22  and  C17_23 
REMARK    5  A    between atoms: C17_23  and  C18_24 
ROOT
HETATM    1  C7  UNL     1      24.540   1.266  52.156  1.00  0.00     0.100 A 
HETATM    2  C8  UNL     1      23.116   1.487  52.526  1.00  0.00    -0.008 A 
HETATM    3  C10 UNL     1      22.338   2.504  52.196  1.00  0.00     0.013 A 
HETATM    4  C11 UNL     1      22.927   3.548  51.367  1.00  0.00     0.032 A 
HETATM    5  C12 UNL     1      24.200   3.529  50.929  1.00  0.00     0.064 A 
HETATM    6  C13 UNL     1      25.025   2.369  51.328  1.00  0.00     0.072 A 
HETATM    7  N3  UNL     1      26.220   2.450  50.855  1.00  0.00    -0.259 NA
HETATM    8  C14 UNL     1      26.693   3.520  50.051  1.00  0.00     0.158 A 
HETATM    9  C15 UNL     1      26.007   4.570  49.669  1.00  0.00     0.137 A 
HETATM   10  C16 UNL     1      26.502   5.640  48.857  1.00  0.00     0.119 C 
HETATM   11  N4  UNL     1      26.892   6.513  48.214  1.00  0.00    -0.190 NA
HETATM   12  N5  UNL     1      24.661   4.609  50.123  1.00  0.00    -0.292 N 
ENDROOT
BRANCH  12  13
HETATM   13  C17 UNL     1      23.747   5.655  49.825  1.00  0.00     0.212 A 
HETATM   14  C20 UNL     1      22.968   5.713  48.756  1.00  0.00     0.187 A 
HETATM   15  F1  UNL     1      23.733   4.569  48.749  1.00  0.00    -0.341 F 
BRANCH  13  16
HETATM   16  C18 UNL     1      23.741   6.684  50.852  1.00  0.00     0.055 C 
HETATM   17  C19 UNL     1      24.213   7.910  50.781  1.00  0.00     0.086 C 
HETATM   18 CL1  UNL     1      25.019   9.032  49.711  1.00  0.00    -0.097 Cl
ENDBRANCH  13  16
ENDBRANCH  12  13
BRANCH   1  19
HETATM   19  C6  UNL     1      25.294   1.031  53.433  1.00  0.00     0.124 C 
HETATM   20  C2  UNL     1      26.778   1.113  53.339  1.00  0.00     0.243 C 
HETATM   21  C3  UNL     1      27.441   0.005  52.584  1.00  0.00     0.039 C 
HETATM   22  C4  UNL     1      26.713  -1.284  52.584  1.00  0.00     0.021 C 
HETATM   23  C5  UNL     1      25.532  -1.391  53.473  1.00  0.00     0.114 C 
HETATM   24  N2  UNL     1      24.995  -0.222  54.042  1.00  0.00    -0.414 N 
HETATM   25  H12 UNL     1      25.017  -0.260  55.074  1.00  0.00     0.153 HD
BRANCH  20  26
HETATM   26  N1  UNL     1      27.261   1.007  54.729  1.00  0.00     0.085 N 
HETATM   27  C1  UNL     1      28.623   0.587  54.818  1.00  0.00     0.307 C 
HETATM   28  H4  UNL     1      27.117   1.915  55.192  1.00  0.00     0.315 HD
ENDBRANCH  20  26
ENDBRANCH   1  19
BRANCH   2  29
HETATM   29  C9  UNL     1      22.456   0.493  53.363  1.00  0.00     0.266 C 
HETATM   30  O1  UNL     1      22.135  -0.648  52.922  1.00  0.00    -0.302 OA
ENDBRANCH   2  29
TORSDOF 5
ENDMDL
MODEL 2
REMARK VINA RESULT:      -7.9      0.922      1.320
REMARK  5 active torsions:
REMARK  status: ('A' for Active; 'I' for Inactive)
REMARK    1  A    between atoms: N1_2  and  C2_3 
REMARK    2  A    between atoms: C6_8  and  C7_9 
REMARK    3  A    between atoms: C8_10  and  C9_11 
REMARK    4  A    between atoms: N5_22  and  C17_23 
REMARK    5  A    between atoms: C17_23  and  C18_24 
ROOT
HETATM    1  C7  UNL     1      24.534   1.360  52.147  1.00  0.00     0.100 A 
HETATM    2  C8  UNL     1      23.120   1.604  52.543  1.00  0.00    -0.008 A 
HETATM    3  C10 UNL     1      22.356   2.638  52.235  1.00  0.00     0.013 A 
HETATM    4  C11 UNL     1      22.951   3.678  51.405  1.00  0.00     0.032 A 
HETATM    5  C12 UNL     1      24.216   3.640  50.945  1.00  0.00     0.064 A 
HETATM    6  C13 UNL     1      25.026   2.461  51.320  1.00  0.00     0.072 A 
HETATM    7  N3  UNL     1      26.214   2.524  50.828  1.00  0.00    -0.259 NA
HETATM    8  C14 UNL     1      26.693   3.592  50.025  1.00  0.00     0.158 A 
HETATM    9  C15 UNL     1      26.021   4.658  49.664  1.00  0.00     0.137 A 
HETATM   10  C16 UNL     1      26.522   5.726  48.853  1.00  0.00     0.119 C 
HETATM   11  N4  UNL     1      26.919   6.597  48.211  1.00  0.00    -0.190 NA
HETATM   12  N5  UNL     1      24.684   4.718  50.141  1.00  0.00    -0.292 N 
ENDROOT
BRANCH  12  13
HETATM   13  C17 UNL     1      23.785   5.784  49.868  1.00  0.00     0.212 A 
HETATM   14  C20 UNL     1      23.667   6.891  50.583  1.00  0.00     0.187 A 
HETATM   15  F1  UNL     1      24.628   6.061  51.113  1.00  0.00    -0.341 F 
BRANCH  13  16
HETATM   16  C18 UNL     1      22.991   5.537  48.675  1.00  0.00     0.055 C 
HETATM   17  C19 UNL     1      23.030   6.171  47.523  1.00  0.00     0.086 C 
HETATM   18 CL1  UNL     1      23.833   7.472  46.677  1.00  0.00    -0.097 Cl
ENDBRANCH  13  16
ENDBRANCH  12  13
BRANCH   1  19
HETATM   19  C6  UNL     1      25.304   1.099  53.409  1.00  0.00     0.124 C 
HETATM   20  C2  UNL     1      26.786   1.192  53.299  1.00  0.00     0.243 C 
HETATM   21  C3  UNL     1      27.446   0.105  52.510  1.00  0.00     0.039 C 
HETATM   22  C4  UNL     1      26.725  -1.187  52.489  1.00  0.00     0.021 C 
HETATM   23  C5  UNL     1      25.556  -1.321  53.390  1.00  0.00     0.114 C 
HETATM   24  N2  UNL     1      25.019  -0.169  53.993  1.00  0.00    -0.414 N 
HETATM   25  H12 UNL     1      25.054  -0.230  55.023  1.00  0.00     0.153 HD
BRANCH  20  26
HETATM   26  N1  UNL     1      27.287   1.056  54.681  1.00  0.00     0.085 N 
HETATM   27  C1  UNL     1      28.643   0.612  54.744  1.00  0.00     0.307 C 
HETATM   28  H4  UNL     1      27.165   1.960  55.159  1.00  0.00     0.315 HD
ENDBRANCH  20  26
ENDBRANCH   1  19
BRANCH   2  29
HETATM   29  C9  UNL     1      22.456   0.615  53.383  1.00  0.00     0.266 C 
HETATM   30  O1  UNL     1      22.144  -0.531  52.948  1.00  0.00    -0.302 OA
ENDBRANCH   2  29
TORSDOF 5
ENDMDL
MODEL 3
REMARK VINA RESULT:      -7.9      3.829      6.648
REMARK  5 active torsions:
REMARK  status: ('A' for Active; 'I' for Inactive)
REMARK    1  A    between atoms: N1_2  and  C2_3 
REMARK    2  A    between atoms: C6_8  and  C7_9 
REMARK    3  A    between atoms: C8_10  and  C9_11 
REMARK    4  A    between atoms: N5_22  and  C17_23 
REMARK    5  A    between atoms: C17_23  and  C18_24 
ROOT
HETATM    1  C7  UNL     1      21.447   1.184  52.661  1.00  0.00     0.100 A 
HETATM    2  C8  UNL     1      21.158  -0.088  53.379  1.00  0.00    -0.008 A 
HETATM    3  C10 UNL     1      22.020  -0.917  53.942  1.00  0.00     0.013 A 
HETATM    4  C11 UNL     1      23.431  -0.561  53.864  1.00  0.00     0.032 A 
HETATM    5  C12 UNL     1      23.893   0.548  53.258  1.00  0.00     0.064 A 
HETATM    6  C13 UNL     1      22.886   1.440  52.644  1.00  0.00     0.072 A 
HETATM    7  N3  UNL     1      23.433   2.469  52.095  1.00  0.00    -0.259 NA
HETATM    8  C14 UNL     1      24.830   2.720  52.078  1.00  0.00     0.158 A 
HETATM    9  C15 UNL     1      25.764   1.966  52.604  1.00  0.00     0.137 A 
HETATM   10  C16 UNL     1      27.170   2.236  52.577  1.00  0.00     0.119 C 
HETATM   11  N4  UNL     1      28.304   2.437  52.551  1.00  0.00    -0.190 NA
HETATM   12  N5  UNL     1      25.296   0.788  53.248  1.00  0.00    -0.292 N 
ENDROOT
BRANCH  12  13
HETATM   13  C17 UNL     1      26.139  -0.165  53.881  1.00  0.00     0.212 A 
HETATM   14  C20 UNL     1      26.539  -0.118  55.142  1.00  0.00     0.187 A 
HETATM   15  F1  UNL     1      25.730   0.953  54.840  1.00  0.00    -0.341 F 
BRANCH  13  16
HETATM   16  C18 UNL     1      26.520  -1.241  52.981  1.00  0.00     0.055 C 
HETATM   17  C19 UNL     1      27.717  -1.744  52.771  1.00  0.00     0.086 C 
HETATM   18 CL1  UNL     1      29.391  -1.599  53.250  1.00  0.00    -0.097 Cl
ENDBRANCH  13  16
ENDBRANCH  12  13
BRANCH   1  19
HETATM   19  C6  UNL     1      20.787   1.087  51.315  1.00  0.00     0.124 C 
HETATM   20  C2  UNL     1      21.250   2.064  50.291  1.00  0.00     0.243 C 
HETATM   21  C3  UNL     1      20.860   3.488  50.531  1.00  0.00     0.039 C 
HETATM   22  C4  UNL     1      19.615   3.680  51.310  1.00  0.00     0.021 C 
HETATM   23  C5  UNL     1      18.805   2.472  51.592  1.00  0.00     0.114 C 
HETATM   24  N2  UNL     1      19.368   1.201  51.373  1.00  0.00    -0.414 N 
HETATM   25  H12 UNL     1      18.825   0.662  50.679  1.00  0.00     0.153 HD
BRANCH  20  26
HETATM   26  N1  UNL     1      20.578   1.661  49.040  1.00  0.00     0.085 N 
HETATM   27  C1  UNL     1      20.842   2.548  47.952  1.00  0.00     0.307 C 
HETATM   28  H4  UNL     1      20.861   0.697  48.816  1.00  0.00     0.315 HD
ENDBRANCH  20  26
ENDBRANCH   1  19
BRANCH   2  29
HETATM   29  C9  UNL     1      19.771  -0.520  53.490  1.00  0.00     0.266 C 
HETATM   30  O1  UNL     1      19.461  -1.685  53.872  1.00  0.00    -0.302 OA
ENDBRANCH   2  29
TORSDOF 5
ENDMDL
MODEL 4
REMARK VINA RESULT:      -7.8      3.453      7.354
REMARK  5 active torsions:
REMARK  status: ('A' for Active; 'I' for Inactive)
REMARK    1  A    between atoms: N1_2  and  C2_3 
REMARK    2  A    between atoms: C6_8  and  C7_9 
REMARK    3  A    between atoms: C8_10  and  C9_11 
REMARK    4  A    between atoms: N5_22  and  C17_23 
REMARK    5  A    between atoms: C17_23  and  C18_24 
ROOT
HETATM    1  C7  UNL     1      24.605   3.519  50.142  1.00  0.00     0.100 A 
HETATM    2  C8  UNL     1      26.088   3.564  50.034  1.00  0.00    -0.008 A 
HETATM    3  C10 UNL     1      26.974   2.837  50.694  1.00  0.00     0.013 A 
HETATM    4  C11 UNL     1      26.456   1.864  51.647  1.00  0.00     0.032 A 
HETATM    5  C12 UNL     1      25.145   1.672  51.886  1.00  0.00     0.064 A 
HETATM    6  C13 UNL     1      24.198   2.512  51.122  1.00  0.00     0.072 A 
HETATM    7  N3  UNL     1      22.975   2.247  51.424  1.00  0.00    -0.259 NA
HETATM    8  C14 UNL     1      22.579   1.271  52.375  1.00  0.00     0.158 A 
HETATM    9  C15 UNL     1      23.372   0.501  53.080  1.00  0.00     0.137 A 
HETATM   10  C16 UNL     1      22.953  -0.479  54.035  1.00  0.00     0.119 C 
HETATM   11  N4  UNL     1      22.628  -1.263  54.815  1.00  0.00    -0.190 NA
HETATM   12  N5  UNL     1      24.761   0.690  52.842  1.00  0.00    -0.292 N 
ENDROOT
BRANCH  12  13
HETATM   13  C17 UNL     1      25.790  -0.038  53.498  1.00  0.00     0.212 A 
HETATM   14  C20 UNL     1      26.363   0.303  54.642  1.00  0.00     0.187 A 
HETATM   15  F1  UNL     1      25.402   1.219  54.277  1.00  0.00    -0.341 F 
BRANCH  13  16
HETATM   16  C18 UNL     1      26.153  -1.245  52.774  1.00  0.00     0.055 C 
HETATM   17  C19 UNL     1      27.331  -1.827  52.696  1.00  0.00     0.086 C 
HETATM   18 CL1  UNL     1      28.987  -1.694  53.236  1.00  0.00    -0.097 Cl
ENDBRANCH  13  16
ENDBRANCH  12  13
BRANCH   1  19
HETATM   19  C6  UNL     1      24.142   4.920  50.418  1.00  0.00     0.124 C 
HETATM   20  C2  UNL     1      22.718   5.068  50.831  1.00  0.00     0.243 C 
HETATM   21  C3  UNL     1      21.704   4.797  49.765  1.00  0.00     0.039 C 
HETATM   22  C4  UNL     1      22.162   5.046  48.379  1.00  0.00     0.021 C 
HETATM   23  C5  UNL     1      23.478   5.707  48.213  1.00  0.00     0.114 C 
HETATM   24  N2  UNL     1      24.340   5.807  49.320  1.00  0.00    -0.414 N 
HETATM   25  H12 UNL     1      24.555   6.792  49.545  1.00  0.00     0.153 HD
BRANCH  20  26
HETATM   26  N1  UNL     1      22.565   6.490  51.191  1.00  0.00     0.085 N 
HETATM   27  C1  UNL     1      21.253   6.994  50.934  1.00  0.00     0.307 C 
HETATM   28  H4  UNL     1      22.823   6.604  52.181  1.00  0.00     0.315 HD
ENDBRANCH  20  26
ENDBRANCH   1  19
BRANCH   2  29
HETATM   29  C9  UNL     1      26.686   4.519  49.110  1.00  0.00     0.266 C 
HETATM   30  O1  UNL     1      27.889   4.421  48.731  1.00  0.00    -0.302 OA
ENDBRANCH   2  29
TORSDOF 5
ENDMDL
MODEL 5
REMARK VINA RESULT:      -7.8      3.651      4.547
REMARK  5 active torsions:
REMARK  status: ('A' for Active; 'I' for Inactive)
REMARK    1  A    between atoms: N1_2  and  C2_3 
REMARK    2  A    between atoms: C6_8  and  C7_9 
REMARK    3  A    between atoms: C8_10  and  C9_11 
REMARK    4  A    between atoms: N5_22  and  C17_23 
REMARK    5  A    between atoms: C17_23  and  C18_24 
ROOT
HETATM    1  C7  UNL     1      23.847   0.228  52.890  1.00  0.00     0.100 A 
HETATM    2  C8  UNL     1      22.849  -0.297  53.860  1.00  0.00    -0.008 A 
HETATM    3  C10 UNL     1      21.549  -0.059  53.899  1.00  0.00     0.013 A 
HETATM    4  C11 UNL     1      21.005   0.822  52.874  1.00  0.00     0.032 A 
HETATM    5  C12 UNL     1      21.746   1.397  51.908  1.00  0.00     0.064 A 
HETATM    6  C13 UNL     1      23.194   1.097  51.911  1.00  0.00     0.072 A 
HETATM    7  N3  UNL     1      23.806   1.693  50.948  1.00  0.00    -0.259 NA
HETATM    8  C14 UNL     1      23.173   2.536  49.997  1.00  0.00     0.158 A 
HETATM    9  C15 UNL     1      21.898   2.836  49.948  1.00  0.00     0.137 A 
HETATM   10  C16 UNL     1      21.278   3.689  48.980  1.00  0.00     0.119 C 
HETATM   11  N4  UNL     1      20.770   4.384  48.214  1.00  0.00    -0.190 NA
HETATM   12  N5  UNL     1      21.099   2.240  50.961  1.00  0.00    -0.292 N 
ENDROOT
BRANCH  12  13
HETATM   13  C17 UNL     1      19.697   2.433  51.089  1.00  0.00     0.212 A 
HETATM   14  C20 UNL     1      19.115   3.360  51.835  1.00  0.00     0.187 A 
HETATM   15  F1  UNL     1      20.486   3.440  51.928  1.00  0.00    -0.341 F 
BRANCH  13  16
HETATM   16  C18 UNL     1      18.939   1.491  50.283  1.00  0.00     0.055 C 
HETATM   17  C19 UNL     1      18.228   0.460  50.685  1.00  0.00     0.086 C 
HETATM   18 CL1  UNL     1      17.726  -0.413  52.113  1.00  0.00    -0.097 Cl
ENDBRANCH  13  16
ENDBRANCH  12  13
BRANCH   1  19
HETATM   19  C6  UNL     1      24.947   0.863  53.692  1.00  0.00     0.124 C 
HETATM   20  C2  UNL     1      25.908   1.706  52.928  1.00  0.00     0.243 C 
HETATM   21  C3  UNL     1      26.823   0.968  52.003  1.00  0.00     0.039 C 
HETATM   22  C4  UNL     1      27.123  -0.429  52.392  1.00  0.00     0.021 C 
HETATM   23  C5  UNL     1      26.653  -0.872  53.725  1.00  0.00     0.114 C 
HETATM   24  N2  UNL     1      25.726  -0.078  54.425  1.00  0.00    -0.414 N 
HETATM   25  H12 UNL     1      26.105   0.233  55.334  1.00  0.00     0.153 HD
BRANCH  20  26
HETATM   26  N1  UNL     1      26.773   2.329  53.948  1.00  0.00     0.085 N 
HETATM   27  C1  UNL     1      28.121   2.504  53.509  1.00  0.00     0.307 C 
HETATM   28  H4  UNL     1      26.350   3.225  54.227  1.00  0.00     0.315 HD
ENDBRANCH  20  26
ENDBRANCH   1  19
BRANCH   2  29
HETATM   29  C9  UNL     1      23.315  -1.178  54.924  1.00  0.00     0.266 C 
HETATM   30  O1  UNL     1      22.518  -1.879  55.611  1.00  0.00    -0.302 OA
ENDBRANCH   2  29
TORSDOF 5
ENDMDL
MODEL 6
REMARK VINA RESULT:      -7.3      3.134      5.382
REMARK  5 active torsions:
REMARK  status: ('A' for Active; 'I' for Inactive)
REMARK    1  A    between atoms: N1_2  and  C2_3 
REMARK    2  A    between atoms: C6_8  and  C7_9 
REMARK    3  A    between atoms: C8_10  and  C9_11 
REMARK    4  A    between atoms: N5_22  and  C17_23 
REMARK    5  A    between atoms: C17_23  and  C18_24 
ROOT
HETATM    1  C7  UNL     1      24.838   1.920  52.252  1.00  0.00     0.100 A 
HETATM    2  C8  UNL     1      24.747   2.901  51.138  1.00  0.00    -0.008 A 
HETATM    3  C10 UNL     1      23.680   3.230  50.429  1.00  0.00     0.013 A 
HETATM    4  C11 UNL     1      22.429   2.562  50.764  1.00  0.00     0.032 A 
HETATM    5  C12 UNL     1      22.307   1.644  51.741  1.00  0.00     0.064 A 
HETATM    6  C13 UNL     1      23.531   1.313  52.502  1.00  0.00     0.072 A 
HETATM    7  N3  UNL     1      23.304   0.429  53.410  1.00  0.00    -0.259 NA
HETATM    8  C14 UNL     1      22.036  -0.160  53.654  1.00  0.00     0.158 A 
HETATM    9  C15 UNL     1      20.921   0.094  53.012  1.00  0.00     0.137 A 
HETATM   10  C16 UNL     1      19.651  -0.512  53.273  1.00  0.00     0.119 C 
HETATM   11  N4  UNL     1      18.625  -1.001  53.466  1.00  0.00    -0.190 NA
HETATM   12  N5  UNL     1      21.030   1.060  51.975  1.00  0.00    -0.292 N 
ENDROOT
BRANCH  12  13
HETATM   13  C17 UNL     1      19.946   1.480  51.158  1.00  0.00     0.212 A 
HETATM   14  C20 UNL     1      19.609   0.945  49.995  1.00  0.00     0.187 A 
HETATM   15  F1  UNL     1      20.704   0.308  50.533  1.00  0.00    -0.341 F 
BRANCH  13  16
HETATM   16  C18 UNL     1      19.209   2.583  51.752  1.00  0.00     0.055 C 
HETATM   17  C19 UNL     1      19.122   3.827  51.331  1.00  0.00     0.086 C 
HETATM   18 CL1  UNL     1      19.656   4.910  50.068  1.00  0.00    -0.097 Cl
ENDBRANCH  13  16
ENDBRANCH  12  13
BRANCH   1  19
HETATM   19  C6  UNL     1      25.944   0.964  51.905  1.00  0.00     0.124 C 
HETATM   20  C2  UNL     1      25.942  -0.330  52.642  1.00  0.00     0.243 C 
HETATM   21  C3  UNL     1      26.285  -0.248  54.096  1.00  0.00     0.039 C 
HETATM   22  C4  UNL     1      27.161   0.884  54.476  1.00  0.00     0.021 C 
HETATM   23  C5  UNL     1      27.748   1.680  53.372  1.00  0.00     0.114 C 
HETATM   24  N2  UNL     1      27.245   1.522  52.069  1.00  0.00    -0.414 N 
HETATM   25  H12 UNL     1      27.978   1.202  51.416  1.00  0.00     0.153 HD
BRANCH  20  26
HETATM   26  N1  UNL     1      27.008  -1.135  52.015  1.00  0.00     0.085 N 
HETATM   27  C1  UNL     1      27.201  -2.401  52.649  1.00  0.00     0.307 C 
HETATM   28  H4  UNL     1      26.785  -1.245  51.016  1.00  0.00     0.315 HD
ENDBRANCH  20  26
ENDBRANCH   1  19
BRANCH   2  29
HETATM   29  C9  UNL     1      25.958   3.604  50.734  1.00  0.00     0.266 C 
HETATM   30  O1  UNL     1      26.530   3.372  49.630  1.00  0.00    -0.302 OA
ENDBRANCH   2  29
TORSDOF 5
ENDMDL
MODEL 7
REMARK VINA RESULT:      -7.3      2.475      2.994
REMARK  5 active torsions:
REMARK  status: ('A' for Active; 'I' for Inactive)
REMARK    1  A    between atoms: N1_2  and  C2_3 
REMARK    2  A    between atoms: C6_8  and  C7_9 
REMARK    3  A    between atoms: C8_10  and  C9_11 
REMARK    4  A    between atoms: N5_22  and  C17_23 
REMARK    5  A    between atoms: C17_23  and  C18_24 
ROOT
HETATM    1  C7  UNL     1      23.944   0.919  52.193  1.00  0.00     0.100 A 
HETATM    2  C8  UNL     1      22.657   0.585  52.861  1.00  0.00    -0.008 A 
HETATM    3  C10 UNL     1      21.477   1.153  52.681  1.00  0.00     0.013 A 
HETATM    4  C11 UNL     1      21.404   2.240  51.714  1.00  0.00     0.032 A 
HETATM    5  C12 UNL     1      22.459   2.688  51.007  1.00  0.00     0.064 A 
HETATM    6  C13 UNL     1      23.755   2.018  51.248  1.00  0.00     0.072 A 
HETATM    7  N3  UNL     1      24.693   2.520  50.522  1.00  0.00    -0.259 NA
HETATM    8  C14 UNL     1      24.511   3.587  49.604  1.00  0.00     0.158 A 
HETATM    9  C15 UNL     1      23.388   4.216  49.352  1.00  0.00     0.137 A 
HETATM   10  C16 UNL     1      23.224   5.291  48.421  1.00  0.00     0.119 C 
HETATM   11  N4  UNL     1      23.083   6.164  47.683  1.00  0.00    -0.190 NA
HETATM   12  N5  UNL     1      22.263   3.758  50.090  1.00  0.00    -0.292 N 
ENDROOT
BRANCH  12  13
HETATM   13  C17 UNL     1      20.955   4.302  49.970  1.00  0.00     0.212 A 
HETATM   14  C20 UNL     1      20.482   5.324  50.665  1.00  0.00     0.187 A 
HETATM   15  F1  UNL     1      21.783   5.046  51.018  1.00  0.00    -0.341 F 
BRANCH  13  16
HETATM   16  C18 UNL     1      20.166   3.611  48.963  1.00  0.00     0.055 C 
HETATM   17  C19 UNL     1      20.489   2.545  48.262  1.00  0.00     0.086 C 
HETATM   18 CL1  UNL     1      21.767   1.381  48.009  1.00  0.00    -0.097 Cl
ENDBRANCH  13  16
ENDBRANCH  12  13
BRANCH   1  19
HETATM   19  C6  UNL     1      24.952   1.162  53.280  1.00  0.00     0.124 C 
HETATM   20  C2  UNL     1      26.259   1.725  52.843  1.00  0.00     0.243 C 
HETATM   21  C3  UNL     1      27.131   0.800  52.054  1.00  0.00     0.039 C 
HETATM   22  C4  UNL     1      26.937  -0.642  52.330  1.00  0.00     0.021 C 
HETATM   23  C5  UNL     1      26.061  -0.996  53.472  1.00  0.00     0.114 C 
HETATM   24  N2  UNL     1      25.247  -0.003  54.046  1.00  0.00    -0.414 N 
HETATM   25  H12 UNL     1      25.469   0.136  55.046  1.00  0.00     0.153 HD
BRANCH  20  26
HETATM   26  N1  UNL     1      26.993   2.014  54.090  1.00  0.00     0.085 N 
HETATM   27  C1  UNL     1      28.356   2.379  53.867  1.00  0.00     0.307 C 
HETATM   28  H4  UNL     1      26.486   2.751  54.601  1.00  0.00     0.315 HD
ENDBRANCH  20  26
ENDBRANCH   1  19
BRANCH   2  29
HETATM   29  C9  UNL     1      22.647  -0.484  53.851  1.00  0.00     0.266 C 
HETATM   30  O1  UNL     1      22.128  -0.334  54.994  1.00  0.00    -0.302 OA
ENDBRANCH   2  29
TORSDOF 5
ENDMDL
MODEL 8
REMARK VINA RESULT:      -7.1      7.145      9.533
REMARK  5 active torsions:
REMARK  status: ('A' for Active; 'I' for Inactive)
REMARK    1  A    between atoms: N1_2  and  C2_3 
REMARK    2  A    between atoms: C6_8  and  C7_9 
REMARK    3  A    between atoms: C8_10  and  C9_11 
REMARK    4  A    between atoms: N5_22  and  C17_23 
REMARK    5  A    between atoms: C17_23  and  C18_24 
ROOT
HETATM    1  C7  UNL     1      32.939   5.961  48.030  1.00  0.00     0.100 A 
HETATM    2  C8  UNL     1      33.673   7.251  48.135  1.00  0.00    -0.008 A 
HETATM    3  C10 UNL     1      33.168   8.468  48.240  1.00  0.00     0.013 A 
HETATM    4  C11 UNL     1      31.715   8.584  48.259  1.00  0.00     0.032 A 
HETATM    5  C12 UNL     1      30.878   7.533  48.176  1.00  0.00     0.064 A 
HETATM    6  C13 UNL     1      31.496   6.195  48.060  1.00  0.00     0.072 A 
HETATM    7  N3  UNL     1      30.609   5.265  47.989  1.00  0.00    -0.259 NA
HETATM    8  C14 UNL     1      29.207   5.491  48.018  1.00  0.00     0.158 A 
HETATM    9  C15 UNL     1      28.607   6.652  48.118  1.00  0.00     0.137 A 
HETATM   10  C16 UNL     1      27.191   6.860  48.145  1.00  0.00     0.119 C 
HETATM   11  N4  UNL     1      26.053   7.040  48.156  1.00  0.00    -0.190 NA
HETATM   12  N5  UNL     1      29.475   7.774  48.205  1.00  0.00    -0.292 N 
ENDROOT
BRANCH  12  13
HETATM   13  C17 UNL     1      29.032   9.119  48.320  1.00  0.00     0.212 A 
HETATM   14  C20 UNL     1      28.810   9.760  49.457  1.00  0.00     0.187 A 
HETATM   15  F1  UNL     1      29.233   8.472  49.691  1.00  0.00    -0.341 F 
BRANCH  13  16
HETATM   16  C18 UNL     1      28.854   9.749  47.022  1.00  0.00     0.055 C 
HETATM   17  C19 UNL     1      29.518  10.763  46.509  1.00  0.00     0.086 C 
HETATM   18 CL1  UNL     1      30.805  11.896  46.843  1.00  0.00    -0.097 Cl
ENDBRANCH  13  16
ENDBRANCH  12  13
BRANCH   1  19
HETATM   19  C6  UNL     1      33.460   5.258  46.809  1.00  0.00     0.124 C 
HETATM   20  C2  UNL     1      32.519   4.306  46.155  1.00  0.00     0.243 C 
HETATM   21  C3  UNL     1      32.229   3.053  46.920  1.00  0.00     0.039 C 
HETATM   22  C4  UNL     1      33.304   2.608  47.835  1.00  0.00     0.021 C 
HETATM   23  C5  UNL     1      34.599   3.325  47.752  1.00  0.00     0.114 C 
HETATM   24  N2  UNL     1      34.667   4.538  47.044  1.00  0.00    -0.414 N 
HETATM   25  H12 UNL     1      35.340   4.483  46.262  1.00  0.00     0.153 HD
BRANCH  20  26
HETATM   26  N1  UNL     1      33.199   3.881  44.916  1.00  0.00     0.085 N 
HETATM   27  C1  UNL     1      33.132   4.859  43.876  1.00  0.00     0.307 C 
HETATM   28  H4  UNL     1      34.174   3.644  45.146  1.00  0.00     0.315 HD
ENDBRANCH  20  26
ENDBRANCH   1  19
BRANCH   2  29
HETATM   29  C9  UNL     1      35.130   7.221  48.112  1.00  0.00     0.266 C 
HETATM   30  O1  UNL     1      35.800   6.553  48.951  1.00  0.00    -0.302 OA
ENDBRANCH   2  29
TORSDOF 5
ENDMDL
MODEL 9
REMARK VINA RESULT:      -6.9      3.621      6.225
REMARK  5 active torsions:
REMARK  status: ('A' for Active; 'I' for Inactive)
REMARK    1  A    between atoms: N1_2  and  C2_3 
REMARK    2  A    between atoms: C6_8  and  C7_9 
REMARK    3  A    between atoms: C8_10  and  C9_11 
REMARK    4  A    between atoms: N5_22  and  C17_23 
REMARK    5  A    between atoms: C17_23  and  C18_24 
ROOT
HETATM    1  C7  UNL     1      25.468   5.195  50.037  1.00  0.00     0.100 A 
HETATM    2  C8  UNL     1      26.507   4.308  49.447  1.00  0.00    -0.008 A 
HETATM    3  C10 UNL     1      27.561   4.656  48.728  1.00  0.00     0.013 A 
HETATM    4  C11 UNL     1      27.749   6.078  48.471  1.00  0.00     0.032 A 
HETATM    5  C12 UNL     1      26.918   7.038  48.920  1.00  0.00     0.064 A 
HETATM    6  C13 UNL     1      25.755   6.593  49.718  1.00  0.00     0.072 A 
HETATM    7  N3  UNL     1      25.030   7.587  50.098  1.00  0.00    -0.259 NA
HETATM    8  C14 UNL     1      25.307   8.945  49.790  1.00  0.00     0.158 A 
HETATM    9  C15 UNL     1      26.319   9.394  49.088  1.00  0.00     0.137 A 
HETATM   10  C16 UNL     1      26.582  10.769  48.787  1.00  0.00     0.119 C 
HETATM   11  N4  UNL     1      26.797  11.871  48.529  1.00  0.00    -0.190 NA
HETATM   12  N5  UNL     1      27.207   8.395  48.604  1.00  0.00    -0.292 N 
ENDROOT
BRANCH  12  13
HETATM   13  C17 UNL     1      28.364   8.665  47.824  1.00  0.00     0.212 A 
HETATM   14  C20 UNL     1      28.384   8.827  46.510  1.00  0.00     0.187 A 
HETATM   15  F1  UNL     1      27.106   8.580  46.958  1.00  0.00    -0.341 F 
BRANCH  13  16
HETATM   16  C18 UNL     1      29.563   8.765  48.640  1.00  0.00     0.055 C 
HETATM   17  C19 UNL     1      30.232   9.846  48.979  1.00  0.00     0.086 C 
HETATM   18 CL1  UNL     1      30.254  11.584  48.798  1.00  0.00    -0.097 Cl
ENDBRANCH  13  16
ENDBRANCH  12  13
BRANCH   1  19
HETATM   19  C6  UNL     1      24.136   4.681  49.571  1.00  0.00     0.124 C 
HETATM   20  C2  UNL     1      22.982   5.604  49.752  1.00  0.00     0.243 C 
HETATM   21  C3  UNL     1      22.552   5.832  51.167  1.00  0.00     0.039 C 
HETATM   22  C4  UNL     1      22.838   4.720  52.102  1.00  0.00     0.021 C 
HETATM   23  C5  UNL     1      23.330   3.453  51.510  1.00  0.00     0.114 C 
HETATM   24  N2  UNL     1      23.766   3.444  50.173  1.00  0.00    -0.414 N 
HETATM   25  H12 UNL     1      23.211   2.790  49.598  1.00  0.00     0.153 HD
BRANCH  20  26
HETATM   26  N1  UNL     1      21.847   4.942  49.081  1.00  0.00     0.085 N 
HETATM   27  C1  UNL     1      20.615   5.648  49.235  1.00  0.00     0.307 C 
HETATM   28  H4  UNL     1      22.086   4.817  48.088  1.00  0.00     0.315 HD
ENDBRANCH  20  26
ENDBRANCH   1  19
BRANCH   2  29
HETATM   29  C9  UNL     1      26.385   2.870  49.650  1.00  0.00     0.266 C 
HETATM   30  O1  UNL     1      26.638   2.327  50.764  1.00  0.00    -0.302 OA
ENDBRANCH   2  29
TORSDOF 5
ENDMDL
