MODEL 1
REMARK VINA RESULT:      -8.5      0.000      0.000
REMARK  4 active torsions:
REMARK  status: ('A' for Active; 'I' for Inactive)
REMARK    1  A    between atoms: C3_4  and  C4_5 
REMARK    2  A    between atoms: C5_6  and  S1_7 
REMARK    3  A    between atoms: S1_7  and  N2_8 
REMARK    4  A    between atoms: N3_22  and  O3_23 
ROOT
HETATM    1  C1  UNL     1      22.280   3.427  49.521  1.00  0.00     0.043 C 
HETATM    2  C2  UNL     1      23.461   3.977  49.359  1.00  0.00     0.032 C 
HETATM    3  N1  UNL     1      23.667   5.062  48.435  1.00  0.00    -0.378 N 
HETATM    4  C3  UNL     1      24.825   5.757  49.009  1.00  0.00     0.139 C 
HETATM    5  C6  UNL     1      25.638   4.593  49.413  1.00  0.00    -0.026 C 
HETATM    6  C7  UNL     1      26.924   4.457  49.250  1.00  0.00     0.022 C 
HETATM    7  C8  UNL     1      24.716   3.642  50.016  1.00  0.00     0.026 C 
HETATM    8  C9  UNL     1      24.946   2.712  50.919  1.00  0.00     0.071 A 
HETATM    9  C10 UNL     1      23.977   1.782  51.483  1.00  0.00     0.037 A 
HETATM   10  C11 UNL     1      24.543   0.973  52.380  1.00  0.00    -0.053 A 
HETATM   11  C12 UNL     1      24.062  -0.133  53.245  1.00  0.00     0.036 C 
HETATM   12  C13 UNL     1      25.261  -0.701  53.972  1.00  0.00     0.004 C 
HETATM   13  C14 UNL     1      26.364  -1.094  52.994  1.00  0.00     0.003 C 
HETATM   14  C15 UNL     1      26.771   0.053  52.130  1.00  0.00     0.032 C 
HETATM   15  C16 UNL     1      25.992   1.276  52.517  1.00  0.00     0.143 A 
HETATM   16  N3  UNL     1      26.146   2.360  51.587  1.00  0.00    -0.251 N 
HETATM   17  H3  UNL     1      23.138   5.308  47.570  1.00  0.00     0.160 HD
ENDROOT
BRANCH   4  18
HETATM   18  C4  UNL     1      25.469   6.627  48.029  1.00  0.00     0.016 C 
HETATM   19  C5  UNL     1      25.854   7.883  48.202  1.00  0.00     0.124 C 
BRANCH  19  20
HETATM   20  S1  UNL     1      25.764   8.948  49.563  1.00  0.00     0.229 S 
HETATM   21  O1  UNL     1      25.936  10.411  49.177  1.00  0.00    -0.207 OA
HETATM   22  O2  UNL     1      24.485   8.876  50.321  1.00  0.00    -0.207 OA
BRANCH  20  23
HETATM   23  N2  UNL     1      27.063   8.530  50.641  1.00  0.00    -0.226 NA
HETATM   24  H7  UNL     1      27.921   8.219  50.144  1.00  0.00     0.136 HD
HETATM   25  H8  UNL     1      27.255   9.293  51.332  1.00  0.00     0.136 HD
ENDBRANCH  20  23
ENDBRANCH  19  20
ENDBRANCH   4  18
BRANCH  16  26
HETATM   26  O3  UNL     1      27.352   2.903  51.455  1.00  0.00    -0.286 OA
HETATM   27  H21 UNL     1      28.076   2.456  51.950  1.00  0.00     0.244 HD
ENDBRANCH  16  26
TORSDOF 4
ENDMDL
MODEL 2
REMARK VINA RESULT:      -8.2      5.393      7.817
REMARK  4 active torsions:
REMARK  status: ('A' for Active; 'I' for Inactive)
REMARK    1  A    between atoms: C3_4  and  C4_5 
REMARK    2  A    between atoms: C5_6  and  S1_7 
REMARK    3  A    between atoms: S1_7  and  N2_8 
REMARK    4  A    between atoms: N3_22  and  O3_23 
ROOT
HETATM    1  C1  UNL     1      22.764  -1.132  55.134  1.00  0.00     0.043 C 
HETATM    2  C2  UNL     1      23.207  -0.432  54.116  1.00  0.00     0.032 C 
HETATM    3  N1  UNL     1      24.584  -0.019  54.027  1.00  0.00    -0.378 N 
HETATM    4  C3  UNL     1      24.786   0.114  52.580  1.00  0.00     0.139 C 
HETATM    5  C6  UNL     1      23.506   0.748  52.208  1.00  0.00    -0.026 C 
HETATM    6  C7  UNL     1      23.348   1.741  51.379  1.00  0.00     0.022 C 
HETATM    7  C8  UNL     1      22.472   0.045  52.954  1.00  0.00     0.026 C 
HETATM    8  C9  UNL     1      21.198  -0.120  52.665  1.00  0.00     0.071 A 
HETATM    9  C10 UNL     1      20.207  -0.833  53.459  1.00  0.00     0.037 A 
HETATM   10  C11 UNL     1      19.008  -0.815  52.873  1.00  0.00    -0.053 A 
HETATM   11  C12 UNL     1      17.669  -1.359  53.209  1.00  0.00     0.036 C 
HETATM   12  C13 UNL     1      16.704  -0.891  52.142  1.00  0.00     0.004 C 
HETATM   13  C14 UNL     1      16.751   0.626  51.984  1.00  0.00     0.003 C 
HETATM   14  C15 UNL     1      18.132   1.108  51.687  1.00  0.00     0.032 C 
HETATM   15  C16 UNL     1      19.064  -0.064  51.591  1.00  0.00     0.143 A 
HETATM   16  N3  UNL     1      20.448   0.320  51.545  1.00  0.00    -0.251 N 
HETATM   17  H3  UNL     1      25.279   0.148  54.788  1.00  0.00     0.160 HD
ENDROOT
BRANCH   4  18
HETATM   18  C4  UNL     1      25.964   0.921  52.274  1.00  0.00     0.016 C 
HETATM   19  C5  UNL     1      27.213   0.696  52.659  1.00  0.00     0.124 C 
BRANCH  19  20
HETATM   20  S1  UNL     1      27.924  -0.557  53.616  1.00  0.00     0.229 S 
HETATM   21  O1  UNL     1      27.525  -0.476  55.083  1.00  0.00    -0.207 OA
HETATM   22  O2  UNL     1      27.584  -1.939  53.178  1.00  0.00    -0.207 OA
BRANCH  20  23
HETATM   23  N2  UNL     1      29.651  -0.366  53.527  1.00  0.00    -0.226 NA
HETATM   24  H7  UNL     1      30.123  -1.155  53.043  1.00  0.00     0.136 HD
HETATM   25  H8  UNL     1      29.918   0.565  53.131  1.00  0.00     0.136 HD
ENDBRANCH  20  23
ENDBRANCH  19  20
ENDBRANCH   4  18
BRANCH  16  26
HETATM   26  O3  UNL     1      20.868   1.018  50.495  1.00  0.00    -0.286 OA
HETATM   27  H21 UNL     1      21.526   0.566  49.919  1.00  0.00     0.244 HD
ENDBRANCH  16  26
TORSDOF 4
ENDMDL
MODEL 3
REMARK VINA RESULT:      -7.9      4.362      7.108
REMARK  4 active torsions:
REMARK  status: ('A' for Active; 'I' for Inactive)
REMARK    1  A    between atoms: C3_4  and  C4_5 
REMARK    2  A    between atoms: C5_6  and  S1_7 
REMARK    3  A    between atoms: S1_7  and  N2_8 
REMARK    4  A    between atoms: N3_22  and  O3_23 
ROOT
HETATM    1  C1  UNL     1      24.850   2.979  50.661  1.00  0.00     0.043 C 
HETATM    2  C2  UNL     1      24.768   2.020  51.554  1.00  0.00     0.032 C 
HETATM    3  N1  UNL     1      25.927   1.270  51.964  1.00  0.00    -0.378 N 
HETATM    4  C3  UNL     1      25.565   0.835  53.317  1.00  0.00     0.139 C 
HETATM    5  C6  UNL     1      24.149   0.482  53.094  1.00  0.00    -0.026 C 
HETATM    6  C7  UNL     1      23.535  -0.573  53.552  1.00  0.00     0.022 C 
HETATM    7  C8  UNL     1      23.592   1.540  52.265  1.00  0.00     0.026 C 
HETATM    8  C9  UNL     1      22.348   1.963  52.170  1.00  0.00     0.071 A 
HETATM    9  C10 UNL     1      21.849   3.029  51.313  1.00  0.00     0.037 A 
HETATM   10  C11 UNL     1      20.536   3.204  51.467  1.00  0.00    -0.053 A 
HETATM   11  C12 UNL     1      19.523   4.114  50.876  1.00  0.00     0.036 C 
HETATM   12  C13 UNL     1      18.172   3.717  51.430  1.00  0.00     0.004 C 
HETATM   13  C14 UNL     1      17.899   2.233  51.206  1.00  0.00     0.003 C 
HETATM   14  C15 UNL     1      18.975   1.379  51.789  1.00  0.00     0.032 C 
HETATM   15  C16 UNL     1      19.994   2.246  52.467  1.00  0.00     0.143 A 
HETATM   16  N3  UNL     1      21.180   1.530  52.847  1.00  0.00    -0.251 N 
HETATM   17  H3  UNL     1      26.811   1.074  51.444  1.00  0.00     0.160 HD
ENDROOT
BRANCH   4  18
HETATM   18  C4  UNL     1      26.396  -0.280  53.763  1.00  0.00     0.016 C 
HETATM   19  C5  UNL     1      27.701  -0.265  53.997  1.00  0.00     0.124 C 
BRANCH  19  20
HETATM   20  S1  UNL     1      28.886   0.990  53.881  1.00  0.00     0.229 S 
HETATM   21  O1  UNL     1      28.524   2.047  52.847  1.00  0.00    -0.207 OA
HETATM   22  O2  UNL     1      29.131   1.729  55.150  1.00  0.00    -0.207 OA
BRANCH  20  23
HETATM   23  N2  UNL     1      30.380   0.253  53.382  1.00  0.00    -0.226 NA
HETATM   24  H7  UNL     1      31.047   0.112  54.167  1.00  0.00     0.136 HD
HETATM   25  H8  UNL     1      30.216  -0.624  52.834  1.00  0.00     0.136 HD
ENDBRANCH  20  23
ENDBRANCH  19  20
ENDBRANCH   4  18
BRANCH  16  26
HETATM   26  O3  UNL     1      21.065   0.573  53.763  1.00  0.00    -0.286 OA
HETATM   27  H21 UNL     1      21.872   0.029  53.913  1.00  0.00     0.244 HD
ENDBRANCH  16  26
TORSDOF 4
ENDMDL
MODEL 4
REMARK VINA RESULT:      -7.8      4.951      6.279
REMARK  4 active torsions:
REMARK  status: ('A' for Active; 'I' for Inactive)
REMARK    1  A    between atoms: C3_4  and  C4_5 
REMARK    2  A    between atoms: C5_6  and  S1_7 
REMARK    3  A    between atoms: S1_7  and  N2_8 
REMARK    4  A    between atoms: N3_22  and  O3_23 
ROOT
HETATM    1  C1  UNL     1      23.173   3.889  52.334  1.00  0.00     0.043 C 
HETATM    2  C2  UNL     1      22.713   2.659  52.368  1.00  0.00     0.032 C 
HETATM    3  N1  UNL     1      21.319   2.370  52.152  1.00  0.00    -0.378 N 
HETATM    4  C3  UNL     1      21.353   0.996  51.639  1.00  0.00     0.139 C 
HETATM    5  C6  UNL     1      22.387   0.426  52.524  1.00  0.00    -0.026 C 
HETATM    6  C7  UNL     1      22.347  -0.740  53.107  1.00  0.00     0.022 C 
HETATM    7  C8  UNL     1      23.442   1.424  52.613  1.00  0.00     0.026 C 
HETATM    8  C9  UNL     1      24.727   1.264  52.854  1.00  0.00     0.071 A 
HETATM    9  C10 UNL     1      25.738   2.309  52.936  1.00  0.00     0.037 A 
HETATM   10  C11 UNL     1      26.945   1.801  53.191  1.00  0.00    -0.053 A 
HETATM   11  C12 UNL     1      28.303   2.369  53.376  1.00  0.00     0.036 C 
HETATM   12  C13 UNL     1      29.231   1.230  53.737  1.00  0.00     0.004 C 
HETATM   13  C14 UNL     1      28.702   0.448  54.936  1.00  0.00     0.003 C 
HETATM   14  C15 UNL     1      27.318  -0.059  54.698  1.00  0.00     0.032 C 
HETATM   15  C16 UNL     1      26.873   0.322  53.317  1.00  0.00     0.143 A 
HETATM   16  N3  UNL     1      25.475   0.083  53.089  1.00  0.00    -0.251 N 
HETATM   17  H3  UNL     1      20.482   2.972  52.313  1.00  0.00     0.160 HD
ENDROOT
BRANCH   4  18
HETATM   18  C4  UNL     1      20.048   0.349  51.748  1.00  0.00     0.016 C 
HETATM   19  C5  UNL     1      18.875   0.840  51.374  1.00  0.00     0.124 C 
BRANCH  19  20
HETATM   20  S1  UNL     1      18.425   2.345  50.649  1.00  0.00     0.229 S 
HETATM   21  O1  UNL     1      19.389   2.783  49.555  1.00  0.00    -0.207 OA
HETATM   22  O2  UNL     1      17.073   2.352  50.026  1.00  0.00    -0.207 OA
BRANCH  20  23
HETATM   23  N2  UNL     1      18.457   3.556  51.897  1.00  0.00    -0.226 NA
HETATM   24  H7  UNL     1      19.183   4.283  51.740  1.00  0.00     0.136 HD
HETATM   25  H8  UNL     1      17.508   3.967  52.064  1.00  0.00     0.136 HD
ENDBRANCH  20  23
ENDBRANCH  19  20
ENDBRANCH   4  18
BRANCH  16  26
HETATM   26  O3  UNL     1      25.043  -1.173  53.118  1.00  0.00    -0.286 OA
HETATM   27  H21 UNL     1      24.346  -1.399  52.461  1.00  0.00     0.244 HD
ENDBRANCH  16  26
TORSDOF 4
ENDMDL
MODEL 5
REMARK VINA RESULT:      -7.5      1.881      2.700
REMARK  4 active torsions:
REMARK  status: ('A' for Active; 'I' for Inactive)
REMARK    1  A    between atoms: C3_4  and  C4_5 
REMARK    2  A    between atoms: C5_6  and  S1_7 
REMARK    3  A    between atoms: S1_7  and  N2_8 
REMARK    4  A    between atoms: N3_22  and  O3_23 
ROOT
HETATM    1  C1  UNL     1      27.848   4.752  48.569  1.00  0.00     0.043 C 
HETATM    2  C2  UNL     1      26.751   5.392  48.901  1.00  0.00     0.032 C 
HETATM    3  N1  UNL     1      26.439   6.687  48.355  1.00  0.00    -0.378 N 
HETATM    4  C3  UNL     1      24.974   6.724  48.433  1.00  0.00     0.139 C 
HETATM    5  C6  UNL     1      24.781   6.103  49.757  1.00  0.00    -0.026 C 
HETATM    6  C7  UNL     1      23.952   6.499  50.682  1.00  0.00     0.022 C 
HETATM    7  C8  UNL     1      25.699   4.975  49.817  1.00  0.00     0.026 C 
HETATM    8  C9  UNL     1      25.614   3.862  50.515  1.00  0.00     0.071 A 
HETATM    9  C10 UNL     1      26.573   2.767  50.536  1.00  0.00     0.037 A 
HETATM   10  C11 UNL     1      26.177   1.787  51.350  1.00  0.00    -0.053 A 
HETATM   11  C12 UNL     1      26.732   0.471  51.754  1.00  0.00     0.036 C 
HETATM   12  C13 UNL     1      25.809  -0.113  52.801  1.00  0.00     0.004 C 
HETATM   13  C14 UNL     1      25.594   0.865  53.952  1.00  0.00     0.003 C 
HETATM   14  C15 UNL     1      25.074   2.178  53.472  1.00  0.00     0.032 C 
HETATM   15  C16 UNL     1      24.877   2.128  51.985  1.00  0.00     0.143 A 
HETATM   16  N3  UNL     1      24.607   3.416  51.409  1.00  0.00    -0.251 N 
HETATM   17  H3  UNL     1      27.079   7.427  47.990  1.00  0.00     0.160 HD
ENDROOT
BRANCH   4  18
HETATM   18  C4  UNL     1      24.465   8.088  48.331  1.00  0.00     0.016 C 
HETATM   19  C5  UNL     1      25.118   9.211  48.597  1.00  0.00     0.124 C 
BRANCH  19  20
HETATM   20  S1  UNL     1      26.733   9.513  49.139  1.00  0.00     0.229 S 
HETATM   21  O1  UNL     1      27.784   9.065  48.132  1.00  0.00    -0.207 OA
HETATM   22  O2  UNL     1      27.031  10.942  49.430  1.00  0.00    -0.207 OA
BRANCH  20  23
HETATM   23  N2  UNL     1      26.975   8.597  50.597  1.00  0.00    -0.226 NA
HETATM   24  H7  UNL     1      27.411   9.152  51.359  1.00  0.00     0.136 HD
HETATM   25  H8  UNL     1      26.097   8.117  50.904  1.00  0.00     0.136 HD
ENDBRANCH  20  23
ENDBRANCH  19  20
ENDBRANCH   4  18
BRANCH  16  26
HETATM   26  O3  UNL     1      23.482   4.033  51.756  1.00  0.00    -0.286 OA
HETATM   27  H21 UNL     1      22.721   3.444  51.963  1.00  0.00     0.244 HD
ENDBRANCH  16  26
TORSDOF 4
ENDMDL
MODEL 6
REMARK VINA RESULT:      -7.3      1.604      2.075
REMARK  4 active torsions:
REMARK  status: ('A' for Active; 'I' for Inactive)
REMARK    1  A    between atoms: C3_4  and  C4_5 
REMARK    2  A    between atoms: C5_6  and  S1_7 
REMARK    3  A    between atoms: S1_7  and  N2_8 
REMARK    4  A    between atoms: N3_22  and  O3_23 
ROOT
HETATM    1  C1  UNL     1      22.458   1.592  51.463  1.00  0.00     0.043 C 
HETATM    2  C2  UNL     1      23.257   2.427  50.840  1.00  0.00     0.032 C 
HETATM    3  N1  UNL     1      22.787   3.253  49.758  1.00  0.00    -0.378 N 
HETATM    4  C3  UNL     1      23.703   4.399  49.809  1.00  0.00     0.139 C 
HETATM    5  C6  UNL     1      24.971   3.691  50.076  1.00  0.00    -0.026 C 
HETATM    6  C7  UNL     1      26.122   3.931  49.513  1.00  0.00     0.022 C 
HETATM    7  C8  UNL     1      24.670   2.681  51.079  1.00  0.00     0.026 C 
HETATM    8  C9  UNL     1      25.462   2.128  51.974  1.00  0.00     0.071 A 
HETATM    9  C10 UNL     1      25.101   1.112  52.953  1.00  0.00     0.037 A 
HETATM   10  C11 UNL     1      26.145   0.775  53.713  1.00  0.00    -0.053 A 
HETATM   11  C12 UNL     1      26.362  -0.173  54.834  1.00  0.00     0.036 C 
HETATM   12  C13 UNL     1      27.832  -0.132  55.190  1.00  0.00     0.004 C 
HETATM   13  C14 UNL     1      28.703  -0.388  53.964  1.00  0.00     0.003 C 
HETATM   14  C15 UNL     1      28.405   0.573  52.863  1.00  0.00     0.032 C 
HETATM   15  C16 UNL     1      27.353   1.544  53.313  1.00  0.00     0.143 A 
HETATM   16  N3  UNL     1      26.836   2.351  52.244  1.00  0.00    -0.251 N 
HETATM   17  H3  UNL     1      21.997   3.095  49.095  1.00  0.00     0.160 HD
ENDROOT
BRANCH   4  18
HETATM   18  C4  UNL     1      23.690   5.153  48.559  1.00  0.00     0.016 C 
HETATM   19  C5  UNL     1      23.720   6.470  48.416  1.00  0.00     0.124 C 
BRANCH  19  20
HETATM   20  S1  UNL     1      23.782   7.761  49.566  1.00  0.00     0.229 S 
HETATM   21  O1  UNL     1      23.766   9.135  48.909  1.00  0.00    -0.207 OA
HETATM   22  O2  UNL     1      22.665   7.768  50.550  1.00  0.00    -0.207 OA
BRANCH  20  23
HETATM   23  N2  UNL     1      25.279   7.611  50.440  1.00  0.00    -0.226 NA
HETATM   24  H7  UNL     1      25.183   7.068  51.321  1.00  0.00     0.136 HD
HETATM   25  H8  UNL     1      26.049   7.251  49.830  1.00  0.00     0.136 HD
ENDBRANCH  20  23
ENDBRANCH  19  20
ENDBRANCH   4  18
BRANCH  16  26
HETATM   26  O3  UNL     1      27.667   3.195  51.641  1.00  0.00    -0.286 OA
HETATM   27  H21 UNL     1      27.324   3.616  50.820  1.00  0.00     0.244 HD
ENDBRANCH  16  26
TORSDOF 4
ENDMDL
MODEL 7
REMARK VINA RESULT:      -7.1      3.119      3.394
REMARK  4 active torsions:
REMARK  status: ('A' for Active; 'I' for Inactive)
REMARK    1  A    between atoms: C3_4  and  C4_5 
REMARK    2  A    between atoms: C5_6  and  S1_7 
REMARK    3  A    between atoms: S1_7  and  N2_8 
REMARK    4  A    between atoms: N3_22  and  O3_23 
ROOT
HETATM    1  C1  UNL     1      22.098   1.332  51.147  1.00  0.00     0.043 C 
HETATM    2  C2  UNL     1      22.869   2.197  50.529  1.00  0.00     0.032 C 
HETATM    3  N1  UNL     1      22.389   2.973  49.415  1.00  0.00    -0.378 N 
HETATM    4  C3  UNL     1      23.239   4.168  49.468  1.00  0.00     0.139 C 
HETATM    5  C6  UNL     1      24.534   3.538  49.788  1.00  0.00    -0.026 C 
HETATM    6  C7  UNL     1      25.687   3.830  49.255  1.00  0.00     0.022 C 
HETATM    7  C8  UNL     1      24.258   2.534  50.804  1.00  0.00     0.026 C 
HETATM    8  C9  UNL     1      25.051   2.045  51.735  1.00  0.00     0.071 A 
HETATM    9  C10 UNL     1      24.716   1.031  52.726  1.00  0.00     0.037 A 
HETATM   10  C11 UNL     1      25.752   0.769  53.524  1.00  0.00    -0.053 A 
HETATM   11  C12 UNL     1      25.986  -0.142  54.672  1.00  0.00     0.036 C 
HETATM   12  C13 UNL     1      27.440  -0.012  55.071  1.00  0.00     0.004 C 
HETATM   13  C14 UNL     1      28.361  -0.246  53.878  1.00  0.00     0.003 C 
HETATM   14  C15 UNL     1      28.045   0.674  52.747  1.00  0.00     0.032 C 
HETATM   15  C16 UNL     1      26.928   1.594  53.143  1.00  0.00     0.143 A 
HETATM   16  N3  UNL     1      26.402   2.350  52.040  1.00  0.00    -0.251 N 
HETATM   17  H3  UNL     1      21.630   2.758  48.732  1.00  0.00     0.160 HD
ENDROOT
BRANCH   4  18
HETATM   18  C4  UNL     1      23.223   4.894  48.201  1.00  0.00     0.016 C 
HETATM   19  C5  UNL     1      22.218   5.587  47.685  1.00  0.00     0.124 C 
BRANCH  19  20
HETATM   20  S1  UNL     1      20.614   5.903  48.253  1.00  0.00     0.229 S 
HETATM   21  O1  UNL     1      19.756   6.623  47.222  1.00  0.00    -0.207 OA
HETATM   22  O2  UNL     1      19.847   4.689  48.645  1.00  0.00    -0.207 OA
BRANCH  20  23
HETATM   23  N2  UNL     1      20.747   6.938  49.645  1.00  0.00    -0.226 NA
HETATM   24  H7  UNL     1      20.876   7.939  49.396  1.00  0.00     0.136 HD
HETATM   25  H8  UNL     1      19.955   6.791  50.314  1.00  0.00     0.136 HD
ENDBRANCH  20  23
ENDBRANCH  19  20
ENDBRANCH   4  18
BRANCH  16  26
HETATM   26  O3  UNL     1      27.204   3.226  51.444  1.00  0.00    -0.286 OA
HETATM   27  H21 UNL     1      26.864   3.609  50.603  1.00  0.00     0.244 HD
ENDBRANCH  16  26
TORSDOF 4
ENDMDL
MODEL 8
REMARK VINA RESULT:      -7.1      3.300      4.115
REMARK  4 active torsions:
REMARK  status: ('A' for Active; 'I' for Inactive)
REMARK    1  A    between atoms: C3_4  and  C4_5 
REMARK    2  A    between atoms: C5_6  and  S1_7 
REMARK    3  A    between atoms: S1_7  and  N2_8 
REMARK    4  A    between atoms: N3_22  and  O3_23 
ROOT
HETATM    1  C1  UNL     1      26.417   3.325  49.420  1.00  0.00     0.043 C 
HETATM    2  C2  UNL     1      25.955   4.509  49.748  1.00  0.00     0.032 C 
HETATM    3  N1  UNL     1      26.786   5.684  49.696  1.00  0.00    -0.378 N 
HETATM    4  C3  UNL     1      25.808   6.759  49.488  1.00  0.00     0.139 C 
HETATM    5  C6  UNL     1      24.742   6.305  50.401  1.00  0.00    -0.026 C 
HETATM    6  C7  UNL     1      24.058   7.052  51.222  1.00  0.00     0.022 C 
HETATM    7  C8  UNL     1      24.619   4.868  50.201  1.00  0.00     0.026 C 
HETATM    8  C9  UNL     1      23.576   4.084  50.382  1.00  0.00     0.071 A 
HETATM    9  C10 UNL     1      23.517   2.645  50.168  1.00  0.00     0.037 A 
HETATM   10  C11 UNL     1      22.304   2.161  50.442  1.00  0.00    -0.053 A 
HETATM   11  C12 UNL     1      21.680   0.815  50.406  1.00  0.00     0.036 C 
HETATM   12  C13 UNL     1      20.270   0.950  50.939  1.00  0.00     0.004 C 
HETATM   13  C14 UNL     1      20.261   1.617  52.311  1.00  0.00     0.003 C 
HETATM   14  C15 UNL     1      20.938   2.946  52.283  1.00  0.00     0.032 C 
HETATM   15  C16 UNL     1      21.395   3.250  50.886  1.00  0.00     0.143 A 
HETATM   16  N3  UNL     1      22.261   4.394  50.812  1.00  0.00    -0.251 N 
HETATM   17  H3  UNL     1      27.822   5.770  49.783  1.00  0.00     0.160 HD
ENDROOT
BRANCH   4  18
HETATM   18  C4  UNL     1      26.368   8.065  49.824  1.00  0.00     0.016 C 
HETATM   19  C5  UNL     1      27.482   8.607  49.352  1.00  0.00     0.124 C 
BRANCH  19  20
HETATM   20  S1  UNL     1      28.661   8.037  48.222  1.00  0.00     0.229 S 
HETATM   21  O1  UNL     1      28.038   7.525  46.930  1.00  0.00    -0.207 OA
HETATM   22  O2  UNL     1      29.668   9.054  47.813  1.00  0.00    -0.207 OA
BRANCH  20  23
HETATM   23  N2  UNL     1      29.499   6.707  48.967  1.00  0.00    -0.226 NA
HETATM   24  H7  UNL     1      29.444   6.722  50.005  1.00  0.00     0.136 HD
HETATM   25  H8  UNL     1      29.203   5.787  48.564  1.00  0.00     0.136 HD
ENDBRANCH  20  23
ENDBRANCH  19  20
ENDBRANCH   4  18
BRANCH  16  26
HETATM   26  O3  UNL     1      21.759   5.579  51.140  1.00  0.00    -0.286 OA
HETATM   27  H21 UNL     1      21.364   6.093  50.399  1.00  0.00     0.244 HD
ENDBRANCH  16  26
TORSDOF 4
ENDMDL
MODEL 9
REMARK VINA RESULT:      -6.9      4.097      5.635
REMARK  4 active torsions:
REMARK  status: ('A' for Active; 'I' for Inactive)
REMARK    1  A    between atoms: C3_4  and  C4_5 
REMARK    2  A    between atoms: C5_6  and  S1_7 
REMARK    3  A    between atoms: S1_7  and  N2_8 
REMARK    4  A    between atoms: N3_22  and  O3_23 
ROOT
HETATM    1  C1  UNL     1      20.763   0.220  53.047  1.00  0.00     0.043 C 
HETATM    2  C2  UNL     1      20.971   1.372  52.454  1.00  0.00     0.032 C 
HETATM    3  N1  UNL     1      19.897   2.107  51.837  1.00  0.00    -0.378 N 
HETATM    4  C3  UNL     1      20.377   3.492  51.904  1.00  0.00     0.139 C 
HETATM    5  C6  UNL     1      21.796   3.280  51.559  1.00  0.00    -0.026 C 
HETATM    6  C7  UNL     1      22.512   4.010  50.750  1.00  0.00     0.022 C 
HETATM    7  C8  UNL     1      22.222   2.099  52.296  1.00  0.00     0.026 C 
HETATM    8  C9  UNL     1      23.424   1.762  52.715  1.00  0.00     0.071 A 
HETATM    9  C10 UNL     1      23.790   0.558  53.447  1.00  0.00     0.037 A 
HETATM   10  C11 UNL     1      25.095   0.531  53.721  1.00  0.00    -0.053 A 
HETATM   11  C12 UNL     1      26.000  -0.415  54.420  1.00  0.00     0.036 C 
HETATM   12  C13 UNL     1      27.409   0.122  54.294  1.00  0.00     0.004 C 
HETATM   13  C14 UNL     1      27.770   0.385  52.835  1.00  0.00     0.003 C 
HETATM   14  C15 UNL     1      26.798   1.311  52.184  1.00  0.00     0.032 C 
HETATM   15  C16 UNL     1      25.767   1.744  53.184  1.00  0.00     0.143 A 
HETATM   16  N3  UNL     1      24.662   2.442  52.589  1.00  0.00    -0.251 N 
HETATM   17  H3  UNL     1      18.997   1.761  51.438  1.00  0.00     0.160 HD
ENDROOT
BRANCH   4  18
HETATM   18  C4  UNL     1      19.658   4.356  50.971  1.00  0.00     0.016 C 
HETATM   19  C5  UNL     1      19.108   4.008  49.817  1.00  0.00     0.124 C 
BRANCH  19  20
HETATM   20  S1  UNL     1      19.017   2.494  48.984  1.00  0.00     0.229 S 
HETATM   21  O1  UNL     1      20.380   1.842  48.798  1.00  0.00    -0.207 OA
HETATM   22  O2  UNL     1      18.165   1.471  49.651  1.00  0.00    -0.207 OA
BRANCH  20  23
HETATM   23  N2  UNL     1      18.361   2.805  47.403  1.00  0.00    -0.226 NA
HETATM   24  H7  UNL     1      19.081   3.103  46.716  1.00  0.00     0.136 HD
HETATM   25  H8  UNL     1      17.785   2.003  47.058  1.00  0.00     0.136 HD
ENDBRANCH  20  23
ENDBRANCH  19  20
ENDBRANCH   4  18
BRANCH  16  26
HETATM   26  O3  UNL     1      24.904   3.612  52.006  1.00  0.00    -0.286 OA
HETATM   27  H21 UNL     1      24.548   4.402  52.474  1.00  0.00     0.244 HD
ENDBRANCH  16  26
TORSDOF 4
ENDMDL
