MODEL 1
REMARK VINA RESULT:      -7.1      0.000      0.000
REMARK  5 active torsions:
REMARK  status: ('A' for Active; 'I' for Inactive)
REMARK    1  A    between atoms: C2_2  and  C3_3 
REMARK    2  A    between atoms: C4_4  and  C5_5 
REMARK    3  A    between atoms: C5_5  and  C6_6 
REMARK    4  A    between atoms: C6_6  and  C7_7 
REMARK    5  A    between atoms: C11_11  and  N1_12 
REMARK       I    between atoms: N1_12  and  C12_13 
ROOT
HETATM    1  C3  UNL     1      24.079   0.184  53.469  1.00  0.00     0.038 C 
HETATM    2  C4  UNL     1      24.064   1.014  52.450  1.00  0.00    -0.006 C 
HETATM    3  C11 UNL     1      24.940   2.114  51.992  1.00  0.00     0.143 C 
HETATM    4  C14 UNL     1      26.379   1.892  52.261  1.00  0.00     0.015 C 
HETATM    5  C15 UNL     1      27.074   1.188  53.159  1.00  0.00     0.006 A 
HETATM    6  C16 UNL     1      28.514   1.351  52.935  1.00  0.00     0.192 A 
HETATM    7  N2  UNL     1      29.216   0.601  53.958  1.00  0.00    -0.278 NA
HETATM    8  C17 UNL     1      28.651  -0.091  54.880  1.00  0.00     0.229 A 
HETATM    9  N3  UNL     1      27.251  -0.252  55.074  1.00  0.00    -0.224 NA
HETATM   10  C18 UNL     1      26.480   0.382  54.218  1.00  0.00     0.137 A 
HETATM   11  N4  UNL     1      25.099   0.139  54.491  1.00  0.00    -0.340 N 
HETATM   12  H24 UNL     1      24.826  -0.083  55.468  1.00  0.00     0.167 HD
ENDROOT
BRANCH   2  13
HETATM   13  C5  UNL     1      22.937   0.839  51.555  1.00  0.00     0.008 C 
BRANCH  13  14
HETATM   14  C6  UNL     1      21.881   1.008  50.828  1.00  0.00    -0.018 C 
BRANCH  14  15
HETATM   15  C7  UNL     1      20.781   1.502  50.002  1.00  0.00    -0.034 C 
HETATM   16  C8  UNL     1      20.481   2.966  50.256  1.00  0.00     0.018 C 
HETATM   17  C9  UNL     1      19.517   0.727  50.204  1.00  0.00     0.018 C 
HETATM   18  C10 UNL     1      21.181   1.367  48.529  1.00  0.00     0.018 C 
ENDBRANCH  14  15
ENDBRANCH  13  14
ENDBRANCH   2  13
BRANCH   1  19
HETATM   19  C2  UNL     1      23.029  -0.811  53.647  1.00  0.00     0.021 C 
HETATM   20  C1  UNL     1      22.316  -0.914  54.757  1.00  0.00     0.016 C 
ENDBRANCH   1  19
BRANCH   3  21
HETATM   21  N1  UNL     1      24.556   3.385  52.632  1.00  0.00    -0.349 N 
HETATM   22  C12 UNL     1      23.937   4.398  51.845  1.00  0.00     0.214 C 
HETATM   23  C13 UNL     1      23.475   5.733  52.272  1.00  0.00     0.117 C 
HETATM   24  O1  UNL     1      23.723   4.204  50.614  1.00  0.00    -0.274 OA
HETATM   25  H16 UNL     1      24.677   3.660  53.615  1.00  0.00     0.163 HD
ENDBRANCH   3  21
TORSDOF 5
ENDMDL
MODEL 2
REMARK VINA RESULT:      -6.9      2.134      5.007
REMARK  5 active torsions:
REMARK  status: ('A' for Active; 'I' for Inactive)
REMARK    1  A    between atoms: C2_2  and  C3_3 
REMARK    2  A    between atoms: C4_4  and  C5_5 
REMARK    3  A    between atoms: C5_5  and  C6_6 
REMARK    4  A    between atoms: C6_6  and  C7_7 
REMARK    5  A    between atoms: C11_11  and  N1_12 
REMARK       I    between atoms: N1_12  and  C12_13 
ROOT
HETATM    1  C3  UNL     1      25.288   1.596  52.337  1.00  0.00     0.038 C 
HETATM    2  C4  UNL     1      24.358   2.347  51.792  1.00  0.00    -0.006 C 
HETATM    3  C11 UNL     1      22.909   2.189  51.542  1.00  0.00     0.143 C 
HETATM    4  C14 UNL     1      22.193   1.425  52.590  1.00  0.00     0.015 C 
HETATM    5  C15 UNL     1      22.540   0.489  53.479  1.00  0.00     0.006 A 
HETATM    6  C16 UNL     1      21.380   0.089  54.281  1.00  0.00     0.192 A 
HETATM    7  N2  UNL     1      21.804  -0.953  55.195  1.00  0.00    -0.278 NA
HETATM    8  C17 UNL     1      22.998  -1.416  55.279  1.00  0.00     0.229 A 
HETATM    9  N3  UNL     1      24.117  -1.005  54.503  1.00  0.00    -0.224 NA
HETATM   10  C18 UNL     1      23.882  -0.062  53.618  1.00  0.00     0.137 A 
HETATM   11  N4  UNL     1      25.073   0.287  52.909  1.00  0.00    -0.340 N 
HETATM   12  H24 UNL     1      25.811  -0.437  52.808  1.00  0.00     0.167 HD
ENDROOT
BRANCH   2  13
HETATM   13  C5  UNL     1      24.832   3.629  51.310  1.00  0.00     0.008 C 
BRANCH  13  14
HETATM   14  C6  UNL     1      25.118   4.666  50.593  1.00  0.00    -0.018 C 
BRANCH  14  15
HETATM   15  C7  UNL     1      25.435   5.631  49.541  1.00  0.00    -0.034 C 
HETATM   16  C8  UNL     1      24.324   5.755  48.517  1.00  0.00     0.018 C 
HETATM   17  C9  UNL     1      26.700   5.296  48.816  1.00  0.00     0.018 C 
HETATM   18  C10 UNL     1      25.618   7.009  50.186  1.00  0.00     0.018 C 
ENDBRANCH  14  15
ENDBRANCH  13  14
ENDBRANCH   2  13
BRANCH   1  19
HETATM   19  C2  UNL     1      26.669   2.053  52.426  1.00  0.00     0.021 C 
HETATM   20  C1  UNL     1      27.419   1.870  53.501  1.00  0.00     0.016 C 
ENDBRANCH   1  19
BRANCH   3  21
HETATM   21  N1  UNL     1      22.674   1.510  50.256  1.00  0.00    -0.349 N 
HETATM   22  C12 UNL     1      22.121   2.249  49.172  1.00  0.00     0.214 C 
HETATM   23  C13 UNL     1      21.805   1.778  47.809  1.00  0.00     0.117 C 
HETATM   24  O1  UNL     1      21.835   3.473  49.317  1.00  0.00    -0.274 OA
HETATM   25  H16 UNL     1      22.863   0.528  50.015  1.00  0.00     0.163 HD
ENDBRANCH   3  21
TORSDOF 5
ENDMDL
MODEL 3
REMARK VINA RESULT:      -6.7      1.638      2.326
REMARK  5 active torsions:
REMARK  status: ('A' for Active; 'I' for Inactive)
REMARK    1  A    between atoms: C2_2  and  C3_3 
REMARK    2  A    between atoms: C4_4  and  C5_5 
REMARK    3  A    between atoms: C5_5  and  C6_6 
REMARK    4  A    between atoms: C6_6  and  C7_7 
REMARK    5  A    between atoms: C11_11  and  N1_12 
REMARK       I    between atoms: N1_12  and  C12_13 
ROOT
HETATM    1  C3  UNL     1      22.481  -0.129  53.299  1.00  0.00     0.038 C 
HETATM    2  C4  UNL     1      22.293   0.640  52.249  1.00  0.00    -0.006 C 
HETATM    3  C11 UNL     1      23.099   1.666  51.555  1.00  0.00     0.143 C 
HETATM    4  C14 UNL     1      24.555   1.389  51.548  1.00  0.00     0.015 C 
HETATM    5  C15 UNL     1      25.389   0.704  52.336  1.00  0.00     0.006 A 
HETATM    6  C16 UNL     1      26.759   0.782  51.821  1.00  0.00     0.192 A 
HETATM    7  N2  UNL     1      27.623   0.058  52.733  1.00  0.00    -0.278 NA
HETATM    8  C17 UNL     1      27.229  -0.550  53.792  1.00  0.00     0.229 A 
HETATM    9  N3  UNL     1      25.892  -0.629  54.269  1.00  0.00    -0.224 NA
HETATM   10  C18 UNL     1      24.989  -0.009  53.542  1.00  0.00     0.137 A 
HETATM   11  N4  UNL     1      23.683  -0.165  54.099  1.00  0.00    -0.340 N 
HETATM   12  H24 UNL     1      23.603  -0.317  55.124  1.00  0.00     0.167 HD
ENDROOT
BRANCH   2  13
HETATM   13  C5  UNL     1      21.004   0.470  51.609  1.00  0.00     0.008 C 
BRANCH  13  14
HETATM   14  C6  UNL     1      19.741   0.437  51.331  1.00  0.00    -0.018 C 
BRANCH  14  15
HETATM   15  C7  UNL     1      18.279   0.403  51.333  1.00  0.00    -0.034 C 
HETATM   16  C8  UNL     1      17.712  -0.054  50.003  1.00  0.00     0.018 C 
HETATM   17  C9  UNL     1      17.674   1.731  51.664  1.00  0.00     0.018 C 
HETATM   18  C10 UNL     1      17.817  -0.599  52.395  1.00  0.00     0.018 C 
ENDBRANCH  14  15
ENDBRANCH  13  14
ENDBRANCH   2  13
BRANCH   1  19
HETATM   19  C2  UNL     1      21.451  -1.058  53.746  1.00  0.00     0.021 C 
HETATM   20  C1  UNL     1      21.665  -1.975  54.677  1.00  0.00     0.016 C 
ENDBRANCH   1  19
BRANCH   3  21
HETATM   21  N1  UNL     1      22.900   2.990  52.171  1.00  0.00    -0.349 N 
HETATM   22  C12 UNL     1      22.397   4.057  51.374  1.00  0.00     0.214 C 
HETATM   23  C13 UNL     1      22.122   5.450  51.778  1.00  0.00     0.117 C 
HETATM   24  O1  UNL     1      22.127   3.867  50.153  1.00  0.00    -0.274 OA
HETATM   25  H16 UNL     1      23.080   3.269  53.145  1.00  0.00     0.163 HD
ENDBRANCH   3  21
TORSDOF 5
ENDMDL
MODEL 4
REMARK VINA RESULT:      -6.6      2.258      3.104
REMARK  5 active torsions:
REMARK  status: ('A' for Active; 'I' for Inactive)
REMARK    1  A    between atoms: C2_2  and  C3_3 
REMARK    2  A    between atoms: C4_4  and  C5_5 
REMARK    3  A    between atoms: C5_5  and  C6_6 
REMARK    4  A    between atoms: C6_6  and  C7_7 
REMARK    5  A    between atoms: C11_11  and  N1_12 
REMARK       I    between atoms: N1_12  and  C12_13 
ROOT
HETATM    1  C3  UNL     1      23.014   1.781  51.138  1.00  0.00     0.038 C 
HETATM    2  C4  UNL     1      23.718   2.512  50.303  1.00  0.00    -0.006 C 
HETATM    3  C11 UNL     1      25.057   3.138  50.345  1.00  0.00     0.143 C 
HETATM    4  C14 UNL     1      26.071   2.349  51.084  1.00  0.00     0.015 C 
HETATM    5  C15 UNL     1      26.030   1.448  52.069  1.00  0.00     0.006 A 
HETATM    6  C16 UNL     1      27.384   0.995  52.405  1.00  0.00     0.192 A 
HETATM    7  N2  UNL     1      27.283   0.053  53.502  1.00  0.00    -0.278 NA
HETATM    8  C17 UNL     1      26.186  -0.316  54.056  1.00  0.00     0.229 A 
HETATM    9  N3  UNL     1      24.878   0.122  53.707  1.00  0.00    -0.224 NA
HETATM   10  C18 UNL     1      24.811   0.991  52.723  1.00  0.00     0.137 A 
HETATM   11  N4  UNL     1      23.456   1.349  52.444  1.00  0.00    -0.340 N 
HETATM   12  H24 UNL     1      22.765   1.289  53.217  1.00  0.00     0.167 HD
ENDROOT
BRANCH   2  13
HETATM   13  C5  UNL     1      23.052   2.792  49.047  1.00  0.00     0.008 C 
BRANCH  13  14
HETATM   14  C6  UNL     1      22.538   3.359  48.004  1.00  0.00    -0.018 C 
BRANCH  14  15
HETATM   15  C7  UNL     1      21.848   4.209  47.035  1.00  0.00    -0.034 C 
HETATM   16  C8  UNL     1      20.370   4.352  47.344  1.00  0.00     0.018 C 
HETATM   17  C9  UNL     1      21.982   3.708  45.632  1.00  0.00     0.018 C 
HETATM   18  C10 UNL     1      22.464   5.610  47.093  1.00  0.00     0.018 C 
ENDBRANCH  14  15
ENDBRANCH  13  14
ENDBRANCH   2  13
BRANCH   1  19
HETATM   19  C2  UNL     1      21.678   1.315  50.789  1.00  0.00     0.021 C 
HETATM   20  C1  UNL     1      21.119   0.252  51.346  1.00  0.00     0.016 C 
ENDBRANCH   1  19
BRANCH   3  21
HETATM   21  N1  UNL     1      24.990   4.472  50.966  1.00  0.00    -0.349 N 
HETATM   22  C12 UNL     1      25.214   5.625  50.160  1.00  0.00     0.214 C 
HETATM   23  C13 UNL     1      25.195   7.043  50.567  1.00  0.00     0.117 C 
HETATM   24  O1  UNL     1      25.469   5.499  48.928  1.00  0.00    -0.274 OA
HETATM   25  H16 UNL     1      24.792   4.704  51.949  1.00  0.00     0.163 HD
ENDBRANCH   3  21
TORSDOF 5
ENDMDL
MODEL 5
REMARK VINA RESULT:      -6.6      2.582      5.715
REMARK  5 active torsions:
REMARK  status: ('A' for Active; 'I' for Inactive)
REMARK    1  A    between atoms: C2_2  and  C3_3 
REMARK    2  A    between atoms: C4_4  and  C5_5 
REMARK    3  A    between atoms: C5_5  and  C6_6 
REMARK    4  A    between atoms: C6_6  and  C7_7 
REMARK    5  A    between atoms: C11_11  and  N1_12 
REMARK       I    between atoms: N1_12  and  C12_13 
ROOT
HETATM    1  C3  UNL     1      22.411   1.891  49.693  1.00  0.00     0.038 C 
HETATM    2  C4  UNL     1      22.840   1.658  50.913  1.00  0.00    -0.006 C 
HETATM    3  C11 UNL     1      23.942   2.184  51.746  1.00  0.00     0.143 C 
HETATM    4  C14 UNL     1      24.237   3.619  51.524  1.00  0.00     0.015 C 
HETATM    5  C15 UNL     1      24.077   4.468  50.504  1.00  0.00     0.006 A 
HETATM    6  C16 UNL     1      24.566   5.802  50.867  1.00  0.00     0.192 A 
HETATM    7  N2  UNL     1      24.407   6.668  49.716  1.00  0.00    -0.278 NA
HETATM    8  C17 UNL     1      23.908   6.308  48.589  1.00  0.00     0.229 A 
HETATM    9  N3  UNL     1      23.423   5.013  48.258  1.00  0.00    -0.224 NA
HETATM   10  C18 UNL     1      23.509   4.111  49.211  1.00  0.00     0.137 A 
HETATM   11  N4  UNL     1      22.981   2.855  48.780  1.00  0.00    -0.340 N 
HETATM   12  H24 UNL     1      23.008   2.636  47.765  1.00  0.00     0.167 HD
ENDROOT
BRANCH   2  13
HETATM   13  C5  UNL     1      22.080   0.653  51.631  1.00  0.00     0.008 C 
BRANCH  13  14
HETATM   14  C6  UNL     1      21.516  -0.075  52.538  1.00  0.00    -0.018 C 
BRANCH  14  15
HETATM   15  C7  UNL     1      20.837  -0.620  53.713  1.00  0.00    -0.034 C 
HETATM   16  C8  UNL     1      21.531  -1.853  54.258  1.00  0.00     0.018 C 
HETATM   17  C9  UNL     1      19.409  -0.974  53.440  1.00  0.00     0.018 C 
HETATM   18  C10 UNL     1      20.853   0.439  54.819  1.00  0.00     0.018 C 
ENDBRANCH  14  15
ENDBRANCH  13  14
ENDBRANCH   2  13
BRANCH   1  19
HETATM   19  C2  UNL     1      21.266   1.174  49.146  1.00  0.00     0.021 C 
HETATM   20  C1  UNL     1      20.119   1.767  48.856  1.00  0.00     0.016 C 
ENDBRANCH   1  19
BRANCH   3  21
HETATM   21  N1  UNL     1      25.185   1.431  51.501  1.00  0.00    -0.349 N 
HETATM   22  C12 UNL     1      25.637   0.501  52.481  1.00  0.00     0.214 C 
HETATM   23  C13 UNL     1      26.840  -0.353  52.445  1.00  0.00     0.117 C 
HETATM   24  O1  UNL     1      24.978   0.330  53.547  1.00  0.00    -0.274 OA
HETATM   25  H16 UNL     1      25.804   1.480  50.681  1.00  0.00     0.163 HD
ENDBRANCH   3  21
TORSDOF 5
ENDMDL
MODEL 6
REMARK VINA RESULT:      -6.5      2.071      4.345
REMARK  5 active torsions:
REMARK  status: ('A' for Active; 'I' for Inactive)
REMARK    1  A    between atoms: C2_2  and  C3_3 
REMARK    2  A    between atoms: C4_4  and  C5_5 
REMARK    3  A    between atoms: C5_5  and  C6_6 
REMARK    4  A    between atoms: C6_6  and  C7_7 
REMARK    5  A    between atoms: C11_11  and  N1_12 
REMARK       I    between atoms: N1_12  and  C12_13 
ROOT
HETATM    1  C3  UNL     1      25.681   2.855  51.223  1.00  0.00     0.038 C 
HETATM    2  C4  UNL     1      24.514   2.902  51.825  1.00  0.00    -0.006 C 
HETATM    3  C11 UNL     1      23.765   1.987  52.714  1.00  0.00     0.143 C 
HETATM    4  C14 UNL     1      24.621   1.205  53.636  1.00  0.00     0.015 C 
HETATM    5  C15 UNL     1      25.888   0.781  53.617  1.00  0.00     0.006 A 
HETATM    6  C16 UNL     1      26.195   0.028  54.837  1.00  0.00     0.192 A 
HETATM    7  N2  UNL     1      27.563  -0.440  54.744  1.00  0.00    -0.278 NA
HETATM    8  C17 UNL     1      28.354  -0.210  53.759  1.00  0.00     0.229 A 
HETATM    9  N3  UNL     1      28.045   0.537  52.589  1.00  0.00    -0.224 NA
HETATM   10  C18 UNL     1      26.825   1.024  52.528  1.00  0.00     0.137 A 
HETATM   11  N4  UNL     1      26.627   1.768  51.324  1.00  0.00    -0.340 N 
HETATM   12  H24 UNL     1      27.196   1.513  50.494  1.00  0.00     0.167 HD
ENDROOT
BRANCH   2  13
HETATM   13  C5  UNL     1      23.761   4.114  51.574  1.00  0.00     0.008 C 
BRANCH  13  14
HETATM   14  C6  UNL     1      23.285   5.209  51.077  1.00  0.00    -0.018 C 
BRANCH  14  15
HETATM   15  C7  UNL     1      23.049   6.505  50.442  1.00  0.00    -0.034 C 
HETATM   16  C8  UNL     1      24.073   7.544  50.855  1.00  0.00     0.018 C 
HETATM   17  C9  UNL     1      21.688   7.051  50.738  1.00  0.00     0.018 C 
HETATM   18  C10 UNL     1      23.162   6.330  48.924  1.00  0.00     0.018 C 
ENDBRANCH  14  15
ENDBRANCH  13  14
ENDBRANCH   2  13
BRANCH   1  19
HETATM   19  C2  UNL     1      26.139   3.952  50.380  1.00  0.00     0.021 C 
HETATM   20  C1  UNL     1      26.783   3.763  49.240  1.00  0.00     0.016 C 
ENDBRANCH   1  19
BRANCH   3  21
HETATM   21  N1  UNL     1      22.969   1.030  51.925  1.00  0.00    -0.349 N 
HETATM   22  C12 UNL     1      21.552   1.167  51.894  1.00  0.00     0.214 C 
HETATM   23  C13 UNL     1      20.568   0.332  51.178  1.00  0.00     0.117 C 
HETATM   24  O1  UNL     1      20.989   2.098  52.540  1.00  0.00    -0.274 OA
HETATM   25  H16 UNL     1      23.307   0.238  51.363  1.00  0.00     0.163 HD
ENDBRANCH   3  21
TORSDOF 5
ENDMDL
MODEL 7
REMARK VINA RESULT:      -6.5      2.741      7.125
REMARK  5 active torsions:
REMARK  status: ('A' for Active; 'I' for Inactive)
REMARK    1  A    between atoms: C2_2  and  C3_3 
REMARK    2  A    between atoms: C4_4  and  C5_5 
REMARK    3  A    between atoms: C5_5  and  C6_6 
REMARK    4  A    between atoms: C6_6  and  C7_7 
REMARK    5  A    between atoms: C11_11  and  N1_12 
REMARK       I    between atoms: N1_12  and  C12_13 
ROOT
HETATM    1  C3  UNL     1      22.579   3.794  52.211  1.00  0.00     0.038 C 
HETATM    2  C4  UNL     1      23.025   2.558  52.206  1.00  0.00    -0.006 C 
HETATM    3  C11 UNL     1      22.438   1.242  51.872  1.00  0.00     0.143 C 
HETATM    4  C14 UNL     1      21.459   1.282  50.760  1.00  0.00     0.015 C 
HETATM    5  C15 UNL     1      20.648   2.213  50.249  1.00  0.00     0.006 A 
HETATM    6  C16 UNL     1      19.886   1.666  49.122  1.00  0.00     0.192 A 
HETATM    7  N2  UNL     1      18.998   2.703  48.636  1.00  0.00    -0.278 NA
HETATM    8  C17 UNL     1      18.921   3.891  49.116  1.00  0.00     0.229 A 
HETATM    9  N3  UNL     1      19.679   4.410  50.201  1.00  0.00    -0.224 NA
HETATM   10  C18 UNL     1      20.531   3.575  50.753  1.00  0.00     0.137 A 
HETATM   11  N4  UNL     1      21.250   4.202  51.818  1.00  0.00    -0.340 N 
HETATM   12  H24 UNL     1      20.792   4.986  52.321  1.00  0.00     0.167 HD
ENDROOT
BRANCH   2  13
HETATM   13  C5  UNL     1      24.405   2.419  52.628  1.00  0.00     0.008 C 
BRANCH  13  14
HETATM   14  C6  UNL     1      25.593   1.982  52.890  1.00  0.00    -0.018 C 
BRANCH  14  15
HETATM   15  C7  UNL     1      26.785   1.216  53.252  1.00  0.00    -0.034 C 
HETATM   16  C8  UNL     1      28.034   2.075  53.281  1.00  0.00     0.018 C 
HETATM   17  C9  UNL     1      27.033   0.067  52.327  1.00  0.00     0.018 C 
HETATM   18  C10 UNL     1      26.588   0.648  54.661  1.00  0.00     0.018 C 
ENDBRANCH  14  15
ENDBRANCH  13  14
ENDBRANCH   2  13
BRANCH   1  19
HETATM   19  C2  UNL     1      23.435   4.902  52.615  1.00  0.00     0.021 C 
HETATM   20  C1  UNL     1      23.735   5.910  51.811  1.00  0.00     0.016 C 
ENDBRANCH   1  19
BRANCH   3  21
HETATM   21  N1  UNL     1      21.758   0.662  53.044  1.00  0.00    -0.349 N 
HETATM   22  C12 UNL     1      22.362  -0.434  53.723  1.00  0.00     0.214 C 
HETATM   23  C13 UNL     1      21.866  -1.163  54.906  1.00  0.00     0.117 C 
HETATM   24  O1  UNL     1      23.467  -0.901  53.320  1.00  0.00    -0.274 OA
HETATM   25  H16 UNL     1      20.866   0.951  53.465  1.00  0.00     0.163 HD
ENDBRANCH   3  21
TORSDOF 5
ENDMDL
MODEL 8
REMARK VINA RESULT:      -6.4      2.907      6.987
REMARK  5 active torsions:
REMARK  status: ('A' for Active; 'I' for Inactive)
REMARK    1  A    between atoms: C2_2  and  C3_3 
REMARK    2  A    between atoms: C4_4  and  C5_5 
REMARK    3  A    between atoms: C5_5  and  C6_6 
REMARK    4  A    between atoms: C6_6  and  C7_7 
REMARK    5  A    between atoms: C11_11  and  N1_12 
REMARK       I    between atoms: N1_12  and  C12_13 
ROOT
HETATM    1  C3  UNL     1      24.376   3.128  50.739  1.00  0.00     0.038 C 
HETATM    2  C4  UNL     1      24.076   1.938  51.210  1.00  0.00    -0.006 C 
HETATM    3  C11 UNL     1      22.836   1.138  51.300  1.00  0.00     0.143 C 
HETATM    4  C14 UNL     1      21.913   1.321  50.156  1.00  0.00     0.015 C 
HETATM    5  C15 UNL     1      21.683   2.301  49.276  1.00  0.00     0.006 A 
HETATM    6  C16 UNL     1      20.621   1.912  48.343  1.00  0.00     0.192 A 
HETATM    7  N2  UNL     1      20.387   3.023  47.442  1.00  0.00    -0.278 NA
HETATM    8  C17 UNL     1      21.023   4.138  47.467  1.00  0.00     0.229 A 
HETATM    9  N3  UNL     1      22.062   4.493  48.371  1.00  0.00    -0.224 NA
HETATM   10  C18 UNL     1      22.383   3.579  49.259  1.00  0.00     0.137 A 
HETATM   11  N4  UNL     1      23.445   4.030  50.102  1.00  0.00    -0.340 N 
HETATM   12  H24 UNL     1      23.547   5.052  50.254  1.00  0.00     0.167 HD
ENDROOT
BRANCH   2  13
HETATM   13  C5  UNL     1      25.199   1.223  51.784  1.00  0.00     0.008 C 
BRANCH  13  14
HETATM   14  C6  UNL     1      26.068   0.698  52.585  1.00  0.00    -0.018 C 
BRANCH  14  15
HETATM   15  C7  UNL     1      26.996  -0.158  53.322  1.00  0.00    -0.034 C 
HETATM   16  C8  UNL     1      28.419   0.364  53.280  1.00  0.00     0.018 C 
HETATM   17  C9  UNL     1      27.004  -1.567  52.816  1.00  0.00     0.018 C 
HETATM   18  C10 UNL     1      26.565  -0.191  54.791  1.00  0.00     0.018 C 
ENDBRANCH  14  15
ENDBRANCH  13  14
ENDBRANCH   2  13
BRANCH   1  19
HETATM   19  C2  UNL     1      25.736   3.646  50.813  1.00  0.00     0.021 C 
HETATM   20  C1  UNL     1      26.470   3.893  49.739  1.00  0.00     0.016 C 
ENDBRANCH   1  19
BRANCH   3  21
HETATM   21  N1  UNL     1      22.093   1.467  52.530  1.00  0.00    -0.349 N 
HETATM   22  C12 UNL     1      21.639   0.411  53.370  1.00  0.00     0.214 C 
HETATM   23  C13 UNL     1      20.886   0.507  54.635  1.00  0.00     0.117 C 
HETATM   24  O1  UNL     1      21.872  -0.793  53.059  1.00  0.00    -0.274 OA
HETATM   25  H16 UNL     1      21.843   2.398  52.888  1.00  0.00     0.163 HD
ENDBRANCH   3  21
TORSDOF 5
ENDMDL
MODEL 9
REMARK VINA RESULT:      -6.4      2.778      4.943
REMARK  5 active torsions:
REMARK  status: ('A' for Active; 'I' for Inactive)
REMARK    1  A    between atoms: C2_2  and  C3_3 
REMARK    2  A    between atoms: C4_4  and  C5_5 
REMARK    3  A    between atoms: C5_5  and  C6_6 
REMARK    4  A    between atoms: C6_6  and  C7_7 
REMARK    5  A    between atoms: C11_11  and  N1_12 
REMARK       I    between atoms: N1_12  and  C12_13 
ROOT
HETATM    1  C3  UNL     1      25.896   4.065  50.067  1.00  0.00     0.038 C 
HETATM    2  C4  UNL     1      24.610   4.052  50.338  1.00  0.00    -0.006 C 
HETATM    3  C11 UNL     1      23.727   3.184  51.146  1.00  0.00     0.143 C 
HETATM    4  C14 UNL     1      24.363   2.647  52.371  1.00  0.00     0.015 C 
HETATM    5  C15 UNL     1      25.619   2.381  52.743  1.00  0.00     0.006 A 
HETATM    6  C16 UNL     1      25.646   1.846  54.108  1.00  0.00     0.192 A 
HETATM    7  N2  UNL     1      27.022   1.539  54.443  1.00  0.00    -0.278 NA
HETATM    8  C17 UNL     1      28.027   1.727  53.667  1.00  0.00     0.229 A 
HETATM    9  N3  UNL     1      27.985   2.262  52.350  1.00  0.00    -0.224 NA
HETATM   10  C18 UNL     1      26.791   2.584  51.903  1.00  0.00     0.137 A 
HETATM   11  N4  UNL     1      26.865   3.126  50.582  1.00  0.00    -0.340 N 
HETATM   12  H24 UNL     1      27.655   2.830  49.976  1.00  0.00     0.167 HD
ENDROOT
BRANCH   2  13
HETATM   13  C5  UNL     1      23.857   5.118  49.708  1.00  0.00     0.008 C 
BRANCH  13  14
HETATM   14  C6  UNL     1      22.926   5.915  49.294  1.00  0.00    -0.018 C 
BRANCH  14  15
HETATM   15  C7  UNL     1      21.910   6.950  49.111  1.00  0.00    -0.034 C 
HETATM   16  C8  UNL     1      20.638   6.652  49.880  1.00  0.00     0.018 C 
HETATM   17  C9  UNL     1      21.547   7.152  47.673  1.00  0.00     0.018 C 
HETATM   18  C10 UNL     1      22.465   8.275  49.643  1.00  0.00     0.018 C 
ENDBRANCH  14  15
ENDBRANCH  13  14
ENDBRANCH   2  13
BRANCH   1  19
HETATM   19  C2  UNL     1      26.473   5.083  49.199  1.00  0.00     0.021 C 
HETATM   20  C1  UNL     1      27.660   4.954  48.629  1.00  0.00     0.016 C 
ENDBRANCH   1  19
BRANCH   3  21
HETATM   21  N1  UNL     1      23.252   2.038  50.349  1.00  0.00    -0.349 N 
HETATM   22  C12 UNL     1      21.896   2.008  49.918  1.00  0.00     0.214 C 
HETATM   23  C13 UNL     1      21.213   0.972  49.119  1.00  0.00     0.117 C 
HETATM   24  O1  UNL     1      21.111   2.955  50.218  1.00  0.00    -0.274 OA
HETATM   25  H16 UNL     1      23.788   1.216  50.043  1.00  0.00     0.163 HD
ENDBRANCH   3  21
TORSDOF 5
ENDMDL
