MODEL 1
REMARK VINA RESULT:      -8.0      0.000      0.000
REMARK  7 active torsions:
REMARK  status: ('A' for Active; 'I' for Inactive)
REMARK    1  A    between atoms: C2_2  and  C3_3 
REMARK    2  A    between atoms: C3_3  and  C4_4 
REMARK    3  A    between atoms: C4_4  and  O1_5 
REMARK    4  A    between atoms: O1_5  and  C5_6 
REMARK    5  A    between atoms: C10_11  and  O2_12 
REMARK    6  A    between atoms: C12_15  and  N2_16 
REMARK    7  A    between atoms: N2_16  and  C13_17 
ROOT
HETATM    1  C5  UNL     1      25.139  -0.526  54.257  1.00  0.00     0.102 A 
HETATM    2  C6  UNL     1      24.416   0.018  53.214  1.00  0.00     0.055 A 
HETATM    3  C7  UNL     1      23.033  -0.003  53.146  1.00  0.00     0.025 A 
HETATM    4  C8  UNL     1      22.360  -0.612  54.201  1.00  0.00     0.012 A 
HETATM    5  C9  UNL     1      23.064  -1.161  55.253  1.00  0.00     0.054 A 
HETATM    6  C10 UNL     1      24.455  -1.126  55.294  1.00  0.00     0.100 A 
HETATM    7  C11 UNL     1      21.107  -0.478  53.862  1.00  0.00     0.100 A 
HETATM    8  N1  UNL     1      20.887   0.119  52.762  1.00  0.00    -0.227 NA
HETATM    9  C12 UNL     1      22.166   0.463  52.232  1.00  0.00     0.140 A 
ENDROOT
BRANCH   9  10
HETATM   10  N2  UNL     1      22.612   1.130  51.057  1.00  0.00    -0.340 N 
HETATM   11  H9  UNL     1      22.595   0.628  50.148  1.00  0.00     0.167 HD
BRANCH  10  12
HETATM   12  C13 UNL     1      23.078   2.472  51.118  1.00  0.00     0.035 A 
HETATM   13  C14 UNL     1      22.494   3.395  51.947  1.00  0.00     0.032 A 
HETATM   14  C15 UNL     1      22.918   4.714  52.037  1.00  0.00     0.046 A 
HETATM   15  C16 UNL     1      23.989   5.109  51.242  1.00  0.00     0.138 A 
HETATM   16  F1  UNL     1      24.502   6.381  51.238  1.00  0.00    -0.204 F 
HETATM   17  C17 UNL     1      24.589   4.188  50.399  1.00  0.00     0.074 A 
HETATM   18 CL1  UNL     1      25.949   4.692  49.391  1.00  0.00    -0.081 Cl
HETATM   19  C18 UNL     1      24.132   2.877  50.342  1.00  0.00     0.056 A 
ENDBRANCH  10  12
ENDBRANCH   9  10
BRANCH   1  20
HETATM   20  O1  UNL     1      26.520  -0.501  54.319  1.00  0.00    -0.347 OA
BRANCH  20  21
HETATM   21  C4  UNL     1      27.236   0.729  54.368  1.00  0.00     0.193 C 
BRANCH  21  22
HETATM   22  C3  UNL     1      28.628   0.399  54.725  1.00  0.00     0.093 C 
BRANCH  22  23
HETATM   23  C2  UNL     1      29.297  -0.488  54.004  1.00  0.00    -0.174 C 
HETATM   24  C1  UNL     1      29.785  -1.553  53.386  1.00  0.00     0.091 C 
ENDBRANCH  22  23
ENDBRANCH  21  22
ENDBRANCH  20  21
ENDBRANCH   1  20
BRANCH   6  25
HETATM   25  O2  UNL     1      25.100  -1.704  56.394  1.00  0.00    -0.358 OA
HETATM   26  H8  UNL     1      26.127  -1.689  56.371  1.00  0.00     0.217 HD
ENDBRANCH   6  25
TORSDOF 7
ENDMDL
MODEL 2
REMARK VINA RESULT:      -7.7      1.905      2.642
REMARK  7 active torsions:
REMARK  status: ('A' for Active; 'I' for Inactive)
REMARK    1  A    between atoms: C2_2  and  C3_3 
REMARK    2  A    between atoms: C3_3  and  C4_4 
REMARK    3  A    between atoms: C4_4  and  O1_5 
REMARK    4  A    between atoms: O1_5  and  C5_6 
REMARK    5  A    between atoms: C10_11  and  O2_12 
REMARK    6  A    between atoms: C12_15  and  N2_16 
REMARK    7  A    between atoms: N2_16  and  C13_17 
ROOT
HETATM    1  C5  UNL     1      26.015   1.329  53.894  1.00  0.00     0.102 A 
HETATM    2  C6  UNL     1      25.369   2.436  53.383  1.00  0.00     0.055 A 
HETATM    3  C7  UNL     1      24.129   2.386  52.769  1.00  0.00     0.025 A 
HETATM    4  C8  UNL     1      23.523   1.136  52.676  1.00  0.00     0.012 A 
HETATM    5  C9  UNL     1      24.152   0.017  53.182  1.00  0.00     0.054 A 
HETATM    6  C10 UNL     1      25.400   0.098  53.794  1.00  0.00     0.100 A 
HETATM    7  C11 UNL     1      22.399   1.402  52.068  1.00  0.00     0.100 A 
HETATM    8  N1  UNL     1      22.203   2.620  51.765  1.00  0.00    -0.227 NA
HETATM    9  C12 UNL     1      23.352   3.334  52.220  1.00  0.00     0.140 A 
ENDROOT
BRANCH   9  10
HETATM   10  N2  UNL     1      23.754   4.698  52.191  1.00  0.00    -0.340 N 
HETATM   11  H9  UNL     1      23.668   5.274  53.051  1.00  0.00     0.167 HD
BRANCH  10  12
HETATM   12  C13 UNL     1      24.269   5.277  50.999  1.00  0.00     0.035 A 
HETATM   13  C14 UNL     1      23.620   6.306  50.365  1.00  0.00     0.032 A 
HETATM   14  C15 UNL     1      24.088   6.900  49.201  1.00  0.00     0.046 A 
HETATM   15  C16 UNL     1      25.275   6.419  48.657  1.00  0.00     0.138 A 
HETATM   16  F1  UNL     1      25.841   6.919  47.512  1.00  0.00    -0.204 F 
HETATM   17  C17 UNL     1      25.941   5.379  49.285  1.00  0.00     0.074 A 
HETATM   18 CL1  UNL     1      27.447   4.771  48.592  1.00  0.00    -0.081 Cl
HETATM   19  C18 UNL     1      25.436   4.815  50.450  1.00  0.00     0.056 A 
ENDBRANCH  10  12
ENDBRANCH   9  10
BRANCH   1  20
HETATM   20  O1  UNL     1      27.254   1.388  54.507  1.00  0.00    -0.347 OA
BRANCH  20  21
HETATM   21  C4  UNL     1      28.423   1.748  53.778  1.00  0.00     0.193 C 
BRANCH  21  22
HETATM   22  C3  UNL     1      29.448   0.735  54.086  1.00  0.00     0.093 C 
BRANCH  22  23
HETATM   23  C2  UNL     1      29.322  -0.493  53.604  1.00  0.00    -0.174 C 
HETATM   24  C1  UNL     1      29.374  -1.785  53.319  1.00  0.00     0.091 C 
ENDBRANCH  22  23
ENDBRANCH  21  22
ENDBRANCH  20  21
ENDBRANCH   1  20
BRANCH   6  25
HETATM   25  O2  UNL     1      25.976  -1.080  54.282  1.00  0.00    -0.358 OA
HETATM   26  H8  UNL     1      26.814  -1.410  53.786  1.00  0.00     0.217 HD
ENDBRANCH   6  25
TORSDOF 7
ENDMDL
MODEL 3
REMARK VINA RESULT:      -7.6      2.249      4.544
REMARK  7 active torsions:
REMARK  status: ('A' for Active; 'I' for Inactive)
REMARK    1  A    between atoms: C2_2  and  C3_3 
REMARK    2  A    between atoms: C3_3  and  C4_4 
REMARK    3  A    between atoms: C4_4  and  O1_5 
REMARK    4  A    between atoms: O1_5  and  C5_6 
REMARK    5  A    between atoms: C10_11  and  O2_12 
REMARK    6  A    between atoms: C12_15  and  N2_16 
REMARK    7  A    between atoms: N2_16  and  C13_17 
ROOT
HETATM    1  C5  UNL     1      24.700  -0.350  53.769  1.00  0.00     0.102 A 
HETATM    2  C6  UNL     1      25.182   0.435  52.741  1.00  0.00     0.055 A 
HETATM    3  C7  UNL     1      26.391   1.109  52.792  1.00  0.00     0.025 A 
HETATM    4  C8  UNL     1      27.141   0.969  53.956  1.00  0.00     0.012 A 
HETATM    5  C9  UNL     1      26.677   0.189  54.995  1.00  0.00     0.054 A 
HETATM    6  C10 UNL     1      25.457  -0.477  54.916  1.00  0.00     0.100 A 
HETATM    7  C11 UNL     1      28.195   1.699  53.712  1.00  0.00     0.100 A 
HETATM    8  N1  UNL     1      28.226   2.273  52.579  1.00  0.00    -0.227 NA
HETATM    9  C12 UNL     1      27.019   1.905  51.912  1.00  0.00     0.140 A 
ENDROOT
BRANCH   9  10
HETATM   10  N2  UNL     1      26.452   2.203  50.642  1.00  0.00    -0.340 N 
HETATM   11  H9  UNL     1      26.358   1.448  49.934  1.00  0.00     0.167 HD
BRANCH  10  12
HETATM   12  C13 UNL     1      26.016   3.520  50.333  1.00  0.00     0.035 A 
HETATM   13  C14 UNL     1      24.881   4.047  50.896  1.00  0.00     0.032 A 
HETATM   14  C15 UNL     1      24.420   5.328  50.623  1.00  0.00     0.046 A 
HETATM   15  C16 UNL     1      25.151   6.107  49.733  1.00  0.00     0.138 A 
HETATM   16  F1  UNL     1      24.802   7.386  49.380  1.00  0.00    -0.204 F 
HETATM   17  C17 UNL     1      26.299   5.588  49.156  1.00  0.00     0.074 A 
HETATM   18 CL1  UNL     1      27.226   6.580  48.026  1.00  0.00    -0.081 Cl
HETATM   19  C18 UNL     1      26.724   4.301  49.459  1.00  0.00     0.056 A 
ENDBRANCH  10  12
ENDBRANCH   9  10
BRANCH   1  20
HETATM   20  O1  UNL     1      23.492  -1.021  53.711  1.00  0.00    -0.347 OA
BRANCH  20  21
HETATM   21  C4  UNL     1      22.266  -0.364  54.017  1.00  0.00     0.193 C 
BRANCH  21  22
HETATM   22  C3  UNL     1      21.413  -0.471  52.819  1.00  0.00     0.093 C 
BRANCH  22  23
HETATM   23  C2  UNL     1      21.634   0.326  51.784  1.00  0.00    -0.174 C 
HETATM   24  C1  UNL     1      22.098   1.160  50.866  1.00  0.00     0.091 C 
ENDBRANCH  22  23
ENDBRANCH  21  22
ENDBRANCH  20  21
ENDBRANCH   1  20
BRANCH   6  25
HETATM   25  O2  UNL     1      25.052  -1.250  56.010  1.00  0.00    -0.358 OA
HETATM   26  H8  UNL     1      25.399  -2.217  56.030  1.00  0.00     0.217 HD
ENDBRANCH   6  25
TORSDOF 7
ENDMDL
MODEL 4
REMARK VINA RESULT:      -7.5      3.547      5.611
REMARK  7 active torsions:
REMARK  status: ('A' for Active; 'I' for Inactive)
REMARK    1  A    between atoms: C2_2  and  C3_3 
REMARK    2  A    between atoms: C3_3  and  C4_4 
REMARK    3  A    between atoms: C4_4  and  O1_5 
REMARK    4  A    between atoms: O1_5  and  C5_6 
REMARK    5  A    between atoms: C10_11  and  O2_12 
REMARK    6  A    between atoms: C12_15  and  N2_16 
REMARK    7  A    between atoms: N2_16  and  C13_17 
ROOT
HETATM    1  C5  UNL     1      21.763   2.199  51.682  1.00  0.00     0.102 A 
HETATM    2  C6  UNL     1      22.799   1.320  51.932  1.00  0.00     0.055 A 
HETATM    3  C7  UNL     1      22.805   0.420  52.984  1.00  0.00     0.025 A 
HETATM    4  C8  UNL     1      21.692   0.423  53.821  1.00  0.00     0.012 A 
HETATM    5  C9  UNL     1      20.647   1.293  53.588  1.00  0.00     0.054 A 
HETATM    6  C10 UNL     1      20.669   2.187  52.522  1.00  0.00     0.100 A 
HETATM    7  C11 UNL     1      21.981  -0.505  54.692  1.00  0.00     0.100 A 
HETATM    8  N1  UNL     1      23.098  -1.090  54.534  1.00  0.00    -0.227 NA
HETATM    9  C12 UNL     1      23.701  -0.497  53.384  1.00  0.00     0.140 A 
ENDROOT
BRANCH   9  10
HETATM   10  N2  UNL     1      24.925  -0.692  52.688  1.00  0.00    -0.340 N 
HETATM   11  H9  UNL     1      24.951  -1.329  51.868  1.00  0.00     0.167 HD
BRANCH  10  12
HETATM   12  C13 UNL     1      26.110  -0.026  53.106  1.00  0.00     0.035 A 
HETATM   13  C14 UNL     1      26.108   1.309  53.419  1.00  0.00     0.032 A 
HETATM   14  C15 UNL     1      27.241   1.997  53.831  1.00  0.00     0.046 A 
HETATM   15  C16 UNL     1      28.434   1.288  53.927  1.00  0.00     0.138 A 
HETATM   16  F1  UNL     1      29.621   1.851  54.321  1.00  0.00    -0.204 F 
HETATM   17  C17 UNL     1      28.452  -0.061  53.615  1.00  0.00     0.074 A 
HETATM   18 CL1  UNL     1      29.968  -0.959  53.739  1.00  0.00    -0.081 Cl
HETATM   19  C18 UNL     1      27.293  -0.710  53.207  1.00  0.00     0.056 A 
ENDBRANCH  10  12
ENDBRANCH   9  10
BRANCH   1  20
HETATM   20  O1  UNL     1      21.765   3.094  50.628  1.00  0.00    -0.347 OA
BRANCH  20  21
HETATM   21  C4  UNL     1      22.436   2.799  49.407  1.00  0.00     0.193 C 
BRANCH  21  22
HETATM   22  C3  UNL     1      23.535   3.774  49.278  1.00  0.00     0.093 C 
BRANCH  22  23
HETATM   23  C2  UNL     1      24.767   3.422  49.614  1.00  0.00    -0.174 C 
HETATM   24  C1  UNL     1      25.945   3.207  50.180  1.00  0.00     0.091 C 
ENDBRANCH  22  23
ENDBRANCH  21  22
ENDBRANCH  20  21
ENDBRANCH   1  20
BRANCH   6  25
HETATM   25  O2  UNL     1      19.572   3.039  52.349  1.00  0.00    -0.358 OA
HETATM   26  H8  UNL     1      18.919   3.096  53.140  1.00  0.00     0.217 HD
ENDBRANCH   6  25
TORSDOF 7
ENDMDL
MODEL 5
REMARK VINA RESULT:      -7.5      3.806      6.986
REMARK  7 active torsions:
REMARK  status: ('A' for Active; 'I' for Inactive)
REMARK    1  A    between atoms: C2_2  and  C3_3 
REMARK    2  A    between atoms: C3_3  and  C4_4 
REMARK    3  A    between atoms: C4_4  and  O1_5 
REMARK    4  A    between atoms: O1_5  and  C5_6 
REMARK    5  A    between atoms: C10_11  and  O2_12 
REMARK    6  A    between atoms: C12_15  and  N2_16 
REMARK    7  A    between atoms: N2_16  and  C13_17 
ROOT
HETATM    1  C5  UNL     1      22.090   1.002  51.085  1.00  0.00     0.102 A 
HETATM    2  C6  UNL     1      23.227   1.456  51.722  1.00  0.00     0.055 A 
HETATM    3  C7  UNL     1      24.114   2.358  51.158  1.00  0.00     0.025 A 
HETATM    4  C8  UNL     1      23.817   2.816  49.878  1.00  0.00     0.012 A 
HETATM    5  C9  UNL     1      22.684   2.375  49.225  1.00  0.00     0.054 A 
HETATM    6  C10 UNL     1      21.811   1.467  49.817  1.00  0.00     0.100 A 
HETATM    7  C11 UNL     1      24.806   3.629  49.623  1.00  0.00     0.100 A 
HETATM    8  N1  UNL     1      25.676   3.754  50.540  1.00  0.00    -0.227 NA
HETATM    9  C12 UNL     1      25.253   2.909  51.610  1.00  0.00     0.140 A 
ENDROOT
BRANCH   9  10
HETATM   10  N2  UNL     1      25.769   2.598  52.898  1.00  0.00    -0.340 N 
HETATM   11  H9  UNL     1      25.406   3.103  53.730  1.00  0.00     0.167 HD
BRANCH  10  12
HETATM   12  C13 UNL     1      26.775   1.605  53.055  1.00  0.00     0.035 A 
HETATM   13  C14 UNL     1      28.027   1.922  53.518  1.00  0.00     0.032 A 
HETATM   14  C15 UNL     1      29.036   0.984  53.686  1.00  0.00     0.046 A 
HETATM   15  C16 UNL     1      28.755  -0.341  53.367  1.00  0.00     0.138 A 
HETATM   16  F1  UNL     1      29.665  -1.360  53.488  1.00  0.00    -0.204 F 
HETATM   17  C17 UNL     1      27.495  -0.676  52.898  1.00  0.00     0.074 A 
HETATM   18 CL1  UNL     1      27.140  -2.358  52.494  1.00  0.00    -0.081 Cl
HETATM   19  C18 UNL     1      26.514   0.296  52.745  1.00  0.00     0.056 A 
ENDBRANCH  10  12
ENDBRANCH   9  10
BRANCH   1  20
HETATM   20  O1  UNL     1      21.209   0.101  51.656  1.00  0.00    -0.347 OA
BRANCH  20  21
HETATM   21  C4  UNL     1      20.854   0.184  53.032  1.00  0.00     0.193 C 
BRANCH  21  22
HETATM   22  C3  UNL     1      19.456  -0.271  53.141  1.00  0.00     0.093 C 
BRANCH  22  23
HETATM   23  C2  UNL     1      18.689  -0.295  52.062  1.00  0.00    -0.174 C 
HETATM   24  C1  UNL     1      17.787  -0.118  51.108  1.00  0.00     0.091 C 
ENDBRANCH  22  23
ENDBRANCH  21  22
ENDBRANCH  20  21
ENDBRANCH   1  20
BRANCH   6  25
HETATM   25  O2  UNL     1      20.683   1.065  49.093  1.00  0.00    -0.358 OA
HETATM   26  H8  UNL     1      20.793   1.027  48.072  1.00  0.00     0.217 HD
ENDBRANCH   6  25
TORSDOF 7
ENDMDL
MODEL 6
REMARK VINA RESULT:      -7.3      3.487      5.139
REMARK  7 active torsions:
REMARK  status: ('A' for Active; 'I' for Inactive)
REMARK    1  A    between atoms: C2_2  and  C3_3 
REMARK    2  A    between atoms: C3_3  and  C4_4 
REMARK    3  A    between atoms: C4_4  and  O1_5 
REMARK    4  A    between atoms: O1_5  and  C5_6 
REMARK    5  A    between atoms: C10_11  and  O2_12 
REMARK    6  A    between atoms: C12_15  and  N2_16 
REMARK    7  A    between atoms: N2_16  and  C13_17 
ROOT
HETATM    1  C5  UNL     1      25.690   2.256  53.132  1.00  0.00     0.102 A 
HETATM    2  C6  UNL     1      24.333   2.471  53.000  1.00  0.00     0.055 A 
HETATM    3  C7  UNL     1      23.727   2.850  51.814  1.00  0.00     0.025 A 
HETATM    4  C8  UNL     1      24.557   3.016  50.708  1.00  0.00     0.012 A 
HETATM    5  C9  UNL     1      25.916   2.805  50.819  1.00  0.00     0.054 A 
HETATM    6  C10 UNL     1      26.497   2.425  52.026  1.00  0.00     0.100 A 
HETATM    7  C11 UNL     1      23.722   3.363  49.767  1.00  0.00     0.100 A 
HETATM    8  N1  UNL     1      22.500   3.441  50.106  1.00  0.00    -0.227 NA
HETATM    9  C12 UNL     1      22.448   3.102  51.492  1.00  0.00     0.140 A 
ENDROOT
BRANCH   9  10
HETATM   10  N2  UNL     1      21.406   3.000  52.454  1.00  0.00    -0.340 N 
HETATM   11  H9  UNL     1      21.224   3.796  53.097  1.00  0.00     0.167 HD
BRANCH  10  12
HETATM   12  C13 UNL     1      20.614   1.822  52.543  1.00  0.00     0.035 A 
HETATM   13  C14 UNL     1      19.427   1.706  51.865  1.00  0.00     0.032 A 
HETATM   14  C15 UNL     1      18.624   0.575  51.923  1.00  0.00     0.046 A 
HETATM   15  C16 UNL     1      19.053  -0.487  52.712  1.00  0.00     0.138 A 
HETATM   16  F1  UNL     1      18.352  -1.658  52.854  1.00  0.00    -0.204 F 
HETATM   17  C17 UNL     1      20.249  -0.384  53.403  1.00  0.00     0.074 A 
HETATM   18 CL1  UNL     1      20.791  -1.735  54.404  1.00  0.00    -0.081 Cl
HETATM   19  C18 UNL     1      21.022   0.767  53.315  1.00  0.00     0.056 A 
ENDBRANCH  10  12
ENDBRANCH   9  10
BRANCH   1  20
HETATM   20  O1  UNL     1      26.287   1.878  54.320  1.00  0.00    -0.347 OA
BRANCH  20  21
HETATM   21  C4  UNL     1      26.517   0.506  54.629  1.00  0.00     0.193 C 
BRANCH  21  22
HETATM   22  C3  UNL     1      27.967   0.356  54.848  1.00  0.00     0.093 C 
BRANCH  22  23
HETATM   23  C2  UNL     1      28.669  -0.451  54.066  1.00  0.00    -0.174 C 
HETATM   24  C1  UNL     1      29.555  -1.243  53.483  1.00  0.00     0.091 C 
ENDBRANCH  22  23
ENDBRANCH  21  22
ENDBRANCH  20  21
ENDBRANCH   1  20
BRANCH   6  25
HETATM   25  O2  UNL     1      27.883   2.230  52.061  1.00  0.00    -0.358 OA
HETATM   26  H8  UNL     1      28.404   2.833  52.710  1.00  0.00     0.217 HD
ENDBRANCH   6  25
TORSDOF 7
ENDMDL
MODEL 7
REMARK VINA RESULT:      -7.3      2.506      2.893
REMARK  7 active torsions:
REMARK  status: ('A' for Active; 'I' for Inactive)
REMARK    1  A    between atoms: C2_2  and  C3_3 
REMARK    2  A    between atoms: C3_3  and  C4_4 
REMARK    3  A    between atoms: C4_4  and  O1_5 
REMARK    4  A    between atoms: O1_5  and  C5_6 
REMARK    5  A    between atoms: C10_11  and  O2_12 
REMARK    6  A    between atoms: C12_15  and  N2_16 
REMARK    7  A    between atoms: N2_16  and  C13_17 
ROOT
HETATM    1  C5  UNL     1      25.878   0.724  52.792  1.00  0.00     0.102 A 
HETATM    2  C6  UNL     1      24.952   1.606  52.271  1.00  0.00     0.055 A 
HETATM    3  C7  UNL     1      23.587   1.496  52.477  1.00  0.00     0.025 A 
HETATM    4  C8  UNL     1      23.152   0.428  53.257  1.00  0.00     0.012 A 
HETATM    5  C9  UNL     1      24.062  -0.464  53.787  1.00  0.00     0.054 A 
HETATM    6  C10 UNL     1      25.429  -0.329  53.563  1.00  0.00     0.100 A 
HETATM    7  C11 UNL     1      21.857   0.587  53.271  1.00  0.00     0.100 A 
HETATM    8  N1  UNL     1      21.410   1.585  52.624  1.00  0.00    -0.227 NA
HETATM    9  C12 UNL     1      22.548   2.239  52.063  1.00  0.00     0.140 A 
ENDROOT
BRANCH   9  10
HETATM   10  N2  UNL     1      22.735   3.390  51.249  1.00  0.00    -0.340 N 
HETATM   11  H9  UNL     1      22.993   4.294  51.693  1.00  0.00     0.167 HD
BRANCH  10  12
HETATM   12  C13 UNL     1      22.571   3.315  49.839  1.00  0.00     0.035 A 
HETATM   13  C14 UNL     1      22.430   2.110  49.198  1.00  0.00     0.032 A 
HETATM   14  C15 UNL     1      22.268   1.993  47.825  1.00  0.00     0.046 A 
HETATM   15  C16 UNL     1      22.250   3.161  47.068  1.00  0.00     0.138 A 
HETATM   16  F1  UNL     1      22.097   3.179  45.705  1.00  0.00    -0.204 F 
HETATM   17  C17 UNL     1      22.392   4.384  47.701  1.00  0.00     0.074 A 
HETATM   18 CL1  UNL     1      22.369   5.866  46.739  1.00  0.00    -0.081 Cl
HETATM   19  C18 UNL     1      22.551   4.455  49.080  1.00  0.00     0.056 A 
ENDBRANCH  10  12
ENDBRANCH   9  10
BRANCH   1  20
HETATM   20  O1  UNL     1      27.240   0.841  52.582  1.00  0.00    -0.347 OA
BRANCH  20  21
HETATM   21  C4  UNL     1      27.978   1.940  53.108  1.00  0.00     0.193 C 
BRANCH  21  22
HETATM   22  C3  UNL     1      28.943   1.384  54.074  1.00  0.00     0.093 C 
BRANCH  22  23
HETATM   23  C2  UNL     1      29.448   0.176  53.874  1.00  0.00    -0.174 C 
HETATM   24  C1  UNL     1      29.807  -1.024  53.444  1.00  0.00     0.091 C 
ENDBRANCH  22  23
ENDBRANCH  21  22
ENDBRANCH  20  21
ENDBRANCH   1  20
BRANCH   6  25
HETATM   25  O2  UNL     1      26.290  -1.272  54.133  1.00  0.00    -0.358 OA
HETATM   26  H8  UNL     1      27.027  -0.897  54.744  1.00  0.00     0.217 HD
ENDBRANCH   6  25
TORSDOF 7
ENDMDL
MODEL 8
REMARK VINA RESULT:      -7.2      2.380      4.558
REMARK  7 active torsions:
REMARK  status: ('A' for Active; 'I' for Inactive)
REMARK    1  A    between atoms: C2_2  and  C3_3 
REMARK    2  A    between atoms: C3_3  and  C4_4 
REMARK    3  A    between atoms: C4_4  and  O1_5 
REMARK    4  A    between atoms: O1_5  and  C5_6 
REMARK    5  A    between atoms: C10_11  and  O2_12 
REMARK    6  A    between atoms: C12_15  and  N2_16 
REMARK    7  A    between atoms: N2_16  and  C13_17 
ROOT
HETATM    1  C5  UNL     1      24.299  -0.428  53.787  1.00  0.00     0.102 A 
HETATM    2  C6  UNL     1      24.612   0.475  52.791  1.00  0.00     0.055 A 
HETATM    3  C7  UNL     1      25.814   1.160  52.726  1.00  0.00     0.025 A 
HETATM    4  C8  UNL     1      26.740   0.903  53.734  1.00  0.00     0.012 A 
HETATM    5  C9  UNL     1      26.446   0.003  54.738  1.00  0.00     0.054 A 
HETATM    6  C10 UNL     1      25.228  -0.670  54.778  1.00  0.00     0.100 A 
HETATM    7  C11 UNL     1      27.743   1.673  53.411  1.00  0.00     0.100 A 
HETATM    8  N1  UNL     1      27.594   2.371  52.360  1.00  0.00    -0.227 NA
HETATM    9  C12 UNL     1      26.296   2.060  51.854  1.00  0.00     0.140 A 
ENDROOT
BRANCH   9  10
HETATM   10  N2  UNL     1      25.536   2.488  50.731  1.00  0.00    -0.340 N 
HETATM   11  H9  UNL     1      25.898   2.319  49.773  1.00  0.00     0.167 HD
BRANCH  10  12
HETATM   12  C13 UNL     1      24.287   3.145  50.910  1.00  0.00     0.035 A 
HETATM   13  C14 UNL     1      24.076   4.008  51.956  1.00  0.00     0.032 A 
HETATM   14  C15 UNL     1      22.874   4.669  52.167  1.00  0.00     0.046 A 
HETATM   15  C16 UNL     1      21.837   4.438  51.267  1.00  0.00     0.138 A 
HETATM   16  F1  UNL     1      20.603   5.029  51.366  1.00  0.00    -0.204 F 
HETATM   17  C17 UNL     1      22.036   3.569  50.207  1.00  0.00     0.074 A 
HETATM   18 CL1  UNL     1      20.718   3.279  49.067  1.00  0.00    -0.081 Cl
HETATM   19  C18 UNL     1      23.257   2.929  50.034  1.00  0.00     0.056 A 
ENDBRANCH  10  12
ENDBRANCH   9  10
BRANCH   1  20
HETATM   20  O1  UNL     1      23.096  -1.108  53.844  1.00  0.00    -0.347 OA
BRANCH  20  21
HETATM   21  C4  UNL     1      22.045  -0.680  54.705  1.00  0.00     0.193 C 
BRANCH  21  22
HETATM   22  C3  UNL     1      20.846  -0.513  53.863  1.00  0.00     0.093 C 
BRANCH  22  23
HETATM   23  C2  UNL     1      20.965  -0.008  52.644  1.00  0.00    -0.174 C 
HETATM   24  C1  UNL     1      21.080   0.236  51.348  1.00  0.00     0.091 C 
ENDBRANCH  22  23
ENDBRANCH  21  22
ENDBRANCH  20  21
ENDBRANCH   1  20
BRANCH   6  25
HETATM   25  O2  UNL     1      25.001  -1.567  55.827  1.00  0.00    -0.358 OA
HETATM   26  H8  UNL     1      24.131  -2.112  55.772  1.00  0.00     0.217 HD
ENDBRANCH   6  25
TORSDOF 7
ENDMDL
MODEL 9
REMARK VINA RESULT:      -7.1      2.638      5.285
REMARK  7 active torsions:
REMARK  status: ('A' for Active; 'I' for Inactive)
REMARK    1  A    between atoms: C2_2  and  C3_3 
REMARK    2  A    between atoms: C3_3  and  C4_4 
REMARK    3  A    between atoms: C4_4  and  O1_5 
REMARK    4  A    between atoms: O1_5  and  C5_6 
REMARK    5  A    between atoms: C10_11  and  O2_12 
REMARK    6  A    between atoms: C12_15  and  N2_16 
REMARK    7  A    between atoms: N2_16  and  C13_17 
ROOT
HETATM    1  C5  UNL     1      21.044   0.179  53.105  1.00  0.00     0.102 A 
HETATM    2  C6  UNL     1      21.812   0.918  52.228  1.00  0.00     0.055 A 
HETATM    3  C7  UNL     1      23.197   0.904  52.221  1.00  0.00     0.025 A 
HETATM    4  C8  UNL     1      23.823   0.091  53.163  1.00  0.00     0.012 A 
HETATM    5  C9  UNL     1      23.072  -0.655  54.048  1.00  0.00     0.054 A 
HETATM    6  C10 UNL     1      21.681  -0.621  54.031  1.00  0.00     0.100 A 
HETATM    7  C11 UNL     1      25.090   0.284  52.916  1.00  0.00     0.100 A 
HETATM    8  N1  UNL     1      25.359   1.087  51.970  1.00  0.00    -0.227 NA
HETATM    9  C12 UNL     1      24.104   1.540  51.462  1.00  0.00     0.140 A 
ENDROOT
BRANCH   9  10
HETATM   10  N2  UNL     1      23.712   2.431  50.425  1.00  0.00    -0.340 N 
HETATM   11  H9  UNL     1      23.437   2.049  49.499  1.00  0.00     0.167 HD
BRANCH  10  12
HETATM   12  C13 UNL     1      23.693   3.836  50.645  1.00  0.00     0.035 A 
HETATM   13  C14 UNL     1      22.644   4.446  51.284  1.00  0.00     0.032 A 
HETATM   14  C15 UNL     1      22.586   5.813  51.519  1.00  0.00     0.046 A 
HETATM   15  C16 UNL     1      23.651   6.594  51.081  1.00  0.00     0.138 A 
HETATM   16  F1  UNL     1      23.713   7.954  51.251  1.00  0.00    -0.204 F 
HETATM   17  C17 UNL     1      24.717   5.992  50.434  1.00  0.00     0.074 A 
HETATM   18 CL1  UNL     1      26.067   6.987  49.879  1.00  0.00    -0.081 Cl
HETATM   19  C18 UNL     1      24.733   4.619  50.220  1.00  0.00     0.056 A 
ENDBRANCH  10  12
ENDBRANCH   9  10
BRANCH   1  20
HETATM   20  O1  UNL     1      19.661   0.198  53.104  1.00  0.00    -0.347 OA
BRANCH  20  21
HETATM   21  C4  UNL     1      18.918  -0.032  51.911  1.00  0.00     0.193 C 
BRANCH  21  22
HETATM   22  C3  UNL     1      17.643  -0.652  52.314  1.00  0.00     0.093 C 
BRANCH  22  23
HETATM   23  C2  UNL     1      17.653  -1.803  52.970  1.00  0.00    -0.174 C 
HETATM   24  C1  UNL     1      17.791  -2.810  53.819  1.00  0.00     0.091 C 
ENDBRANCH  22  23
ENDBRANCH  21  22
ENDBRANCH  20  21
ENDBRANCH   1  20
BRANCH   6  25
HETATM   25  O2  UNL     1      20.987  -1.405  54.960  1.00  0.00    -0.358 OA
HETATM   26  H8  UNL     1      21.430  -1.507  55.881  1.00  0.00     0.217 HD
ENDBRANCH   6  25
TORSDOF 7
ENDMDL
