MODEL 1
REMARK VINA RESULT:      -8.8      0.000      0.000
REMARK  5 active torsions:
REMARK  status: ('A' for Active; 'I' for Inactive)
REMARK    1  A    between atoms: O1_2  and  C2_3 
REMARK    2  A    between atoms: C2_3  and  C3_4 
REMARK    3  A    between atoms: C8_9  and  O2_10 
REMARK    4  A    between atoms: C12_17  and  N3_18 
REMARK    5  A    between atoms: N3_18  and  C13_19 
ROOT
HETATM    1  C3  UNL     1      17.924  -1.326  52.761  1.00  0.00    -0.001 A 
HETATM    2  C4  UNL     1      19.068  -1.287  53.564  1.00  0.00     0.023 A 
HETATM    3  C5  UNL     1      20.091  -0.357  53.475  1.00  0.00    -0.006 A 
HETATM    4  C6  UNL     1      19.900   0.587  52.480  1.00  0.00     0.088 A 
HETATM    5  C7  UNL     1      18.787   0.574  51.675  1.00  0.00     0.075 A 
HETATM    6  C8  UNL     1      17.775  -0.348  51.766  1.00  0.00     0.079 A 
HETATM    7  O3  UNL     1      20.818   1.619  52.218  1.00  0.00    -0.289 OA
HETATM    8  C10 UNL     1      22.210   1.431  52.187  1.00  0.00     0.202 A 
HETATM    9  N1  UNL     1      22.890   2.087  51.196  1.00  0.00    -0.215 NA
HETATM   10  C11 UNL     1      24.223   1.921  51.143  1.00  0.00     0.238 A 
HETATM   11  N2  UNL     1      24.972   1.162  51.984  1.00  0.00    -0.222 NA
HETATM   12  C12 UNL     1      24.324   0.495  52.986  1.00  0.00     0.160 A 
HETATM   13  C19 UNL     1      22.938   0.648  53.065  1.00  0.00     0.129 A 
HETATM   14  N4  UNL     1      22.435  -0.112  54.154  1.00  0.00    -0.379 N 
HETATM   15  C20 UNL     1      21.119  -0.621  54.474  1.00  0.00     0.161 C 
HETATM   16  H16 UNL     1      23.092  -0.396  54.914  1.00  0.00     0.160 HD
ENDROOT
BRANCH  12  17
HETATM   17  N3  UNL     1      24.997  -0.332  53.927  1.00  0.00    -0.339 N 
HETATM   18  H12 UNL     1      24.627  -0.957  54.690  1.00  0.00     0.167 HD
BRANCH  17  19
HETATM   19  C13 UNL     1      26.423  -0.295  53.805  1.00  0.00     0.035 A 
HETATM   20  C14 UNL     1      27.111  -1.361  53.213  1.00  0.00     0.032 A 
HETATM   21  C15 UNL     1      28.500  -1.385  53.067  1.00  0.00     0.046 A 
HETATM   22  C16 UNL     1      29.237  -0.289  53.534  1.00  0.00     0.138 A 
HETATM   23  F1  UNL     1      30.584  -0.298  53.400  1.00  0.00    -0.204 F 
HETATM   24  C17 UNL     1      28.557   0.776  54.125  1.00  0.00     0.074 A 
HETATM   25 CL1  UNL     1      29.530   2.123  54.689  1.00  0.00    -0.081 Cl
HETATM   26  C18 UNL     1      27.185   0.767  54.254  1.00  0.00     0.056 A 
ENDBRANCH  17  19
ENDBRANCH  12  17
BRANCH   6  27
HETATM   27  O2  UNL     1      16.639  -0.467  51.040  1.00  0.00    -0.355 OA
HETATM   28  C9  UNL     1      16.579  -0.137  49.680  1.00  0.00     0.210 C 
ENDBRANCH   6  27
BRANCH   1  29
HETATM   29  C2  UNL     1      16.937  -2.404  53.008  1.00  0.00     0.208 C 
BRANCH  29  30
HETATM   30  O1  UNL     1      17.427  -3.386  53.880  1.00  0.00    -0.391 OA
HETATM   31  C1  UNL     1      16.821  -4.589  53.518  1.00  0.00     0.201 C 
ENDBRANCH  29  30
ENDBRANCH   1  29
TORSDOF 5
ENDMDL
MODEL 2
REMARK VINA RESULT:      -8.6      5.415      9.217
REMARK  5 active torsions:
REMARK  status: ('A' for Active; 'I' for Inactive)
REMARK    1  A    between atoms: O1_2  and  C2_3 
REMARK    2  A    between atoms: C2_3  and  C3_4 
REMARK    3  A    between atoms: C8_9  and  O2_10 
REMARK    4  A    between atoms: C12_17  and  N3_18 
REMARK    5  A    between atoms: N3_18  and  C13_19 
ROOT
HETATM    1  C3  UNL     1      28.670   6.263  48.382  1.00  0.00    -0.001 A 
HETATM    2  C4  UNL     1      28.023   5.031  48.513  1.00  0.00     0.023 A 
HETATM    3  C5  UNL     1      26.721   4.839  48.945  1.00  0.00    -0.006 A 
HETATM    4  C6  UNL     1      26.060   6.015  49.259  1.00  0.00     0.088 A 
HETATM    5  C7  UNL     1      26.669   7.240  49.142  1.00  0.00     0.075 A 
HETATM    6  C8  UNL     1      27.959   7.427  48.712  1.00  0.00     0.079 A 
HETATM    7  O3  UNL     1      24.732   6.046  49.719  1.00  0.00    -0.289 OA
HETATM    8  C10 UNL     1      24.219   5.152  50.673  1.00  0.00     0.202 A 
HETATM    9  N1  UNL     1      23.384   5.685  51.619  1.00  0.00    -0.215 NA
HETATM   10  C11 UNL     1      22.881   4.849  52.545  1.00  0.00     0.238 A 
HETATM   11  N2  UNL     1      23.120   3.515  52.637  1.00  0.00    -0.222 NA
HETATM   12  C12 UNL     1      23.948   2.952  51.707  1.00  0.00     0.160 A 
HETATM   13  C19 UNL     1      24.486   3.796  50.733  1.00  0.00     0.129 A 
HETATM   14  N4  UNL     1      25.318   3.047  49.860  1.00  0.00    -0.379 N 
HETATM   15  C20 UNL     1      26.381   3.421  48.953  1.00  0.00     0.161 C 
HETATM   16  H16 UNL     1      25.193   2.012  49.812  1.00  0.00     0.160 HD
ENDROOT
BRANCH  12  17
HETATM   17  N3  UNL     1      24.275   1.567  51.700  1.00  0.00    -0.339 N 
HETATM   18  H12 UNL     1      23.901   0.770  51.123  1.00  0.00     0.167 HD
BRANCH  17  19
HETATM   19  C13 UNL     1      25.288   1.213  52.648  1.00  0.00     0.035 A 
HETATM   20  C14 UNL     1      25.109   0.115  53.498  1.00  0.00     0.032 A 
HETATM   21  C15 UNL     1      26.057  -0.280  54.444  1.00  0.00     0.046 A 
HETATM   22  C16 UNL     1      27.243   0.459  54.544  1.00  0.00     0.138 A 
HETATM   23  F1  UNL     1      28.173   0.090  55.458  1.00  0.00    -0.204 F 
HETATM   24  C17 UNL     1      27.427   1.554  53.700  1.00  0.00     0.074 A 
HETATM   25 CL1  UNL     1      28.932   2.440  53.868  1.00  0.00    -0.081 Cl
HETATM   26  C18 UNL     1      26.470   1.917  52.778  1.00  0.00     0.056 A 
ENDBRANCH  17  19
ENDBRANCH  12  17
BRANCH   6  27
HETATM   27  O2  UNL     1      28.666   8.570  48.554  1.00  0.00    -0.355 OA
HETATM   28  C9  UNL     1      28.687   9.580  49.525  1.00  0.00     0.210 C 
ENDBRANCH   6  27
BRANCH   1  29
HETATM   29  C2  UNL     1      30.073   6.265  47.903  1.00  0.00     0.208 C 
BRANCH  29  30
HETATM   30  O1  UNL     1      30.868   5.328  48.577  1.00  0.00    -0.391 OA
HETATM   31  C1  UNL     1      31.733   6.049  49.401  1.00  0.00     0.201 C 
ENDBRANCH  29  30
ENDBRANCH   1  29
TORSDOF 5
ENDMDL
MODEL 3
REMARK VINA RESULT:      -8.6      5.802      9.908
REMARK  5 active torsions:
REMARK  status: ('A' for Active; 'I' for Inactive)
REMARK    1  A    between atoms: O1_2  and  C2_3 
REMARK    2  A    between atoms: C2_3  and  C3_4 
REMARK    3  A    between atoms: C8_9  and  O2_10 
REMARK    4  A    between atoms: C12_17  and  N3_18 
REMARK    5  A    between atoms: N3_18  and  C13_19 
ROOT
HETATM    1  C3  UNL     1      28.840   6.278  48.288  1.00  0.00    -0.001 A 
HETATM    2  C4  UNL     1      28.244   5.037  48.534  1.00  0.00     0.023 A 
HETATM    3  C5  UNL     1      26.947   4.833  48.979  1.00  0.00    -0.006 A 
HETATM    4  C6  UNL     1      26.236   6.005  49.176  1.00  0.00     0.088 A 
HETATM    5  C7  UNL     1      26.795   7.237  48.944  1.00  0.00     0.075 A 
HETATM    6  C8  UNL     1      28.079   7.437  48.502  1.00  0.00     0.079 A 
HETATM    7  O3  UNL     1      24.904   6.025  49.626  1.00  0.00    -0.289 OA
HETATM    8  C10 UNL     1      24.422   5.205  50.660  1.00  0.00     0.202 A 
HETATM    9  N1  UNL     1      23.559   5.791  51.548  1.00  0.00    -0.215 NA
HETATM   10  C11 UNL     1      23.084   5.027  52.548  1.00  0.00     0.238 A 
HETATM   11  N2  UNL     1      23.377   3.719  52.769  1.00  0.00    -0.222 NA
HETATM   12  C12 UNL     1      24.234   3.105  51.900  1.00  0.00     0.160 A 
HETATM   13  C19 UNL     1      24.744   3.873  50.852  1.00  0.00     0.129 A 
HETATM   14  N4  UNL     1      25.613   3.080  50.057  1.00  0.00    -0.379 N 
HETATM   15  C20 UNL     1      26.666   3.410  49.122  1.00  0.00     0.161 C 
HETATM   16  H16 UNL     1      25.531   2.041  50.108  1.00  0.00     0.160 HD
ENDROOT
BRANCH  12  17
HETATM   17  N3  UNL     1      24.619   1.741  52.028  1.00  0.00    -0.339 N 
HETATM   18  H12 UNL     1      25.531   1.256  51.821  1.00  0.00     0.167 HD
BRANCH  17  19
HETATM   19  C13 UNL     1      23.574   0.895  52.520  1.00  0.00     0.035 A 
HETATM   20  C14 UNL     1      22.355   0.805  51.836  1.00  0.00     0.032 A 
HETATM   21  C15 UNL     1      21.298  -0.001  52.265  1.00  0.00     0.046 A 
HETATM   22  C16 UNL     1      21.468  -0.753  53.435  1.00  0.00     0.138 A 
HETATM   23  F1  UNL     1      20.452  -1.539  53.865  1.00  0.00    -0.204 F 
HETATM   24  C17 UNL     1      22.681  -0.668  54.120  1.00  0.00     0.074 A 
HETATM   25 CL1  UNL     1      22.838  -1.634  55.576  1.00  0.00    -0.081 Cl
HETATM   26  C18 UNL     1      23.703   0.138  53.669  1.00  0.00     0.056 A 
ENDBRANCH  17  19
ENDBRANCH  12  17
BRANCH   6  27
HETATM   27  O2  UNL     1      28.739   8.588  48.238  1.00  0.00    -0.355 OA
HETATM   28  C9  UNL     1      29.238   9.417  49.251  1.00  0.00     0.210 C 
ENDBRANCH   6  27
BRANCH   1  29
HETATM   29  C2  UNL     1      30.244   6.292  47.815  1.00  0.00     0.208 C 
BRANCH  29  30
HETATM   30  O1  UNL     1      31.048   5.371  48.501  1.00  0.00    -0.391 OA
HETATM   31  C1  UNL     1      31.825   6.102  49.400  1.00  0.00     0.201 C 
ENDBRANCH  29  30
ENDBRANCH   1  29
TORSDOF 5
ENDMDL
MODEL 4
REMARK VINA RESULT:      -8.4      4.963      7.988
REMARK  5 active torsions:
REMARK  status: ('A' for Active; 'I' for Inactive)
REMARK    1  A    between atoms: O1_2  and  C2_3 
REMARK    2  A    between atoms: C2_3  and  C3_4 
REMARK    3  A    between atoms: C8_9  and  O2_10 
REMARK    4  A    between atoms: C12_17  and  N3_18 
REMARK    5  A    between atoms: N3_18  and  C13_19 
ROOT
HETATM    1  C3  UNL     1      26.382   0.622  54.039  1.00  0.00    -0.001 A 
HETATM    2  C4  UNL     1      25.808   1.883  53.847  1.00  0.00     0.023 A 
HETATM    3  C5  UNL     1      24.709   2.163  53.051  1.00  0.00    -0.006 A 
HETATM    4  C6  UNL     1      24.183   1.049  52.418  1.00  0.00     0.088 A 
HETATM    5  C7  UNL     1      24.725  -0.201  52.586  1.00  0.00     0.075 A 
HETATM    6  C8  UNL     1      25.813  -0.476  53.376  1.00  0.00     0.079 A 
HETATM    7  O3  UNL     1      23.068   1.110  51.564  1.00  0.00    -0.289 OA
HETATM    8  C10 UNL     1      22.882   2.116  50.601  1.00  0.00     0.202 A 
HETATM    9  N1  UNL     1      22.389   1.714  49.388  1.00  0.00    -0.215 NA
HETATM   10  C11 UNL     1      22.203   2.658  48.449  1.00  0.00     0.238 A 
HETATM   11  N2  UNL     1      22.458   3.986  48.584  1.00  0.00    -0.222 NA
HETATM   12  C12 UNL     1      22.948   4.420  49.783  1.00  0.00     0.160 A 
HETATM   13  C19 UNL     1      23.152   3.462  50.777  1.00  0.00     0.129 A 
HETATM   14  N4  UNL     1      23.665   4.087  51.945  1.00  0.00    -0.379 N 
HETATM   15  C20 UNL     1      24.387   3.584  53.093  1.00  0.00     0.161 C 
HETATM   16  H16 UNL     1      23.529   5.115  52.065  1.00  0.00     0.160 HD
ENDROOT
BRANCH  12  17
HETATM   17  N3  UNL     1      23.255   5.785  50.044  1.00  0.00    -0.339 N 
HETATM   18  H12 UNL     1      22.799   6.487  50.683  1.00  0.00     0.167 HD
BRANCH  17  19
HETATM   19  C13 UNL     1      24.378   6.272  49.302  1.00  0.00     0.035 A 
HETATM   20  C14 UNL     1      24.286   7.471  48.584  1.00  0.00     0.032 A 
HETATM   21  C15 UNL     1      25.344   7.997  47.840  1.00  0.00     0.046 A 
HETATM   22  C16 UNL     1      26.554   7.291  47.814  1.00  0.00     0.138 A 
HETATM   23  F1  UNL     1      27.590   7.789  47.097  1.00  0.00    -0.204 F 
HETATM   24  C17 UNL     1      26.652   6.097  48.528  1.00  0.00     0.074 A 
HETATM   25 CL1  UNL     1      28.192   5.258  48.462  1.00  0.00    -0.081 Cl
HETATM   26  C18 UNL     1      25.588   5.605  49.251  1.00  0.00     0.056 A 
ENDBRANCH  17  19
ENDBRANCH  12  17
BRANCH   6  27
HETATM   27  O2  UNL     1      26.435  -1.652  53.621  1.00  0.00    -0.355 OA
HETATM   28  C9  UNL     1      27.191  -2.319  52.648  1.00  0.00     0.210 C 
ENDBRANCH   6  27
BRANCH   1  29
HETATM   29  C2  UNL     1      27.560   0.523  54.931  1.00  0.00     0.208 C 
BRANCH  29  30
HETATM   30  O1  UNL     1      28.606   1.366  54.530  1.00  0.00    -0.391 OA
HETATM   31  C1  UNL     1      29.453   0.606  53.724  1.00  0.00     0.201 C 
ENDBRANCH  29  30
ENDBRANCH   1  29
TORSDOF 5
ENDMDL
MODEL 5
REMARK VINA RESULT:      -8.3      4.515      7.788
REMARK  5 active torsions:
REMARK  status: ('A' for Active; 'I' for Inactive)
REMARK    1  A    between atoms: O1_2  and  C2_3 
REMARK    2  A    between atoms: C2_3  and  C3_4 
REMARK    3  A    between atoms: C8_9  and  O2_10 
REMARK    4  A    between atoms: C12_17  and  N3_18 
REMARK    5  A    between atoms: N3_18  and  C13_19 
ROOT
HETATM    1  C3  UNL     1      24.545   6.881  47.828  1.00  0.00    -0.001 A 
HETATM    2  C4  UNL     1      25.485   6.151  48.563  1.00  0.00     0.023 A 
HETATM    3  C5  UNL     1      25.274   4.913  49.147  1.00  0.00    -0.006 A 
HETATM    4  C6  UNL     1      23.999   4.412  48.947  1.00  0.00     0.088 A 
HETATM    5  C7  UNL     1      23.055   5.105  48.230  1.00  0.00     0.075 A 
HETATM    6  C8  UNL     1      23.266   6.332  47.652  1.00  0.00     0.079 A 
HETATM    7  O3  UNL     1      23.575   3.171  49.455  1.00  0.00    -0.289 OA
HETATM    8  C10 UNL     1      23.871   2.723  50.753  1.00  0.00     0.202 A 
HETATM    9  N1  UNL     1      22.861   2.083  51.421  1.00  0.00    -0.215 NA
HETATM   10  C11 UNL     1      23.118   1.645  52.666  1.00  0.00     0.238 A 
HETATM   11  N2  UNL     1      24.293   1.774  53.335  1.00  0.00    -0.222 NA
HETATM   12  C12 UNL     1      25.323   2.406  52.696  1.00  0.00     0.160 A 
HETATM   13  C19 UNL     1      25.084   2.872  51.402  1.00  0.00     0.129 A 
HETATM   14  N4  UNL     1      26.254   3.500  50.897  1.00  0.00    -0.379 N 
HETATM   15  C20 UNL     1      26.477   4.451  49.831  1.00  0.00     0.161 C 
HETATM   16  H16 UNL     1      27.173   3.276  51.338  1.00  0.00     0.160 HD
ENDROOT
BRANCH  12  17
HETATM   17  N3  UNL     1      26.599   2.603  53.293  1.00  0.00    -0.339 N 
HETATM   18  H12 UNL     1      27.048   3.465  53.700  1.00  0.00     0.167 HD
BRANCH  17  19
HETATM   19  C13 UNL     1      27.399   1.417  53.340  1.00  0.00     0.035 A 
HETATM   20  C14 UNL     1      28.714   1.469  53.818  1.00  0.00     0.032 A 
HETATM   21  C15 UNL     1      29.546   0.349  53.887  1.00  0.00     0.046 A 
HETATM   22  C16 UNL     1      29.036  -0.884  53.457  1.00  0.00     0.138 A 
HETATM   23  F1  UNL     1      29.830  -1.979  53.517  1.00  0.00    -0.204 F 
HETATM   24  C17 UNL     1      27.727  -0.942  52.980  1.00  0.00     0.074 A 
HETATM   25 CL1  UNL     1      27.142  -2.512  52.460  1.00  0.00    -0.081 Cl
HETATM   26  C18 UNL     1      26.934   0.184  52.925  1.00  0.00     0.056 A 
ENDBRANCH  17  19
ENDBRANCH  12  17
BRANCH   6  27
HETATM   27  O2  UNL     1      22.426   7.108  46.928  1.00  0.00    -0.355 OA
HETATM   28  C9  UNL     1      21.702   6.615  45.835  1.00  0.00     0.210 C 
ENDBRANCH   6  27
BRANCH   1  29
HETATM   29  C2  UNL     1      24.958   8.194  47.280  1.00  0.00     0.208 C 
BRANCH  29  30
HETATM   30  O1  UNL     1      26.311   8.217  46.913  1.00  0.00    -0.391 OA
HETATM   31  C1  UNL     1      26.735   9.542  47.011  1.00  0.00     0.201 C 
ENDBRANCH  29  30
ENDBRANCH   1  29
TORSDOF 5
ENDMDL
MODEL 6
REMARK VINA RESULT:      -8.1      4.925      6.553
REMARK  5 active torsions:
REMARK  status: ('A' for Active; 'I' for Inactive)
REMARK    1  A    between atoms: O1_2  and  C2_3 
REMARK    2  A    between atoms: C2_3  and  C3_4 
REMARK    3  A    between atoms: C8_9  and  O2_10 
REMARK    4  A    between atoms: C12_17  and  N3_18 
REMARK    5  A    between atoms: N3_18  and  C13_19 
ROOT
HETATM    1  C3  UNL     1      22.015   0.949  52.376  1.00  0.00    -0.001 A 
HETATM    2  C4  UNL     1      22.840   2.028  52.711  1.00  0.00     0.023 A 
HETATM    3  C5  UNL     1      22.564   3.365  52.476  1.00  0.00    -0.006 A 
HETATM    4  C6  UNL     1      21.347   3.580  51.850  1.00  0.00     0.088 A 
HETATM    5  C7  UNL     1      20.516   2.542  51.509  1.00  0.00     0.075 A 
HETATM    6  C8  UNL     1      20.791   1.218  51.743  1.00  0.00     0.079 A 
HETATM    7  O3  UNL     1      20.874   4.862  51.518  1.00  0.00    -0.289 OA
HETATM    8  C10 UNL     1      21.680   5.866  50.957  1.00  0.00     0.202 A 
HETATM    9  N1  UNL     1      21.112   6.616  49.961  1.00  0.00    -0.215 NA
HETATM   10  C11 UNL     1      21.863   7.583  49.406  1.00  0.00     0.238 A 
HETATM   11  N2  UNL     1      23.144   7.894  49.736  1.00  0.00    -0.222 NA
HETATM   12  C12 UNL     1      23.740   7.165  50.727  1.00  0.00     0.160 A 
HETATM   13  C19 UNL     1      22.983   6.154  51.322  1.00  0.00     0.129 A 
HETATM   14  N4  UNL     1      23.756   5.503  52.319  1.00  0.00    -0.379 N 
HETATM   15  C20 UNL     1      23.647   4.211  52.961  1.00  0.00     0.161 C 
HETATM   16  H16 UNL     1      24.585   5.999  52.715  1.00  0.00     0.160 HD
ENDROOT
BRANCH  12  17
HETATM   17  N3  UNL     1      25.075   7.394  51.160  1.00  0.00    -0.339 N 
HETATM   18  H12 UNL     1      25.463   7.652  52.104  1.00  0.00     0.167 HD
BRANCH  17  19
HETATM   19  C13 UNL     1      26.048   7.249  50.119  1.00  0.00     0.035 A 
HETATM   20  C14 UNL     1      26.233   6.011  49.491  1.00  0.00     0.032 A 
HETATM   21  C15 UNL     1      27.165   5.804  48.472  1.00  0.00     0.046 A 
HETATM   22  C16 UNL     1      27.950   6.889  48.060  1.00  0.00     0.138 A 
HETATM   23  F1  UNL     1      28.860   6.705  47.073  1.00  0.00    -0.204 F 
HETATM   24  C17 UNL     1      27.770   8.125  48.681  1.00  0.00     0.074 A 
HETATM   25 CL1  UNL     1      28.778   9.447  48.122  1.00  0.00    -0.081 Cl
HETATM   26  C18 UNL     1      26.841   8.293  49.684  1.00  0.00     0.056 A 
ENDBRANCH  17  19
ENDBRANCH  12  17
BRANCH   6  27
HETATM   27  O2  UNL     1      20.063   0.114  51.459  1.00  0.00    -0.355 OA
HETATM   28  C9  UNL     1      18.818  -0.137  52.050  1.00  0.00     0.210 C 
ENDBRANCH   6  27
BRANCH   1  29
HETATM   29  C2  UNL     1      22.485  -0.416  52.709  1.00  0.00     0.208 C 
BRANCH  29  30
HETATM   30  O1  UNL     1      22.638  -0.605  54.090  1.00  0.00    -0.391 OA
HETATM   31  C1  UNL     1      21.502  -1.282  54.534  1.00  0.00     0.201 C 
ENDBRANCH  29  30
ENDBRANCH   1  29
TORSDOF 5
ENDMDL
MODEL 7
REMARK VINA RESULT:      -8.0      6.985     11.057
REMARK  5 active torsions:
REMARK  status: ('A' for Active; 'I' for Inactive)
REMARK    1  A    between atoms: O1_2  and  C2_3 
REMARK    2  A    between atoms: C2_3  and  C3_4 
REMARK    3  A    between atoms: C8_9  and  O2_10 
REMARK    4  A    between atoms: C12_17  and  N3_18 
REMARK    5  A    between atoms: N3_18  and  C13_19 
ROOT
HETATM    1  C3  UNL     1      29.825   7.085  47.628  1.00  0.00    -0.001 A 
HETATM    2  C4  UNL     1      29.168   5.956  48.127  1.00  0.00     0.023 A 
HETATM    3  C5  UNL     1      27.805   5.837  48.340  1.00  0.00    -0.006 A 
HETATM    4  C6  UNL     1      27.088   6.975  48.008  1.00  0.00     0.088 A 
HETATM    5  C7  UNL     1      27.705   8.099  47.517  1.00  0.00     0.075 A 
HETATM    6  C8  UNL     1      29.056   8.214  47.306  1.00  0.00     0.079 A 
HETATM    7  O3  UNL     1      25.692   7.068  48.149  1.00  0.00    -0.289 OA
HETATM    8  C10 UNL     1      24.991   6.590  49.268  1.00  0.00     0.202 A 
HETATM    9  N1  UNL     1      23.972   7.380  49.730  1.00  0.00    -0.215 NA
HETATM   10  C11 UNL     1      23.286   6.945  50.802  1.00  0.00     0.238 A 
HETATM   11  N2  UNL     1      23.504   5.787  51.479  1.00  0.00    -0.222 NA
HETATM   12  C12 UNL     1      24.513   4.976  51.042  1.00  0.00     0.160 A 
HETATM   13  C19 UNL     1      25.243   5.402  49.931  1.00  0.00     0.129 A 
HETATM   14  N4  UNL     1      26.245   4.444  49.622  1.00  0.00    -0.379 N 
HETATM   15  C20 UNL     1      27.475   4.517  48.865  1.00  0.00     0.161 C 
HETATM   16  H16 UNL     1      26.135   3.470  49.981  1.00  0.00     0.160 HD
ENDROOT
BRANCH  12  17
HETATM   17  N3  UNL     1      24.838   3.741  51.669  1.00  0.00    -0.339 N 
HETATM   18  H12 UNL     1      25.700   3.435  52.192  1.00  0.00     0.167 HD
BRANCH  17  19
HETATM   19  C13 UNL     1      23.807   2.754  51.561  1.00  0.00     0.035 A 
HETATM   20  C14 UNL     1      23.335   2.095  52.702  1.00  0.00     0.032 A 
HETATM   21  C15 UNL     1      22.334   1.122  52.662  1.00  0.00     0.046 A 
HETATM   22  C16 UNL     1      21.776   0.793  51.420  1.00  0.00     0.138 A 
HETATM   23  F1  UNL     1      20.804  -0.148  51.364  1.00  0.00    -0.204 F 
HETATM   24  C17 UNL     1      22.242   1.447  50.279  1.00  0.00     0.074 A 
HETATM   25 CL1  UNL     1      21.505   0.997  48.751  1.00  0.00    -0.081 Cl
HETATM   26  C18 UNL     1      23.232   2.401  50.354  1.00  0.00     0.056 A 
ENDBRANCH  17  19
ENDBRANCH  12  17
BRANCH   6  27
HETATM   27  O2  UNL     1      29.776   9.256  46.830  1.00  0.00    -0.355 OA
HETATM   28  C9  UNL     1      29.211  10.518  46.602  1.00  0.00     0.210 C 
ENDBRANCH   6  27
BRANCH   1  29
HETATM   29  C2  UNL     1      31.297   7.021  47.470  1.00  0.00     0.208 C 
BRANCH  29  30
HETATM   30  O1  UNL     1      31.950   6.728  48.675  1.00  0.00    -0.391 OA
HETATM   31  C1  UNL     1      32.016   7.917  49.401  1.00  0.00     0.201 C 
ENDBRANCH  29  30
ENDBRANCH   1  29
TORSDOF 5
ENDMDL
MODEL 8
REMARK VINA RESULT:      -8.0      7.075     11.199
REMARK  5 active torsions:
REMARK  status: ('A' for Active; 'I' for Inactive)
REMARK    1  A    between atoms: O1_2  and  C2_3 
REMARK    2  A    between atoms: C2_3  and  C3_4 
REMARK    3  A    between atoms: C8_9  and  O2_10 
REMARK    4  A    between atoms: C12_17  and  N3_18 
REMARK    5  A    between atoms: N3_18  and  C13_19 
ROOT
HETATM    1  C3  UNL     1      30.841   7.849  48.621  1.00  0.00    -0.001 A 
HETATM    2  C4  UNL     1      30.127   6.667  48.398  1.00  0.00     0.023 A 
HETATM    3  C5  UNL     1      28.752   6.519  48.490  1.00  0.00    -0.006 A 
HETATM    4  C6  UNL     1      28.089   7.684  48.839  1.00  0.00     0.088 A 
HETATM    5  C7  UNL     1      28.763   8.859  49.065  1.00  0.00     0.075 A 
HETATM    6  C8  UNL     1      30.125   9.003  48.972  1.00  0.00     0.079 A 
HETATM    7  O3  UNL     1      26.693   7.754  48.988  1.00  0.00    -0.289 OA
HETATM    8  C10 UNL     1      25.932   6.771  49.642  1.00  0.00     0.202 A 
HETATM    9  N1  UNL     1      24.924   7.221  50.452  1.00  0.00    -0.215 NA
HETATM   10  C11 UNL     1      24.181   6.299  51.090  1.00  0.00     0.238 A 
HETATM   11  N2  UNL     1      24.332   4.952  51.011  1.00  0.00    -0.222 NA
HETATM   12  C12 UNL     1      25.329   4.470  50.210  1.00  0.00     0.160 A 
HETATM   13  C19 UNL     1      26.116   5.404  49.535  1.00  0.00     0.129 A 
HETATM   14  N4  UNL     1      27.096   4.730  48.758  1.00  0.00    -0.379 N 
HETATM   15  C20 UNL     1      28.357   5.149  48.187  1.00  0.00     0.161 C 
HETATM   16  H16 UNL     1      26.939   3.728  48.512  1.00  0.00     0.160 HD
ENDROOT
BRANCH  12  17
HETATM   17  N3  UNL     1      25.586   3.080  50.048  1.00  0.00    -0.339 N 
HETATM   18  H12 UNL     1      25.669   2.487  49.181  1.00  0.00     0.167 HD
BRANCH  17  19
HETATM   19  C13 UNL     1      25.759   2.381  51.285  1.00  0.00     0.035 A 
HETATM   20  C14 UNL     1      26.951   2.506  52.009  1.00  0.00     0.032 A 
HETATM   21  C15 UNL     1      27.181   1.849  53.220  1.00  0.00     0.046 A 
HETATM   22  C16 UNL     1      26.168   1.028  53.733  1.00  0.00     0.138 A 
HETATM   23  F1  UNL     1      26.376   0.384  54.906  1.00  0.00    -0.204 F 
HETATM   24  C17 UNL     1      24.978   0.899  53.016  1.00  0.00     0.074 A 
HETATM   25 CL1  UNL     1      23.745  -0.140  53.708  1.00  0.00    -0.081 Cl
HETATM   26  C18 UNL     1      24.785   1.561  51.824  1.00  0.00     0.056 A 
ENDBRANCH  17  19
ENDBRANCH  12  17
BRANCH   6  27
HETATM   27  O2  UNL     1      30.899  10.096  49.167  1.00  0.00    -0.355 OA
HETATM   28  C9  UNL     1      30.477  11.387  48.823  1.00  0.00     0.210 C 
ENDBRANCH   6  27
BRANCH   1  29
HETATM   29  C2  UNL     1      32.315   7.809  48.475  1.00  0.00     0.208 C 
BRANCH  29  30
HETATM   30  O1  UNL     1      32.845   6.543  48.763  1.00  0.00    -0.391 OA
HETATM   31  C1  UNL     1      34.226   6.632  48.583  1.00  0.00     0.201 C 
ENDBRANCH  29  30
ENDBRANCH   1  29
TORSDOF 5
ENDMDL
MODEL 9
REMARK VINA RESULT:      -8.0      5.609      8.378
REMARK  5 active torsions:
REMARK  status: ('A' for Active; 'I' for Inactive)
REMARK    1  A    between atoms: O1_2  and  C2_3 
REMARK    2  A    between atoms: C2_3  and  C3_4 
REMARK    3  A    between atoms: C8_9  and  O2_10 
REMARK    4  A    between atoms: C12_17  and  N3_18 
REMARK    5  A    between atoms: N3_18  and  C13_19 
ROOT
HETATM    1  C3  UNL     1      26.349  -0.321  52.857  1.00  0.00    -0.001 A 
HETATM    2  C4  UNL     1      26.675   0.751  52.020  1.00  0.00     0.023 A 
HETATM    3  C5  UNL     1      26.069   1.997  52.023  1.00  0.00    -0.006 A 
HETATM    4  C6  UNL     1      25.058   2.122  52.962  1.00  0.00     0.088 A 
HETATM    5  C7  UNL     1      24.716   1.087  53.797  1.00  0.00     0.075 A 
HETATM    6  C8  UNL     1      25.318  -0.146  53.793  1.00  0.00     0.079 A 
HETATM    7  O3  UNL     1      24.313   3.302  53.132  1.00  0.00    -0.289 OA
HETATM    8  C10 UNL     1      23.824   4.071  52.063  1.00  0.00     0.202 A 
HETATM    9  N1  UNL     1      22.558   4.574  52.205  1.00  0.00    -0.215 NA
HETATM   10  C11 UNL     1      22.066   5.313  51.195  1.00  0.00     0.238 A 
HETATM   11  N2  UNL     1      22.706   5.615  50.035  1.00  0.00    -0.222 NA
HETATM   12  C12 UNL     1      23.971   5.129  49.862  1.00  0.00     0.160 A 
HETATM   13  C19 UNL     1      24.508   4.358  50.895  1.00  0.00     0.129 A 
HETATM   14  N4  UNL     1      25.820   3.939  50.545  1.00  0.00    -0.379 N 
HETATM   15  C20 UNL     1      26.668   2.867  51.019  1.00  0.00     0.161 C 
HETATM   16  H16 UNL     1      26.334   4.465  49.805  1.00  0.00     0.160 HD
ENDROOT
BRANCH  12  17
HETATM   17  N3  UNL     1      24.741   5.375  48.691  1.00  0.00    -0.339 N 
HETATM   18  H12 UNL     1      25.068   4.727  47.928  1.00  0.00     0.167 HD
BRANCH  17  19
HETATM   19  C13 UNL     1      25.134   6.744  48.541  1.00  0.00     0.035 A 
HETATM   20  C14 UNL     1      24.566   7.537  47.536  1.00  0.00     0.032 A 
HETATM   21  C15 UNL     1      24.908   8.876  47.337  1.00  0.00     0.046 A 
HETATM   22  C16 UNL     1      25.863   9.451  48.185  1.00  0.00     0.138 A 
HETATM   23  F1  UNL     1      26.206  10.749  48.004  1.00  0.00    -0.204 F 
HETATM   24  C17 UNL     1      26.433   8.666  49.188  1.00  0.00     0.074 A 
HETATM   25 CL1  UNL     1      27.621   9.440  50.221  1.00  0.00    -0.081 Cl
HETATM   26  C18 UNL     1      26.073   7.347  49.356  1.00  0.00     0.056 A 
ENDBRANCH  17  19
ENDBRANCH  12  17
BRANCH   6  27
HETATM   27  O2  UNL     1      25.074  -1.236  54.556  1.00  0.00    -0.355 OA
HETATM   28  C9  UNL     1      23.983  -1.310  55.432  1.00  0.00     0.210 C 
ENDBRANCH   6  27
BRANCH   1  29
HETATM   29  C2  UNL     1      27.113  -1.581  52.702  1.00  0.00     0.208 C 
BRANCH  29  30
HETATM   30  O1  UNL     1      28.278  -1.598  53.483  1.00  0.00    -0.391 OA
HETATM   31  C1  UNL     1      28.975  -2.758  53.146  1.00  0.00     0.201 C 
ENDBRANCH  29  30
ENDBRANCH   1  29
TORSDOF 5
ENDMDL
