MODEL 1
REMARK VINA RESULT:      -8.0      0.000      0.000
REMARK  4 active torsions:
REMARK  status: ('A' for Active; 'I' for Inactive)
REMARK       I    between atoms: C2_2  and  N1_4 
REMARK    1  A    between atoms: N1_4  and  C3_5 
REMARK    2  A    between atoms: C5_7  and  N2_8 
REMARK    3  A    between atoms: N3_12  and  C8_13 
REMARK    4  A    between atoms: C12_17  and  C13_18 
ROOT
HETATM    1  C3  UNL     1      26.255   2.470  52.240  1.00  0.00     0.028 C 
HETATM    2  C4  UNL     1      27.456   2.009  52.514  1.00  0.00     0.029 C 
HETATM    3  C5  UNL     1      28.008   0.892  53.288  1.00  0.00     0.165 C 
HETATM    4  C6  UNL     1      27.131  -0.280  53.506  1.00  0.00     0.053 C 
HETATM    5  C7  UNL     1      26.097  -0.378  52.402  1.00  0.00     0.126 C 
HETATM    6  N3  UNL     1      25.015   0.461  52.851  1.00  0.00    -0.375 N 
HETATM    7  C15 UNL     1      24.996   1.890  52.715  1.00  0.00     0.179 C 
ENDROOT
BRANCH   6   8
HETATM    8  C8  UNL     1      23.881  -0.092  53.472  1.00  0.00     0.030 A 
HETATM    9  C9  UNL     1      23.892  -0.877  54.601  1.00  0.00     0.029 A 
HETATM   10  C10 UNL     1      22.784  -1.423  55.210  1.00  0.00     0.003 A 
HETATM   11  C11 UNL     1      21.544  -1.176  54.662  1.00  0.00     0.008 A 
HETATM   12  C12 UNL     1      21.473  -0.393  53.528  1.00  0.00    -0.046 A 
HETATM   13  C14 UNL     1      22.622   0.123  52.966  1.00  0.00     0.037 A 
BRANCH  12  14
HETATM   14  C13 UNL     1      20.123  -0.163  52.984  1.00  0.00     0.123 C 
HETATM   15 BR1  UNL     1      20.157   0.567  51.192  1.00  0.00    -0.091 Br
ENDBRANCH  12  14
ENDBRANCH   6   8
BRANCH   1  16
HETATM   16  N1  UNL     1      26.105   3.640  51.409  1.00  0.00    -0.330 N 
HETATM   17  C2  UNL     1      26.469   3.535  50.021  1.00  0.00     0.217 C 
HETATM   18  C1  UNL     1      26.384   4.629  49.017  1.00  0.00     0.117 C 
HETATM   19  O1  UNL     1      26.903   2.408  49.614  1.00  0.00    -0.274 OA
HETATM   20  H4  UNL     1      25.762   4.626  51.611  1.00  0.00     0.168 HD
ENDBRANCH   1  16
BRANCH   3  21
HETATM   21  N2  UNL     1      28.529   1.331  54.557  1.00  0.00    -0.132 NA
HETATM   22  O2  UNL     1      29.111   2.385  54.645  1.00  0.00    -0.066 OA
ENDBRANCH   3  21
TORSDOF 4
ENDMDL
MODEL 2
REMARK VINA RESULT:      -7.4      1.500      3.661
REMARK  4 active torsions:
REMARK  status: ('A' for Active; 'I' for Inactive)
REMARK       I    between atoms: C2_2  and  N1_4 
REMARK    1  A    between atoms: N1_4  and  C3_5 
REMARK    2  A    between atoms: C5_7  and  N2_8 
REMARK    3  A    between atoms: N3_12  and  C8_13 
REMARK    4  A    between atoms: C12_17  and  C13_18 
ROOT
HETATM    1  C3  UNL     1      26.660   0.483  52.327  1.00  0.00     0.028 C 
HETATM    2  C4  UNL     1      26.787   1.695  51.831  1.00  0.00     0.029 C 
HETATM    3  C5  UNL     1      25.880   2.792  51.479  1.00  0.00     0.165 C 
HETATM    4  C6  UNL     1      24.571   2.838  52.168  1.00  0.00     0.053 C 
HETATM    5  C7  UNL     1      24.656   2.140  53.511  1.00  0.00     0.126 C 
HETATM    6  N3  UNL     1      24.403   0.754  53.210  1.00  0.00    -0.375 N 
HETATM    7  C15 UNL     1      25.392  -0.152  52.700  1.00  0.00     0.179 C 
ENDROOT
BRANCH   6   8
HETATM    8  C8  UNL     1      23.128   0.194  53.404  1.00  0.00     0.030 A 
HETATM    9  C9  UNL     1      22.788  -0.696  54.394  1.00  0.00     0.029 A 
HETATM   10  C10 UNL     1      21.541  -1.249  54.585  1.00  0.00     0.003 A 
HETATM   11  C11 UNL     1      20.527  -0.895  53.722  1.00  0.00     0.008 A 
HETATM   12  C12 UNL     1      20.811  -0.003  52.708  1.00  0.00    -0.046 A 
HETATM   13  C14 UNL     1      22.082   0.514  52.572  1.00  0.00     0.037 A 
BRANCH  12  14
HETATM   14  C13 UNL     1      19.690   0.339  51.815  1.00  0.00     0.123 C 
HETATM   15 BR1  UNL     1      18.036  -0.522  52.332  1.00  0.00    -0.091 Br
ENDBRANCH  12  14
ENDBRANCH   6   8
BRANCH   1  16
HETATM   16  N1  UNL     1      27.830  -0.333  52.542  1.00  0.00    -0.330 N 
HETATM   17  C2  UNL     1      28.579  -0.136  53.754  1.00  0.00     0.217 C 
HETATM   18  C1  UNL     1      29.806  -0.880  54.147  1.00  0.00     0.117 C 
HETATM   19  O1  UNL     1      28.157   0.752  54.565  1.00  0.00    -0.274 OA
HETATM   20  H4  UNL     1      28.289  -1.097  51.963  1.00  0.00     0.168 HD
ENDBRANCH   1  16
BRANCH   3  21
HETATM   21  N2  UNL     1      25.666   2.870  50.057  1.00  0.00    -0.132 NA
HETATM   22  O2  UNL     1      26.523   3.319  49.335  1.00  0.00    -0.066 OA
ENDBRANCH   3  21
TORSDOF 4
ENDMDL
MODEL 3
REMARK VINA RESULT:      -7.3      2.923      5.786
REMARK  4 active torsions:
REMARK  status: ('A' for Active; 'I' for Inactive)
REMARK       I    between atoms: C2_2  and  N1_4 
REMARK    1  A    between atoms: N1_4  and  C3_5 
REMARK    2  A    between atoms: C5_7  and  N2_8 
REMARK    3  A    between atoms: N3_12  and  C8_13 
REMARK    4  A    between atoms: C12_17  and  C13_18 
ROOT
HETATM    1  C3  UNL     1      24.102  -0.133  53.140  1.00  0.00     0.028 C 
HETATM    2  C4  UNL     1      24.975  -0.372  54.095  1.00  0.00     0.029 C 
HETATM    3  C5  UNL     1      26.294   0.143  54.473  1.00  0.00     0.165 C 
HETATM    4  C6  UNL     1      26.644   1.508  54.022  1.00  0.00     0.053 C 
HETATM    5  C7  UNL     1      25.389   2.330  53.803  1.00  0.00     0.126 C 
HETATM    6  N3  UNL     1      24.996   2.029  52.451  1.00  0.00    -0.375 N 
HETATM    7  C15 UNL     1      24.268   0.852  52.068  1.00  0.00     0.179 C 
ENDROOT
BRANCH   6   8
HETATM    8  C8  UNL     1      25.318   2.899  51.394  1.00  0.00     0.030 A 
HETATM    9  C9  UNL     1      26.367   2.740  50.520  1.00  0.00     0.029 A 
HETATM   10  C10 UNL     1      26.688   3.591  49.486  1.00  0.00     0.003 A 
HETATM   11  C11 UNL     1      25.903   4.707  49.287  1.00  0.00     0.008 A 
HETATM   12  C12 UNL     1      24.835   4.916  50.133  1.00  0.00    -0.046 A 
HETATM   13  C14 UNL     1      24.568   4.025  51.151  1.00  0.00     0.037 A 
BRANCH  12  14
HETATM   14  C13 UNL     1      24.031   6.124  49.875  1.00  0.00     0.123 C 
HETATM   15 BR1  UNL     1      25.053   7.755  50.075  1.00  0.00    -0.091 Br
ENDBRANCH  12  14
ENDBRANCH   6   8
BRANCH   1  16
HETATM   16  N1  UNL     1      22.863  -0.871  53.095  1.00  0.00    -0.330 N 
HETATM   17  C2  UNL     1      21.662  -0.204  53.522  1.00  0.00     0.217 C 
HETATM   18  C1  UNL     1      20.300  -0.801  53.545  1.00  0.00     0.117 C 
HETATM   19  O1  UNL     1      21.771   1.003  53.914  1.00  0.00    -0.274 OA
HETATM   20  H4  UNL     1      22.629  -1.864  52.796  1.00  0.00     0.168 HD
ENDBRANCH   1  16
BRANCH   3  21
HETATM   21  N2  UNL     1      27.348  -0.763  54.092  1.00  0.00    -0.132 NA
HETATM   22  O2  UNL     1      28.476  -0.583  54.481  1.00  0.00    -0.066 OA
ENDBRANCH   3  21
TORSDOF 4
ENDMDL
MODEL 4
REMARK VINA RESULT:      -7.1      3.573      5.710
REMARK  4 active torsions:
REMARK  status: ('A' for Active; 'I' for Inactive)
REMARK       I    between atoms: C2_2  and  N1_4 
REMARK    1  A    between atoms: N1_4  and  C3_5 
REMARK    2  A    between atoms: C5_7  and  N2_8 
REMARK    3  A    between atoms: N3_12  and  C8_13 
REMARK    4  A    between atoms: C12_17  and  C13_18 
ROOT
HETATM    1  C3  UNL     1      25.012   0.258  53.077  1.00  0.00     0.028 C 
HETATM    2  C4  UNL     1      24.188  -0.713  53.410  1.00  0.00     0.029 C 
HETATM    3  C5  UNL     1      22.737  -0.865  53.554  1.00  0.00     0.165 C 
HETATM    4  C6  UNL     1      21.878   0.065  52.786  1.00  0.00     0.053 C 
HETATM    5  C7  UNL     1      22.611   0.567  51.558  1.00  0.00     0.126 C 
HETATM    6  N3  UNL     1      23.355   1.708  52.027  1.00  0.00    -0.375 N 
HETATM    7  C15 UNL     1      24.611   1.621  52.716  1.00  0.00     0.179 C 
ENDROOT
BRANCH   6   8
HETATM    8  C8  UNL     1      22.873   3.015  51.833  1.00  0.00     0.030 A 
HETATM    9  C9  UNL     1      21.550   3.386  51.834  1.00  0.00     0.029 A 
HETATM   10  C10 UNL     1      21.074   4.664  51.642  1.00  0.00     0.003 A 
HETATM   11  C11 UNL     1      21.982   5.678  51.428  1.00  0.00     0.008 A 
HETATM   12  C12 UNL     1      23.325   5.363  51.418  1.00  0.00    -0.046 A 
HETATM   13  C14 UNL     1      23.736   4.062  51.616  1.00  0.00     0.037 A 
BRANCH  12  14
HETATM   14  C13 UNL     1      24.251   6.485  51.184  1.00  0.00     0.123 C 
HETATM   15 BR1  UNL     1      23.414   7.959  50.251  1.00  0.00    -0.091 Br
ENDBRANCH  12  14
ENDBRANCH   6   8
BRANCH   1  16
HETATM   16  N1  UNL     1      26.434   0.018  53.046  1.00  0.00    -0.330 N 
HETATM   17  C2  UNL     1      27.191   0.287  54.239  1.00  0.00     0.217 C 
HETATM   18  C1  UNL     1      28.658   0.101  54.395  1.00  0.00     0.117 C 
HETATM   19  O1  UNL     1      26.552   0.722  55.252  1.00  0.00    -0.274 OA
HETATM   20  H4  UNL     1      27.086  -0.337  52.286  1.00  0.00     0.168 HD
ENDBRANCH   1  16
BRANCH   3  21
HETATM   21  N2  UNL     1      22.335  -0.843  54.937  1.00  0.00    -0.132 NA
HETATM   22  O2  UNL     1      22.760  -1.669  55.708  1.00  0.00    -0.066 OA
ENDBRANCH   3  21
TORSDOF 4
ENDMDL
MODEL 5
REMARK VINA RESULT:      -7.1      3.395      6.530
REMARK  4 active torsions:
REMARK  status: ('A' for Active; 'I' for Inactive)
REMARK       I    between atoms: C2_2  and  N1_4 
REMARK    1  A    between atoms: N1_4  and  C3_5 
REMARK    2  A    between atoms: C5_7  and  N2_8 
REMARK    3  A    between atoms: N3_12  and  C8_13 
REMARK    4  A    between atoms: C12_17  and  C13_18 
ROOT
HETATM    1  C3  UNL     1      22.863   0.697  51.984  1.00  0.00     0.028 C 
HETATM    2  C4  UNL     1      23.631   0.316  52.984  1.00  0.00     0.029 C 
HETATM    3  C5  UNL     1      24.927   0.725  53.535  1.00  0.00     0.165 C 
HETATM    4  C6  UNL     1      25.369   2.112  53.271  1.00  0.00     0.053 C 
HETATM    5  C7  UNL     1      24.173   3.011  53.030  1.00  0.00     0.126 C 
HETATM    6  N3  UNL     1      23.900   2.874  51.622  1.00  0.00    -0.375 N 
HETATM    7  C15 UNL     1      23.169   1.781  51.047  1.00  0.00     0.179 C 
ENDROOT
BRANCH   6   8
HETATM    8  C8  UNL     1      24.354   3.835  50.701  1.00  0.00     0.030 A 
HETATM    9  C9  UNL     1      23.614   4.883  50.210  1.00  0.00     0.029 A 
HETATM   10  C10 UNL     1      24.055   5.824  49.305  1.00  0.00     0.003 A 
HETATM   11  C11 UNL     1      25.348   5.730  48.837  1.00  0.00     0.008 A 
HETATM   12  C12 UNL     1      26.137   4.697  49.298  1.00  0.00    -0.046 A 
HETATM   13  C14 UNL     1      25.635   3.787  50.203  1.00  0.00     0.037 A 
BRANCH  12  14
HETATM   14  C13 UNL     1      27.510   4.645  48.764  1.00  0.00     0.123 C 
HETATM   15 BR1  UNL     1      28.166   6.384  48.225  1.00  0.00    -0.091 Br
ENDBRANCH  12  14
ENDBRANCH   6   8
BRANCH   1  16
HETATM   16  N1  UNL     1      21.608   0.028  51.746  1.00  0.00    -0.330 N 
HETATM   17  C2  UNL     1      20.429   0.556  52.378  1.00  0.00     0.217 C 
HETATM   18  C1  UNL     1      19.054   0.003  52.249  1.00  0.00     0.117 C 
HETATM   19  O1  UNL     1      20.571   1.588  53.112  1.00  0.00    -0.274 OA
HETATM   20  H4  UNL     1      21.347  -0.826  51.168  1.00  0.00     0.168 HD
ENDBRANCH   1  16
BRANCH   3  21
HETATM   21  N2  UNL     1      25.977  -0.184  53.154  1.00  0.00    -0.132 NA
HETATM   22  O2  UNL     1      26.214  -1.157  53.829  1.00  0.00    -0.066 OA
ENDBRANCH   3  21
TORSDOF 4
ENDMDL
MODEL 6
REMARK VINA RESULT:      -6.9      3.639      5.557
REMARK  4 active torsions:
REMARK  status: ('A' for Active; 'I' for Inactive)
REMARK       I    between atoms: C2_2  and  N1_4 
REMARK    1  A    between atoms: N1_4  and  C3_5 
REMARK    2  A    between atoms: C5_7  and  N2_8 
REMARK    3  A    between atoms: N3_12  and  C8_13 
REMARK    4  A    between atoms: C12_17  and  C13_18 
ROOT
HETATM    1  C3  UNL     1      25.077   4.185  49.779  1.00  0.00     0.028 C 
HETATM    2  C4  UNL     1      23.890   4.014  49.236  1.00  0.00     0.029 C 
HETATM    3  C5  UNL     1      22.824   3.011  49.321  1.00  0.00     0.165 C 
HETATM    4  C6  UNL     1      22.758   2.194  50.554  1.00  0.00     0.053 C 
HETATM    5  C7  UNL     1      23.383   2.940  51.716  1.00  0.00     0.126 C 
HETATM    6  N3  UNL     1      24.786   2.624  51.631  1.00  0.00    -0.375 N 
HETATM    7  C15 UNL     1      25.706   3.277  50.743  1.00  0.00     0.179 C 
ENDROOT
BRANCH   6   8
HETATM    8  C8  UNL     1      25.351   1.620  52.438  1.00  0.00     0.030 A 
HETATM    9  C9  UNL     1      24.683   0.527  52.937  1.00  0.00     0.029 A 
HETATM   10  C10 UNL     1      25.232  -0.456  53.730  1.00  0.00     0.003 A 
HETATM   11  C11 UNL     1      26.565  -0.360  54.067  1.00  0.00     0.008 A 
HETATM   12  C12 UNL     1      27.285   0.717  53.593  1.00  0.00    -0.046 A 
HETATM   13  C14 UNL     1      26.675   1.668  52.803  1.00  0.00     0.037 A 
BRANCH  12  14
HETATM   14  C13 UNL     1      28.705   0.769  53.985  1.00  0.00     0.123 C 
HETATM   15 BR1  UNL     1      29.663  -0.849  53.527  1.00  0.00    -0.091 Br
ENDBRANCH  12  14
ENDBRANCH   6   8
BRANCH   1  16
HETATM   16  N1  UNL     1      25.866   5.342  49.436  1.00  0.00    -0.330 N 
HETATM   17  C2  UNL     1      25.589   6.577  50.119  1.00  0.00     0.217 C 
HETATM   18  C1  UNL     1      26.295   7.867  49.899  1.00  0.00     0.117 C 
HETATM   19  O1  UNL     1      24.659   6.568  50.990  1.00  0.00    -0.274 OA
HETATM   20  H4  UNL     1      26.658   5.492  48.743  1.00  0.00     0.168 HD
ENDBRANCH   1  16
BRANCH   3  21
HETATM   21  N2  UNL     1      22.824   2.135  48.177  1.00  0.00    -0.132 NA
HETATM   22  O2  UNL     1      21.882   1.412  47.964  1.00  0.00    -0.066 OA
ENDBRANCH   3  21
TORSDOF 4
ENDMDL
MODEL 7
REMARK VINA RESULT:      -6.8      3.503      7.212
REMARK  4 active torsions:
REMARK  status: ('A' for Active; 'I' for Inactive)
REMARK       I    between atoms: C2_2  and  N1_4 
REMARK    1  A    between atoms: N1_4  and  C3_5 
REMARK    2  A    between atoms: C5_7  and  N2_8 
REMARK    3  A    between atoms: N3_12  and  C8_13 
REMARK    4  A    between atoms: C12_17  and  C13_18 
ROOT
HETATM    1  C3  UNL     1      25.753   2.006  51.611  1.00  0.00     0.028 C 
HETATM    2  C4  UNL     1      24.444   2.002  51.753  1.00  0.00     0.029 C 
HETATM    3  C5  UNL     1      23.336   2.878  51.362  1.00  0.00     0.165 C 
HETATM    4  C6  UNL     1      23.551   3.764  50.196  1.00  0.00     0.053 C 
HETATM    5  C7  UNL     1      24.600   3.176  49.272  1.00  0.00     0.126 C 
HETATM    6  N3  UNL     1      25.852   3.645  49.808  1.00  0.00    -0.375 N 
HETATM    7  C15 UNL     1      26.526   3.044  50.923  1.00  0.00     0.179 C 
ENDROOT
BRANCH   6   8
HETATM    8  C8  UNL     1      26.503   4.760  49.251  1.00  0.00     0.030 A 
HETATM    9  C9  UNL     1      27.749   4.750  48.669  1.00  0.00     0.029 A 
HETATM   10  C10 UNL     1      28.390   5.840  48.126  1.00  0.00     0.003 A 
HETATM   11  C11 UNL     1      27.750   7.060  48.152  1.00  0.00     0.008 A 
HETATM   12  C12 UNL     1      26.496   7.130  48.722  1.00  0.00    -0.046 A 
HETATM   13  C14 UNL     1      25.908   6.000  49.251  1.00  0.00     0.037 A 
BRANCH  12  14
HETATM   14  C13 UNL     1      25.859   8.458  48.724  1.00  0.00     0.123 C 
HETATM   15 BR1  UNL     1      23.956   8.370  49.066  1.00  0.00    -0.091 Br
ENDBRANCH  12  14
ENDBRANCH   6   8
BRANCH   1  16
HETATM   16  N1  UNL     1      26.540   0.927  52.155  1.00  0.00    -0.330 N 
HETATM   17  C2  UNL     1      27.015   1.051  53.507  1.00  0.00     0.217 C 
HETATM   18  C1  UNL     1      27.836   0.045  54.233  1.00  0.00     0.117 C 
HETATM   19  O1  UNL     1      26.707   2.112  54.141  1.00  0.00    -0.274 OA
HETATM   20  H4  UNL     1      26.867   0.001  51.748  1.00  0.00     0.168 HD
ENDBRANCH   1  16
BRANCH   3  21
HETATM   21  N2  UNL     1      22.865   3.667  52.471  1.00  0.00    -0.132 NA
HETATM   22  O2  UNL     1      23.550   4.552  52.924  1.00  0.00    -0.066 OA
ENDBRANCH   3  21
TORSDOF 4
ENDMDL
MODEL 8
REMARK VINA RESULT:      -6.5      5.459      8.478
REMARK  4 active torsions:
REMARK  status: ('A' for Active; 'I' for Inactive)
REMARK       I    between atoms: C2_2  and  N1_4 
REMARK    1  A    between atoms: N1_4  and  C3_5 
REMARK    2  A    between atoms: C5_7  and  N2_8 
REMARK    3  A    between atoms: N3_12  and  C8_13 
REMARK    4  A    between atoms: C12_17  and  C13_18 
ROOT
HETATM    1  C3  UNL     1      17.264   0.336  51.511  1.00  0.00     0.028 C 
HETATM    2  C4  UNL     1      17.168   1.552  51.017  1.00  0.00     0.029 C 
HETATM    3  C5  UNL     1      18.020   2.745  50.974  1.00  0.00     0.165 C 
HETATM    4  C6  UNL     1      19.480   2.541  51.103  1.00  0.00     0.053 C 
HETATM    5  C7  UNL     1      19.861   1.149  50.639  1.00  0.00     0.126 C 
HETATM    6  N3  UNL     1      19.685   0.322  51.806  1.00  0.00    -0.375 N 
HETATM    7  C15 UNL     1      18.418  -0.192  52.244  1.00  0.00     0.179 C 
ENDROOT
BRANCH   6   8
HETATM    8  C8  UNL     1      20.782  -0.035  52.610  1.00  0.00     0.030 A 
HETATM    9  C9  UNL     1      20.723  -0.815  53.740  1.00  0.00     0.029 A 
HETATM   10  C10 UNL     1      21.794  -1.164  54.532  1.00  0.00     0.003 A 
HETATM   11  C11 UNL     1      23.046  -0.706  54.183  1.00  0.00     0.008 A 
HETATM   12  C12 UNL     1      23.165   0.082  53.057  1.00  0.00    -0.046 A 
HETATM   13  C14 UNL     1      22.051   0.396  52.307  1.00  0.00     0.037 A 
BRANCH  12  14
HETATM   14  C13 UNL     1      24.525   0.545  52.731  1.00  0.00     0.123 C 
HETATM   15 BR1  UNL     1      25.892  -0.700  53.304  1.00  0.00    -0.091 Br
ENDBRANCH  12  14
ENDBRANCH   6   8
BRANCH   1  16
HETATM   16  N1  UNL     1      16.175  -0.595  51.347  1.00  0.00    -0.330 N 
HETATM   17  C2  UNL     1      15.111  -0.569  52.315  1.00  0.00     0.217 C 
HETATM   18  C1  UNL     1      13.912  -1.450  52.309  1.00  0.00     0.117 C 
HETATM   19  O1  UNL     1      15.199   0.281  53.260  1.00  0.00    -0.274 OA
HETATM   20  H4  UNL     1      15.974  -1.345  50.621  1.00  0.00     0.168 HD
ENDBRANCH   1  16
BRANCH   3  21
HETATM   21  N2  UNL     1      17.598   3.735  51.932  1.00  0.00    -0.132 NA
HETATM   22  O2  UNL     1      16.485   3.696  52.398  1.00  0.00    -0.066 OA
ENDBRANCH   3  21
TORSDOF 4
ENDMDL
MODEL 9
REMARK VINA RESULT:      -6.5      5.741      8.428
REMARK  4 active torsions:
REMARK  status: ('A' for Active; 'I' for Inactive)
REMARK       I    between atoms: C2_2  and  N1_4 
REMARK    1  A    between atoms: N1_4  and  C3_5 
REMARK    2  A    between atoms: C5_7  and  N2_8 
REMARK    3  A    between atoms: N3_12  and  C8_13 
REMARK    4  A    between atoms: C12_17  and  C13_18 
ROOT
HETATM    1  C3  UNL     1      29.367   9.218  49.252  1.00  0.00     0.028 C 
HETATM    2  C4  UNL     1      30.513   8.673  48.904  1.00  0.00     0.029 C 
HETATM    3  C5  UNL     1      30.969   7.338  48.504  1.00  0.00     0.165 C 
HETATM    4  C6  UNL     1      29.962   6.424  47.920  1.00  0.00     0.053 C 
HETATM    5  C7  UNL     1      28.837   7.215  47.284  1.00  0.00     0.126 C 
HETATM    6  N3  UNL     1      27.920   7.466  48.366  1.00  0.00    -0.375 N 
HETATM    7  C15 UNL     1      28.084   8.514  49.333  1.00  0.00     0.179 C 
ENDROOT
BRANCH   6   8
HETATM    8  C8  UNL     1      26.776   6.667  48.544  1.00  0.00     0.030 A 
HETATM    9  C9  UNL     1      25.483   7.053  48.280  1.00  0.00     0.029 A 
HETATM   10  C10 UNL     1      24.361   6.274  48.456  1.00  0.00     0.003 A 
HETATM   11  C11 UNL     1      24.520   4.992  48.936  1.00  0.00     0.008 A 
HETATM   12  C12 UNL     1      25.796   4.551  49.217  1.00  0.00    -0.046 A 
HETATM   13  C14 UNL     1      26.879   5.382  49.019  1.00  0.00     0.037 A 
BRANCH  12  14
HETATM   14  C13 UNL     1      25.907   3.173  49.727  1.00  0.00     0.123 C 
HETATM   15 BR1  UNL     1      24.513   2.735  50.996  1.00  0.00    -0.091 Br
ENDBRANCH  12  14
ENDBRANCH   6   8
BRANCH   1  16
HETATM   16  N1  UNL     1      29.309  10.619  49.590  1.00  0.00    -0.330 N 
HETATM   17  C2  UNL     1      28.911  11.547  48.566  1.00  0.00     0.217 C 
HETATM   18  C1  UNL     1      28.795  13.021  48.729  1.00  0.00     0.117 C 
HETATM   19  O1  UNL     1      28.631  11.068  47.419  1.00  0.00    -0.274 OA
HETATM   20  H4  UNL     1      29.511  11.150  50.489  1.00  0.00     0.168 HD
ENDBRANCH   1  16
BRANCH   3  21
HETATM   21  N2  UNL     1      31.647   6.663  49.581  1.00  0.00    -0.132 NA
HETATM   22  O2  UNL     1      31.580   5.462  49.685  1.00  0.00    -0.066 OA
ENDBRANCH   3  21
TORSDOF 4
ENDMDL
