MODEL 1
REMARK VINA RESULT:      -7.4      0.000      0.000
REMARK  1 active torsions:
REMARK  status: ('A' for Active; 'I' for Inactive)
REMARK    1  A    between atoms: C1_2  and  C2_3 
ROOT
HETATM    1  C2  UNL     1      32.380   4.422  47.222  1.00  0.00    -0.012 C 
HETATM    2  C3  UNL     1      32.411   5.495  47.958  1.00  0.00    -0.009 C 
HETATM    3  C4  UNL     1      33.551   5.857  48.703  1.00  0.00     0.032 C 
HETATM    4  C5  UNL     1      34.385   4.922  48.337  1.00  0.00     0.019 C 
HETATM    5  N1  UNL     1      35.442   4.736  49.290  1.00  0.00    -0.271 NA
HETATM    6  C6  UNL     1      35.855   6.113  48.985  1.00  0.00     0.062 C 
HETATM    7  C7  UNL     1      35.466   7.351  48.604  1.00  0.00     0.014 C 
HETATM    8  C8  UNL     1      34.223   8.111  48.227  1.00  0.00     0.036 C 
HETATM    9  C9  UNL     1      32.876   7.922  48.063  1.00  0.00     0.085 C 
HETATM   10  O1  UNL     1      32.464   9.236  47.698  1.00  0.00    -0.350 OA
HETATM   11  C10 UNL     1      31.147   9.809  47.746  1.00  0.00     0.205 C 
HETATM   12  C11 UNL     1      30.541   9.457  49.085  1.00  0.00     0.296 C 
HETATM   13  N2  UNL     1      29.928   8.156  49.057  1.00  0.00     0.088 N 
HETATM   14  C12 UNL     1      30.925   7.097  49.271  1.00  0.00     0.316 C 
HETATM   15  C13 UNL     1      31.763   6.856  48.130  1.00  0.00     0.176 C 
HETATM   16  N3  UNL     1      31.139   7.195  46.795  1.00  0.00    -0.167 NA
HETATM   17  N4  UNL     1      31.775   6.963  45.662  1.00  0.00    -0.147 NA
HETATM   18  C14 UNL     1      33.108   6.471  45.375  1.00  0.00     0.251 C 
HETATM   19  N5  UNL     1      33.995   5.741  46.046  1.00  0.00    -0.266 NA
HETATM   20  C15 UNL     1      33.806   4.608  46.968  1.00  0.00     0.185 C 
HETATM   21  H4  UNL     1      35.035   3.836  49.378  1.00  0.00     0.132 HD
HETATM   22  H12 UNL     1      29.249   8.060  49.854  1.00  0.00     0.316 HD
ENDROOT
BRANCH   1  23
HETATM   23  C1  UNL     1      31.804   3.223  46.569  1.00  0.00     0.259 C 
HETATM   24  F1  UNL     1      32.550   2.082  46.757  1.00  0.00    -0.251 F 
ENDBRANCH   1  23
TORSDOF 1
ENDMDL
MODEL 2
REMARK VINA RESULT:      -7.1      2.409      4.581
REMARK  1 active torsions:
REMARK  status: ('A' for Active; 'I' for Inactive)
REMARK    1  A    between atoms: C1_2  and  C2_3 
ROOT
HETATM    1  C2  UNL     1      30.445   7.030  47.329  1.00  0.00    -0.012 C 
HETATM    2  C3  UNL     1      31.634   6.659  46.951  1.00  0.00    -0.009 C 
HETATM    3  C4  UNL     1      32.659   7.591  46.689  1.00  0.00     0.032 C 
HETATM    4  C5  UNL     1      32.059   8.706  47.010  1.00  0.00     0.019 C 
HETATM    5  N1  UNL     1      32.665   9.846  46.385  1.00  0.00    -0.271 NA
HETATM    6  C6  UNL     1      33.876   9.529  47.155  1.00  0.00     0.062 C 
HETATM    7  C7  UNL     1      34.628   8.563  47.729  1.00  0.00     0.014 C 
HETATM    8  C8  UNL     1      34.647   7.071  47.928  1.00  0.00     0.036 C 
HETATM    9  C9  UNL     1      33.903   5.957  47.643  1.00  0.00     0.085 C 
HETATM   10  O1  UNL     1      34.717   4.938  48.217  1.00  0.00    -0.350 OA
HETATM   11  C10 UNL     1      34.705   3.525  47.953  1.00  0.00     0.205 C 
HETATM   12  C11 UNL     1      34.666   3.339  46.453  1.00  0.00     0.296 C 
HETATM   13  N2  UNL     1      33.318   3.401  45.953  1.00  0.00     0.088 N 
HETATM   14  C12 UNL     1      32.892   4.794  45.754  1.00  0.00     0.316 C 
HETATM   15  C13 UNL     1      32.593   5.485  46.976  1.00  0.00     0.176 C 
HETATM   16  N3  UNL     1      32.145   4.601  48.118  1.00  0.00    -0.167 NA
HETATM   17  N4  UNL     1      31.778   5.112  49.278  1.00  0.00    -0.147 NA
HETATM   18  C14 UNL     1      31.776   6.469  49.789  1.00  0.00     0.251 C 
HETATM   19  N5  UNL     1      31.753   7.675  49.227  1.00  0.00    -0.266 NA
HETATM   20  C15 UNL     1      31.064   8.159  48.019  1.00  0.00     0.185 C 
HETATM   21  H4  UNL     1      31.780   9.918  45.945  1.00  0.00     0.132 HD
HETATM   22  H12 UNL     1      33.268   2.959  45.001  1.00  0.00     0.316 HD
ENDROOT
BRANCH   1  23
HETATM   23  C1  UNL     1      28.968   6.992  47.441  1.00  0.00     0.259 C 
HETATM   24  F1  UNL     1      28.477   5.767  47.830  1.00  0.00    -0.251 F 
ENDBRANCH   1  23
TORSDOF 1
ENDMDL
MODEL 3
REMARK VINA RESULT:      -7.0      9.779     11.784
REMARK  1 active torsions:
REMARK  status: ('A' for Active; 'I' for Inactive)
REMARK    1  A    between atoms: C1_2  and  C2_3 
ROOT
HETATM    1  C2  UNL     1      23.056   4.963  51.420  1.00  0.00    -0.012 C 
HETATM    2  C3  UNL     1      23.335   3.909  52.131  1.00  0.00    -0.009 C 
HETATM    3  C4  UNL     1      22.336   3.012  52.561  1.00  0.00     0.032 C 
HETATM    4  C5  UNL     1      21.283   3.532  51.988  1.00  0.00     0.019 C 
HETATM    5  N1  UNL     1      20.065   3.141  52.637  1.00  0.00    -0.271 NA
HETATM    6  C6  UNL     1      20.389   1.762  52.245  1.00  0.00     0.062 C 
HETATM    7  C7  UNL     1      21.364   0.861  51.984  1.00  0.00     0.014 C 
HETATM    8  C8  UNL     1      22.865   0.755  51.942  1.00  0.00     0.036 C 
HETATM    9  C9  UNL     1      23.984   1.521  52.127  1.00  0.00     0.085 C 
HETATM   10  O1  UNL     1      25.008   0.561  51.888  1.00  0.00    -0.350 OA
HETATM   11  C10 UNL     1      26.392   0.609  52.275  1.00  0.00     0.205 C 
HETATM   12  C11 UNL     1      26.449   1.039  53.722  1.00  0.00     0.296 C 
HETATM   13  N2  UNL     1      26.410   2.473  53.844  1.00  0.00     0.088 N 
HETATM   14  C12 UNL     1      25.027   2.969  53.789  1.00  0.00     0.316 C 
HETATM   15  C13 UNL     1      24.460   2.949  52.470  1.00  0.00     0.176 C 
HETATM   16  N3  UNL     1      25.460   3.058  51.342  1.00  0.00    -0.167 NA
HETATM   17  N4  UNL     1      25.070   3.116  50.083  1.00  0.00    -0.147 NA
HETATM   18  C14 UNL     1      23.764   3.015  49.461  1.00  0.00     0.251 C 
HETATM   19  N5  UNL     1      22.516   3.214  49.878  1.00  0.00    -0.266 NA
HETATM   20  C15 UNL     1      21.964   4.210  50.811  1.00  0.00     0.185 C 
HETATM   21  H4  UNL     1      19.999   4.112  52.821  1.00  0.00     0.132 HD
HETATM   22  H12 UNL     1      26.770   2.763  54.788  1.00  0.00     0.316 HD
ENDROOT
BRANCH   1  23
HETATM   23  C1  UNL     1      23.175   6.356  50.929  1.00  0.00     0.259 C 
HETATM   24  F1  UNL     1      24.159   7.081  51.563  1.00  0.00    -0.251 F 
ENDBRANCH   1  23
TORSDOF 1
ENDMDL
MODEL 4
REMARK VINA RESULT:      -6.9      3.404      6.363
REMARK  1 active torsions:
REMARK  status: ('A' for Active; 'I' for Inactive)
REMARK    1  A    between atoms: C1_2  and  C2_3 
ROOT
HETATM    1  C2  UNL     1      30.158  10.855  48.755  1.00  0.00    -0.012 C 
HETATM    2  C3  UNL     1      30.182   9.581  49.018  1.00  0.00    -0.009 C 
HETATM    3  C4  UNL     1      29.073   8.914  49.578  1.00  0.00     0.032 C 
HETATM    4  C5  UNL     1      28.200   9.883  49.612  1.00  0.00     0.019 C 
HETATM    5  N1  UNL     1      27.163   9.644  50.575  1.00  0.00    -0.271 NA
HETATM    6  C6  UNL     1      26.787   8.477  49.765  1.00  0.00     0.062 C 
HETATM    7  C7  UNL     1      27.206   7.499  48.929  1.00  0.00     0.014 C 
HETATM    8  C8  UNL     1      28.463   6.994  48.273  1.00  0.00     0.036 C 
HETATM    9  C9  UNL     1      29.797   7.285  48.180  1.00  0.00     0.085 C 
HETATM   10  O1  UNL     1      30.242   6.233  47.329  1.00  0.00    -0.350 OA
HETATM   11  C10 UNL     1      31.578   5.739  47.136  1.00  0.00     0.205 C 
HETATM   12  C11 UNL     1      32.207   5.569  48.500  1.00  0.00     0.296 C 
HETATM   13  N2  UNL     1      32.777   6.804  48.971  1.00  0.00     0.088 N 
HETATM   14  C12 UNL     1      31.752   7.657  49.590  1.00  0.00     0.316 C 
HETATM   15  C13 UNL     1      30.877   8.287  48.642  1.00  0.00     0.176 C 
HETATM   16  N3  UNL     1      31.477   8.515  47.273  1.00  0.00    -0.167 NA
HETATM   17  N4  UNL     1      30.805   9.142  46.325  1.00  0.00    -0.147 NA
HETATM   18  C14 UNL     1      29.450   9.654  46.267  1.00  0.00     0.251 C 
HETATM   19  N5  UNL     1      28.557  10.031  47.179  1.00  0.00    -0.266 NA
HETATM   20  C15 UNL     1      28.733  10.725  48.465  1.00  0.00     0.185 C 
HETATM   21  H4  UNL     1      27.543  10.455  50.999  1.00  0.00     0.132 HD
HETATM   22  H12 UNL     1      33.472   6.610  49.735  1.00  0.00     0.316 HD
ENDROOT
BRANCH   1  23
HETATM   23  C1  UNL     1      30.678  12.236  48.611  1.00  0.00     0.259 C 
HETATM   24  F1  UNL     1      30.587  12.981  49.764  1.00  0.00    -0.251 F 
ENDBRANCH   1  23
TORSDOF 1
ENDMDL
MODEL 5
REMARK VINA RESULT:      -6.8      8.090     10.212
REMARK  1 active torsions:
REMARK  status: ('A' for Active; 'I' for Inactive)
REMARK    1  A    between atoms: C1_2  and  C2_3 
ROOT
HETATM    1  C2  UNL     1      23.706   3.004  51.338  1.00  0.00    -0.012 C 
HETATM    2  C3  UNL     1      24.172   3.549  50.251  1.00  0.00    -0.009 C 
HETATM    3  C4  UNL     1      23.624   3.272  48.983  1.00  0.00     0.032 C 
HETATM    4  C5  UNL     1      22.627   2.496  49.315  1.00  0.00     0.019 C 
HETATM    5  N1  UNL     1      22.200   1.667  48.225  1.00  0.00    -0.271 NA
HETATM    6  C6  UNL     1      21.836   2.908  47.525  1.00  0.00     0.062 C 
HETATM    7  C7  UNL     1      22.101   4.221  47.344  1.00  0.00     0.014 C 
HETATM    8  C8  UNL     1      23.044   5.292  47.824  1.00  0.00     0.036 C 
HETATM    9  C9  UNL     1      24.084   5.470  48.696  1.00  0.00     0.085 C 
HETATM   10  O1  UNL     1      24.385   6.846  48.475  1.00  0.00    -0.350 OA
HETATM   11  C10 UNL     1      25.590   7.562  48.790  1.00  0.00     0.205 C 
HETATM   12  C11 UNL     1      26.758   6.723  48.327  1.00  0.00     0.296 C 
HETATM   13  N2  UNL     1      27.129   5.749  49.320  1.00  0.00     0.088 N 
HETATM   14  C12 UNL     1      26.280   4.552  49.228  1.00  0.00     0.316 C 
HETATM   15  C13 UNL     1      24.954   4.746  49.745  1.00  0.00     0.176 C 
HETATM   16  N3  UNL     1      24.833   5.809  50.812  1.00  0.00    -0.167 NA
HETATM   17  N4  UNL     1      23.684   6.045  51.418  1.00  0.00    -0.147 NA
HETATM   18  C14 UNL     1      22.351   5.512  51.222  1.00  0.00     0.251 C 
HETATM   19  N5  UNL     1      21.865   4.391  50.693  1.00  0.00    -0.266 NA
HETATM   20  C15 UNL     1      22.382   3.013  50.722  1.00  0.00     0.185 C 
HETATM   21  H4  UNL     1      22.497   0.938  48.827  1.00  0.00     0.132 HD
HETATM   22  H12 UNL     1      28.107   5.407  49.141  1.00  0.00     0.316 HD
ENDROOT
BRANCH   1  23
HETATM   23  C1  UNL     1      23.734   2.417  52.698  1.00  0.00     0.259 C 
HETATM   24  F1  UNL     1      24.355   3.217  53.630  1.00  0.00    -0.251 F 
ENDBRANCH   1  23
TORSDOF 1
ENDMDL
MODEL 6
REMARK VINA RESULT:      -6.8      1.941      3.314
REMARK  1 active torsions:
REMARK  status: ('A' for Active; 'I' for Inactive)
REMARK    1  A    between atoms: C1_2  and  C2_3 
ROOT
HETATM    1  C2  UNL     1      34.062   6.214  48.137  1.00  0.00    -0.012 C 
HETATM    2  C3  UNL     1      33.127   7.079  47.870  1.00  0.00    -0.009 C 
HETATM    3  C4  UNL     1      33.049   7.733  46.623  1.00  0.00     0.032 C 
HETATM    4  C5  UNL     1      34.029   7.153  45.985  1.00  0.00     0.019 C 
HETATM    5  N1  UNL     1      34.507   7.947  44.890  1.00  0.00    -0.271 NA
HETATM    6  C6  UNL     1      33.174   7.785  44.292  1.00  0.00     0.062 C 
HETATM    7  C7  UNL     1      31.850   7.620  44.512  1.00  0.00     0.014 C 
HETATM    8  C8  UNL     1      30.870   7.491  45.648  1.00  0.00     0.036 C 
HETATM    9  C9  UNL     1      30.836   7.455  47.016  1.00  0.00     0.085 C 
HETATM   10  O1  UNL     1      29.436   7.319  47.245  1.00  0.00    -0.350 OA
HETATM   11  C10 UNL     1      28.693   7.591  48.445  1.00  0.00     0.205 C 
HETATM   12  C11 UNL     1      29.150   8.931  48.975  1.00  0.00     0.296 C 
HETATM   13  N2  UNL     1      30.330   8.797  49.788  1.00  0.00     0.088 N 
HETATM   14  C12 UNL     1      31.542   8.753  48.956  1.00  0.00     0.316 C 
HETATM   15  C13 UNL     1      31.728   7.503  48.275  1.00  0.00     0.176 C 
HETATM   16  N3  UNL     1      31.106   6.305  48.955  1.00  0.00    -0.167 NA
HETATM   17  N4  UNL     1      31.255   5.087  48.470  1.00  0.00    -0.147 NA
HETATM   18  C14 UNL     1      31.886   4.588  47.264  1.00  0.00     0.251 C 
HETATM   19  N5  UNL     1      32.829   5.051  46.447  1.00  0.00    -0.266 NA
HETATM   20  C15 UNL     1      34.047   5.828  46.729  1.00  0.00     0.185 C 
HETATM   21  H4  UNL     1      35.341   7.958  45.425  1.00  0.00     0.132 HD
HETATM   22  H12 UNL     1      30.445   9.645  50.397  1.00  0.00     0.316 HD
ENDROOT
BRANCH   1  23
HETATM   23  C1  UNL     1      35.053   5.475  48.954  1.00  0.00     0.259 C 
HETATM   24  F1  UNL     1      35.202   4.158  48.581  1.00  0.00    -0.251 F 
ENDBRANCH   1  23
TORSDOF 1
ENDMDL
MODEL 7
REMARK VINA RESULT:      -6.8     10.213     11.997
REMARK  1 active torsions:
REMARK  status: ('A' for Active; 'I' for Inactive)
REMARK    1  A    between atoms: C1_2  and  C2_3 
ROOT
HETATM    1  C2  UNL     1      24.249   3.467  50.186  1.00  0.00    -0.012 C 
HETATM    2  C3  UNL     1      23.364   2.531  50.375  1.00  0.00    -0.009 C 
HETATM    3  C4  UNL     1      23.608   1.434  51.226  1.00  0.00     0.032 C 
HETATM    4  C5  UNL     1      24.785   1.750  51.696  1.00  0.00     0.019 C 
HETATM    5  N1  UNL     1      25.497   0.606  52.187  1.00  0.00    -0.271 NA
HETATM    6  C6  UNL     1      24.428   0.466  53.186  1.00  0.00     0.062 C 
HETATM    7  C7  UNL     1      23.121   0.653  53.475  1.00  0.00     0.014 C 
HETATM    8  C8  UNL     1      21.859   1.185  52.849  1.00  0.00     0.036 C 
HETATM    9  C9  UNL     1      21.415   1.759  51.688  1.00  0.00     0.085 C 
HETATM   10  O1  UNL     1      20.031   1.921  51.982  1.00  0.00    -0.350 OA
HETATM   11  C10 UNL     1      18.937   2.119  51.071  1.00  0.00     0.205 C 
HETATM   12  C11 UNL     1      19.088   1.118  49.948  1.00  0.00     0.296 C 
HETATM   13  N2  UNL     1      19.973   1.609  48.925  1.00  0.00     0.088 N 
HETATM   14  C12 UNL     1      21.379   1.366  49.282  1.00  0.00     0.316 C 
HETATM   15  C13 UNL     1      21.876   2.249  50.299  1.00  0.00     0.176 C 
HETATM   16  N3  UNL     1      21.189   3.593  50.370  1.00  0.00    -0.167 NA
HETATM   17  N4  UNL     1      21.589   4.524  51.216  1.00  0.00    -0.147 NA
HETATM   18  C14 UNL     1      22.598   4.527  52.257  1.00  0.00     0.251 C 
HETATM   19  N5  UNL     1      23.698   3.815  52.489  1.00  0.00    -0.266 NA
HETATM   20  C15 UNL     1      24.697   3.261  51.560  1.00  0.00     0.185 C 
HETATM   21  H4  UNL     1      26.125   0.840  51.456  1.00  0.00     0.132 HD
HETATM   22  H12 UNL     1      19.820   1.077  48.032  1.00  0.00     0.316 HD
ENDROOT
BRANCH   1  23
HETATM   23  C1  UNL     1      25.010   4.507  49.454  1.00  0.00     0.259 C 
HETATM   24  F1  UNL     1      26.244   4.081  49.017  1.00  0.00    -0.251 F 
ENDBRANCH   1  23
TORSDOF 1
ENDMDL
MODEL 8
REMARK VINA RESULT:      -6.8      9.221     10.768
REMARK  1 active torsions:
REMARK  status: ('A' for Active; 'I' for Inactive)
REMARK    1  A    between atoms: C1_2  and  C2_3 
ROOT
HETATM    1  C2  UNL     1      21.791   2.475  52.369  1.00  0.00    -0.012 C 
HETATM    2  C3  UNL     1      22.875   3.183  52.236  1.00  0.00    -0.009 C 
HETATM    3  C4  UNL     1      24.152   2.651  52.506  1.00  0.00     0.032 C 
HETATM    4  C5  UNL     1      23.843   1.413  52.785  1.00  0.00     0.019 C 
HETATM    5  N1  UNL     1      24.854   0.767  53.572  1.00  0.00    -0.271 NA
HETATM    6  C6  UNL     1      25.757   0.957  52.428  1.00  0.00     0.062 C 
HETATM    7  C7  UNL     1      26.083   1.720  51.361  1.00  0.00     0.014 C 
HETATM    8  C8  UNL     1      25.641   2.971  50.651  1.00  0.00     0.036 C 
HETATM    9  C9  UNL     1      24.679   3.944  50.723  1.00  0.00     0.085 C 
HETATM   10  O1  UNL     1      25.047   4.766  49.619  1.00  0.00    -0.350 OA
HETATM   11  C10 UNL     1      24.686   6.133  49.359  1.00  0.00     0.205 C 
HETATM   12  C11 UNL     1      24.880   6.911  50.639  1.00  0.00     0.296 C 
HETATM   13  N2  UNL     1      23.724   6.813  51.492  1.00  0.00     0.088 N 
HETATM   14  C12 UNL     1      23.755   5.574  52.283  1.00  0.00     0.316 C 
HETATM   15  C13 UNL     1      23.440   4.397  51.524  1.00  0.00     0.176 C 
HETATM   16  N3  UNL     1      22.552   4.631  50.322  1.00  0.00    -0.167 NA
HETATM   17  N4  UNL     1      22.133   3.627  49.574  1.00  0.00    -0.147 NA
HETATM   18  C14 UNL     1      22.419   2.206  49.599  1.00  0.00     0.251 C 
HETATM   19  N5  UNL     1      22.845   1.359  50.533  1.00  0.00    -0.266 NA
HETATM   20  C15 UNL     1      22.562   1.299  51.976  1.00  0.00     0.185 C 
HETATM   21  H4  UNL     1      24.125   0.721  54.242  1.00  0.00     0.132 HD
HETATM   22  H12 UNL     1      23.731   7.591  52.198  1.00  0.00     0.316 HD
ENDROOT
BRANCH   1  23
HETATM   23  C1  UNL     1      20.370   2.188  52.677  1.00  0.00     0.259 C 
HETATM   24  F1  UNL     1      20.169   0.951  53.244  1.00  0.00    -0.251 F 
ENDBRANCH   1  23
TORSDOF 1
ENDMDL
MODEL 9
REMARK VINA RESULT:      -6.7      8.618     10.539
REMARK  1 active torsions:
REMARK  status: ('A' for Active; 'I' for Inactive)
REMARK    1  A    between atoms: C1_2  and  C2_3 
ROOT
HETATM    1  C2  UNL     1      24.214   5.677  48.846  1.00  0.00    -0.012 C 
HETATM    2  C3  UNL     1      23.968   4.408  48.999  1.00  0.00    -0.009 C 
HETATM    3  C4  UNL     1      24.923   3.521  49.535  1.00  0.00     0.032 C 
HETATM    4  C5  UNL     1      25.888   4.352  49.825  1.00  0.00     0.019 C 
HETATM    5  N1  UNL     1      27.160   3.695  49.915  1.00  0.00    -0.271 NA
HETATM    6  C6  UNL     1      26.604   2.943  51.049  1.00  0.00     0.062 C 
HETATM    7  C7  UNL     1      25.499   2.410  51.618  1.00  0.00     0.014 C 
HETATM    8  C8  UNL     1      24.020   2.274  51.375  1.00  0.00     0.036 C 
HETATM    9  C9  UNL     1      23.059   2.639  50.470  1.00  0.00     0.085 C 
HETATM   10  O1  UNL     1      21.903   2.045  51.053  1.00  0.00    -0.350 OA
HETATM   11  C10 UNL     1      20.644   1.734  50.433  1.00  0.00     0.205 C 
HETATM   12  C11 UNL     1      20.936   1.052  49.116  1.00  0.00     0.296 C 
HETATM   13  N2  UNL     1      21.166   2.013  48.069  1.00  0.00     0.088 N 
HETATM   14  C12 UNL     1      22.556   2.492  48.088  1.00  0.00     0.316 C 
HETATM   15  C13 UNL     1      22.834   3.413  49.154  1.00  0.00     0.176 C 
HETATM   16  N3  UNL     1      21.641   4.206  49.639  1.00  0.00    -0.167 NA
HETATM   17  N4  UNL     1      21.768   5.133  50.570  1.00  0.00    -0.147 NA
HETATM   18  C14 UNL     1      22.897   5.562  51.373  1.00  0.00     0.251 C 
HETATM   19  N5  UNL     1      24.218   5.494  51.232  1.00  0.00    -0.266 NA
HETATM   20  C15 UNL     1      25.063   5.611  50.032  1.00  0.00     0.185 C 
HETATM   21  H4  UNL     1      27.375   4.279  49.144  1.00  0.00     0.132 HD
HETATM   22  H12 UNL     1      21.045   1.557  47.130  1.00  0.00     0.316 HD
ENDROOT
BRANCH   1  23
HETATM   23  C1  UNL     1      24.160   7.019  48.218  1.00  0.00     0.259 C 
HETATM   24  F1  UNL     1      25.209   7.270  47.364  1.00  0.00    -0.251 F 
ENDBRANCH   1  23
TORSDOF 1
ENDMDL
