MODEL 1
REMARK VINA RESULT:      -8.5      0.000      0.000
REMARK  7 active torsions:
REMARK  status: ('A' for Active; 'I' for Inactive)
REMARK    1  A    between atoms: C3_3  and  C4_4 
REMARK    2  A    between atoms: C5_5  and  C6_6 
REMARK    3  A    between atoms: C6_6  and  C7_7 
REMARK       I    between atoms: C7_7  and  N1_9 
REMARK    4  A    between atoms: N1_9  and  C8_10 
REMARK    5  A    between atoms: C8_10  and  C9_11 
REMARK    6  A    between atoms: C13_17  and  N4_18 
REMARK    7  A    between atoms: N4_18  and  C14_19 
ROOT
HETATM    1  C9  UNL     1      25.568   0.151  52.826  1.00  0.00     0.005 C 
HETATM    2  C10 UNL     1      26.660   0.827  53.215  1.00  0.00     0.005 A 
HETATM    3  C11 UNL     1      27.234   0.597  54.546  1.00  0.00     0.192 A 
HETATM    4  N2  UNL     1      28.382   1.426  54.715  1.00  0.00    -0.278 NA
HETATM    5  C12 UNL     1      28.844   2.239  53.861  1.00  0.00     0.229 A 
HETATM    6  N3  UNL     1      28.287   2.464  52.571  1.00  0.00    -0.224 NA
HETATM    7  C13 UNL     1      27.235   1.779  52.272  1.00  0.00     0.137 A 
ENDROOT
BRANCH   1   8
HETATM    8  C8  UNL     1      24.917  -0.840  53.722  1.00  0.00     0.150 C 
BRANCH   8   9
HETATM    9  N1  UNL     1      23.487  -0.743  53.523  1.00  0.00    -0.357 N 
HETATM   10  C7  UNL     1      22.606  -1.105  54.556  1.00  0.00     0.221 C 
HETATM   11  O1  UNL     1      22.904  -1.526  55.698  1.00  0.00    -0.273 OA
HETATM   12  H10 UNL     1      22.968  -0.425  52.673  1.00  0.00     0.162 HD
BRANCH  10  13
HETATM   13  C6  UNL     1      21.120  -1.073  54.542  1.00  0.00     0.130 C 
BRANCH  13  14
HETATM   14  C5  UNL     1      20.730   0.319  54.278  1.00  0.00    -0.018 C 
HETATM   15  C4  UNL     1      20.390   0.915  53.155  1.00  0.00    -0.004 C 
BRANCH  15  16
HETATM   16  C3  UNL     1      20.334   0.244  51.870  1.00  0.00    -0.005 C 
HETATM   17  C2  UNL     1      21.182   0.425  50.876  1.00  0.00    -0.031 C 
HETATM   18  C1  UNL     1      22.343   1.335  50.869  1.00  0.00     0.036 C 
ENDBRANCH  15  16
ENDBRANCH  13  14
ENDBRANCH  10  13
ENDBRANCH   8   9
ENDBRANCH   1   8
BRANCH   7  19
HETATM   19  N4  UNL     1      26.690   2.011  50.982  1.00  0.00    -0.340 N 
HETATM   20  H17 UNL     1      26.684   1.179  50.317  1.00  0.00     0.167 HD
BRANCH  19  21
HETATM   21  C14 UNL     1      26.158   3.236  50.512  1.00  0.00     0.035 A 
HETATM   22  C15 UNL     1      26.827   3.932  49.496  1.00  0.00     0.029 A 
HETATM   23  C16 UNL     1      26.388   5.117  48.975  1.00  0.00     0.004 A 
HETATM   24  C17 UNL     1      25.231   5.697  49.441  1.00  0.00     0.019 A 
HETATM   25  C18 UNL     1      24.541   5.045  50.441  1.00  0.00     0.013 A 
HETATM   26 BR1  UNL     1      22.949   5.830  51.091  1.00  0.00    -0.051 Br
HETATM   27  C19 UNL     1      25.024   3.864  50.925  1.00  0.00     0.048 A 
ENDBRANCH  19  21
ENDBRANCH   7  19
TORSDOF 7
ENDMDL
MODEL 2
REMARK VINA RESULT:      -8.0      1.193      1.709
REMARK  7 active torsions:
REMARK  status: ('A' for Active; 'I' for Inactive)
REMARK    1  A    between atoms: C3_3  and  C4_4 
REMARK    2  A    between atoms: C5_5  and  C6_6 
REMARK    3  A    between atoms: C6_6  and  C7_7 
REMARK       I    between atoms: C7_7  and  N1_9 
REMARK    4  A    between atoms: N1_9  and  C8_10 
REMARK    5  A    between atoms: C8_10  and  C9_11 
REMARK    6  A    between atoms: C13_17  and  N4_18 
REMARK    7  A    between atoms: N4_18  and  C14_19 
ROOT
HETATM    1  C9  UNL     1      25.593   0.089  52.807  1.00  0.00     0.005 C 
HETATM    2  C10 UNL     1      26.662   0.800  53.198  1.00  0.00     0.005 A 
HETATM    3  C11 UNL     1      27.213   0.621  54.546  1.00  0.00     0.192 A 
HETATM    4  N2  UNL     1      28.339   1.480  54.714  1.00  0.00    -0.278 NA
HETATM    5  C12 UNL     1      28.801   2.277  53.845  1.00  0.00     0.229 A 
HETATM    6  N3  UNL     1      28.266   2.452  52.538  1.00  0.00    -0.224 NA
HETATM    7  C13 UNL     1      27.236   1.735  52.239  1.00  0.00     0.137 A 
ENDROOT
BRANCH   1   8
HETATM    8  C8  UNL     1      24.945  -0.889  53.720  1.00  0.00     0.150 C 
BRANCH   8   9
HETATM    9  N1  UNL     1      23.516  -0.818  53.500  1.00  0.00    -0.357 N 
HETATM   10  C7  UNL     1      22.627  -1.139  54.541  1.00  0.00     0.221 C 
HETATM   11  O1  UNL     1      22.916  -1.501  55.704  1.00  0.00    -0.273 OA
HETATM   12  H10 UNL     1      23.004  -0.548  52.631  1.00  0.00     0.162 HD
BRANCH  10  13
HETATM   13  C6  UNL     1      21.141  -1.124  54.509  1.00  0.00     0.130 C 
BRANCH  13  14
HETATM   14  C5  UNL     1      20.733   0.286  54.463  1.00  0.00    -0.018 C 
HETATM   15  C4  UNL     1      20.444   1.062  53.439  1.00  0.00    -0.004 C 
BRANCH  15  16
HETATM   16  C3  UNL     1      20.480   0.622  52.057  1.00  0.00    -0.005 C 
HETATM   17  C2  UNL     1      19.458   0.126  51.387  1.00  0.00    -0.031 C 
HETATM   18  C1  UNL     1      18.091  -0.081  51.899  1.00  0.00     0.036 C 
ENDBRANCH  15  16
ENDBRANCH  13  14
ENDBRANCH  10  13
ENDBRANCH   8   9
ENDBRANCH   1   8
BRANCH   7  19
HETATM   19  N4  UNL     1      26.713   1.918  50.932  1.00  0.00    -0.340 N 
HETATM   20  H17 UNL     1      26.741   1.068  50.291  1.00  0.00     0.167 HD
BRANCH  19  21
HETATM   21  C14 UNL     1      26.161   3.115  50.416  1.00  0.00     0.035 A 
HETATM   22  C15 UNL     1      24.804   3.395  50.628  1.00  0.00     0.029 A 
HETATM   23  C16 UNL     1      24.185   4.525  50.174  1.00  0.00     0.004 A 
HETATM   24  C17 UNL     1      24.891   5.470  49.465  1.00  0.00     0.019 A 
HETATM   25  C18 UNL     1      26.230   5.235  49.235  1.00  0.00     0.013 A 
HETATM   26 BR1  UNL     1      27.213   6.524  48.263  1.00  0.00    -0.051 Br
HETATM   27  C19 UNL     1      26.799   4.089  49.711  1.00  0.00     0.048 A 
ENDBRANCH  19  21
ENDBRANCH   7  19
TORSDOF 7
ENDMDL
MODEL 3
REMARK VINA RESULT:      -7.7      2.606      5.569
REMARK  7 active torsions:
REMARK  status: ('A' for Active; 'I' for Inactive)
REMARK    1  A    between atoms: C3_3  and  C4_4 
REMARK    2  A    between atoms: C5_5  and  C6_6 
REMARK    3  A    between atoms: C6_6  and  C7_7 
REMARK       I    between atoms: C7_7  and  N1_9 
REMARK    4  A    between atoms: N1_9  and  C8_10 
REMARK    5  A    between atoms: C8_10  and  C9_11 
REMARK    6  A    between atoms: C13_17  and  N4_18 
REMARK    7  A    between atoms: N4_18  and  C14_19 
ROOT
HETATM    1  C9  UNL     1      26.209   1.563  51.666  1.00  0.00     0.005 C 
HETATM    2  C10 UNL     1      26.873   1.166  52.762  1.00  0.00     0.005 A 
HETATM    3  C11 UNL     1      28.071   1.891  53.201  1.00  0.00     0.192 A 
HETATM    4  N2  UNL     1      28.585   1.281  54.383  1.00  0.00    -0.278 NA
HETATM    5  C12 UNL     1      28.096   0.270  54.971  1.00  0.00     0.229 A 
HETATM    6  N3  UNL     1      26.935  -0.433  54.545  1.00  0.00    -0.224 NA
HETATM    7  C13 UNL     1      26.356   0.007  53.479  1.00  0.00     0.137 A 
ENDROOT
BRANCH   1   8
HETATM    8  C8  UNL     1      26.665   2.737  50.874  1.00  0.00     0.150 C 
BRANCH   8   9
HETATM    9  N1  UNL     1      25.832   3.863  51.235  1.00  0.00    -0.357 N 
HETATM   10  C7  UNL     1      25.236   4.648  50.233  1.00  0.00     0.221 C 
HETATM   11  O1  UNL     1      25.331   4.500  48.993  1.00  0.00    -0.273 OA
HETATM   12  H10 UNL     1      25.585   4.212  52.190  1.00  0.00     0.162 HD
BRANCH  10  13
HETATM   13  C6  UNL     1      24.354   5.833  50.405  1.00  0.00     0.130 C 
BRANCH  13  14
HETATM   14  C5  UNL     1      23.255   5.417  51.285  1.00  0.00    -0.018 C 
HETATM   15  C4  UNL     1      22.095   4.862  51.005  1.00  0.00    -0.004 C 
BRANCH  15  16
HETATM   16  C3  UNL     1      21.662   4.533  49.660  1.00  0.00    -0.005 C 
HETATM   17  C2  UNL     1      21.867   3.380  49.052  1.00  0.00    -0.031 C 
HETATM   18  C1  UNL     1      22.569   2.208  49.608  1.00  0.00     0.036 C 
ENDBRANCH  15  16
ENDBRANCH  13  14
ENDBRANCH  10  13
ENDBRANCH   8   9
ENDBRANCH   1   8
BRANCH   7  19
HETATM   19  N4  UNL     1      25.198  -0.702  53.065  1.00  0.00    -0.340 N 
HETATM   20  H17 UNL     1      25.350  -1.472  52.345  1.00  0.00     0.167 HD
BRANCH  19  21
HETATM   21  C14 UNL     1      23.877  -0.480  53.524  1.00  0.00     0.035 A 
HETATM   22  C15 UNL     1      23.410  -1.183  54.643  1.00  0.00     0.029 A 
HETATM   23  C16 UNL     1      22.154  -1.031  55.161  1.00  0.00     0.004 A 
HETATM   24  C17 UNL     1      21.265  -0.151  54.587  1.00  0.00     0.019 A 
HETATM   25  C18 UNL     1      21.685   0.561  53.485  1.00  0.00     0.013 A 
HETATM   26 BR1  UNL     1      20.474   1.774  52.687  1.00  0.00    -0.051 Br
HETATM   27  C19 UNL     1      22.949   0.372  53.008  1.00  0.00     0.048 A 
ENDBRANCH  19  21
ENDBRANCH   7  19
TORSDOF 7
ENDMDL
MODEL 4
REMARK VINA RESULT:      -7.3      3.053      6.181
REMARK  7 active torsions:
REMARK  status: ('A' for Active; 'I' for Inactive)
REMARK    1  A    between atoms: C3_3  and  C4_4 
REMARK    2  A    between atoms: C5_5  and  C6_6 
REMARK    3  A    between atoms: C6_6  and  C7_7 
REMARK       I    between atoms: C7_7  and  N1_9 
REMARK    4  A    between atoms: N1_9  and  C8_10 
REMARK    5  A    between atoms: C8_10  and  C9_11 
REMARK    6  A    between atoms: C13_17  and  N4_18 
REMARK    7  A    between atoms: N4_18  and  C14_19 
ROOT
HETATM    1  C9  UNL     1      22.455   1.748  52.236  1.00  0.00     0.005 C 
HETATM    2  C10 UNL     1      22.440   0.786  53.170  1.00  0.00     0.005 A 
HETATM    3  C11 UNL     1      21.282   0.640  54.059  1.00  0.00     0.192 A 
HETATM    4  N2  UNL     1      21.506  -0.449  54.953  1.00  0.00    -0.278 NA
HETATM    5  C12 UNL     1      22.539  -1.182  54.986  1.00  0.00     0.229 A 
HETATM    6  N3  UNL     1      23.663  -1.040  54.125  1.00  0.00    -0.224 NA
HETATM    7  C13 UNL     1      23.603  -0.089  53.255  1.00  0.00     0.137 A 
ENDROOT
BRANCH   1   8
HETATM    8  C8  UNL     1      21.311   2.684  52.077  1.00  0.00     0.150 C 
BRANCH   8   9
HETATM    9  N1  UNL     1      21.728   3.744  51.186  1.00  0.00    -0.357 N 
HETATM   10  C7  UNL     1      22.706   4.666  51.597  1.00  0.00     0.221 C 
HETATM   11  O1  UNL     1      23.305   4.700  52.696  1.00  0.00    -0.273 OA
HETATM   12  H10 UNL     1      21.394   3.949  50.216  1.00  0.00     0.162 HD
BRANCH  10  13
HETATM   13  C6  UNL     1      23.261   5.812  50.829  1.00  0.00     0.130 C 
BRANCH  13  14
HETATM   14  C5  UNL     1      23.515   5.324  49.467  1.00  0.00    -0.018 C 
HETATM   15  C4  UNL     1      24.411   4.472  49.015  1.00  0.00    -0.004 C 
BRANCH  15  16
HETATM   16  C3  UNL     1      25.389   3.808  49.856  1.00  0.00    -0.005 C 
HETATM   17  C2  UNL     1      26.698   3.919  49.740  1.00  0.00    -0.031 C 
HETATM   18  C1  UNL     1      27.424   4.730  48.745  1.00  0.00     0.036 C 
ENDBRANCH  15  16
ENDBRANCH  13  14
ENDBRANCH  10  13
ENDBRANCH   8   9
ENDBRANCH   1   8
BRANCH   7  19
HETATM   19  N4  UNL     1      24.730   0.041  52.401  1.00  0.00    -0.340 N 
HETATM   20  H17 UNL     1      24.572  -0.196  51.375  1.00  0.00     0.167 HD
BRANCH  19  21
HETATM   21  C14 UNL     1      26.026   0.458  52.791  1.00  0.00     0.035 A 
HETATM   22  C15 UNL     1      26.274   1.819  53.013  1.00  0.00     0.029 A 
HETATM   23  C16 UNL     1      27.489   2.314  53.396  1.00  0.00     0.004 A 
HETATM   24  C17 UNL     1      28.558   1.468  53.587  1.00  0.00     0.019 A 
HETATM   25  C18 UNL     1      28.357   0.120  53.380  1.00  0.00     0.013 A 
HETATM   26 BR1  UNL     1      29.815  -1.053  53.640  1.00  0.00    -0.051 Br
HETATM   27  C19 UNL     1      27.123  -0.321  52.998  1.00  0.00     0.048 A 
ENDBRANCH  19  21
ENDBRANCH   7  19
TORSDOF 7
ENDMDL
MODEL 5
REMARK VINA RESULT:      -7.1      5.266      7.770
REMARK  7 active torsions:
REMARK  status: ('A' for Active; 'I' for Inactive)
REMARK    1  A    between atoms: C3_3  and  C4_4 
REMARK    2  A    between atoms: C5_5  and  C6_6 
REMARK    3  A    between atoms: C6_6  and  C7_7 
REMARK       I    between atoms: C7_7  and  N1_9 
REMARK    4  A    between atoms: N1_9  and  C8_10 
REMARK    5  A    between atoms: C8_10  and  C9_11 
REMARK    6  A    between atoms: C13_17  and  N4_18 
REMARK    7  A    between atoms: N4_18  and  C14_19 
ROOT
HETATM    1  C9  UNL     1      27.646   4.645  48.863  1.00  0.00     0.005 C 
HETATM    2  C10 UNL     1      28.003   5.842  48.375  1.00  0.00     0.005 A 
HETATM    3  C11 UNL     1      27.055   6.962  48.403  1.00  0.00     0.192 A 
HETATM    4  N2  UNL     1      27.670   8.116  47.835  1.00  0.00    -0.278 NA
HETATM    5  C12 UNL     1      28.848   8.179  47.373  1.00  0.00     0.229 A 
HETATM    6  N3  UNL     1      29.767   7.093  47.344  1.00  0.00    -0.224 NA
HETATM    7  C13 UNL     1      29.348   5.973  47.829  1.00  0.00     0.137 A 
ENDROOT
BRANCH   1   8
HETATM    8  C8  UNL     1      26.294   4.422  49.441  1.00  0.00     0.150 C 
BRANCH   8   9
HETATM    9  N1  UNL     1      26.462   3.760  50.716  1.00  0.00    -0.357 N 
HETATM   10  C7  UNL     1      25.475   2.878  51.188  1.00  0.00     0.221 C 
HETATM   11  O1  UNL     1      24.402   2.565  50.623  1.00  0.00    -0.273 OA
HETATM   12  H10 UNL     1      27.257   3.840  51.391  1.00  0.00     0.162 HD
BRANCH  10  13
HETATM   13  C6  UNL     1      25.470   2.111  52.461  1.00  0.00     0.130 C 
BRANCH  13  14
HETATM   14  C5  UNL     1      25.901   0.746  52.133  1.00  0.00    -0.018 C 
HETATM   15  C4  UNL     1      27.019   0.109  52.415  1.00  0.00    -0.004 C 
BRANCH  15  16
HETATM   16  C3  UNL     1      28.114   0.694  53.165  1.00  0.00    -0.005 C 
HETATM   17  C2  UNL     1      29.175   0.044  53.601  1.00  0.00    -0.031 C 
HETATM   18  C1  UNL     1      29.460  -1.392  53.418  1.00  0.00     0.036 C 
ENDBRANCH  15  16
ENDBRANCH  13  14
ENDBRANCH  10  13
ENDBRANCH   8   9
ENDBRANCH   1   8
BRANCH   7  19
HETATM   19  N4  UNL     1      30.275   4.898  47.796  1.00  0.00    -0.340 N 
HETATM   20  H17 UNL     1      29.859   3.918  47.795  1.00  0.00     0.167 HD
BRANCH  19  21
HETATM   21  C14 UNL     1      31.686   5.017  47.761  1.00  0.00     0.035 A 
HETATM   22  C15 UNL     1      32.342   5.731  48.772  1.00  0.00     0.029 A 
HETATM   23  C16 UNL     1      33.698   5.894  48.825  1.00  0.00     0.004 A 
HETATM   24  C17 UNL     1      34.505   5.345  47.855  1.00  0.00     0.019 A 
HETATM   25  C18 UNL     1      33.899   4.633  46.841  1.00  0.00     0.013 A 
HETATM   26 BR1  UNL     1      34.995   3.872  45.502  1.00  0.00    -0.051 Br
HETATM   27  C19 UNL     1      32.541   4.501  46.836  1.00  0.00     0.048 A 
ENDBRANCH  19  21
ENDBRANCH   7  19
TORSDOF 7
ENDMDL
MODEL 6
REMARK VINA RESULT:      -7.0      2.017      2.764
REMARK  7 active torsions:
REMARK  status: ('A' for Active; 'I' for Inactive)
REMARK    1  A    between atoms: C3_3  and  C4_4 
REMARK    2  A    between atoms: C5_5  and  C6_6 
REMARK    3  A    between atoms: C6_6  and  C7_7 
REMARK       I    between atoms: C7_7  and  N1_9 
REMARK    4  A    between atoms: N1_9  and  C8_10 
REMARK    5  A    between atoms: C8_10  and  C9_11 
REMARK    6  A    between atoms: C13_17  and  N4_18 
REMARK    7  A    between atoms: N4_18  and  C14_19 
ROOT
HETATM    1  C9  UNL     1      23.627   0.647  53.280  1.00  0.00     0.005 C 
HETATM    2  C10 UNL     1      24.951   0.762  53.101  1.00  0.00     0.005 A 
HETATM    3  C11 UNL     1      25.771  -0.434  52.876  1.00  0.00     0.192 A 
HETATM    4  N2  UNL     1      27.135  -0.048  52.712  1.00  0.00    -0.278 NA
HETATM    5  C12 UNL     1      27.582   1.137  52.753  1.00  0.00     0.229 A 
HETATM    6  N3  UNL     1      26.787   2.297  52.973  1.00  0.00    -0.224 NA
HETATM    7  C13 UNL     1      25.522   2.103  53.139  1.00  0.00     0.137 A 
ENDROOT
BRANCH   1   8
HETATM    8  C8  UNL     1      22.960  -0.682  53.254  1.00  0.00     0.150 C 
BRANCH   8   9
HETATM    9  N1  UNL     1      21.760  -0.558  52.455  1.00  0.00    -0.357 N 
HETATM   10  C7  UNL     1      20.574  -0.078  53.036  1.00  0.00     0.221 C 
HETATM   11  O1  UNL     1      20.398   0.280  54.223  1.00  0.00    -0.273 OA
HETATM   12  H10 UNL     1      21.625  -0.786  51.444  1.00  0.00     0.162 HD
BRANCH  10  13
HETATM   13  C6  UNL     1      19.253   0.118  52.383  1.00  0.00     0.130 C 
BRANCH  13  14
HETATM   14  C5  UNL     1      19.227   1.502  51.890  1.00  0.00    -0.018 C 
HETATM   15  C4  UNL     1      19.530   1.996  50.708  1.00  0.00    -0.004 C 
BRANCH  15  16
HETATM   16  C3  UNL     1      19.979   1.192  49.588  1.00  0.00    -0.005 C 
HETATM   17  C2  UNL     1      21.234   1.040  49.211  1.00  0.00    -0.031 C 
HETATM   18  C1  UNL     1      22.419   1.650  49.843  1.00  0.00     0.036 C 
ENDBRANCH  15  16
ENDBRANCH  13  14
ENDBRANCH  10  13
ENDBRANCH   8   9
ENDBRANCH   1   8
BRANCH   7  19
HETATM   19  N4  UNL     1      24.740   3.268  53.356  1.00  0.00    -0.340 N 
HETATM   20  H17 UNL     1      24.735   3.654  54.348  1.00  0.00     0.167 HD
BRANCH  19  21
HETATM   21  C14 UNL     1      23.981   3.954  52.377  1.00  0.00     0.035 A 
HETATM   22  C15 UNL     1      22.610   4.156  52.587  1.00  0.00     0.029 A 
HETATM   23  C16 UNL     1      21.798   4.810  51.703  1.00  0.00     0.004 A 
HETATM   24  C17 UNL     1      22.309   5.316  50.530  1.00  0.00     0.019 A 
HETATM   25  C18 UNL     1      23.653   5.139  50.284  1.00  0.00     0.013 A 
HETATM   26 BR1  UNL     1      24.369   5.829  48.676  1.00  0.00    -0.051 Br
HETATM   27  C19 UNL     1      24.419   4.478  51.200  1.00  0.00     0.048 A 
ENDBRANCH  19  21
ENDBRANCH   7  19
TORSDOF 7
ENDMDL
MODEL 7
REMARK VINA RESULT:      -7.0      2.408      5.639
REMARK  7 active torsions:
REMARK  status: ('A' for Active; 'I' for Inactive)
REMARK    1  A    between atoms: C3_3  and  C4_4 
REMARK    2  A    between atoms: C5_5  and  C6_6 
REMARK    3  A    between atoms: C6_6  and  C7_7 
REMARK       I    between atoms: C7_7  and  N1_9 
REMARK    4  A    between atoms: N1_9  and  C8_10 
REMARK    5  A    between atoms: C8_10  and  C9_11 
REMARK    6  A    between atoms: C13_17  and  N4_18 
REMARK    7  A    between atoms: N4_18  and  C14_19 
ROOT
HETATM    1  C9  UNL     1      21.983   0.920  53.441  1.00  0.00     0.005 C 
HETATM    2  C10 UNL     1      20.767   0.852  52.879  1.00  0.00     0.005 A 
HETATM    3  C11 UNL     1      20.076  -0.438  52.771  1.00  0.00     0.192 A 
HETATM    4  N2  UNL     1      18.808  -0.244  52.146  1.00  0.00    -0.278 NA
HETATM    5  C12 UNL     1      18.341   0.862  51.742  1.00  0.00     0.229 A 
HETATM    6  N3  UNL     1      19.011   2.113  51.845  1.00  0.00    -0.224 NA
HETATM    7  C13 UNL     1      20.179   2.095  52.394  1.00  0.00     0.137 A 
ENDROOT
BRANCH   1   8
HETATM    8  C8  UNL     1      22.657  -0.298  53.965  1.00  0.00     0.150 C 
BRANCH   8   9
HETATM    9  N1  UNL     1      23.771  -0.596  53.091  1.00  0.00    -0.357 N 
HETATM   10  C7  UNL     1      25.040  -0.861  53.634  1.00  0.00     0.221 C 
HETATM   11  O1  UNL     1      25.362  -0.876  54.844  1.00  0.00    -0.273 OA
HETATM   12  H10 UNL     1      23.784  -0.649  52.047  1.00  0.00     0.162 HD
BRANCH  10  13
HETATM   13  C6  UNL     1      26.294  -1.187  52.905  1.00  0.00     0.130 C 
BRANCH  13  14
HETATM   14  C5  UNL     1      27.251  -0.115  53.213  1.00  0.00    -0.018 C 
HETATM   15  C4  UNL     1      27.399   1.080  52.681  1.00  0.00    -0.004 C 
BRANCH  15  16
HETATM   16  C3  UNL     1      26.572   1.593  51.606  1.00  0.00    -0.005 C 
HETATM   17  C2  UNL     1      25.508   2.357  51.758  1.00  0.00    -0.031 C 
HETATM   18  C1  UNL     1      24.950   2.838  53.036  1.00  0.00     0.036 C 
ENDBRANCH  15  16
ENDBRANCH  13  14
ENDBRANCH  10  13
ENDBRANCH   8   9
ENDBRANCH   1   8
BRANCH   7  19
HETATM   19  N4  UNL     1      20.836   3.349  52.493  1.00  0.00    -0.340 N 
HETATM   20  H17 UNL     1      20.625   3.923  53.364  1.00  0.00     0.167 HD
BRANCH  19  21
HETATM   21  C14 UNL     1      21.739   3.892  51.546  1.00  0.00     0.035 A 
HETATM   22  C15 UNL     1      22.059   3.155  50.398  1.00  0.00     0.029 A 
HETATM   23  C16 UNL     1      22.914   3.598  49.429  1.00  0.00     0.004 A 
HETATM   24  C17 UNL     1      23.519   4.829  49.542  1.00  0.00     0.019 A 
HETATM   25  C18 UNL     1      23.231   5.587  50.656  1.00  0.00     0.013 A 
HETATM   26 BR1  UNL     1      24.054   7.281  50.825  1.00  0.00    -0.051 Br
HETATM   27  C19 UNL     1      22.370   5.097  51.595  1.00  0.00     0.048 A 
ENDBRANCH  19  21
ENDBRANCH   7  19
TORSDOF 7
ENDMDL
MODEL 8
REMARK VINA RESULT:      -7.0      3.112      5.331
REMARK  7 active torsions:
REMARK  status: ('A' for Active; 'I' for Inactive)
REMARK    1  A    between atoms: C3_3  and  C4_4 
REMARK    2  A    between atoms: C5_5  and  C6_6 
REMARK    3  A    between atoms: C6_6  and  C7_7 
REMARK       I    between atoms: C7_7  and  N1_9 
REMARK    4  A    between atoms: N1_9  and  C8_10 
REMARK    5  A    between atoms: C8_10  and  C9_11 
REMARK    6  A    between atoms: C13_17  and  N4_18 
REMARK    7  A    between atoms: N4_18  and  C14_19 
ROOT
HETATM    1  C9  UNL     1      23.523   3.439  51.798  1.00  0.00     0.005 C 
HETATM    2  C10 UNL     1      24.589   3.720  51.035  1.00  0.00     0.005 A 
HETATM    3  C11 UNL     1      24.710   5.035  50.394  1.00  0.00     0.192 A 
HETATM    4  N2  UNL     1      25.924   5.086  49.647  1.00  0.00    -0.278 NA
HETATM    5  C12 UNL     1      26.773   4.152  49.544  1.00  0.00     0.229 A 
HETATM    6  N3  UNL     1      26.656   2.877  50.164  1.00  0.00    -0.224 NA
HETATM    7  C13 UNL     1      25.600   2.681  50.879  1.00  0.00     0.137 A 
ENDROOT
BRANCH   1   8
HETATM    8  C8  UNL     1      22.445   4.440  52.013  1.00  0.00     0.150 C 
BRANCH   8   9
HETATM    9  N1  UNL     1      21.267   3.731  52.462  1.00  0.00    -0.357 N 
HETATM   10  C7  UNL     1      20.340   3.242  51.525  1.00  0.00     0.221 C 
HETATM   11  O1  UNL     1      20.395   3.341  50.277  1.00  0.00    -0.273 OA
HETATM   12  H10 UNL     1      20.973   3.508  53.440  1.00  0.00     0.162 HD
BRANCH  10  13
HETATM   13  C6  UNL     1      19.082   2.495  51.789  1.00  0.00     0.130 C 
BRANCH  13  14
HETATM   14  C5  UNL     1      19.308   1.115  51.337  1.00  0.00    -0.018 C 
HETATM   15  C4  UNL     1      19.686   0.046  52.005  1.00  0.00    -0.004 C 
BRANCH  15  16
HETATM   16  C3  UNL     1      19.969   0.040  53.427  1.00  0.00    -0.005 C 
HETATM   17  C2  UNL     1      21.169   0.126  53.968  1.00  0.00    -0.031 C 
HETATM   18  C1  UNL     1      22.450   0.242  53.245  1.00  0.00     0.036 C 
ENDBRANCH  15  16
ENDBRANCH  13  14
ENDBRANCH  10  13
ENDBRANCH   8   9
ENDBRANCH   1   8
BRANCH   7  19
HETATM   19  N4  UNL     1      25.495   1.406  51.494  1.00  0.00    -0.340 N 
HETATM   20  H17 UNL     1      24.764   0.747  51.089  1.00  0.00     0.167 HD
BRANCH  19  21
HETATM   21  C14 UNL     1      26.273   0.940  52.582  1.00  0.00     0.035 A 
HETATM   22  C15 UNL     1      25.864   1.225  53.892  1.00  0.00     0.029 A 
HETATM   23  C16 UNL     1      26.546   0.814  55.003  1.00  0.00     0.004 A 
HETATM   24  C17 UNL     1      27.702   0.078  54.879  1.00  0.00     0.019 A 
HETATM   25  C18 UNL     1      28.140  -0.225  53.608  1.00  0.00     0.013 A 
HETATM   26 BR1  UNL     1      29.726  -1.235  53.423  1.00  0.00    -0.051 Br
HETATM   27  C19 UNL     1      27.421   0.211  52.532  1.00  0.00     0.048 A 
ENDBRANCH  19  21
ENDBRANCH   7  19
TORSDOF 7
ENDMDL
MODEL 9
REMARK VINA RESULT:      -6.9      4.055      8.406
REMARK  7 active torsions:
REMARK  status: ('A' for Active; 'I' for Inactive)
REMARK    1  A    between atoms: C3_3  and  C4_4 
REMARK    2  A    between atoms: C5_5  and  C6_6 
REMARK    3  A    between atoms: C6_6  and  C7_7 
REMARK       I    between atoms: C7_7  and  N1_9 
REMARK    4  A    between atoms: N1_9  and  C8_10 
REMARK    5  A    between atoms: C8_10  and  C9_11 
REMARK    6  A    between atoms: C13_17  and  N4_18 
REMARK    7  A    between atoms: N4_18  and  C14_19 
ROOT
HETATM    1  C9  UNL     1      26.408   3.196  50.623  1.00  0.00     0.005 C 
HETATM    2  C10 UNL     1      25.168   3.009  51.100  1.00  0.00     0.005 A 
HETATM    3  C11 UNL     1      24.014   3.072  50.196  1.00  0.00     0.192 A 
HETATM    4  N2  UNL     1      22.819   2.837  50.939  1.00  0.00    -0.278 NA
HETATM    5  C12 UNL     1      22.750   2.609  52.183  1.00  0.00     0.229 A 
HETATM    6  N3  UNL     1      23.869   2.549  53.060  1.00  0.00    -0.224 NA
HETATM    7  C13 UNL     1      25.028   2.743  52.526  1.00  0.00     0.137 A 
ENDROOT
BRANCH   1   8
HETATM    8  C8  UNL     1      26.644   3.470  49.181  1.00  0.00     0.150 C 
BRANCH   8   9
HETATM    9  N1  UNL     1      27.452   4.666  49.086  1.00  0.00    -0.357 N 
HETATM   10  C7  UNL     1      26.854   5.897  48.767  1.00  0.00     0.221 C 
HETATM   11  O1  UNL     1      25.642   6.118  48.540  1.00  0.00    -0.273 OA
HETATM   12  H10 UNL     1      28.483   4.768  49.225  1.00  0.00     0.162 HD
BRANCH  10  13
HETATM   13  C6  UNL     1      27.511   7.223  48.626  1.00  0.00     0.130 C 
BRANCH  13  14
HETATM   14  C5  UNL     1      28.536   7.077  47.584  1.00  0.00    -0.018 C 
HETATM   15  C4  UNL     1      29.843   7.225  47.640  1.00  0.00    -0.004 C 
BRANCH  15  16
HETATM   16  C3  UNL     1      30.563   7.587  48.845  1.00  0.00    -0.005 C 
HETATM   17  C2  UNL     1      30.882   8.815  49.206  1.00  0.00    -0.031 C 
HETATM   18  C1  UNL     1      30.575  10.053  48.465  1.00  0.00     0.036 C 
ENDBRANCH  15  16
ENDBRANCH  13  14
ENDBRANCH  10  13
ENDBRANCH   8   9
ENDBRANCH   1   8
BRANCH   7  19
HETATM   19  N4  UNL     1      26.136   2.679  53.411  1.00  0.00    -0.340 N 
HETATM   20  H17 UNL     1      26.227   3.476  54.111  1.00  0.00     0.167 HD
BRANCH  19  21
HETATM   21  C14 UNL     1      27.115   1.656  53.445  1.00  0.00     0.035 A 
HETATM   22  C15 UNL     1      28.420   1.966  53.851  1.00  0.00     0.029 A 
HETATM   23  C16 UNL     1      29.429   1.047  53.921  1.00  0.00     0.004 A 
HETATM   24  C17 UNL     1      29.199  -0.268  53.583  1.00  0.00     0.019 A 
HETATM   25  C18 UNL     1      27.928  -0.615  53.179  1.00  0.00     0.013 A 
HETATM   26 BR1  UNL     1      27.598  -2.418  52.713  1.00  0.00    -0.051 Br
HETATM   27  C19 UNL     1      26.957   0.342  53.127  1.00  0.00     0.048 A 
ENDBRANCH  19  21
ENDBRANCH   7  19
TORSDOF 7
ENDMDL
