MODEL 1
REMARK VINA RESULT:      -7.1      0.000      0.000
REMARK  7 active torsions:
REMARK  status: ('A' for Active; 'I' for Inactive)
REMARK    1  A    between atoms: C2_2  and  C3_3 
REMARK    2  A    between atoms: C3_3  and  C4_4 
REMARK    3  A    between atoms: C10_12  and  O2_13 
REMARK    4  A    between atoms: C12_15  and  O3_16 
REMARK    5  A    between atoms: C15_20  and  C16_21 
REMARK    6  A    between atoms: C16_21  and  C17_22 
REMARK    7  A    between atoms: C17_22  and  O4_23 
ROOT
HETATM    1  C4  UNL     1      24.702   1.818  51.152  1.00  0.00     0.142 C 
HETATM    2  C5  UNL     1      25.518   3.011  50.693  1.00  0.00     0.233 C 
HETATM    3  O1  UNL     1      25.189   3.880  49.808  1.00  0.00    -0.272 OA
HETATM    4  N1  UNL     1      26.773   3.136  51.342  1.00  0.00    -0.324 N 
HETATM    5  C6  UNL     1      26.856   1.936  52.129  1.00  0.00     0.078 A 
HETATM    6  C7  UNL     1      25.736   1.116  51.995  1.00  0.00    -0.013 A 
HETATM    7  C8  UNL     1      25.868  -0.060  52.690  1.00  0.00     0.013 A 
HETATM    8  C9  UNL     1      26.941  -0.457  53.451  1.00  0.00     0.040 A 
HETATM    9  C10 UNL     1      28.018   0.395  53.548  1.00  0.00     0.103 A 
HETATM   10  C12 UNL     1      27.980   1.592  52.888  1.00  0.00     0.126 A 
HETATM   11  H7  UNL     1      27.445   3.908  51.256  1.00  0.00     0.169 HD
ENDROOT
BRANCH   1  12
HETATM   12  C3  UNL     1      23.615   2.376  52.002  1.00  0.00     0.052 C 
HETATM   13  N2  UNL     1      23.279   1.196  52.902  1.00  0.00    -0.388 N 
HETATM   14  C13 UNL     1      22.262   0.414  52.296  1.00  0.00     0.080 C 
HETATM   15  H14 UNL     1      23.687   0.919  53.845  1.00  0.00     0.159 HD
HETATM   16  C14 UNL     1      21.662   1.227  51.447  1.00  0.00    -0.003 C 
HETATM   17  C15 UNL     1      22.289   2.616  51.468  1.00  0.00     0.041 C 
BRANCH  12  18
HETATM   18  C2  UNL     1      24.110   3.383  53.026  1.00  0.00     0.028 C 
HETATM   19  C1  UNL     1      23.438   4.707  53.007  1.00  0.00     0.007 C 
ENDBRANCH  12  18
BRANCH  17  20
HETATM   20  C16 UNL     1      21.961   3.373  50.277  1.00  0.00     0.037 C 
BRANCH  20  21
HETATM   21  C17 UNL     1      21.803   2.580  49.006  1.00  0.00     0.165 C 
BRANCH  21  22
HETATM   22  O4  UNL     1      22.934   2.726  48.239  1.00  0.00    -0.401 OA
HETATM   23  H22 UNL     1      22.699   2.521  47.292  1.00  0.00     0.209 HD
ENDBRANCH  21  22
ENDBRANCH  20  21
ENDBRANCH  17  20
ENDBRANCH   1  12
BRANCH  10  24
HETATM   24  O3  UNL     1      29.087   2.401  53.024  1.00  0.00    -0.356 OA
HETATM   25  H13 UNL     1      29.051   3.320  52.601  1.00  0.00     0.218 HD
ENDBRANCH  10  24
BRANCH   9  26
HETATM   26  O2  UNL     1      29.116   0.033  54.306  1.00  0.00    -0.353 OA
HETATM   27  C11 UNL     1      30.101  -0.872  53.875  1.00  0.00     0.210 C 
ENDBRANCH   9  26
TORSDOF 7
ENDMDL
MODEL 2
REMARK VINA RESULT:      -7.0      2.445      4.000
REMARK  7 active torsions:
REMARK  status: ('A' for Active; 'I' for Inactive)
REMARK    1  A    between atoms: C2_2  and  C3_3 
REMARK    2  A    between atoms: C3_3  and  C4_4 
REMARK    3  A    between atoms: C10_12  and  O2_13 
REMARK    4  A    between atoms: C12_15  and  O3_16 
REMARK    5  A    between atoms: C15_20  and  C16_21 
REMARK    6  A    between atoms: C16_21  and  C17_22 
REMARK    7  A    between atoms: C17_22  and  O4_23 
ROOT
HETATM    1  C4  UNL     1      24.977   3.678  51.640  1.00  0.00     0.142 C 
HETATM    2  C5  UNL     1      23.668   3.556  52.395  1.00  0.00     0.233 C 
HETATM    3  O1  UNL     1      22.799   4.480  52.595  1.00  0.00    -0.272 OA
HETATM    4  N1  UNL     1      23.423   2.262  52.922  1.00  0.00    -0.324 N 
HETATM    5  C6  UNL     1      24.645   1.558  52.642  1.00  0.00     0.078 A 
HETATM    6  C7  UNL     1      25.589   2.344  51.982  1.00  0.00    -0.013 A 
HETATM    7  C8  UNL     1      26.776   1.681  51.795  1.00  0.00     0.013 A 
HETATM    8  C9  UNL     1      27.078   0.396  52.179  1.00  0.00     0.040 A 
HETATM    9  C10 UNL     1      26.105  -0.333  52.824  1.00  0.00     0.103 A 
HETATM   10  C12 UNL     1      24.887   0.244  53.059  1.00  0.00     0.126 A 
HETATM   11  H7  UNL     1      22.570   1.929  53.387  1.00  0.00     0.169 HD
ENDROOT
BRANCH   1  12
HETATM   12  C3  UNL     1      24.606   3.737  50.199  1.00  0.00     0.052 C 
HETATM   13  N2  UNL     1      25.858   3.193  49.527  1.00  0.00    -0.388 N 
HETATM   14  C13 UNL     1      26.742   4.265  49.237  1.00  0.00     0.080 C 
HETATM   15  H14 UNL     1      26.119   2.193  49.277  1.00  0.00     0.159 HD
HETATM   16  C14 UNL     1      25.980   5.342  49.211  1.00  0.00    -0.003 C 
HETATM   17  C15 UNL     1      24.522   5.000  49.494  1.00  0.00     0.041 C 
BRANCH  12  18
HETATM   18  C2  UNL     1      23.588   2.685  49.798  1.00  0.00     0.028 C 
HETATM   19  C1  UNL     1      22.992   2.844  48.447  1.00  0.00     0.007 C 
ENDBRANCH  12  18
BRANCH  17  20
HETATM   20  C16 UNL     1      23.764   6.167  49.899  1.00  0.00     0.037 C 
BRANCH  20  21
HETATM   21  C17 UNL     1      24.526   7.229  50.648  1.00  0.00     0.165 C 
BRANCH  21  22
HETATM   22  O4  UNL     1      24.383   7.019  51.999  1.00  0.00    -0.401 OA
HETATM   23  H22 UNL     1      23.790   7.732  52.366  1.00  0.00     0.209 HD
ENDBRANCH  21  22
ENDBRANCH  20  21
ENDBRANCH  17  20
ENDBRANCH   1  12
BRANCH  10  24
HETATM   24  O3  UNL     1      23.956  -0.535  53.709  1.00  0.00    -0.356 OA
HETATM   25  H13 UNL     1      23.052  -0.121  53.904  1.00  0.00     0.218 HD
ENDBRANCH  10  24
BRANCH   9  26
HETATM   26  O2  UNL     1      26.369  -1.629  53.226  1.00  0.00    -0.353 OA
HETATM   27  C11 UNL     1      27.343  -2.450  52.633  1.00  0.00     0.210 C 
ENDBRANCH   9  26
TORSDOF 7
ENDMDL
MODEL 3
REMARK VINA RESULT:      -6.6      3.493      5.223
REMARK  7 active torsions:
REMARK  status: ('A' for Active; 'I' for Inactive)
REMARK    1  A    between atoms: C2_2  and  C3_3 
REMARK    2  A    between atoms: C3_3  and  C4_4 
REMARK    3  A    between atoms: C10_12  and  O2_13 
REMARK    4  A    between atoms: C12_15  and  O3_16 
REMARK    5  A    between atoms: C15_20  and  C16_21 
REMARK    6  A    between atoms: C16_21  and  C17_22 
REMARK    7  A    between atoms: C17_22  and  O4_23 
ROOT
HETATM    1  C4  UNL     1      23.628   4.232  51.459  1.00  0.00     0.142 C 
HETATM    2  C5  UNL     1      22.238   4.772  51.731  1.00  0.00     0.233 C 
HETATM    3  O1  UNL     1      21.844   5.989  51.620  1.00  0.00    -0.272 OA
HETATM    4  N1  UNL     1      21.308   3.787  52.153  1.00  0.00    -0.324 N 
HETATM    5  C6  UNL     1      22.122   2.612  52.305  1.00  0.00     0.078 A 
HETATM    6  C7  UNL     1      23.464   2.833  51.995  1.00  0.00    -0.013 A 
HETATM    7  C8  UNL     1      24.238   1.723  52.222  1.00  0.00     0.013 A 
HETATM    8  C9  UNL     1      23.819   0.502  52.694  1.00  0.00     0.040 A 
HETATM    9  C10 UNL     1      22.482   0.342  52.980  1.00  0.00     0.103 A 
HETATM   10  C12 UNL     1      21.630   1.394  52.788  1.00  0.00     0.126 A 
HETATM   11  H7  UNL     1      20.300   3.907  52.306  1.00  0.00     0.169 HD
ENDROOT
BRANCH   1  12
HETATM   12  C3  UNL     1      23.771   4.218  49.976  1.00  0.00     0.052 C 
HETATM   13  N2  UNL     1      24.810   3.125  49.769  1.00  0.00    -0.388 N 
HETATM   14  C13 UNL     1      26.108   3.698  49.784  1.00  0.00     0.080 C 
HETATM   15  H14 UNL     1      24.681   2.078  49.629  1.00  0.00     0.159 HD
HETATM   16  C14 UNL     1      25.925   4.973  49.495  1.00  0.00    -0.003 C 
HETATM   17  C15 UNL     1      24.450   5.288  49.274  1.00  0.00     0.041 C 
BRANCH  12  18
HETATM   18  C2  UNL     1      22.575   3.611  49.264  1.00  0.00     0.028 C 
HETATM   19  C1  UNL     1      22.876   2.500  48.326  1.00  0.00     0.007 C 
ENDBRANCH  12  18
BRANCH  17  20
HETATM   20  C16 UNL     1      24.179   6.706  49.392  1.00  0.00     0.037 C 
BRANCH  20  21
HETATM   21  C17 UNL     1      24.984   7.456  50.421  1.00  0.00     0.165 C 
BRANCH  21  22
HETATM   22  O4  UNL     1      24.182   7.744  51.499  1.00  0.00    -0.401 OA
HETATM   23  H22 UNL     1      24.608   7.364  52.317  1.00  0.00     0.209 HD
ENDBRANCH  21  22
ENDBRANCH  20  21
ENDBRANCH  17  20
ENDBRANCH   1  12
BRANCH  10  24
HETATM   24  O3  UNL     1      20.305   1.172  53.092  1.00  0.00    -0.356 OA
HETATM   25  H13 UNL     1      19.812   0.469  52.554  1.00  0.00     0.218 HD
ENDBRANCH  10  24
BRANCH   9  26
HETATM   26  O2  UNL     1      22.021  -0.871  53.456  1.00  0.00    -0.353 OA
HETATM   27  C11 UNL     1      22.177  -1.303  54.783  1.00  0.00     0.210 C 
ENDBRANCH   9  26
TORSDOF 7
ENDMDL
MODEL 4
REMARK VINA RESULT:      -6.6      2.627      6.084
REMARK  7 active torsions:
REMARK  status: ('A' for Active; 'I' for Inactive)
REMARK    1  A    between atoms: C2_2  and  C3_3 
REMARK    2  A    between atoms: C3_3  and  C4_4 
REMARK    3  A    between atoms: C10_12  and  O2_13 
REMARK    4  A    between atoms: C12_15  and  O3_16 
REMARK    5  A    between atoms: C15_20  and  C16_21 
REMARK    6  A    between atoms: C16_21  and  C17_22 
REMARK    7  A    between atoms: C17_22  and  O4_23 
ROOT
HETATM    1  C4  UNL     1      24.701   0.705  52.026  1.00  0.00     0.142 C 
HETATM    2  C5  UNL     1      25.019  -0.039  53.309  1.00  0.00     0.233 C 
HETATM    3  O1  UNL     1      26.177  -0.396  53.731  1.00  0.00    -0.272 OA
HETATM    4  N1  UNL     1      23.878  -0.353  54.092  1.00  0.00    -0.324 N 
HETATM    5  C6  UNL     1      22.783   0.054  53.254  1.00  0.00     0.078 A 
HETATM    6  C7  UNL     1      23.198   0.591  52.036  1.00  0.00    -0.013 A 
HETATM    7  C8  UNL     1      22.140   0.899  51.217  1.00  0.00     0.013 A 
HETATM    8  C9  UNL     1      20.804   0.732  51.491  1.00  0.00     0.040 A 
HETATM    9  C10 UNL     1      20.455   0.198  52.712  1.00  0.00     0.103 A 
HETATM   10  C12 UNL     1      21.441  -0.142  53.596  1.00  0.00     0.126 A 
HETATM   11  H7  UNL     1      23.862  -0.770  55.031  1.00  0.00     0.169 HD
ENDROOT
BRANCH   1  12
HETATM   12  C3  UNL     1      25.128   2.112  52.261  1.00  0.00     0.052 C 
HETATM   13  N2  UNL     1      24.422   2.849  51.132  1.00  0.00    -0.388 N 
HETATM   14  C13 UNL     1      25.269   2.892  49.994  1.00  0.00     0.080 C 
HETATM   15  H14 UNL     1      23.455   3.292  51.105  1.00  0.00     0.159 HD
HETATM   16  C14 UNL     1      26.489   2.717  50.466  1.00  0.00    -0.003 C 
HETATM   17  C15 UNL     1      26.481   2.546  51.981  1.00  0.00     0.041 C 
BRANCH  12  18
HETATM   18  C2  UNL     1      24.466   2.746  53.472  1.00  0.00     0.028 C 
HETATM   19  C1  UNL     1      23.830   4.068  53.243  1.00  0.00     0.007 C 
ENDBRANCH  12  18
BRANCH  17  20
HETATM   20  C16 UNL     1      27.703   1.930  52.460  1.00  0.00     0.037 C 
BRANCH  20  21
HETATM   21  C17 UNL     1      28.223   2.425  53.784  1.00  0.00     0.165 C 
BRANCH  21  22
HETATM   22  O4  UNL     1      28.488   1.348  54.595  1.00  0.00    -0.401 OA
HETATM   23  H22 UNL     1      29.322   0.908  54.270  1.00  0.00     0.209 HD
ENDBRANCH  21  22
ENDBRANCH  20  21
ENDBRANCH  17  20
ENDBRANCH   1  12
BRANCH  10  24
HETATM   24  O3  UNL     1      21.028  -0.671  54.799  1.00  0.00    -0.356 OA
HETATM   25  H13 UNL     1      20.210  -0.261  55.235  1.00  0.00     0.218 HD
ENDBRANCH  10  24
BRANCH   9  26
HETATM   26  O2  UNL     1      19.120   0.015  53.026  1.00  0.00    -0.353 OA
HETATM   27  C11 UNL     1      18.153  -0.425  52.107  1.00  0.00     0.210 C 
ENDBRANCH   9  26
TORSDOF 7
ENDMDL
MODEL 5
REMARK VINA RESULT:      -6.4      8.855     11.404
REMARK  7 active torsions:
REMARK  status: ('A' for Active; 'I' for Inactive)
REMARK    1  A    between atoms: C2_2  and  C3_3 
REMARK    2  A    between atoms: C3_3  and  C4_4 
REMARK    3  A    between atoms: C10_12  and  O2_13 
REMARK    4  A    between atoms: C12_15  and  O3_16 
REMARK    5  A    between atoms: C15_20  and  C16_21 
REMARK    6  A    between atoms: C16_21  and  C17_22 
REMARK    7  A    between atoms: C17_22  and  O4_23 
ROOT
HETATM    1  C4  UNL     1      31.615   6.749  46.825  1.00  0.00     0.142 C 
HETATM    2  C5  UNL     1      30.920   6.165  48.040  1.00  0.00     0.233 C 
HETATM    3  O1  UNL     1      30.579   4.942  48.224  1.00  0.00    -0.272 OA
HETATM    4  N1  UNL     1      30.635   7.115  49.054  1.00  0.00    -0.324 N 
HETATM    5  C6  UNL     1      31.010   8.364  48.448  1.00  0.00     0.078 A 
HETATM    6  C7  UNL     1      31.502   8.216  47.151  1.00  0.00    -0.013 A 
HETATM    7  C8  UNL     1      31.779   9.423  46.560  1.00  0.00     0.013 A 
HETATM    8  C9  UNL     1      31.621  10.672  47.112  1.00  0.00     0.040 A 
HETATM    9  C10 UNL     1      31.133  10.756  48.397  1.00  0.00     0.103 A 
HETATM   10  C12 UNL     1      30.826   9.605  49.068  1.00  0.00     0.126 A 
HETATM   11  H7  UNL     1      30.254   6.932  49.990  1.00  0.00     0.169 HD
ENDROOT
BRANCH   1  12
HETATM   12  C3  UNL     1      33.031   6.294  46.915  1.00  0.00     0.052 C 
HETATM   13  N2  UNL     1      33.750   7.330  46.063  1.00  0.00    -0.388 N 
HETATM   14  C13 UNL     1      33.801   6.883  44.717  1.00  0.00     0.080 C 
HETATM   15  H14 UNL     1      34.177   8.265  46.340  1.00  0.00     0.159 HD
HETATM   16  C14 UNL     1      33.648   5.574  44.784  1.00  0.00    -0.003 C 
HETATM   17  C15 UNL     1      33.485   5.104  46.225  1.00  0.00     0.041 C 
BRANCH  12  18
HETATM   18  C2  UNL     1      33.660   6.555  48.272  1.00  0.00     0.028 C 
HETATM   19  C1  UNL     1      35.061   6.091  48.434  1.00  0.00     0.007 C 
ENDBRANCH  12  18
BRANCH  17  20
HETATM   20  C16 UNL     1      32.892   3.784  46.297  1.00  0.00     0.037 C 
BRANCH  20  21
HETATM   21  C17 UNL     1      33.442   2.864  47.356  1.00  0.00     0.165 C 
BRANCH  21  22
HETATM   22  O4  UNL     1      32.812   3.122  48.550  1.00  0.00    -0.401 OA
HETATM   23  H22 UNL     1      32.746   2.268  49.061  1.00  0.00     0.209 HD
ENDBRANCH  21  22
ENDBRANCH  20  21
ENDBRANCH  17  20
ENDBRANCH   1  12
BRANCH  10  24
HETATM   24  O3  UNL     1      30.343   9.754  50.350  1.00  0.00    -0.356 OA
HETATM   25  H13 UNL     1      29.416  10.149  50.458  1.00  0.00     0.218 HD
ENDBRANCH  10  24
BRANCH   9  26
HETATM   26  O2  UNL     1      30.961  11.994  48.989  1.00  0.00    -0.353 OA
HETATM   27  C11 UNL     1      29.856  12.828  48.753  1.00  0.00     0.210 C 
ENDBRANCH   9  26
TORSDOF 7
ENDMDL
MODEL 6
REMARK VINA RESULT:      -6.4      2.865      5.716
REMARK  7 active torsions:
REMARK  status: ('A' for Active; 'I' for Inactive)
REMARK    1  A    between atoms: C2_2  and  C3_3 
REMARK    2  A    between atoms: C3_3  and  C4_4 
REMARK    3  A    between atoms: C10_12  and  O2_13 
REMARK    4  A    between atoms: C12_15  and  O3_16 
REMARK    5  A    between atoms: C15_20  and  C16_21 
REMARK    6  A    between atoms: C16_21  and  C17_22 
REMARK    7  A    between atoms: C17_22  and  O4_23 
ROOT
HETATM    1  C4  UNL     1      23.039   2.512  52.997  1.00  0.00     0.142 C 
HETATM    2  C5  UNL     1      24.528   2.245  52.898  1.00  0.00     0.233 C 
HETATM    3  O1  UNL     1      25.190   1.319  53.492  1.00  0.00    -0.272 OA
HETATM    4  N1  UNL     1      25.220   3.144  52.047  1.00  0.00    -0.324 N 
HETATM    5  C6  UNL     1      24.211   4.105  51.694  1.00  0.00     0.078 A 
HETATM    6  C7  UNL     1      22.971   3.831  52.272  1.00  0.00    -0.013 A 
HETATM    7  C8  UNL     1      22.042   4.801  51.989  1.00  0.00     0.013 A 
HETATM    8  C9  UNL     1      22.230   5.934  51.234  1.00  0.00     0.040 A 
HETATM    9  C10 UNL     1      23.475   6.149  50.686  1.00  0.00     0.103 A 
HETATM   10  C12 UNL     1      24.468   5.238  50.915  1.00  0.00     0.126 A 
HETATM   11  H7  UNL     1      26.207   3.099  51.764  1.00  0.00     0.169 HD
ENDROOT
BRANCH   1  12
HETATM   12  C3  UNL     1      22.383   1.436  52.203  1.00  0.00     0.052 C 
HETATM   13  N2  UNL     1      21.022   2.047  51.905  1.00  0.00    -0.388 N 
HETATM   14  C13 UNL     1      20.111   1.697  52.936  1.00  0.00     0.080 C 
HETATM   15  H14 UNL     1      20.709   2.652  51.088  1.00  0.00     0.159 HD
HETATM   16  C14 UNL     1      20.622   0.616  53.495  1.00  0.00    -0.003 C 
HETATM   17  C15 UNL     1      21.930   0.209  52.826  1.00  0.00     0.041 C 
BRANCH  12  18
HETATM   18  C2  UNL     1      22.946   1.299  50.799  1.00  0.00     0.028 C 
HETATM   19  C1  UNL     1      21.954   1.357  49.697  1.00  0.00     0.007 C 
ENDBRANCH  12  18
BRANCH  17  20
HETATM   20  C16 UNL     1      22.714  -0.673  53.668  1.00  0.00     0.037 C 
BRANCH  20  21
HETATM   21  C17 UNL     1      22.085  -1.077  54.976  1.00  0.00     0.165 C 
BRANCH  21  22
HETATM   22  O4  UNL     1      23.013  -1.752  55.733  1.00  0.00    -0.401 OA
HETATM   23  H22 UNL     1      22.724  -2.703  55.807  1.00  0.00     0.209 HD
ENDBRANCH  21  22
ENDBRANCH  20  21
ENDBRANCH  17  20
ENDBRANCH   1  12
BRANCH  10  24
HETATM   24  O3  UNL     1      25.691   5.509  50.341  1.00  0.00    -0.356 OA
HETATM   25  H13 UNL     1      26.437   4.839  50.489  1.00  0.00     0.218 HD
ENDBRANCH  10  24
BRANCH   9  26
HETATM   26  O2  UNL     1      23.703   7.277  49.919  1.00  0.00    -0.353 OA
HETATM   27  C11 UNL     1      23.310   7.404  48.577  1.00  0.00     0.210 C 
ENDBRANCH   9  26
TORSDOF 7
ENDMDL
MODEL 7
REMARK VINA RESULT:      -6.3      3.866      5.872
REMARK  7 active torsions:
REMARK  status: ('A' for Active; 'I' for Inactive)
REMARK    1  A    between atoms: C2_2  and  C3_3 
REMARK    2  A    between atoms: C3_3  and  C4_4 
REMARK    3  A    between atoms: C10_12  and  O2_13 
REMARK    4  A    between atoms: C12_15  and  O3_16 
REMARK    5  A    between atoms: C15_20  and  C16_21 
REMARK    6  A    between atoms: C16_21  and  C17_22 
REMARK    7  A    between atoms: C17_22  and  O4_23 
ROOT
HETATM    1  C4  UNL     1      23.187   4.805  50.517  1.00  0.00     0.142 C 
HETATM    2  C5  UNL     1      23.478   5.355  51.900  1.00  0.00     0.233 C 
HETATM    3  O1  UNL     1      22.904   5.029  53.000  1.00  0.00    -0.272 OA
HETATM    4  N1  UNL     1      24.504   6.335  51.927  1.00  0.00    -0.324 N 
HETATM    5  C6  UNL     1      24.794   6.545  50.535  1.00  0.00     0.078 A 
HETATM    6  C7  UNL     1      24.017   5.753  49.689  1.00  0.00    -0.013 A 
HETATM    7  C8  UNL     1      24.251   6.025  48.365  1.00  0.00     0.013 A 
HETATM    8  C9  UNL     1      25.130   6.948  47.850  1.00  0.00     0.040 A 
HETATM    9  C10 UNL     1      25.872   7.699  48.734  1.00  0.00     0.103 A 
HETATM   10  C12 UNL     1      25.707   7.501  50.077  1.00  0.00     0.126 A 
HETATM   11  H7  UNL     1      24.924   6.774  52.755  1.00  0.00     0.169 HD
ENDROOT
BRANCH   1  12
HETATM   12  C3  UNL     1      23.771   3.435  50.498  1.00  0.00     0.052 C 
HETATM   13  N2  UNL     1      23.907   3.170  49.005  1.00  0.00    -0.388 N 
HETATM   14  C13 UNL     1      22.720   2.559  48.523  1.00  0.00     0.080 C 
HETATM   15  H14 UNL     1      24.717   3.376  48.346  1.00  0.00     0.159 HD
HETATM   16  C14 UNL     1      22.153   2.022  49.588  1.00  0.00    -0.003 C 
HETATM   17  C15 UNL     1      22.978   2.274  50.845  1.00  0.00     0.041 C 
BRANCH  12  18
HETATM   18  C2  UNL     1      25.227   3.397  50.927  1.00  0.00     0.028 C 
HETATM   19  C1  UNL     1      26.206   3.062  49.862  1.00  0.00     0.007 C 
ENDBRANCH  12  18
BRANCH  17  20
HETATM   20  C16 UNL     1      22.192   2.092  52.049  1.00  0.00     0.037 C 
BRANCH  20  21
HETATM   21  C17 UNL     1      20.711   2.336  51.921  1.00  0.00     0.165 C 
BRANCH  21  22
HETATM   22  O4  UNL     1      20.382   3.485  52.600  1.00  0.00    -0.401 OA
HETATM   23  H22 UNL     1      20.304   3.265  53.569  1.00  0.00     0.209 HD
ENDBRANCH  21  22
ENDBRANCH  20  21
ENDBRANCH  17  20
ENDBRANCH   1  12
BRANCH  10  24
HETATM   24  O3  UNL     1      26.477   8.283  50.909  1.00  0.00    -0.356 OA
HETATM   25  H13 UNL     1      27.175   8.879  50.480  1.00  0.00     0.218 HD
ENDBRANCH  10  24
BRANCH   9  26
HETATM   26  O2  UNL     1      26.768   8.637  48.256  1.00  0.00    -0.353 OA
HETATM   27  C11 UNL     1      28.003   8.313  47.668  1.00  0.00     0.210 C 
ENDBRANCH   9  26
TORSDOF 7
ENDMDL
MODEL 8
REMARK VINA RESULT:      -6.1      3.148      5.524
REMARK  7 active torsions:
REMARK  status: ('A' for Active; 'I' for Inactive)
REMARK    1  A    between atoms: C2_2  and  C3_3 
REMARK    2  A    between atoms: C3_3  and  C4_4 
REMARK    3  A    between atoms: C10_12  and  O2_13 
REMARK    4  A    between atoms: C12_15  and  O3_16 
REMARK    5  A    between atoms: C15_20  and  C16_21 
REMARK    6  A    between atoms: C16_21  and  C17_22 
REMARK    7  A    between atoms: C17_22  and  O4_23 
ROOT
HETATM    1  C4  UNL     1      24.104   2.208  50.671  1.00  0.00     0.142 C 
HETATM    2  C5  UNL     1      22.743   2.165  50.004  1.00  0.00     0.233 C 
HETATM    3  O1  UNL     1      21.877   1.219  50.070  1.00  0.00    -0.272 OA
HETATM    4  N1  UNL     1      22.442   3.316  49.232  1.00  0.00    -0.324 N 
HETATM    5  C6  UNL     1      23.669   4.064  49.266  1.00  0.00     0.078 A 
HETATM    6  C7  UNL     1      24.670   3.438  50.009  1.00  0.00    -0.013 A 
HETATM    7  C8  UNL     1      25.856   4.126  49.963  1.00  0.00     0.013 A 
HETATM    8  C9  UNL     1      26.110   5.298  49.293  1.00  0.00     0.040 A 
HETATM    9  C10 UNL     1      25.082   5.872  48.578  1.00  0.00     0.103 A 
HETATM   10  C12 UNL     1      23.860   5.258  48.561  1.00  0.00     0.126 A 
HETATM   11  H7  UNL     1      21.552   3.541  48.770  1.00  0.00     0.169 HD
ENDROOT
BRANCH   1  12
HETATM   12  C3  UNL     1      23.837   2.459  52.114  1.00  0.00     0.052 C 
HETATM   13  N2  UNL     1      25.155   3.061  52.580  1.00  0.00    -0.388 N 
HETATM   14  C13 UNL     1      26.016   2.025  53.027  1.00  0.00     0.080 C 
HETATM   15  H14 UNL     1      25.471   4.076  52.604  1.00  0.00     0.159 HD
HETATM   16  C14 UNL     1      25.218   1.016  53.320  1.00  0.00    -0.003 C 
HETATM   17  C15 UNL     1      23.757   1.369  53.066  1.00  0.00     0.041 C 
BRANCH  12  18
HETATM   18  C2  UNL     1      22.892   3.622  52.356  1.00  0.00     0.028 C 
HETATM   19  C1  UNL     1      23.487   4.811  53.017  1.00  0.00     0.007 C 
ENDBRANCH  12  18
BRANCH  17  20
HETATM   20  C16 UNL     1      22.928   0.186  52.957  1.00  0.00     0.037 C 
BRANCH  20  21
HETATM   21  C17 UNL     1      21.566   0.265  53.598  1.00  0.00     0.165 C 
BRANCH  21  22
HETATM   22  O4  UNL     1      20.678   0.815  52.705  1.00  0.00    -0.401 OA
HETATM   23  H22 UNL     1      20.730   1.808  52.783  1.00  0.00     0.209 HD
ENDBRANCH  21  22
ENDBRANCH  20  21
ENDBRANCH  17  20
ENDBRANCH   1  12
BRANCH  10  24
HETATM   24  O3  UNL     1      22.873   5.880  47.829  1.00  0.00    -0.356 OA
HETATM   25  H13 UNL     1      22.847   6.892  47.843  1.00  0.00     0.218 HD
ENDBRANCH  10  24
BRANCH   9  26
HETATM   26  O2  UNL     1      25.296   7.052  47.891  1.00  0.00    -0.353 OA
HETATM   27  C11 UNL     1      26.394   7.900  48.113  1.00  0.00     0.210 C 
ENDBRANCH   9  26
TORSDOF 7
ENDMDL
MODEL 9
REMARK VINA RESULT:      -6.1      2.350      3.029
REMARK  7 active torsions:
REMARK  status: ('A' for Active; 'I' for Inactive)
REMARK    1  A    between atoms: C2_2  and  C3_3 
REMARK    2  A    between atoms: C3_3  and  C4_4 
REMARK    3  A    between atoms: C10_12  and  O2_13 
REMARK    4  A    between atoms: C12_15  and  O3_16 
REMARK    5  A    between atoms: C15_20  and  C16_21 
REMARK    6  A    between atoms: C16_21  and  C17_22 
REMARK    7  A    between atoms: C17_22  and  O4_23 
ROOT
HETATM    1  C4  UNL     1      22.292   0.630  51.398  1.00  0.00     0.142 C 
HETATM    2  C5  UNL     1      22.827   1.616  50.377  1.00  0.00     0.233 C 
HETATM    3  O1  UNL     1      22.302   1.921  49.247  1.00  0.00    -0.272 OA
HETATM    4  N1  UNL     1      24.042   2.240  50.759  1.00  0.00    -0.324 N 
HETATM    5  C6  UNL     1      24.394   1.557  51.974  1.00  0.00     0.078 A 
HETATM    6  C7  UNL     1      23.469   0.579  52.338  1.00  0.00    -0.013 A 
HETATM    7  C8  UNL     1      23.862  -0.116  53.455  1.00  0.00     0.013 A 
HETATM    8  C9  UNL     1      25.012   0.069  54.185  1.00  0.00     0.040 A 
HETATM    9  C10 UNL     1      25.887   1.052  53.778  1.00  0.00     0.103 A 
HETATM   10  C12 UNL     1      25.582   1.797  52.673  1.00  0.00     0.126 A 
HETATM   11  H7  UNL     1      24.534   2.998  50.270  1.00  0.00     0.169 HD
ENDROOT
BRANCH   1  12
HETATM   12  C3  UNL     1      21.131   1.306  52.040  1.00  0.00     0.052 C 
HETATM   13  N2  UNL     1      21.138   0.693  53.433  1.00  0.00    -0.388 N 
HETATM   14  C13 UNL     1      20.329  -0.474  53.439  1.00  0.00     0.080 C 
HETATM   15  H14 UNL     1      21.636   1.012  54.317  1.00  0.00     0.159 HD
HETATM   16  C14 UNL     1      19.513  -0.333  52.412  1.00  0.00    -0.003 C 
HETATM   17  C15 UNL     1      19.769   0.975  51.672  1.00  0.00     0.041 C 
BRANCH  12  18
HETATM   18  C2  UNL     1      21.393   2.765  52.371  1.00  0.00     0.028 C 
HETATM   19  C1  UNL     1      20.249   3.690  52.165  1.00  0.00     0.007 C 
ENDBRANCH  12  18
BRANCH  17  20
HETATM   20  C16 UNL     1      19.217   0.954  50.333  1.00  0.00     0.037 C 
BRANCH  20  21
HETATM   21  C17 UNL     1      17.731   1.174  50.221  1.00  0.00     0.165 C 
BRANCH  21  22
HETATM   22  O4  UNL     1      17.406   1.400  48.905  1.00  0.00    -0.401 OA
HETATM   23  H22 UNL     1      17.635   2.345  48.684  1.00  0.00     0.209 HD
ENDBRANCH  21  22
ENDBRANCH  20  21
ENDBRANCH  17  20
ENDBRANCH   1  12
BRANCH  10  24
HETATM   24  O3  UNL     1      26.497   2.764  52.317  1.00  0.00    -0.356 OA
HETATM   25  H13 UNL     1      26.181   3.503  51.700  1.00  0.00     0.218 HD
ENDBRANCH  10  24
BRANCH   9  26
HETATM   26  O2  UNL     1      27.054   1.270  54.487  1.00  0.00    -0.353 OA
HETATM   27  C11 UNL     1      27.952   0.252  54.850  1.00  0.00     0.210 C 
ENDBRANCH   9  26
TORSDOF 7
ENDMDL
