MODEL 1
REMARK VINA RESULT:      -9.5      0.000      0.000
REMARK  5 active torsions:
REMARK  status: ('A' for Active; 'I' for Inactive)
REMARK    1  A    between atoms: O1_2  and  C2_3 
REMARK    2  A    between atoms: C4_5  and  O2_6 
REMARK    3  A    between atoms: O2_6  and  C5_7 
REMARK    4  A    between atoms: C12_15  and  N2_16 
REMARK    5  A    between atoms: N2_16  and  C13_17 
ROOT
HETATM    1  C2  UNL     1      20.041  -0.196  52.898  1.00  0.00     0.073 A 
HETATM    2  C3  UNL     1      20.957   0.494  52.096  1.00  0.00     0.074 A 
HETATM    3  C4  UNL     1      22.315   0.519  52.328  1.00  0.00     0.088 A 
HETATM    4  C11 UNL     1      22.759  -0.186  53.421  1.00  0.00     0.072 A 
HETATM    5  C12 UNL     1      24.095  -0.220  53.731  1.00  0.00     0.144 A 
HETATM    6  N3  UNL     1      24.465  -0.925  54.808  1.00  0.00    -0.223 NA
HETATM    7  C19 UNL     1      23.594  -1.588  55.578  1.00  0.00     0.236 A 
HETATM    8  N4  UNL     1      22.283  -1.566  55.291  1.00  0.00    -0.241 NA
HETATM    9  C20 UNL     1      21.867  -0.870  54.219  1.00  0.00     0.077 A 
HETATM   10  C21 UNL     1      20.513  -0.897  53.990  1.00  0.00     0.069 A 
ENDROOT
BRANCH   5  11
HETATM   11  N2  UNL     1      25.097   0.462  53.000  1.00  0.00    -0.340 N 
HETATM   12  H17 UNL     1      25.168   1.202  52.283  1.00  0.00     0.167 HD
BRANCH  11  13
HETATM   13  C13 UNL     1      26.484   0.162  53.183  1.00  0.00     0.035 A 
HETATM   14  C14 UNL     1      27.146  -1.035  52.882  1.00  0.00     0.032 A 
HETATM   15  C15 UNL     1      28.481  -1.254  53.104  1.00  0.00     0.046 A 
HETATM   16  C16 UNL     1      29.249  -0.254  53.656  1.00  0.00     0.138 A 
HETATM   17  F1  UNL     1      30.548  -0.560  53.836  1.00  0.00    -0.204 F 
HETATM   18  C17 UNL     1      28.659   0.957  53.978  1.00  0.00     0.074 A 
HETATM   19 CL1  UNL     1      29.740   2.126  54.666  1.00  0.00    -0.081 Cl
HETATM   20  C18 UNL     1      27.326   1.131  53.740  1.00  0.00     0.056 A 
ENDBRANCH  11  13
ENDBRANCH   5  11
BRANCH   3  21
HETATM   21  O2  UNL     1      23.144   1.208  51.510  1.00  0.00    -0.345 OA
BRANCH  21  22
HETATM   22  C5  UNL     1      23.177   2.548  51.174  1.00  0.00     0.132 C 
HETATM   23  C6  UNL     1      23.247   3.360  52.449  1.00  0.00     0.062 C 
HETATM   24  C7  UNL     1      23.346   4.830  52.205  1.00  0.00     0.274 C 
HETATM   25  N1  UNL     1      23.734   5.190  50.871  1.00  0.00     0.084 N 
HETATM   26  C8  UNL     1      24.297   6.532  50.920  1.00  0.00     0.309 C 
HETATM   27  C9  UNL     1      24.722   4.328  50.285  1.00  0.00     0.274 C 
HETATM   28  C10 UNL     1      24.391   2.866  50.332  1.00  0.00     0.062 C 
ENDBRANCH  21  22
ENDBRANCH   3  21
BRANCH   1  29
HETATM   29  O1  UNL     1      18.677  -0.209  52.648  1.00  0.00    -0.356 OA
HETATM   30  C1  UNL     1      17.851  -1.267  53.126  1.00  0.00     0.210 C 
ENDBRANCH   1  29
TORSDOF 5
ENDMDL
MODEL 2
REMARK VINA RESULT:      -9.1      3.371      5.966
REMARK  5 active torsions:
REMARK  status: ('A' for Active; 'I' for Inactive)
REMARK    1  A    between atoms: O1_2  and  C2_3 
REMARK    2  A    between atoms: C4_5  and  O2_6 
REMARK    3  A    between atoms: O2_6  and  C5_7 
REMARK    4  A    between atoms: C12_15  and  N2_16 
REMARK    5  A    between atoms: N2_16  and  C13_17 
ROOT
HETATM    1  C2  UNL     1      21.744  -0.035  52.716  1.00  0.00     0.073 A 
HETATM    2  C3  UNL     1      22.960   0.471  53.189  1.00  0.00     0.074 A 
HETATM    3  C4  UNL     1      23.757   1.343  52.479  1.00  0.00     0.088 A 
HETATM    4  C11 UNL     1      23.298   1.715  51.239  1.00  0.00     0.072 A 
HETATM    5  C12 UNL     1      24.024   2.582  50.460  1.00  0.00     0.144 A 
HETATM    6  N3  UNL     1      23.522   2.906  49.261  1.00  0.00    -0.223 NA
HETATM    7  C19 UNL     1      22.360   2.427  48.804  1.00  0.00     0.236 A 
HETATM    8  N4  UNL     1      21.636   1.578  49.551  1.00  0.00    -0.241 NA
HETATM    9  C20 UNL     1      22.102   1.224  50.762  1.00  0.00     0.077 A 
HETATM   10  C21 UNL     1      21.305   0.355  51.466  1.00  0.00     0.069 A 
ENDROOT
BRANCH   5  11
HETATM   11  N2  UNL     1      25.274   3.129  50.835  1.00  0.00    -0.340 N 
HETATM   12  H17 UNL     1      25.993   2.996  51.564  1.00  0.00     0.167 HD
BRANCH  11  13
HETATM   13  C13 UNL     1      25.869   4.197  50.092  1.00  0.00     0.035 A 
HETATM   14  C14 UNL     1      26.963   4.127  49.222  1.00  0.00     0.032 A 
HETATM   15  C15 UNL     1      27.491   5.204  48.557  1.00  0.00     0.046 A 
HETATM   16  C16 UNL     1      26.931   6.449  48.735  1.00  0.00     0.138 A 
HETATM   17  F1  UNL     1      27.515   7.444  48.041  1.00  0.00    -0.204 F 
HETATM   18  C17 UNL     1      25.845   6.592  49.582  1.00  0.00     0.074 A 
HETATM   19 CL1  UNL     1      25.241   8.213  49.713  1.00  0.00    -0.081 Cl
HETATM   20  C18 UNL     1      25.354   5.492  50.223  1.00  0.00     0.056 A 
ENDBRANCH  11  13
ENDBRANCH   5  11
BRANCH   3  21
HETATM   21  O2  UNL     1      24.922   1.793  52.999  1.00  0.00    -0.345 OA
BRANCH  21  22
HETATM   22  C5  UNL     1      26.026   1.110  53.474  1.00  0.00     0.132 C 
HETATM   23  C6  UNL     1      26.371   0.013  52.491  1.00  0.00     0.062 C 
HETATM   24  C7  UNL     1      27.590  -0.760  52.876  1.00  0.00     0.274 C 
HETATM   25  N1  UNL     1      28.419  -0.119  53.856  1.00  0.00     0.084 N 
HETATM   26  C8  UNL     1      29.759  -0.675  53.735  1.00  0.00     0.309 C 
HETATM   27  C9  UNL     1      28.527   1.306  53.706  1.00  0.00     0.274 C 
HETATM   28  C10 UNL     1      27.217   2.029  53.608  1.00  0.00     0.062 C 
ENDBRANCH  21  22
ENDBRANCH   3  21
BRANCH   1  29
HETATM   29  O1  UNL     1      20.956  -0.913  53.445  1.00  0.00    -0.356 OA
HETATM   30  C1  UNL     1      21.500  -1.665  54.526  1.00  0.00     0.210 C 
ENDBRANCH   1  29
TORSDOF 5
ENDMDL
MODEL 3
REMARK VINA RESULT:      -8.7      3.603      7.636
REMARK  5 active torsions:
REMARK  status: ('A' for Active; 'I' for Inactive)
REMARK    1  A    between atoms: O1_2  and  C2_3 
REMARK    2  A    between atoms: C4_5  and  O2_6 
REMARK    3  A    between atoms: O2_6  and  C5_7 
REMARK    4  A    between atoms: C12_15  and  N2_16 
REMARK    5  A    between atoms: N2_16  and  C13_17 
ROOT
HETATM    1  C2  UNL     1      26.590   4.803  49.167  1.00  0.00     0.073 A 
HETATM    2  C3  UNL     1      26.615   3.598  49.880  1.00  0.00     0.074 A 
HETATM    3  C4  UNL     1      25.642   3.219  50.780  1.00  0.00     0.088 A 
HETATM    4  C11 UNL     1      24.604   4.100  50.962  1.00  0.00     0.072 A 
HETATM    5  C12 UNL     1      23.589   3.806  51.839  1.00  0.00     0.144 A 
HETATM    6  N3  UNL     1      22.606   4.705  51.972  1.00  0.00    -0.223 NA
HETATM    7  C19 UNL     1      22.576   5.858  51.292  1.00  0.00     0.236 A 
HETATM    8  N4  UNL     1      23.559   6.163  50.431  1.00  0.00    -0.241 NA
HETATM    9  C20 UNL     1      24.568   5.289  50.267  1.00  0.00     0.077 A 
HETATM   10  C21 UNL     1      25.535   5.670  49.369  1.00  0.00     0.069 A 
ENDROOT
BRANCH   5  11
HETATM   11  N2  UNL     1      23.533   2.630  52.623  1.00  0.00    -0.340 N 
HETATM   12  H17 UNL     1      24.121   2.121  53.303  1.00  0.00     0.167 HD
BRANCH  11  13
HETATM   13  C13 UNL     1      22.393   1.766  52.586  1.00  0.00     0.035 A 
HETATM   14  C14 UNL     1      21.244   1.900  51.798  1.00  0.00     0.032 A 
HETATM   15  C15 UNL     1      20.180   1.036  51.832  1.00  0.00     0.046 A 
HETATM   16  C16 UNL     1      20.212  -0.043  52.686  1.00  0.00     0.138 A 
HETATM   17  F1  UNL     1      19.124  -0.835  52.649  1.00  0.00    -0.204 F 
HETATM   18  C17 UNL     1      21.319  -0.238  53.495  1.00  0.00     0.074 A 
HETATM   19 CL1  UNL     1      21.226  -1.634  54.520  1.00  0.00    -0.081 Cl
HETATM   20  C18 UNL     1      22.355   0.648  53.428  1.00  0.00     0.056 A 
ENDBRANCH  11  13
ENDBRANCH   5  11
BRANCH   3  21
HETATM   21  O2  UNL     1      25.730   2.038  51.434  1.00  0.00    -0.345 OA
BRANCH  21  22
HETATM   22  C5  UNL     1      26.831   1.287  51.806  1.00  0.00     0.132 C 
HETATM   23  C6  UNL     1      27.490   1.958  52.990  1.00  0.00     0.062 C 
HETATM   24  C7  UNL     1      28.665   1.199  53.516  1.00  0.00     0.274 C 
HETATM   25  N1  UNL     1      28.735  -0.168  53.085  1.00  0.00     0.084 N 
HETATM   26  C8  UNL     1      29.553  -0.894  54.046  1.00  0.00     0.309 C 
HETATM   27  C9  UNL     1      27.466  -0.834  53.006  1.00  0.00     0.274 C 
HETATM   28  C10 UNL     1      26.423  -0.111  52.207  1.00  0.00     0.062 C 
ENDBRANCH  21  22
ENDBRANCH   3  21
BRANCH   1  29
HETATM   29  O1  UNL     1      27.578   5.168  48.265  1.00  0.00    -0.356 OA
HETATM   30  C1  UNL     1      27.985   6.526  48.130  1.00  0.00     0.210 C 
ENDBRANCH   1  29
TORSDOF 5
ENDMDL
MODEL 4
REMARK VINA RESULT:      -8.6      4.167      6.631
REMARK  5 active torsions:
REMARK  status: ('A' for Active; 'I' for Inactive)
REMARK    1  A    between atoms: O1_2  and  C2_3 
REMARK    2  A    between atoms: C4_5  and  O2_6 
REMARK    3  A    between atoms: O2_6  and  C5_7 
REMARK    4  A    between atoms: C12_15  and  N2_16 
REMARK    5  A    between atoms: N2_16  and  C13_17 
ROOT
HETATM    1  C2  UNL     1      25.933  -0.186  54.669  1.00  0.00     0.073 A 
HETATM    2  C3  UNL     1      25.681   0.514  53.483  1.00  0.00     0.074 A 
HETATM    3  C4  UNL     1      24.457   0.535  52.850  1.00  0.00     0.088 A 
HETATM    4  C11 UNL     1      23.450  -0.184  53.446  1.00  0.00     0.072 A 
HETATM    5  C12 UNL     1      22.197  -0.220  52.888  1.00  0.00     0.144 A 
HETATM    6  N3  UNL     1      21.258  -0.938  53.518  1.00  0.00    -0.223 NA
HETATM    7  C19 UNL     1      21.492  -1.608  54.652  1.00  0.00     0.236 A 
HETATM    8  N4  UNL     1      22.711  -1.584  55.213  1.00  0.00    -0.241 NA
HETATM    9  C20 UNL     1      23.685  -0.877  54.614  1.00  0.00     0.077 A 
HETATM   10  C21 UNL     1      24.903  -0.900  55.249  1.00  0.00     0.069 A 
ENDROOT
BRANCH   5  11
HETATM   11  N2  UNL     1      21.846   0.431  51.681  1.00  0.00    -0.340 N 
HETATM   12  H17 UNL     1      22.248   0.600  50.745  1.00  0.00     0.167 HD
BRANCH  11  13
HETATM   13  C13 UNL     1      20.595   1.111  51.540  1.00  0.00     0.035 A 
HETATM   14  C14 UNL     1      20.247   2.372  52.040  1.00  0.00     0.032 A 
HETATM   15  C15 UNL     1      19.015   2.952  51.878  1.00  0.00     0.046 A 
HETATM   16  C16 UNL     1      18.036   2.279  51.185  1.00  0.00     0.138 A 
HETATM   17  F1  UNL     1      16.860   2.927  51.077  1.00  0.00    -0.204 F 
HETATM   18  C17 UNL     1      18.311   1.026  50.662  1.00  0.00     0.074 A 
HETATM   19 CL1  UNL     1      16.989   0.292  49.813  1.00  0.00    -0.081 Cl
HETATM   20  C18 UNL     1      19.551   0.487  50.848  1.00  0.00     0.056 A 
ENDBRANCH  11  13
ENDBRANCH   5  11
BRANCH   3  21
HETATM   21  O2  UNL     1      24.284   1.234  51.704  1.00  0.00    -0.345 OA
BRANCH  21  22
HETATM   22  C5  UNL     1      24.474   2.575  51.423  1.00  0.00     0.132 C 
HETATM   23  C6  UNL     1      23.855   2.874  50.076  1.00  0.00     0.062 C 
HETATM   24  C7  UNL     1      23.950   4.315  49.693  1.00  0.00     0.274 C 
HETATM   25  N1  UNL     1      24.245   5.204  50.779  1.00  0.00     0.084 N 
HETATM   26  C8  UNL     1      23.788   6.534  50.401  1.00  0.00     0.309 C 
HETATM   27  C9  UNL     1      23.606   4.863  52.020  1.00  0.00     0.274 C 
HETATM   28  C10 UNL     1      23.809   3.445  52.464  1.00  0.00     0.062 C 
ENDBRANCH  21  22
ENDBRANCH   3  21
BRANCH   1  29
HETATM   29  O1  UNL     1      27.172  -0.196  55.292  1.00  0.00    -0.356 OA
HETATM   30  C1  UNL     1      28.372  -0.027  54.544  1.00  0.00     0.210 C 
ENDBRANCH   1  29
TORSDOF 5
ENDMDL
MODEL 5
REMARK VINA RESULT:      -8.5      2.081      5.630
REMARK  5 active torsions:
REMARK  status: ('A' for Active; 'I' for Inactive)
REMARK    1  A    between atoms: O1_2  and  C2_3 
REMARK    2  A    between atoms: C4_5  and  O2_6 
REMARK    3  A    between atoms: O2_6  and  C5_7 
REMARK    4  A    between atoms: C12_15  and  N2_16 
REMARK    5  A    between atoms: N2_16  and  C13_17 
ROOT
HETATM    1  C2  UNL     1      22.614   5.536  51.154  1.00  0.00     0.073 A 
HETATM    2  C3  UNL     1      22.476   4.314  51.822  1.00  0.00     0.074 A 
HETATM    3  C4  UNL     1      23.421   3.311  51.793  1.00  0.00     0.088 A 
HETATM    4  C11 UNL     1      24.552   3.563  51.055  1.00  0.00     0.072 A 
HETATM    5  C12 UNL     1      25.549   2.623  50.969  1.00  0.00     0.144 A 
HETATM    6  N3  UNL     1      26.626   2.928  50.234  1.00  0.00    -0.223 NA
HETATM    7  C19 UNL     1      26.765   4.095  49.594  1.00  0.00     0.236 A 
HETATM    8  N4  UNL     1      25.801   5.026  49.666  1.00  0.00    -0.241 NA
HETATM    9  C20 UNL     1      24.700   4.762  50.392  1.00  0.00     0.077 A 
HETATM   10  C21 UNL     1      23.761   5.763  50.420  1.00  0.00     0.069 A 
ENDROOT
BRANCH   5  11
HETATM   11  N2  UNL     1      25.496   1.350  51.584  1.00  0.00    -0.340 N 
HETATM   12  H17 UNL     1      24.838   0.560  51.678  1.00  0.00     0.167 HD
BRANCH  11  13
HETATM   13  C13 UNL     1      26.596   0.847  52.348  1.00  0.00     0.035 A 
HETATM   14  C14 UNL     1      27.468   1.572  53.169  1.00  0.00     0.032 A 
HETATM   15  C15 UNL     1      28.517   1.019  53.858  1.00  0.00     0.046 A 
HETATM   16  C16 UNL     1      28.755  -0.333  53.758  1.00  0.00     0.138 A 
HETATM   17  F1  UNL     1      29.805  -0.785  54.470  1.00  0.00    -0.204 F 
HETATM   18  C17 UNL     1      27.930  -1.112  52.963  1.00  0.00     0.074 A 
HETATM   19 CL1  UNL     1      28.343  -2.796  52.927  1.00  0.00    -0.081 Cl
HETATM   20  C18 UNL     1      26.899  -0.518  52.294  1.00  0.00     0.056 A 
ENDBRANCH  11  13
ENDBRANCH   5  11
BRANCH   3  21
HETATM   21  O2  UNL     1      23.221   2.153  52.464  1.00  0.00    -0.345 OA
BRANCH  21  22
HETATM   22  C5  UNL     1      22.055   1.532  52.872  1.00  0.00     0.132 C 
HETATM   23  C6  UNL     1      21.329   1.025  51.645  1.00  0.00     0.062 C 
HETATM   24  C7  UNL     1      20.075   0.281  51.971  1.00  0.00     0.274 C 
HETATM   25  N1  UNL     1      19.973  -0.150  53.335  1.00  0.00     0.084 N 
HETATM   26  C8  UNL     1      19.037  -1.264  53.380  1.00  0.00     0.309 C 
HETATM   27  C9  UNL     1      21.208  -0.599  53.913  1.00  0.00     0.274 C 
HETATM   28  C10 UNL     1      22.354   0.359  53.775  1.00  0.00     0.062 C 
ENDBRANCH  21  22
ENDBRANCH   3  21
BRANCH   1  29
HETATM   29  O1  UNL     1      21.651   6.533  51.196  1.00  0.00    -0.356 OA
HETATM   30  C1  UNL     1      21.789   7.722  50.423  1.00  0.00     0.210 C 
ENDBRANCH   1  29
TORSDOF 5
ENDMDL
MODEL 6
REMARK VINA RESULT:      -8.3      3.574      5.570
REMARK  5 active torsions:
REMARK  status: ('A' for Active; 'I' for Inactive)
REMARK    1  A    between atoms: O1_2  and  C2_3 
REMARK    2  A    between atoms: C4_5  and  O2_6 
REMARK    3  A    between atoms: O2_6  and  C5_7 
REMARK    4  A    between atoms: C12_15  and  N2_16 
REMARK    5  A    between atoms: N2_16  and  C13_17 
ROOT
HETATM    1  C2  UNL     1      23.777  -0.181  53.825  1.00  0.00     0.073 A 
HETATM    2  C3  UNL     1      23.247   0.324  52.632  1.00  0.00     0.074 A 
HETATM    3  C4  UNL     1      23.947   1.131  51.761  1.00  0.00     0.088 A 
HETATM    4  C11 UNL     1      25.238   1.436  52.119  1.00  0.00     0.072 A 
HETATM    5  C12 UNL     1      26.013   2.233  51.313  1.00  0.00     0.144 A 
HETATM    6  N3  UNL     1      27.263   2.494  51.717  1.00  0.00    -0.223 NA
HETATM    7  C19 UNL     1      27.776   2.013  52.856  1.00  0.00     0.236 A 
HETATM    8  N4  UNL     1      27.034   1.232  53.657  1.00  0.00    -0.241 NA
HETATM    9  C20 UNL     1      25.772   0.945  53.291  1.00  0.00     0.077 A 
HETATM   10  C21 UNL     1      25.077   0.141  54.161  1.00  0.00     0.069 A 
ENDROOT
BRANCH   5  11
HETATM   11  N2  UNL     1      25.565   2.812  50.102  1.00  0.00    -0.340 N 
HETATM   12  H17 UNL     1      25.046   2.534  49.254  1.00  0.00     0.167 HD
BRANCH  11  13
HETATM   13  C13 UNL     1      25.821   4.186  49.797  1.00  0.00     0.035 A 
HETATM   14  C14 UNL     1      26.834   4.706  48.983  1.00  0.00     0.032 A 
HETATM   15  C15 UNL     1      27.027   6.043  48.751  1.00  0.00     0.046 A 
HETATM   16  C16 UNL     1      26.188   6.961  49.342  1.00  0.00     0.138 A 
HETATM   17  F1  UNL     1      26.455   8.249  49.056  1.00  0.00    -0.204 F 
HETATM   18  C17 UNL     1      25.162   6.516  50.160  1.00  0.00     0.074 A 
HETATM   19 CL1  UNL     1      24.183   7.777  50.838  1.00  0.00    -0.081 Cl
HETATM   20  C18 UNL     1      25.008   5.175  50.362  1.00  0.00     0.056 A 
ENDBRANCH  11  13
ENDBRANCH   5  11
BRANCH   3  21
HETATM   21  O2  UNL     1      23.371   1.583  50.624  1.00  0.00    -0.345 OA
BRANCH  21  22
HETATM   22  C5  UNL     1      22.040   1.726  50.277  1.00  0.00     0.132 C 
HETATM   23  C6  UNL     1      21.573   3.094  50.721  1.00  0.00     0.062 C 
HETATM   24  C7  UNL     1      20.157   3.383  50.344  1.00  0.00     0.274 C 
HETATM   25  N1  UNL     1      19.620   2.519  49.333  1.00  0.00     0.084 N 
HETATM   26  C8  UNL     1      18.503   3.212  48.705  1.00  0.00     0.309 C 
HETATM   27  C9  UNL     1      20.548   2.165  48.296  1.00  0.00     0.274 C 
HETATM   28  C10 UNL     1      21.856   1.614  48.781  1.00  0.00     0.062 C 
ENDBRANCH  21  22
ENDBRANCH   3  21
BRANCH   1  29
HETATM   29  O1  UNL     1      23.056  -0.992  54.689  1.00  0.00    -0.356 OA
HETATM   30  C1  UNL     1      21.634  -1.060  54.619  1.00  0.00     0.210 C 
ENDBRANCH   1  29
TORSDOF 5
ENDMDL
MODEL 7
REMARK VINA RESULT:      -8.0      3.881      6.083
REMARK  5 active torsions:
REMARK  status: ('A' for Active; 'I' for Inactive)
REMARK    1  A    between atoms: O1_2  and  C2_3 
REMARK    2  A    between atoms: C4_5  and  O2_6 
REMARK    3  A    between atoms: O2_6  and  C5_7 
REMARK    4  A    between atoms: C12_15  and  N2_16 
REMARK    5  A    between atoms: N2_16  and  C13_17 
ROOT
HETATM    1  C2  UNL     1      25.349  -0.239  53.996  1.00  0.00     0.073 A 
HETATM    2  C3  UNL     1      25.019   0.985  53.401  1.00  0.00     0.074 A 
HETATM    3  C4  UNL     1      23.729   1.381  53.122  1.00  0.00     0.088 A 
HETATM    4  C11 UNL     1      22.734   0.496  53.460  1.00  0.00     0.072 A 
HETATM    5  C12 UNL     1      21.418   0.804  53.221  1.00  0.00     0.144 A 
HETATM    6  N3  UNL     1      20.496  -0.100  53.574  1.00  0.00    -0.223 NA
HETATM    7  C19 UNL     1      20.804  -1.271  54.144  1.00  0.00     0.236 A 
HETATM    8  N4  UNL     1      22.085  -1.590  54.386  1.00  0.00    -0.241 NA
HETATM    9  C20 UNL     1      23.045  -0.712  54.046  1.00  0.00     0.077 A 
HETATM   10  C21 UNL     1      24.330  -1.109  54.326  1.00  0.00     0.069 A 
ENDROOT
BRANCH   5  11
HETATM   11  N2  UNL     1      20.983   2.001  52.604  1.00  0.00    -0.340 N 
HETATM   12  H17 UNL     1      20.683   2.950  52.877  1.00  0.00     0.167 HD
BRANCH  11  13
HETATM   13  C13 UNL     1      20.861   2.102  51.182  1.00  0.00     0.035 A 
HETATM   14  C14 UNL     1      21.125   1.111  50.229  1.00  0.00     0.032 A 
HETATM   15  C15 UNL     1      21.001   1.291  48.875  1.00  0.00     0.046 A 
HETATM   16  C16 UNL     1      20.593   2.512  48.389  1.00  0.00     0.138 A 
HETATM   17  F1  UNL     1      20.500   2.593  47.048  1.00  0.00    -0.204 F 
HETATM   18  C17 UNL     1      20.314   3.538  49.276  1.00  0.00     0.074 A 
HETATM   19 CL1  UNL     1      19.811   5.020  48.528  1.00  0.00    -0.081 Cl
HETATM   20  C18 UNL     1      20.451   3.314  50.615  1.00  0.00     0.056 A 
ENDBRANCH  11  13
ENDBRANCH   5  11
BRANCH   3  21
HETATM   21  O2  UNL     1      23.483   2.580  52.545  1.00  0.00    -0.345 OA
BRANCH  21  22
HETATM   22  C5  UNL     1      24.312   3.433  51.840  1.00  0.00     0.132 C 
HETATM   23  C6  UNL     1      24.431   2.923  50.421  1.00  0.00     0.062 C 
HETATM   24  C7  UNL     1      25.263   3.804  49.548  1.00  0.00     0.274 C 
HETATM   25  N1  UNL     1      25.478   5.125  50.063  1.00  0.00     0.084 N 
HETATM   26  C8  UNL     1      25.805   5.992  48.939  1.00  0.00     0.309 C 
HETATM   27  C9  UNL     1      24.343   5.696  50.734  1.00  0.00     0.274 C 
HETATM   28  C10 UNL     1      23.744   4.833  51.804  1.00  0.00     0.062 C 
ENDBRANCH  21  22
ENDBRANCH   3  21
BRANCH   1  29
HETATM   29  O1  UNL     1      26.654  -0.619  54.269  1.00  0.00    -0.356 OA
HETATM   30  C1  UNL     1      27.603   0.318  54.769  1.00  0.00     0.210 C 
ENDBRANCH   1  29
TORSDOF 5
ENDMDL
MODEL 8
REMARK VINA RESULT:      -7.8      4.207      7.547
REMARK  5 active torsions:
REMARK  status: ('A' for Active; 'I' for Inactive)
REMARK    1  A    between atoms: O1_2  and  C2_3 
REMARK    2  A    between atoms: C4_5  and  O2_6 
REMARK    3  A    between atoms: O2_6  and  C5_7 
REMARK    4  A    between atoms: C12_15  and  N2_16 
REMARK    5  A    between atoms: N2_16  and  C13_17 
ROOT
HETATM    1  C2  UNL     1      25.951  -0.247  52.854  1.00  0.00     0.073 A 
HETATM    2  C3  UNL     1      24.575   0.011  52.882  1.00  0.00     0.074 A 
HETATM    3  C4  UNL     1      23.985   1.098  52.273  1.00  0.00     0.088 A 
HETATM    4  C11 UNL     1      24.829   1.956  51.610  1.00  0.00     0.072 A 
HETATM    5  C12 UNL     1      24.331   3.065  50.972  1.00  0.00     0.144 A 
HETATM    6  N3  UNL     1      25.204   3.862  50.343  1.00  0.00    -0.223 NA
HETATM    7  C19 UNL     1      26.520   3.620  50.311  1.00  0.00     0.236 A 
HETATM    8  N4  UNL     1      27.025   2.540  50.928  1.00  0.00    -0.241 NA
HETATM    9  C20 UNL     1      26.185   1.713  51.574  1.00  0.00     0.077 A 
HETATM   10  C21 UNL     1      26.776   0.630  52.179  1.00  0.00     0.069 A 
ENDROOT
BRANCH   5  11
HETATM   11  N2  UNL     1      22.964   3.428  50.962  1.00  0.00    -0.340 N 
HETATM   12  H17 UNL     1      22.249   3.782  51.619  1.00  0.00     0.167 HD
BRANCH  11  13
HETATM   13  C13 UNL     1      22.180   3.341  49.768  1.00  0.00     0.035 A 
HETATM   14  C14 UNL     1      22.409   2.525  48.654  1.00  0.00     0.032 A 
HETATM   15  C15 UNL     1      21.620   2.511  47.533  1.00  0.00     0.046 A 
HETATM   16  C16 UNL     1      20.523   3.341  47.467  1.00  0.00     0.138 A 
HETATM   17  F1  UNL     1      19.808   3.257  46.329  1.00  0.00    -0.204 F 
HETATM   18  C17 UNL     1      20.236   4.175  48.535  1.00  0.00     0.074 A 
HETATM   19 CL1  UNL     1      18.829   5.165  48.319  1.00  0.00    -0.081 Cl
HETATM   20  C18 UNL     1      21.051   4.156  49.630  1.00  0.00     0.056 A 
ENDBRANCH  11  13
ENDBRANCH   5  11
BRANCH   3  21
HETATM   21  O2  UNL     1      22.647   1.286  52.341  1.00  0.00    -0.345 OA
BRANCH  21  22
HETATM   22  C5  UNL     1      21.609   0.379  52.451  1.00  0.00     0.132 C 
HETATM   23  C6  UNL     1      21.135   0.365  53.887  1.00  0.00     0.062 C 
HETATM   24  C7  UNL     1      19.971  -0.543  54.113  1.00  0.00     0.274 C 
HETATM   25  N1  UNL     1      19.278  -0.935  52.919  1.00  0.00     0.084 N 
HETATM   26  C8  UNL     1      17.930  -1.333  53.299  1.00  0.00     0.309 C 
HETATM   27  C9  UNL     1      19.161   0.101  51.931  1.00  0.00     0.274 C 
HETATM   28  C10 UNL     1      20.451   0.770  51.564  1.00  0.00     0.062 C 
ENDBRANCH  21  22
ENDBRANCH   3  21
BRANCH   1  29
HETATM   29  O1  UNL     1      26.526  -1.347  53.473  1.00  0.00    -0.356 OA
HETATM   30  C1  UNL     1      27.253  -2.316  52.724  1.00  0.00     0.210 C 
ENDBRANCH   1  29
TORSDOF 5
ENDMDL
MODEL 9
REMARK VINA RESULT:      -7.6      3.155      6.042
REMARK  5 active torsions:
REMARK  status: ('A' for Active; 'I' for Inactive)
REMARK    1  A    between atoms: O1_2  and  C2_3 
REMARK    2  A    between atoms: C4_5  and  O2_6 
REMARK    3  A    between atoms: O2_6  and  C5_7 
REMARK    4  A    between atoms: C12_15  and  N2_16 
REMARK    5  A    between atoms: N2_16  and  C13_17 
ROOT
HETATM    1  C2  UNL     1      21.469   0.450  52.989  1.00  0.00     0.073 A 
HETATM    2  C3  UNL     1      22.753   0.962  53.215  1.00  0.00     0.074 A 
HETATM    3  C4  UNL     1      23.165   2.211  52.805  1.00  0.00     0.088 A 
HETATM    4  C11 UNL     1      22.235   2.970  52.137  1.00  0.00     0.072 A 
HETATM    5  C12 UNL     1      22.555   4.228  51.692  1.00  0.00     0.144 A 
HETATM    6  N3  UNL     1      21.604   4.919  51.048  1.00  0.00    -0.223 NA
HETATM    7  C19 UNL     1      20.375   4.436  50.830  1.00  0.00     0.236 A 
HETATM    8  N4  UNL     1      20.044   3.208  51.258  1.00  0.00    -0.241 NA
HETATM    9  C20 UNL     1      20.968   2.479  51.908  1.00  0.00     0.077 A 
HETATM   10  C21 UNL     1      20.553   1.234  52.316  1.00  0.00     0.069 A 
ENDROOT
BRANCH   5  11
HETATM   11  N2  UNL     1      23.828   4.826  51.848  1.00  0.00    -0.340 N 
HETATM   12  H17 UNL     1      24.531   4.973  52.590  1.00  0.00     0.167 HD
BRANCH  11  13
HETATM   13  C13 UNL     1      24.488   5.466  50.751  1.00  0.00     0.035 A 
HETATM   14  C14 UNL     1      24.106   6.641  50.093  1.00  0.00     0.032 A 
HETATM   15  C15 UNL     1      24.784   7.185  49.032  1.00  0.00     0.046 A 
HETATM   16  C16 UNL     1      25.916   6.561  48.560  1.00  0.00     0.138 A 
HETATM   17  F1  UNL     1      26.513   7.169  47.517  1.00  0.00    -0.204 F 
HETATM   18  C17 UNL     1      26.351   5.394  49.165  1.00  0.00     0.074 A 
HETATM   19 CL1  UNL     1      27.788   4.714  48.470  1.00  0.00    -0.081 Cl
HETATM   20  C18 UNL     1      25.645   4.888  50.218  1.00  0.00     0.056 A 
ENDBRANCH  11  13
ENDBRANCH   5  11
BRANCH   3  21
HETATM   21  O2  UNL     1      24.423   2.641  53.058  1.00  0.00    -0.345 OA
BRANCH  21  22
HETATM   22  C5  UNL     1      25.639   1.989  52.969  1.00  0.00     0.132 C 
HETATM   23  C6  UNL     1      25.980   1.423  54.330  1.00  0.00     0.062 C 
HETATM   24  C7  UNL     1      27.254   0.643  54.339  1.00  0.00     0.274 C 
HETATM   25  N1  UNL     1      27.721   0.246  53.042  1.00  0.00     0.084 N 
HETATM   26  C8  UNL     1      28.601  -0.900  53.220  1.00  0.00     0.309 C 
HETATM   27  C9  UNL     1      26.684  -0.142  52.128  1.00  0.00     0.274 C 
HETATM   28  C10 UNL     1      25.572   0.853  51.976  1.00  0.00     0.062 C 
ENDBRANCH  21  22
ENDBRANCH   3  21
BRANCH   1  29
HETATM   29  O1  UNL     1      21.073  -0.810  53.410  1.00  0.00    -0.356 OA
HETATM   30  C1  UNL     1      21.918  -1.611  54.231  1.00  0.00     0.210 C 
ENDBRANCH   1  29
TORSDOF 5
ENDMDL
