MODEL 1
REMARK VINA RESULT:      -7.9      0.000      0.000
REMARK  3 active torsions:
REMARK  status: ('A' for Active; 'I' for Inactive)
REMARK    1  A    between atoms: C5_6  and  N1_7 
REMARK    2  A    between atoms: N1_7  and  C6_8 
REMARK    3  A    between atoms: C13_17  and  N4_18 
ROOT
HETATM    1  C6  UNL     1      25.561   3.554  50.465  1.00  0.00     0.135 C 
HETATM    2  C7  UNL     1      24.368   3.792  51.054  1.00  0.00     0.090 C 
HETATM    3  C8  UNL     1      23.735   4.226  52.374  1.00  0.00     0.087 C 
HETATM    4  C9  UNL     1      24.125   3.328  53.395  1.00  0.00     0.066 C 
HETATM    5  C10 UNL     1      24.584   2.071  52.646  1.00  0.00     0.057 C 
HETATM    6  N2  UNL     1      25.937   1.951  52.540  1.00  0.00    -0.178 NA
HETATM    7  N3  UNL     1      26.504   2.845  51.424  1.00  0.00    -0.262 N 
HETATM    8  C11 UNL     1      23.560   1.196  51.892  1.00  0.00     0.066 C 
HETATM    9  C12 UNL     1      22.943   1.878  50.723  1.00  0.00     0.087 C 
HETATM   10  C13 UNL     1      23.193   3.318  50.292  1.00  0.00     0.387 C 
HETATM   11  N5  UNL     1      22.172   4.282  50.376  1.00  0.00     0.152 N 
HETATM   12  C18 UNL     1      21.711   5.098  51.421  1.00  0.00     0.448 C 
HETATM   13  O2  UNL     1      22.899   5.414  52.284  1.00  0.00    -0.321 OA
HETATM   14  H6  UNL     1      27.454   3.071  51.167  1.00  0.00     0.191 HD
HETATM   15  H19 UNL     1      22.589   5.090  49.787  1.00  0.00     0.322 HD
ENDROOT
BRANCH   1  16
HETATM   16  N1  UNL     1      25.868   3.833  49.165  1.00  0.00    -0.341 N 
HETATM   17  H4  UNL     1      25.744   3.137  48.371  1.00  0.00     0.167 HD
BRANCH  16  18
HETATM   18  C5  UNL     1      26.417   5.131  48.980  1.00  0.00     0.035 A 
HETATM   19  C4  UNL     1      26.069   6.451  49.029  1.00  0.00     0.029 A 
HETATM   20  C3  UNL     1      27.001   7.413  48.717  1.00  0.00     0.004 A 
HETATM   21  C2  UNL     1      28.290   7.104  48.351  1.00  0.00     0.024 A 
HETATM   22  C1  UNL     1      28.661   5.762  48.296  1.00  0.00     0.036 A 
HETATM   23 CL1  UNL     1      30.325   5.498  47.811  1.00  0.00    -0.084 Cl
HETATM   24  C19 UNL     1      27.714   4.780  48.615  1.00  0.00     0.053 A 
ENDBRANCH  16  18
ENDBRANCH   1  16
BRANCH  10  25
HETATM   25  N4  UNL     1      23.309   3.250  48.845  1.00  0.00     0.137 N 
HETATM   26  C14 UNL     1      22.687   2.082  48.255  1.00  0.00     0.302 C 
HETATM   27  C15 UNL     1      21.215   1.969  48.393  1.00  0.00     0.198 C 
HETATM   28  O1  UNL     1      20.562   3.109  47.973  1.00  0.00    -0.388 OA
HETATM   29  C16 UNL     1      21.371   4.085  47.486  1.00  0.00     0.198 C 
HETATM   30  C17 UNL     1      22.730   4.283  48.046  1.00  0.00     0.302 C 
ENDBRANCH  10  25
TORSDOF 3
ENDMDL
MODEL 2
REMARK VINA RESULT:      -7.8      3.504      6.826
REMARK  3 active torsions:
REMARK  status: ('A' for Active; 'I' for Inactive)
REMARK    1  A    between atoms: C5_6  and  N1_7 
REMARK    2  A    between atoms: N1_7  and  C6_8 
REMARK    3  A    between atoms: C13_17  and  N4_18 
ROOT
HETATM    1  C6  UNL     1      22.662   2.143  50.347  1.00  0.00     0.135 C 
HETATM    2  C7  UNL     1      23.103   3.224  51.029  1.00  0.00     0.090 C 
HETATM    3  C8  UNL     1      22.818   4.705  51.264  1.00  0.00     0.087 C 
HETATM    4  C9  UNL     1      22.871   5.391  50.028  1.00  0.00     0.066 C 
HETATM    5  C10 UNL     1      23.664   4.459  49.104  1.00  0.00     0.057 C 
HETATM    6  N2  UNL     1      22.890   3.739  48.246  1.00  0.00    -0.178 NA
HETATM    7  N3  UNL     1      22.240   2.530  48.939  1.00  0.00    -0.262 N 
HETATM    8  C11 UNL     1      25.169   4.219  49.346  1.00  0.00     0.066 C 
HETATM    9  C12 UNL     1      25.461   3.496  50.612  1.00  0.00     0.087 C 
HETATM   10  C13 UNL     1      24.434   3.064  51.653  1.00  0.00     0.387 C 
HETATM   11  N5  UNL     1      24.415   3.651  52.931  1.00  0.00     0.152 N 
HETATM   12  C18 UNL     1      23.837   4.827  53.434  1.00  0.00     0.448 C 
HETATM   13  O2  UNL     1      22.576   5.062  52.654  1.00  0.00    -0.321 OA
HETATM   14  H6  UNL     1      21.537   1.876  48.623  1.00  0.00     0.191 HD
HETATM   15  H19 UNL     1      23.762   2.974  53.470  1.00  0.00     0.322 HD
ENDROOT
BRANCH   1  16
HETATM   16  N1  UNL     1      22.664   0.861  50.815  1.00  0.00    -0.341 N 
HETATM   17  H4  UNL     1      23.489   0.200  50.712  1.00  0.00     0.167 HD
BRANCH  16  18
HETATM   18  C5  UNL     1      21.432   0.477  51.413  1.00  0.00     0.035 A 
HETATM   19  C4  UNL     1      20.082   0.599  51.243  1.00  0.00     0.029 A 
HETATM   20  C3  UNL     1      19.227   0.042  52.164  1.00  0.00     0.004 A 
HETATM   21  C2  UNL     1      19.674  -0.644  53.270  1.00  0.00     0.024 A 
HETATM   22  C1  UNL     1      21.048  -0.778  53.457  1.00  0.00     0.036 A 
HETATM   23 CL1  UNL     1      21.491  -1.666  54.902  1.00  0.00    -0.084 Cl
HETATM   24  C19 UNL     1      21.922  -0.213  52.520  1.00  0.00     0.053 A 
ENDBRANCH  16  18
ENDBRANCH   1  16
BRANCH  10  25
HETATM   25  N4  UNL     1      24.845   1.724  52.035  1.00  0.00     0.137 N 
HETATM   26  C14 UNL     1      26.210   1.397  51.676  1.00  0.00     0.302 C 
HETATM   27  C15 UNL     1      27.280   2.184  52.337  1.00  0.00     0.198 C 
HETATM   28  O1  UNL     1      27.147   2.196  53.709  1.00  0.00    -0.388 OA
HETATM   29  C16 UNL     1      26.106   1.468  54.190  1.00  0.00     0.198 C 
HETATM   30  C17 UNL     1      24.846   1.358  53.416  1.00  0.00     0.302 C 
ENDBRANCH  10  25
TORSDOF 3
ENDMDL
MODEL 3
REMARK VINA RESULT:      -7.7      2.901      4.706
REMARK  3 active torsions:
REMARK  status: ('A' for Active; 'I' for Inactive)
REMARK    1  A    between atoms: C5_6  and  N1_7 
REMARK    2  A    between atoms: N1_7  and  C6_8 
REMARK    3  A    between atoms: C13_17  and  N4_18 
ROOT
HETATM    1  C6  UNL     1      22.843   1.611  52.961  1.00  0.00     0.135 C 
HETATM    2  C7  UNL     1      21.816   2.204  52.313  1.00  0.00     0.090 C 
HETATM    3  C8  UNL     1      20.294   2.318  52.305  1.00  0.00     0.087 C 
HETATM    4  C9  UNL     1      19.732   1.031  52.138  1.00  0.00     0.066 C 
HETATM    5  C10 UNL     1      20.870   0.187  51.551  1.00  0.00     0.057 C 
HETATM    6  N2  UNL     1      21.494  -0.612  52.460  1.00  0.00    -0.178 NA
HETATM    7  N3  UNL     1      22.497   0.176  53.320  1.00  0.00    -0.262 N 
HETATM    8  C11 UNL     1      21.374   0.451  50.116  1.00  0.00     0.066 C 
HETATM    9  C12 UNL     1      22.036   1.772  49.952  1.00  0.00     0.087 C 
HETATM   10  C13 UNL     1      22.178   2.842  51.028  1.00  0.00     0.387 C 
HETATM   11  N5  UNL     1      21.498   4.069  50.917  1.00  0.00     0.152 N 
HETATM   12  C18 UNL     1      20.197   4.473  51.252  1.00  0.00     0.448 C 
HETATM   13  O2  UNL     1      19.787   3.674  52.455  1.00  0.00    -0.321 OA
HETATM   14  H6  UNL     1      23.026  -0.088  54.139  1.00  0.00     0.191 HD
HETATM   15  H19 UNL     1      21.992   4.659  51.680  1.00  0.00     0.322 HD
ENDROOT
BRANCH   1  16
HETATM   16  N1  UNL     1      24.060   2.182  53.199  1.00  0.00    -0.341 N 
HETATM   17  H4  UNL     1      24.185   3.193  53.500  1.00  0.00     0.167 HD
BRANCH  16  18
HETATM   18  C5  UNL     1      25.152   1.304  52.957  1.00  0.00     0.035 A 
HETATM   19  C4  UNL     1      25.425   0.040  52.517  1.00  0.00     0.029 A 
HETATM   20  C3  UNL     1      26.726  -0.405  52.486  1.00  0.00     0.004 A 
HETATM   21  C2  UNL     1      27.786   0.378  52.883  1.00  0.00     0.024 A 
HETATM   22  C1  UNL     1      27.523   1.671  53.333  1.00  0.00     0.036 A 
HETATM   23 CL1  UNL     1      28.953   2.564  53.815  1.00  0.00    -0.084 Cl
HETATM   24  C19 UNL     1      26.200   2.126  53.365  1.00  0.00     0.053 A 
ENDBRANCH  16  18
ENDBRANCH   1  16
BRANCH  10  25
HETATM   25  N4  UNL     1      23.537   3.333  50.876  1.00  0.00     0.137 N 
HETATM   26  C14 UNL     1      24.060   3.225  49.529  1.00  0.00     0.302 C 
HETATM   27  C15 UNL     1      23.385   4.034  48.486  1.00  0.00     0.198 C 
HETATM   28  O1  UNL     1      23.279   5.362  48.841  1.00  0.00    -0.388 OA
HETATM   29  C16 UNL     1      23.837   5.680  50.038  1.00  0.00     0.198 C 
HETATM   30  C17 UNL     1      23.823   4.704  51.155  1.00  0.00     0.302 C 
ENDBRANCH  10  25
TORSDOF 3
ENDMDL
MODEL 4
REMARK VINA RESULT:      -7.6      3.302      5.219
REMARK  3 active torsions:
REMARK  status: ('A' for Active; 'I' for Inactive)
REMARK    1  A    between atoms: C5_6  and  N1_7 
REMARK    2  A    between atoms: N1_7  and  C6_8 
REMARK    3  A    between atoms: C13_17  and  N4_18 
ROOT
HETATM    1  C6  UNL     1      24.049   2.854  51.490  1.00  0.00     0.135 C 
HETATM    2  C7  UNL     1      23.260   2.841  50.393  1.00  0.00     0.090 C 
HETATM    3  C8  UNL     1      23.253   3.173  48.903  1.00  0.00     0.087 C 
HETATM    4  C9  UNL     1      23.568   4.541  48.731  1.00  0.00     0.066 C 
HETATM    5  C10 UNL     1      23.289   5.177  50.098  1.00  0.00     0.057 C 
HETATM    6  N2  UNL     1      24.405   5.398  50.845  1.00  0.00    -0.178 NA
HETATM    7  N3  UNL     1      24.904   4.111  51.524  1.00  0.00    -0.262 N 
HETATM    8  C11 UNL     1      21.841   5.296  50.619  1.00  0.00     0.066 C 
HETATM    9  C12 UNL     1      21.201   3.984  50.904  1.00  0.00     0.087 C 
HETATM   10  C13 UNL     1      21.824   2.614  50.664  1.00  0.00     0.387 C 
HETATM   11  N5  UNL     1      21.303   1.749  49.685  1.00  0.00     0.152 N 
HETATM   12  C18 UNL     1      21.507   1.640  48.300  1.00  0.00     0.448 C 
HETATM   13  O2  UNL     1      22.926   2.054  48.034  1.00  0.00    -0.321 OA
HETATM   14  H6  UNL     1      25.749   3.912  52.041  1.00  0.00     0.191 HD
HETATM   15  H19 UNL     1      21.794   0.817  49.937  1.00  0.00     0.322 HD
ENDROOT
BRANCH   1  16
HETATM   16  N1  UNL     1      24.037   1.917  52.482  1.00  0.00    -0.341 N 
HETATM   17  H4  UNL     1      23.146   1.510  52.894  1.00  0.00     0.167 HD
BRANCH  16  18
HETATM   18  C5  UNL     1      25.335   1.571  52.948  1.00  0.00     0.035 A 
HETATM   19  C4  UNL     1      26.409   2.105  53.603  1.00  0.00     0.029 A 
HETATM   20  C3  UNL     1      27.531   1.337  53.810  1.00  0.00     0.004 A 
HETATM   21  C2  UNL     1      27.625   0.033  53.382  1.00  0.00     0.024 A 
HETATM   22  C1  UNL     1      26.538  -0.526  52.714  1.00  0.00     0.036 A 
HETATM   23 CL1  UNL     1      26.784  -2.189  52.214  1.00  0.00    -0.084 Cl
HETATM   24  C19 UNL     1      25.394   0.253  52.501  1.00  0.00     0.053 A 
ENDBRANCH  16  18
ENDBRANCH   1  16
BRANCH  10  25
HETATM   25  N4  UNL     1      21.472   1.842  51.844  1.00  0.00     0.137 N 
HETATM   26  C14 UNL     1      20.361   2.386  52.598  1.00  0.00     0.302 C 
HETATM   27  C15 UNL     1      19.044   2.415  51.918  1.00  0.00     0.198 C 
HETATM   28  O1  UNL     1      18.698   1.186  51.396  1.00  0.00    -0.388 OA
HETATM   29  C16 UNL     1      19.593   0.192  51.633  1.00  0.00     0.198 C 
HETATM   30  C17 UNL     1      21.045   0.488  51.694  1.00  0.00     0.302 C 
ENDBRANCH  10  25
TORSDOF 3
ENDMDL
MODEL 5
REMARK VINA RESULT:      -7.4      2.633      5.653
REMARK  3 active torsions:
REMARK  status: ('A' for Active; 'I' for Inactive)
REMARK    1  A    between atoms: C5_6  and  N1_7 
REMARK    2  A    between atoms: N1_7  and  C6_8 
REMARK    3  A    between atoms: C13_17  and  N4_18 
ROOT
HETATM    1  C6  UNL     1      21.716   2.333  51.105  1.00  0.00     0.135 C 
HETATM    2  C7  UNL     1      21.355   3.295  50.227  1.00  0.00     0.090 C 
HETATM    3  C8  UNL     1      20.235   3.705  49.273  1.00  0.00     0.087 C 
HETATM    4  C9  UNL     1      20.039   2.679  48.319  1.00  0.00     0.066 C 
HETATM    5  C10 UNL     1      21.337   1.864  48.358  1.00  0.00     0.057 C 
HETATM    6  N2  UNL     1      21.243   0.706  49.070  1.00  0.00    -0.178 NA
HETATM    7  N3  UNL     1      21.333   0.958  50.584  1.00  0.00    -0.262 N 
HETATM    8  C11 UNL     1      22.655   2.472  47.834  1.00  0.00     0.066 C 
HETATM    9  C12 UNL     1      23.146   3.616  48.647  1.00  0.00     0.087 C 
HETATM   10  C13 UNL     1      22.438   4.230  49.849  1.00  0.00     0.387 C 
HETATM   11  N5  UNL     1      21.917   5.535  49.789  1.00  0.00     0.152 N 
HETATM   12  C18 UNL     1      20.704   6.059  49.313  1.00  0.00     0.448 C 
HETATM   13  O2  UNL     1      19.655   5.011  49.546  1.00  0.00    -0.321 OA
HETATM   14  H6  UNL     1      21.189   0.343  51.374  1.00  0.00     0.191 HD
HETATM   15  H19 UNL     1      21.716   5.736  50.834  1.00  0.00     0.322 HD
ENDROOT
BRANCH   1  16
HETATM   16  N1  UNL     1      22.402   2.543  52.266  1.00  0.00    -0.341 N 
HETATM   17  H4  UNL     1      22.562   3.505  52.688  1.00  0.00     0.167 HD
BRANCH  16  18
HETATM   18  C5  UNL     1      22.927   1.350  52.835  1.00  0.00     0.035 A 
HETATM   19  C4  UNL     1      22.572   0.315  53.654  1.00  0.00     0.029 A 
HETATM   20  C3  UNL     1      23.495  -0.655  53.964  1.00  0.00     0.004 A 
HETATM   21  C2  UNL     1      24.784  -0.633  53.482  1.00  0.00     0.024 A 
HETATM   22  C1  UNL     1      25.160   0.416  52.645  1.00  0.00     0.036 A 
HETATM   23 CL1  UNL     1      26.826   0.335  52.102  1.00  0.00    -0.084 Cl
HETATM   24  C19 UNL     1      24.222   1.405  52.327  1.00  0.00     0.053 A 
ENDBRANCH  16  18
ENDBRANCH   1  16
BRANCH  10  25
HETATM   25  N4  UNL     1      23.497   4.463  50.816  1.00  0.00     0.137 N 
HETATM   26  C14 UNL     1      24.829   4.465  50.246  1.00  0.00     0.302 C 
HETATM   27  C15 UNL     1      25.137   5.542  49.274  1.00  0.00     0.198 C 
HETATM   28  O1  UNL     1      24.837   6.794  49.769  1.00  0.00    -0.388 OA
HETATM   29  C16 UNL     1      24.364   6.807  51.042  1.00  0.00     0.198 C 
HETATM   30  C17 UNL     1      23.525   5.692  51.543  1.00  0.00     0.302 C 
ENDBRANCH  10  25
TORSDOF 3
ENDMDL
MODEL 6
REMARK VINA RESULT:      -7.3      7.327     10.325
REMARK  3 active torsions:
REMARK  status: ('A' for Active; 'I' for Inactive)
REMARK    1  A    between atoms: C5_6  and  N1_7 
REMARK    2  A    between atoms: N1_7  and  C6_8 
REMARK    3  A    between atoms: C13_17  and  N4_18 
ROOT
HETATM    1  C6  UNL     1      33.487   7.588  47.230  1.00  0.00     0.135 C 
HETATM    2  C7  UNL     1      32.624   8.223  46.406  1.00  0.00     0.090 C 
HETATM    3  C8  UNL     1      32.447   8.685  44.961  1.00  0.00     0.087 C 
HETATM    4  C9  UNL     1      33.506   9.558  44.620  1.00  0.00     0.066 C 
HETATM    5  C10 UNL     1      34.062  10.035  45.967  1.00  0.00     0.057 C 
HETATM    6  N2  UNL     1      35.206   9.401  46.350  1.00  0.00    -0.178 NA
HETATM    7  N3  UNL     1      34.918   8.010  46.940  1.00  0.00    -0.262 N 
HETATM    8  C11 UNL     1      33.225  10.965  46.870  1.00  0.00     0.066 C 
HETATM    9  C12 UNL     1      31.996  10.323  47.408  1.00  0.00     0.087 C 
HETATM   10  C13 UNL     1      31.508   8.915  47.088  1.00  0.00     0.387 C 
HETATM   11  N5  UNL     1      30.326   8.712  46.354  1.00  0.00     0.152 N 
HETATM   12  C18 UNL     1      30.047   8.688  44.978  1.00  0.00     0.448 C 
HETATM   13  O2  UNL     1      31.271   8.150  44.294  1.00  0.00    -0.321 OA
HETATM   14  H6  UNL     1      35.536   7.257  47.207  1.00  0.00     0.191 HD
HETATM   15  H19 UNL     1      30.150   7.655  46.515  1.00  0.00     0.322 HD
ENDROOT
BRANCH   1  16
HETATM   16  N1  UNL     1      33.134   6.743  48.242  1.00  0.00    -0.341 N 
HETATM   17  H4  UNL     1      32.549   7.040  49.077  1.00  0.00     0.167 HD
BRANCH  16  18
HETATM   18  C5  UNL     1      33.668   5.434  48.096  1.00  0.00     0.035 A 
HETATM   19  C4  UNL     1      34.819   4.725  48.295  1.00  0.00     0.029 A 
HETATM   20  C3  UNL     1      34.868   3.395  47.948  1.00  0.00     0.004 A 
HETATM   21  C2  UNL     1      33.795   2.732  47.399  1.00  0.00     0.024 A 
HETATM   22  C1  UNL     1      32.614   3.442  47.190  1.00  0.00     0.036 A 
HETATM   23 CL1  UNL     1      31.323   2.490  46.481  1.00  0.00    -0.084 Cl
HETATM   24  C19 UNL     1      32.560   4.796  47.543  1.00  0.00     0.053 A 
ENDBRANCH  16  18
ENDBRANCH   1  16
BRANCH  10  25
HETATM   25  N4  UNL     1      31.064   8.384  48.365  1.00  0.00     0.137 N 
HETATM   26  C14 UNL     1      30.790   9.397  49.365  1.00  0.00     0.302 C 
HETATM   27  C15 UNL     1      29.672  10.329  49.080  1.00  0.00     0.198 C 
HETATM   28  O1  UNL     1      28.508   9.665  48.755  1.00  0.00    -0.388 OA
HETATM   29  C16 UNL     1      28.593   8.310  48.795  1.00  0.00     0.198 C 
HETATM   30  C17 UNL     1      29.856   7.625  48.428  1.00  0.00     0.302 C 
ENDBRANCH  10  25
TORSDOF 3
ENDMDL
MODEL 7
REMARK VINA RESULT:      -7.2      6.342     10.266
REMARK  3 active torsions:
REMARK  status: ('A' for Active; 'I' for Inactive)
REMARK    1  A    between atoms: C5_6  and  N1_7 
REMARK    2  A    between atoms: N1_7  and  C6_8 
REMARK    3  A    between atoms: C13_17  and  N4_18 
ROOT
HETATM    1  C6  UNL     1      31.319   7.364  47.092  1.00  0.00     0.135 C 
HETATM    2  C7  UNL     1      32.652   7.509  47.261  1.00  0.00     0.090 C 
HETATM    3  C8  UNL     1      33.723   8.538  47.617  1.00  0.00     0.087 C 
HETATM    4  C9  UNL     1      33.665   9.608  46.693  1.00  0.00     0.066 C 
HETATM    5  C10 UNL     1      32.914   9.034  45.486  1.00  0.00     0.057 C 
HETATM    6  N2  UNL     1      31.604   9.400  45.422  1.00  0.00    -0.178 NA
HETATM    7  N3  UNL     1      30.732   8.573  46.382  1.00  0.00    -0.262 N 
HETATM    8  C11 UNL     1      33.571   7.950  44.604  1.00  0.00     0.066 C 
HETATM    9  C12 UNL     1      33.779   6.657  45.308  1.00  0.00     0.087 C 
HETATM   10  C13 UNL     1      33.467   6.375  46.773  1.00  0.00     0.387 C 
HETATM   11  N5  UNL     1      34.501   6.123  47.693  1.00  0.00     0.152 N 
HETATM   12  C18 UNL     1      35.334   6.964  48.448  1.00  0.00     0.448 C 
HETATM   13  O2  UNL     1      34.534   8.193  48.774  1.00  0.00    -0.321 OA
HETATM   14  H6  UNL     1      29.763   8.667  46.653  1.00  0.00     0.191 HD
HETATM   15  H19 UNL     1      33.947   5.736  48.540  1.00  0.00     0.322 HD
ENDROOT
BRANCH   1  16
HETATM   16  N1  UNL     1      30.597   6.259  47.434  1.00  0.00    -0.341 N 
HETATM   17  H4  UNL     1      31.007   5.279  47.475  1.00  0.00     0.167 HD
BRANCH  16  18
HETATM   18  C5  UNL     1      29.225   6.535  47.684  1.00  0.00     0.035 A 
HETATM   19  C4  UNL     1      28.307   7.542  47.586  1.00  0.00     0.029 A 
HETATM   20  C3  UNL     1      27.017   7.332  48.013  1.00  0.00     0.004 A 
HETATM   21  C2  UNL     1      26.599   6.133  48.545  1.00  0.00     0.024 A 
HETATM   22  C1  UNL     1      27.524   5.097  48.651  1.00  0.00     0.036 A 
HETATM   23 CL1  UNL     1      26.872   3.626  49.349  1.00  0.00    -0.084 Cl
HETATM   24  C19 UNL     1      28.838   5.308  48.217  1.00  0.00     0.053 A 
ENDBRANCH  16  18
ENDBRANCH   1  16
BRANCH  10  25
HETATM   25  N4  UNL     1      32.856   5.057  46.768  1.00  0.00     0.137 N 
HETATM   26  C14 UNL     1      33.222   4.238  45.630  1.00  0.00     0.302 C 
HETATM   27  C15 UNL     1      34.649   3.851  45.519  1.00  0.00     0.198 C 
HETATM   28  O1  UNL     1      35.128   3.280  46.679  1.00  0.00    -0.388 OA
HETATM   29  C16 UNL     1      34.210   3.146  47.671  1.00  0.00     0.198 C 
HETATM   30  C17 UNL     1      33.132   4.151  47.837  1.00  0.00     0.302 C 
ENDBRANCH  10  25
TORSDOF 3
ENDMDL
MODEL 8
REMARK VINA RESULT:      -7.1      2.138      4.216
REMARK  3 active torsions:
REMARK  status: ('A' for Active; 'I' for Inactive)
REMARK    1  A    between atoms: C5_6  and  N1_7 
REMARK    2  A    between atoms: N1_7  and  C6_8 
REMARK    3  A    between atoms: C13_17  and  N4_18 
ROOT
HETATM    1  C6  UNL     1      23.652   6.204  50.480  1.00  0.00     0.135 C 
HETATM    2  C7  UNL     1      23.082   5.117  49.916  1.00  0.00     0.090 C 
HETATM    3  C8  UNL     1      22.113   4.691  48.815  1.00  0.00     0.087 C 
HETATM    4  C9  UNL     1      20.859   5.308  49.035  1.00  0.00     0.066 C 
HETATM    5  C10 UNL     1      20.883   5.712  50.513  1.00  0.00     0.057 C 
HETATM    6  N2  UNL     1      21.148   7.032  50.723  1.00  0.00    -0.178 NA
HETATM    7  N3  UNL     1      22.650   7.341  50.595  1.00  0.00    -0.262 N 
HETATM    8  C11 UNL     1      20.852   4.633  51.617  1.00  0.00     0.066 C 
HETATM    9  C12 UNL     1      22.072   3.783  51.651  1.00  0.00     0.087 C 
HETATM   10  C13 UNL     1      23.246   3.861  50.682  1.00  0.00     0.387 C 
HETATM   11  N5  UNL     1      23.512   2.809  49.787  1.00  0.00     0.152 N 
HETATM   12  C18 UNL     1      23.005   2.483  48.519  1.00  0.00     0.448 C 
HETATM   13  O2  UNL     1      22.676   3.777  47.833  1.00  0.00    -0.321 OA
HETATM   14  H6  UNL     1      23.153   8.217  50.580  1.00  0.00     0.191 HD
HETATM   15  H19 UNL     1      24.505   3.067  49.440  1.00  0.00     0.322 HD
ENDROOT
BRANCH   1  16
HETATM   16  N1  UNL     1      24.929   6.266  50.959  1.00  0.00    -0.341 N 
HETATM   17  H4  UNL     1      25.168   6.250  51.994  1.00  0.00     0.167 HD
BRANCH  16  18
HETATM   18  C5  UNL     1      25.909   6.402  49.938  1.00  0.00     0.035 A 
HETATM   19  C4  UNL     1      26.575   5.670  48.997  1.00  0.00     0.029 A 
HETATM   20  C3  UNL     1      27.524   6.277  48.207  1.00  0.00     0.004 A 
HETATM   21  C2  UNL     1      27.839   7.611  48.322  1.00  0.00     0.024 A 
HETATM   22  C1  UNL     1      27.168   8.371  49.278  1.00  0.00     0.036 A 
HETATM   23 CL1  UNL     1      27.663  10.053  49.331  1.00  0.00    -0.084 Cl
HETATM   24  C19 UNL     1      26.201   7.756  50.083  1.00  0.00     0.053 A 
ENDBRANCH  16  18
ENDBRANCH   1  16
BRANCH  10  25
HETATM   25  N4  UNL     1      24.422   3.733  51.524  1.00  0.00     0.137 N 
HETATM   26  C14 UNL     1      24.147   3.230  52.855  1.00  0.00     0.302 C 
HETATM   27  C15 UNL     1      23.620   1.846  52.948  1.00  0.00     0.198 C 
HETATM   28  O1  UNL     1      24.401   0.942  52.258  1.00  0.00    -0.388 OA
HETATM   29  C16 UNL     1      25.503   1.472  51.668  1.00  0.00     0.198 C 
HETATM   30  C17 UNL     1      25.475   2.853  51.128  1.00  0.00     0.302 C 
ENDBRANCH  10  25
TORSDOF 3
ENDMDL
MODEL 9
REMARK VINA RESULT:      -7.1      2.024      2.764
REMARK  3 active torsions:
REMARK  status: ('A' for Active; 'I' for Inactive)
REMARK    1  A    between atoms: C5_6  and  N1_7 
REMARK    2  A    between atoms: N1_7  and  C6_8 
REMARK    3  A    between atoms: C13_17  and  N4_18 
ROOT
HETATM    1  C6  UNL     1      22.999   3.739  51.826  1.00  0.00     0.135 C 
HETATM    2  C7  UNL     1      21.704   3.396  51.645  1.00  0.00     0.090 C 
HETATM    3  C8  UNL     1      20.477   2.868  52.384  1.00  0.00     0.087 C 
HETATM    4  C9  UNL     1      20.787   1.616  52.965  1.00  0.00     0.066 C 
HETATM    5  C10 UNL     1      22.019   1.128  52.193  1.00  0.00     0.057 C 
HETATM    6  N2  UNL     1      23.196   1.307  52.856  1.00  0.00    -0.178 NA
HETATM    7  N3  UNL     1      23.689   2.760  52.762  1.00  0.00    -0.262 N 
HETATM    8  C11 UNL     1      21.896   0.715  50.711  1.00  0.00     0.066 C 
HETATM    9  C12 UNL     1      21.562   1.846  49.805  1.00  0.00     0.087 C 
HETATM   10  C13 UNL     1      21.283   3.283  50.231  1.00  0.00     0.387 C 
HETATM   11  N5  UNL     1      20.000   3.840  50.088  1.00  0.00     0.152 N 
HETATM   12  C18 UNL     1      18.847   3.803  50.890  1.00  0.00     0.448 C 
HETATM   13  O2  UNL     1      19.310   3.734  52.317  1.00  0.00    -0.321 OA
HETATM   14  H6  UNL     1      24.449   3.239  53.225  1.00  0.00     0.191 HD
HETATM   15  H19 UNL     1      20.203   4.892  50.245  1.00  0.00     0.322 HD
ENDROOT
BRANCH   1  16
HETATM   16  N1  UNL     1      23.636   4.771  51.201  1.00  0.00    -0.341 N 
HETATM   17  H4  UNL     1      23.279   5.771  51.208  1.00  0.00     0.167 HD
BRANCH  16  18
HETATM   18  C5  UNL     1      24.803   4.369  50.495  1.00  0.00     0.035 A 
HETATM   19  C4  UNL     1      25.563   3.264  50.235  1.00  0.00     0.029 A 
HETATM   20  C3  UNL     1      26.700   3.384  49.471  1.00  0.00     0.004 A 
HETATM   21  C2  UNL     1      27.117   4.585  48.947  1.00  0.00     0.024 A 
HETATM   22  C1  UNL     1      26.353   5.722  49.203  1.00  0.00     0.036 A 
HETATM   23 CL1  UNL     1      26.991   7.190  48.487  1.00  0.00    -0.084 Cl
HETATM   24  C19 UNL     1      25.194   5.603  49.979  1.00  0.00     0.053 A 
ENDBRANCH  16  18
ENDBRANCH   1  16
BRANCH  10  25
HETATM   25  N4  UNL     1      21.983   4.095  49.251  1.00  0.00     0.137 N 
HETATM   26  C14 UNL     1      22.251   3.415  48.000  1.00  0.00     0.302 C 
HETATM   27  C15 UNL     1      21.073   3.012  47.195  1.00  0.00     0.198 C 
HETATM   28  O1  UNL     1      20.203   4.060  46.980  1.00  0.00    -0.388 OA
HETATM   29  C16 UNL     1      20.601   5.249  47.502  1.00  0.00     0.198 C 
HETATM   30  C17 UNL     1      21.372   5.293  48.768  1.00  0.00     0.302 C 
ENDBRANCH  10  25
TORSDOF 3
ENDMDL
