MODEL 1
REMARK VINA RESULT:      -8.9      0.000      0.000
REMARK  2 active torsions:
REMARK  status: ('A' for Active; 'I' for Inactive)
REMARK    1  A    between atoms: C7_7  and  C8_8 
REMARK    2  A    between atoms: C13_15  and  C14_16 
ROOT
HETATM    1  C1  UNL     1      18.731   5.562  48.375  1.00  0.00     0.018 C 
HETATM    2  C2  UNL     1      19.355   4.745  49.085  1.00  0.00    -0.076 C 
HETATM    3  C3  UNL     1      20.094   3.788  49.952  1.00  0.00     0.039 C 
HETATM    4  C4  UNL     1      20.160   4.238  51.183  1.00  0.00     0.022 C 
HETATM    5  C5  UNL     1      20.885   3.496  52.238  1.00  0.00    -0.001 C 
HETATM    6  C6  UNL     1      21.660   2.402  52.466  1.00  0.00    -0.005 C 
HETATM    7  C7  UNL     1      22.204   1.316  51.589  1.00  0.00     0.058 C 
HETATM    8  C17 UNL     1      21.196   0.267  51.423  1.00  0.00     0.143 C 
HETATM    9  N1  UNL     1      19.944   0.806  50.965  1.00  0.00    -0.396 N 
HETATM   10  C18 UNL     1      19.999   1.327  49.679  1.00  0.00     0.108 C 
HETATM   11  C19 UNL     1      20.061   2.567  49.165  1.00  0.00     0.047 C 
HETATM   12  N2  UNL     1      20.233   2.497  47.754  1.00  0.00    -0.252 NA
HETATM   13  C20 UNL     1      21.619   2.179  48.033  1.00  0.00     0.181 C 
HETATM   14  N3  UNL     1      22.526   1.965  48.837  1.00  0.00    -0.253 NA
HETATM   15  C21 UNL     1      22.542   1.947  50.252  1.00  0.00     0.049 C 
HETATM   16  C22 UNL     1      23.332   3.055  50.560  1.00  0.00    -0.002 C 
HETATM   17  C23 UNL     1      23.913   3.760  51.691  1.00  0.00     0.038 C 
HETATM   18  H18 UNL     1      18.967   0.927  51.330  1.00  0.00     0.159 HD
HETATM   19  H20 UNL     1      19.243   2.734  47.706  1.00  0.00     0.134 HD
ENDROOT
BRANCH   7  20
HETATM   20  C8  UNL     1      23.465   0.819  52.221  1.00  0.00     0.034 C 
HETATM   21  C9  UNL     1      23.508   0.065  53.277  1.00  0.00     0.099 C 
HETATM   22  O1  UNL     1      22.370  -0.360  53.936  1.00  0.00    -0.346 OA
HETATM   23  C12 UNL     1      24.775  -0.384  53.838  1.00  0.00     0.098 C 
HETATM   24  C10 UNL     1      22.441  -1.544  54.698  1.00  0.00     0.202 C 
HETATM   25  C11 UNL     1      23.527  -1.272  55.754  1.00  0.00     0.202 C 
HETATM   26  O2  UNL     1      24.727  -1.185  54.971  1.00  0.00    -0.346 OA
HETATM   27  C13 UNL     1      25.963  -0.086  53.346  1.00  0.00     0.022 C 
BRANCH  27  28
HETATM   28  C14 UNL     1      27.398  -0.296  53.563  1.00  0.00     0.058 C 
HETATM   29  C15 UNL     1      27.828   0.117  54.952  1.00  0.00     0.178 C 
HETATM   30  O3  UNL     1      28.307   1.311  54.398  1.00  0.00    -0.390 OA
HETATM   31  C16 UNL     1      28.323   0.816  53.117  1.00  0.00     0.178 C 
ENDBRANCH  27  28
ENDBRANCH   7  20
TORSDOF 2
ENDMDL
MODEL 2
REMARK VINA RESULT:      -8.8      3.010      4.881
REMARK  2 active torsions:
REMARK  status: ('A' for Active; 'I' for Inactive)
REMARK    1  A    between atoms: C7_7  and  C8_8 
REMARK    2  A    between atoms: C13_15  and  C14_16 
ROOT
HETATM    1  C1  UNL     1      23.323   8.552  46.825  1.00  0.00     0.018 C 
HETATM    2  C2  UNL     1      23.485   7.699  47.723  1.00  0.00    -0.076 C 
HETATM    3  C3  UNL     1      23.700   6.674  48.779  1.00  0.00     0.039 C 
HETATM    4  C4  UNL     1      24.749   5.936  48.500  1.00  0.00     0.022 C 
HETATM    5  C5  UNL     1      25.154   4.809  49.370  1.00  0.00    -0.001 C 
HETATM    6  C6  UNL     1      24.798   4.102  50.475  1.00  0.00    -0.005 C 
HETATM    7  C7  UNL     1      23.643   4.175  51.425  1.00  0.00     0.058 C 
HETATM    8  C17 UNL     1      23.915   5.181  52.454  1.00  0.00     0.143 C 
HETATM    9  N1  UNL     1      24.266   6.448  51.873  1.00  0.00    -0.396 N 
HETATM   10  C18 UNL     1      23.223   7.052  51.182  1.00  0.00     0.108 C 
HETATM   11  C19 UNL     1      22.911   7.195  49.882  1.00  0.00     0.047 C 
HETATM   12  N2  UNL     1      21.630   7.803  49.758  1.00  0.00    -0.252 NA
HETATM   13  C20 UNL     1      21.084   6.503  50.094  1.00  0.00     0.181 C 
HETATM   14  N3  UNL     1      21.247   5.323  50.405  1.00  0.00    -0.253 NA
HETATM   15  C21 UNL     1      22.419   4.560  50.615  1.00  0.00     0.049 C 
HETATM   16  C22 UNL     1      22.389   3.659  49.549  1.00  0.00    -0.002 C 
HETATM   17  C23 UNL     1      23.112   2.524  48.997  1.00  0.00     0.038 C 
HETATM   18  H18 UNL     1      25.108   7.073  51.815  1.00  0.00     0.159 HD
HETATM   19  H20 UNL     1      22.147   8.650  49.529  1.00  0.00     0.134 HD
ENDROOT
BRANCH   7  20
HETATM   20  C8  UNL     1      23.437   2.805  51.988  1.00  0.00     0.034 C 
HETATM   21  C9  UNL     1      24.368   2.098  52.554  1.00  0.00     0.099 C 
HETATM   22  O1  UNL     1      25.666   2.550  52.693  1.00  0.00    -0.346 OA
HETATM   23  C12 UNL     1      24.094   0.768  53.082  1.00  0.00     0.098 C 
HETATM   24  C10 UNL     1      26.453   2.011  53.730  1.00  0.00     0.202 C 
HETATM   25  C11 UNL     1      26.505   0.500  53.447  1.00  0.00     0.202 C 
HETATM   26  O2  UNL     1      25.149   0.081  53.668  1.00  0.00    -0.346 OA
HETATM   27  C13 UNL     1      22.918   0.171  53.046  1.00  0.00     0.022 C 
BRANCH  27  28
HETATM   28  C14 UNL     1      22.229  -1.067  53.423  1.00  0.00     0.058 C 
HETATM   29  C15 UNL     1      20.795  -0.816  53.831  1.00  0.00     0.178 C 
HETATM   30  O3  UNL     1      21.211  -0.897  55.167  1.00  0.00    -0.390 OA
HETATM   31  C16 UNL     1      22.391  -1.527  54.856  1.00  0.00     0.178 C 
ENDBRANCH  27  28
ENDBRANCH   7  20
TORSDOF 2
ENDMDL
MODEL 3
REMARK VINA RESULT:      -8.3      3.172      6.119
REMARK  2 active torsions:
REMARK  status: ('A' for Active; 'I' for Inactive)
REMARK    1  A    between atoms: C7_7  and  C8_8 
REMARK    2  A    between atoms: C13_15  and  C14_16 
ROOT
HETATM    1  C1  UNL     1      26.887   6.197  48.582  1.00  0.00     0.018 C 
HETATM    2  C2  UNL     1      26.067   5.492  49.206  1.00  0.00    -0.076 C 
HETATM    3  C3  UNL     1      25.105   4.631  49.946  1.00  0.00     0.039 C 
HETATM    4  C4  UNL     1      25.527   3.389  49.976  1.00  0.00     0.022 C 
HETATM    5  C5  UNL     1      24.728   2.317  50.612  1.00  0.00    -0.001 C 
HETATM    6  C6  UNL     1      23.542   2.059  51.225  1.00  0.00    -0.005 C 
HETATM    7  C7  UNL     1      22.342   2.892  51.554  1.00  0.00     0.058 C 
HETATM    8  C17 UNL     1      22.565   3.596  52.819  1.00  0.00     0.143 C 
HETATM    9  N1  UNL     1      23.796   4.339  52.799  1.00  0.00    -0.396 N 
HETATM   10  C18 UNL     1      23.792   5.399  51.903  1.00  0.00     0.108 C 
HETATM   11  C19 UNL     1      24.320   5.606  50.684  1.00  0.00     0.047 C 
HETATM   12  N2  UNL     1      23.876   6.857  50.172  1.00  0.00    -0.252 NA
HETATM   13  C20 UNL     1      22.622   6.190  49.887  1.00  0.00     0.181 C 
HETATM   14  N3  UNL     1      21.915   5.183  49.921  1.00  0.00    -0.253 NA
HETATM   15  C21 UNL     1      22.157   3.881  50.419  1.00  0.00     0.049 C 
HETATM   16  C22 UNL     1      22.171   3.110  49.257  1.00  0.00    -0.002 C 
HETATM   17  C23 UNL     1      22.293   1.733  48.806  1.00  0.00     0.038 C 
HETATM   18  H18 UNL     1      24.729   4.313  53.280  1.00  0.00     0.159 HD
HETATM   19  H20 UNL     1      24.806   7.193  50.420  1.00  0.00     0.134 HD
ENDROOT
BRANCH   7  20
HETATM   20  C8  UNL     1      21.159   1.979  51.596  1.00  0.00     0.034 C 
HETATM   21  C9  UNL     1      21.009   1.011  52.448  1.00  0.00     0.099 C 
HETATM   22  O1  UNL     1      21.948   0.723  53.420  1.00  0.00    -0.346 OA
HETATM   23  C12 UNL     1      19.827   0.159  52.430  1.00  0.00     0.098 C 
HETATM   24  C10 UNL     1      21.519   0.061  54.589  1.00  0.00     0.202 C 
HETATM   25  C11 UNL     1      20.923  -1.269  54.097  1.00  0.00     0.202 C 
HETATM   26  O2  UNL     1      19.752  -0.854  53.377  1.00  0.00    -0.346 OA
HETATM   27  C13 UNL     1      18.824   0.283  51.583  1.00  0.00     0.022 C 
BRANCH  27  28
HETATM   28  C14 UNL     1      17.530  -0.301  51.218  1.00  0.00     0.058 C 
HETATM   29  C15 UNL     1      16.555   0.743  50.722  1.00  0.00     0.178 C 
HETATM   30  O3  UNL     1      15.961   0.723  51.991  1.00  0.00    -0.390 OA
HETATM   31  C16 UNL     1      16.525  -0.482  52.335  1.00  0.00     0.178 C 
ENDBRANCH  27  28
ENDBRANCH   7  20
TORSDOF 2
ENDMDL
MODEL 4
REMARK VINA RESULT:      -8.1      2.064      2.632
REMARK  2 active torsions:
REMARK  status: ('A' for Active; 'I' for Inactive)
REMARK    1  A    between atoms: C7_7  and  C8_8 
REMARK    2  A    between atoms: C13_15  and  C14_16 
ROOT
HETATM    1  C1  UNL     1      21.240   8.678  48.945  1.00  0.00     0.018 C 
HETATM    2  C2  UNL     1      21.484   7.510  49.312  1.00  0.00    -0.076 C 
HETATM    3  C3  UNL     1      21.755   6.120  49.768  1.00  0.00     0.039 C 
HETATM    4  C4  UNL     1      20.999   5.817  50.797  1.00  0.00     0.022 C 
HETATM    5  C5  UNL     1      21.107   4.505  51.475  1.00  0.00    -0.001 C 
HETATM    6  C6  UNL     1      21.807   3.339  51.489  1.00  0.00    -0.005 C 
HETATM    7  C7  UNL     1      22.966   2.817  50.697  1.00  0.00     0.058 C 
HETATM    8  C17 UNL     1      22.482   2.228  49.447  1.00  0.00     0.143 C 
HETATM    9  N1  UNL     1      21.654   3.149  48.717  1.00  0.00    -0.396 N 
HETATM   10  C18 UNL     1      22.340   4.258  48.240  1.00  0.00     0.108 C 
HETATM   11  C19 UNL     1      22.436   5.544  48.621  1.00  0.00     0.047 C 
HETATM   12  N2  UNL     1      23.406   6.212  47.823  1.00  0.00    -0.252 NA
HETATM   13  C20 UNL     1      24.400   5.545  48.640  1.00  0.00     0.181 C 
HETATM   14  N3  UNL     1      24.690   4.769  49.550  1.00  0.00    -0.253 NA
HETATM   15  C21 UNL     1      23.883   3.991  50.414  1.00  0.00     0.049 C 
HETATM   16  C22 UNL     1      24.101   4.592  51.655  1.00  0.00    -0.002 C 
HETATM   17  C23 UNL     1      23.756   4.457  53.061  1.00  0.00     0.038 C 
HETATM   18  H18 UNL     1      20.648   3.233  48.429  1.00  0.00     0.159 HD
HETATM   19  H20 UNL     1      22.607   6.616  47.338  1.00  0.00     0.134 HD
ENDROOT
BRANCH   7  20
HETATM   20  C8  UNL     1      23.693   1.835  51.561  1.00  0.00     0.034 C 
HETATM   21  C9  UNL     1      23.112   0.979  52.347  1.00  0.00     0.099 C 
HETATM   22  O1  UNL     1      21.739   0.891  52.466  1.00  0.00    -0.346 OA
HETATM   23  C12 UNL     1      23.885   0.051  53.160  1.00  0.00     0.098 C 
HETATM   24  C10 UNL     1      21.182  -0.335  52.885  1.00  0.00     0.202 C 
HETATM   25  C11 UNL     1      21.797  -0.598  54.271  1.00  0.00     0.202 C 
HETATM   26  O2  UNL     1      23.182  -0.828  53.974  1.00  0.00    -0.346 OA
HETATM   27  C13 UNL     1      25.203  -0.018  53.177  1.00  0.00     0.022 C 
BRANCH  27  28
HETATM   28  C14 UNL     1      26.323  -0.737  53.792  1.00  0.00     0.058 C 
HETATM   29  C15 UNL     1      27.025   0.097  54.840  1.00  0.00     0.178 C 
HETATM   30  O3  UNL     1      28.013   0.379  53.886  1.00  0.00    -0.390 OA
HETATM   31  C16 UNL     1      27.653  -0.668  53.073  1.00  0.00     0.178 C 
ENDBRANCH  27  28
ENDBRANCH   7  20
TORSDOF 2
ENDMDL
MODEL 5
REMARK VINA RESULT:      -8.0      3.673      7.880
REMARK  2 active torsions:
REMARK  status: ('A' for Active; 'I' for Inactive)
REMARK    1  A    between atoms: C7_7  and  C8_8 
REMARK    2  A    between atoms: C13_15  and  C14_16 
ROOT
HETATM    1  C1  UNL     1      26.810  -1.591  52.792  1.00  0.00     0.018 C 
HETATM    2  C2  UNL     1      26.030  -0.621  52.700  1.00  0.00    -0.076 C 
HETATM    3  C3  UNL     1      25.079   0.519  52.597  1.00  0.00     0.039 C 
HETATM    4  C4  UNL     1      23.861   0.132  52.896  1.00  0.00     0.022 C 
HETATM    5  C5  UNL     1      22.715   1.066  52.825  1.00  0.00    -0.001 C 
HETATM    6  C6  UNL     1      22.361   2.333  52.482  1.00  0.00    -0.005 C 
HETATM    7  C7  UNL     1      23.110   3.504  51.925  1.00  0.00     0.058 C 
HETATM    8  C17 UNL     1      23.753   4.240  53.016  1.00  0.00     0.143 C 
HETATM    9  N1  UNL     1      24.560   3.373  53.832  1.00  0.00    -0.396 N 
HETATM   10  C18 UNL     1      25.667   2.857  53.170  1.00  0.00     0.108 C 
HETATM   11  C19 UNL     1      25.969   1.668  52.622  1.00  0.00     0.047 C 
HETATM   12  N2  UNL     1      27.221   1.749  51.952  1.00  0.00    -0.252 NA
HETATM   13  C20 UNL     1      26.505   2.434  50.895  1.00  0.00     0.181 C 
HETATM   14  N3  UNL     1      25.462   2.903  50.440  1.00  0.00    -0.253 NA
HETATM   15  C21 UNL     1      24.149   2.957  50.965  1.00  0.00     0.049 C 
HETATM   16  C22 UNL     1      23.445   2.110  50.109  1.00  0.00    -0.002 C 
HETATM   17  C23 UNL     1      22.103   1.613  49.849  1.00  0.00     0.038 C 
HETATM   18  H18 UNL     1      24.558   3.003  54.814  1.00  0.00     0.159 HD
HETATM   19  H20 UNL     1      27.592   1.253  52.761  1.00  0.00     0.134 HD
ENDROOT
BRANCH   7  20
HETATM   20  C8  UNL     1      22.134   4.337  51.156  1.00  0.00     0.034 C 
HETATM   21  C9  UNL     1      22.393   5.517  50.679  1.00  0.00     0.099 C 
HETATM   22  O1  UNL     1      23.620   6.131  50.839  1.00  0.00    -0.346 OA
HETATM   23  C12 UNL     1      21.392   6.272  49.938  1.00  0.00     0.098 C 
HETATM   24  C10 UNL     1      24.006   7.108  49.898  1.00  0.00     0.202 C 
HETATM   25  C11 UNL     1      22.918   8.192  49.981  1.00  0.00     0.202 C 
HETATM   26  O2  UNL     1      21.755   7.527  49.466  1.00  0.00    -0.346 OA
HETATM   27  C13 UNL     1      20.169   5.849  49.680  1.00  0.00     0.022 C 
BRANCH  27  28
HETATM   28  C14 UNL     1      18.918   6.238  49.024  1.00  0.00     0.058 C 
HETATM   29  C15 UNL     1      18.098   5.037  48.607  1.00  0.00     0.178 C 
HETATM   30  O3  UNL     1      18.584   5.217  47.305  1.00  0.00    -0.390 OA
HETATM   31  C16 UNL     1      18.985   6.510  47.536  1.00  0.00     0.178 C 
ENDBRANCH  27  28
ENDBRANCH   7  20
TORSDOF 2
ENDMDL
MODEL 6
REMARK VINA RESULT:      -7.9      4.022      6.755
REMARK  2 active torsions:
REMARK  status: ('A' for Active; 'I' for Inactive)
REMARK    1  A    between atoms: C7_7  and  C8_8 
REMARK    2  A    between atoms: C13_15  and  C14_16 
ROOT
HETATM    1  C1  UNL     1      27.298   6.507  48.279  1.00  0.00     0.018 C 
HETATM    2  C2  UNL     1      26.397   5.915  48.908  1.00  0.00    -0.076 C 
HETATM    3  C3  UNL     1      25.339   5.187  49.661  1.00  0.00     0.039 C 
HETATM    4  C4  UNL     1      25.743   3.977  49.969  1.00  0.00     0.022 C 
HETATM    5  C5  UNL     1      24.858   3.027  50.680  1.00  0.00    -0.001 C 
HETATM    6  C6  UNL     1      23.600   2.865  51.171  1.00  0.00    -0.005 C 
HETATM    7  C7  UNL     1      22.375   3.727  51.185  1.00  0.00     0.058 C 
HETATM    8  C17 UNL     1      22.438   4.650  52.320  1.00  0.00     0.143 C 
HETATM    9  N1  UNL     1      23.667   5.396  52.326  1.00  0.00    -0.396 N 
HETATM   10  C18 UNL     1      23.789   6.277  51.259  1.00  0.00     0.108 C 
HETATM   11  C19 UNL     1      24.473   6.268  50.102  1.00  0.00     0.047 C 
HETATM   12  N2  UNL     1      24.111   7.399  49.319  1.00  0.00    -0.252 NA
HETATM   13  C20 UNL     1      22.899   6.673  48.999  1.00  0.00     0.181 C 
HETATM   14  N3  UNL     1      22.184   5.678  49.123  1.00  0.00    -0.253 NA
HETATM   15  C21 UNL     1      22.348   4.492  49.876  1.00  0.00     0.049 C 
HETATM   16  C22 UNL     1      22.507   3.523  48.884  1.00  0.00    -0.002 C 
HETATM   17  C23 UNL     1      22.674   2.089  48.710  1.00  0.00     0.038 C 
HETATM   18  H18 UNL     1      24.529   5.472  52.919  1.00  0.00     0.159 HD
HETATM   19  H20 UNL     1      25.003   7.788  49.620  1.00  0.00     0.134 HD
ENDROOT
BRANCH   7  20
HETATM   20  C8  UNL     1      21.188   2.818  51.238  1.00  0.00     0.034 C 
HETATM   21  C9  UNL     1      19.959   3.209  51.091  1.00  0.00     0.099 C 
HETATM   22  O1  UNL     1      19.619   4.530  50.869  1.00  0.00    -0.346 OA
HETATM   23  C12 UNL     1      18.850   2.266  51.154  1.00  0.00     0.098 C 
HETATM   24  C10 UNL     1      18.401   4.805  50.214  1.00  0.00     0.202 C 
HETATM   25  C11 UNL     1      17.317   4.181  51.109  1.00  0.00     0.202 C 
HETATM   26  O2  UNL     1      17.567   2.772  50.989  1.00  0.00    -0.346 OA
HETATM   27  C13 UNL     1      18.977   0.968  51.352  1.00  0.00     0.022 C 
BRANCH  27  28
HETATM   28  C14 UNL     1      18.203  -0.270  51.483  1.00  0.00     0.058 C 
HETATM   29  C15 UNL     1      16.876  -0.040  52.171  1.00  0.00     0.178 C 
HETATM   30  O3  UNL     1      17.455  -0.533  53.348  1.00  0.00    -0.390 OA
HETATM   31  C16 UNL     1      18.500  -1.135  52.690  1.00  0.00     0.178 C 
ENDBRANCH  27  28
ENDBRANCH   7  20
TORSDOF 2
ENDMDL
MODEL 7
REMARK VINA RESULT:      -7.9      4.669      7.988
REMARK  2 active torsions:
REMARK  status: ('A' for Active; 'I' for Inactive)
REMARK    1  A    between atoms: C7_7  and  C8_8 
REMARK    2  A    between atoms: C13_15  and  C14_16 
ROOT
HETATM    1  C1  UNL     1      22.931  -0.551  53.708  1.00  0.00     0.018 C 
HETATM    2  C2  UNL     1      22.931   0.549  53.118  1.00  0.00    -0.076 C 
HETATM    3  C3  UNL     1      22.905   1.856  52.408  1.00  0.00     0.039 C 
HETATM    4  C4  UNL     1      21.700   2.112  51.956  1.00  0.00     0.022 C 
HETATM    5  C5  UNL     1      21.414   3.333  51.170  1.00  0.00    -0.001 C 
HETATM    6  C6  UNL     1      21.990   4.430  50.609  1.00  0.00    -0.005 C 
HETATM    7  C7  UNL     1      23.397   4.935  50.532  1.00  0.00     0.058 C 
HETATM    8  C17 UNL     1      23.717   5.688  51.746  1.00  0.00     0.143 C 
HETATM    9  N1  UNL     1      23.445   4.919  52.930  1.00  0.00    -0.396 N 
HETATM   10  C18 UNL     1      24.272   3.813  53.078  1.00  0.00     0.108 C 
HETATM   11  C19 UNL     1      24.123   2.491  52.884  1.00  0.00     0.047 C 
HETATM   12  N2  UNL     1      25.370   1.833  53.075  1.00  0.00    -0.252 NA
HETATM   13  C20 UNL     1      25.726   2.327  51.761  1.00  0.00     0.181 C 
HETATM   14  N3  UNL     1      25.452   2.978  50.753  1.00  0.00    -0.253 NA
HETATM   15  C21 UNL     1      24.303   3.725  50.401  1.00  0.00     0.049 C 
HETATM   16  C22 UNL     1      23.770   2.983  49.346  1.00  0.00    -0.002 C 
HETATM   17  C23 UNL     1      22.686   2.999  48.376  1.00  0.00     0.038 C 
HETATM   18  H18 UNL     1      22.781   4.948  53.743  1.00  0.00     0.159 HD
HETATM   19  H20 UNL     1      24.986   1.548  53.975  1.00  0.00     0.134 HD
ENDROOT
BRANCH   7  20
HETATM   20  C8  UNL     1      23.510   5.759  49.288  1.00  0.00     0.034 C 
HETATM   21  C9  UNL     1      24.613   6.297  48.863  1.00  0.00     0.099 C 
HETATM   22  O1  UNL     1      25.815   6.160  49.532  1.00  0.00    -0.346 OA
HETATM   23  C12 UNL     1      24.650   7.088  47.641  1.00  0.00     0.098 C 
HETATM   24  C10 UNL     1      27.009   6.292  48.794  1.00  0.00     0.202 C 
HETATM   25  C11 UNL     1      26.955   7.710  48.200  1.00  0.00     0.202 C 
HETATM   26  O2  UNL     1      25.871   7.629  47.262  1.00  0.00    -0.346 OA
HETATM   27  C13 UNL     1      23.607   7.325  46.866  1.00  0.00     0.022 C 
BRANCH  27  28
HETATM   28  C14 UNL     1      23.204   8.014  45.637  1.00  0.00     0.058 C 
HETATM   29  C15 UNL     1      21.804   7.635  45.208  1.00  0.00     0.178 C 
HETATM   30  O3  UNL     1      22.377   6.763  44.273  1.00  0.00    -0.390 OA
HETATM   31  C16 UNL     1      23.609   7.367  44.330  1.00  0.00     0.178 C 
ENDBRANCH  27  28
ENDBRANCH   7  20
TORSDOF 2
ENDMDL
MODEL 8
REMARK VINA RESULT:      -7.8      3.831      6.799
REMARK  2 active torsions:
REMARK  status: ('A' for Active; 'I' for Inactive)
REMARK    1  A    between atoms: C7_7  and  C8_8 
REMARK    2  A    between atoms: C13_15  and  C14_16 
ROOT
HETATM    1  C1  UNL     1      21.403  -1.363  54.356  1.00  0.00     0.018 C 
HETATM    2  C2  UNL     1      21.778  -0.483  53.555  1.00  0.00    -0.076 C 
HETATM    3  C3  UNL     1      22.252   0.560  52.605  1.00  0.00     0.039 C 
HETATM    4  C4  UNL     1      23.564   0.599  52.579  1.00  0.00     0.022 C 
HETATM    5  C5  UNL     1      24.290   1.585  51.748  1.00  0.00    -0.001 C 
HETATM    6  C6  UNL     1      24.120   2.648  50.918  1.00  0.00    -0.005 C 
HETATM    7  C7  UNL     1      22.920   3.398  50.428  1.00  0.00     0.058 C 
HETATM    8  C17 UNL     1      22.351   2.711  49.267  1.00  0.00     0.143 C 
HETATM    9  N1  UNL     1      22.089   1.326  49.551  1.00  0.00    -0.396 N 
HETATM   10  C18 UNL     1      21.087   1.130  50.493  1.00  0.00     0.108 C 
HETATM   11  C19 UNL     1      21.069   0.804  51.796  1.00  0.00     0.047 C 
HETATM   12  N2  UNL     1      19.738   0.873  52.292  1.00  0.00    -0.252 NA
HETATM   13  C20 UNL     1      19.918   2.311  52.308  1.00  0.00     0.181 C 
HETATM   14  N3  UNL     1      20.611   3.304  52.088  1.00  0.00    -0.253 NA
HETATM   15  C21 UNL     1      21.919   3.439  51.567  1.00  0.00     0.049 C 
HETATM   16  C22 UNL     1      22.636   3.914  52.666  1.00  0.00    -0.002 C 
HETATM   17  C23 UNL     1      23.964   4.366  53.050  1.00  0.00     0.038 C 
HETATM   18  H18 UNL     1      22.446   0.387  49.245  1.00  0.00     0.159 HD
HETATM   19  H20 UNL     1      19.753  -0.144  52.236  1.00  0.00     0.134 HD
ENDROOT
BRANCH   7  20
HETATM   20  C8  UNL     1      23.359   4.795  50.121  1.00  0.00     0.034 C 
HETATM   21  C9  UNL     1      22.567   5.737  49.703  1.00  0.00     0.099 C 
HETATM   22  O1  UNL     1      21.216   5.536  49.496  1.00  0.00    -0.346 OA
HETATM   23  C12 UNL     1      23.065   7.077  49.424  1.00  0.00     0.098 C 
HETATM   24  C10 UNL     1      20.357   6.652  49.566  1.00  0.00     0.202 C 
HETATM   25  C11 UNL     1      20.866   7.615  48.479  1.00  0.00     0.202 C 
HETATM   26  O2  UNL     1      22.149   8.021  48.979  1.00  0.00    -0.346 OA
HETATM   27  C13 UNL     1      24.320   7.459  49.567  1.00  0.00     0.022 C 
BRANCH  27  28
HETATM   28  C14 UNL     1      25.209   8.615  49.416  1.00  0.00     0.058 C 
HETATM   29  C15 UNL     1      25.941   8.598  48.093  1.00  0.00     0.178 C 
HETATM   30  O3  UNL     1      27.061   8.100  48.773  1.00  0.00    -0.390 OA
HETATM   31  C16 UNL     1      26.597   8.488  50.007  1.00  0.00     0.178 C 
ENDBRANCH  27  28
ENDBRANCH   7  20
TORSDOF 2
ENDMDL
MODEL 9
REMARK VINA RESULT:      -7.8      1.765      2.747
REMARK  2 active torsions:
REMARK  status: ('A' for Active; 'I' for Inactive)
REMARK    1  A    between atoms: C7_7  and  C8_8 
REMARK    2  A    between atoms: C13_15  and  C14_16 
ROOT
HETATM    1  C1  UNL     1      16.524   3.626  46.830  1.00  0.00     0.018 C 
HETATM    2  C2  UNL     1      17.409   3.492  47.700  1.00  0.00    -0.076 C 
HETATM    3  C3  UNL     1      18.479   3.351  48.724  1.00  0.00     0.039 C 
HETATM    4  C4  UNL     1      19.500   4.123  48.434  1.00  0.00     0.022 C 
HETATM    5  C5  UNL     1      20.721   4.136  49.270  1.00  0.00    -0.001 C 
HETATM    6  C6  UNL     1      21.312   3.550  50.346  1.00  0.00    -0.005 C 
HETATM    7  C7  UNL     1      20.907   2.454  51.282  1.00  0.00     0.058 C 
HETATM    8  C17 UNL     1      20.067   3.002  52.349  1.00  0.00     0.143 C 
HETATM    9  N1  UNL     1      18.958   3.745  51.816  1.00  0.00    -0.396 N 
HETATM   10  C18 UNL     1      18.039   2.960  51.132  1.00  0.00     0.108 C 
HETATM   11  C19 UNL     1      17.768   2.738  49.834  1.00  0.00     0.047 C 
HETATM   12  N2  UNL     1      16.787   1.715  49.713  1.00  0.00    -0.252 NA
HETATM   13  C20 UNL     1      17.859   0.783  49.997  1.00  0.00     0.181 C 
HETATM   14  N3  UNL     1      19.039   0.561  50.270  1.00  0.00    -0.253 NA
HETATM   15  C21 UNL     1      20.136   1.431  50.469  1.00  0.00     0.049 C 
HETATM   16  C22 UNL     1      20.952   1.146  49.373  1.00  0.00    -0.002 C 
HETATM   17  C23 UNL     1      22.240   1.490  48.793  1.00  0.00     0.038 C 
HETATM   18  H18 UNL     1      18.627   4.741  51.790  1.00  0.00     0.159 HD
HETATM   19  H20 UNL     1      16.138   2.477  49.520  1.00  0.00     0.134 HD
ENDROOT
BRANCH   7  20
HETATM   20  C8  UNL     1      22.160   1.817  51.795  1.00  0.00     0.034 C 
HETATM   21  C9  UNL     1      22.189   0.874  52.689  1.00  0.00     0.099 C 
HETATM   22  O1  UNL     1      21.045   0.358  53.265  1.00  0.00    -0.346 OA
HETATM   23  C12 UNL     1      23.449   0.299  53.142  1.00  0.00     0.098 C 
HETATM   24  C10 UNL     1      21.092  -0.951  53.787  1.00  0.00     0.202 C 
HETATM   25  C11 UNL     1      22.189  -0.910  54.865  1.00  0.00     0.202 C 
HETATM   26  O2  UNL     1      23.387  -0.703  54.102  1.00  0.00    -0.346 OA
HETATM   27  C13 UNL     1      24.641   0.658  52.705  1.00  0.00     0.022 C 
BRANCH  27  28
HETATM   28  C14 UNL     1      26.071   0.379  52.864  1.00  0.00     0.058 C 
HETATM   29  C15 UNL     1      26.410  -1.057  52.529  1.00  0.00     0.178 C 
HETATM   30  O3  UNL     1      26.426  -1.324  53.905  1.00  0.00    -0.390 OA
HETATM   31  C16 UNL     1      26.541   0.000  54.253  1.00  0.00     0.178 C 
ENDBRANCH  27  28
ENDBRANCH   7  20
TORSDOF 2
ENDMDL
