MODEL 1
REMARK VINA RESULT:      -7.4      0.000      0.000
REMARK  10 active torsions:
REMARK  status: ('A' for Active; 'I' for Inactive)
REMARK    1  A    between atoms: O1_2  and  C2_3 
REMARK    2  A    between atoms: C6_9  and  N3_10 
REMARK    3  A    between atoms: N3_10  and  C7_11 
REMARK    4  A    between atoms: C7_11  and  C8_12 
REMARK    5  A    between atoms: C7_11  and  C10_15 
REMARK    6  A    between atoms: C14_20  and  O2_21 
REMARK    7  A    between atoms: O2_21  and  C15_22 
REMARK    8  A    between atoms: C15_22  and  C16_23 
REMARK    9  A    between atoms: C16_23  and  C17_24 
REMARK   10  A    between atoms: C17_24  and  N4_25 
ROOT
HETATM    1  C2  UNL     1      20.669  -0.307  53.085  1.00  0.00     0.103 A 
HETATM    2  C3  UNL     1      21.103  -0.802  54.321  1.00  0.00     0.072 A 
HETATM    3  C4  UNL     1      22.470  -0.845  54.487  1.00  0.00     0.075 A 
HETATM    4  N1  UNL     1      22.925  -1.330  55.652  1.00  0.00    -0.241 NA
HETATM    5  C5  UNL     1      24.248  -1.442  55.948  1.00  0.00     0.235 A 
HETATM    6  N2  UNL     1      25.099  -1.039  55.006  1.00  0.00    -0.224 NA
HETATM    7  C6  UNL     1      24.705  -0.547  53.823  1.00  0.00     0.138 A 
HETATM    8  C12 UNL     1      23.371  -0.439  53.528  1.00  0.00     0.041 A 
HETATM    9  C13 UNL     1      22.934   0.047  52.315  1.00  0.00     0.057 A 
HETATM   10  C14 UNL     1      21.561   0.113  52.089  1.00  0.00     0.103 A 
ENDROOT
BRANCH  10  11
HETATM   11  O2  UNL     1      21.050   0.545  50.995  1.00  0.00    -0.348 OA
BRANCH  11  12
HETATM   12  C15 UNL     1      20.531   0.986  49.878  1.00  0.00     0.177 C 
BRANCH  12  13
HETATM   13  C16 UNL     1      21.622   1.730  49.078  1.00  0.00     0.046 C 
BRANCH  13  14
HETATM   14  C17 UNL     1      21.541   3.219  49.254  1.00  0.00     0.119 C 
BRANCH  14  15
HETATM   15  N4  UNL     1      22.707   3.661  49.954  1.00  0.00    -0.408 N 
HETATM   16  C18 UNL     1      22.665   3.637  51.367  1.00  0.00     0.143 C 
HETATM   17  C19 UNL     1      22.704   5.050  51.955  1.00  0.00     0.187 C 
HETATM   18  O3  UNL     1      23.925   5.586  51.540  1.00  0.00    -0.388 OA
HETATM   19  C20 UNL     1      23.843   5.863  50.211  1.00  0.00     0.187 C 
HETATM   20  C21 UNL     1      23.387   4.746  49.344  1.00  0.00     0.143 C 
ENDBRANCH  14  15
ENDBRANCH  13  14
ENDBRANCH  12  13
ENDBRANCH  11  12
ENDBRANCH  10  11
BRANCH   1  21
HETATM   21  O1  UNL     1      19.331  -0.231  52.851  1.00  0.00    -0.353 OA
HETATM   22  C1  UNL     1      18.315  -1.099  53.218  1.00  0.00     0.210 C 
ENDBRANCH   1  21
BRANCH   7  23
HETATM   23  N3  UNL     1      25.710  -0.118  52.915  1.00  0.00    -0.363 N 
HETATM   24  H6  UNL     1      26.113  -0.576  52.073  1.00  0.00     0.162 HD
BRANCH  23  25
HETATM   25  C7  UNL     1      26.395   1.168  53.053  1.00  0.00     0.132 C 
BRANCH  25  26
HETATM   26  C8  UNL     1      27.534   1.129  53.989  1.00  0.00     0.031 C 
HETATM   27  C9  UNL     1      28.575   0.310  53.917  1.00  0.00     0.186 C 
HETATM   28  F1  UNL     1      28.683  -0.604  52.928  1.00  0.00    -0.220 F 
ENDBRANCH  25  26
BRANCH  25  29
HETATM   29  C10 UNL     1      26.746   1.690  51.722  1.00  0.00     0.014 C 
HETATM   30  C11 UNL     1      26.198   2.708  51.070  1.00  0.00     0.083 C 
HETATM   31 CL1  UNL     1      26.655   3.288  49.484  1.00  0.00    -0.097 Cl
ENDBRANCH  25  29
ENDBRANCH  23  25
ENDBRANCH   7  23
TORSDOF 10
ENDMDL
MODEL 2
REMARK VINA RESULT:      -7.2      3.002      5.339
REMARK  10 active torsions:
REMARK  status: ('A' for Active; 'I' for Inactive)
REMARK    1  A    between atoms: O1_2  and  C2_3 
REMARK    2  A    between atoms: C6_9  and  N3_10 
REMARK    3  A    between atoms: N3_10  and  C7_11 
REMARK    4  A    between atoms: C7_11  and  C8_12 
REMARK    5  A    between atoms: C7_11  and  C10_15 
REMARK    6  A    between atoms: C14_20  and  O2_21 
REMARK    7  A    between atoms: O2_21  and  C15_22 
REMARK    8  A    between atoms: C15_22  and  C16_23 
REMARK    9  A    between atoms: C16_23  and  C17_24 
REMARK   10  A    between atoms: C17_24  and  N4_25 
ROOT
HETATM    1  C2  UNL     1      25.612   0.344  52.955  1.00  0.00     0.103 A 
HETATM    2  C3  UNL     1      24.908  -0.508  53.814  1.00  0.00     0.072 A 
HETATM    3  C4  UNL     1      23.536  -0.399  53.751  1.00  0.00     0.075 A 
HETATM    4  N1  UNL     1      22.825  -1.187  54.573  1.00  0.00    -0.241 NA
HETATM    5  C5  UNL     1      21.467  -1.178  54.626  1.00  0.00     0.235 A 
HETATM    6  N2  UNL     1      20.850  -0.329  53.806  1.00  0.00    -0.224 NA
HETATM    7  C6  UNL     1      21.505   0.484  52.964  1.00  0.00     0.138 A 
HETATM    8  C12 UNL     1      22.874   0.473  52.915  1.00  0.00     0.041 A 
HETATM    9  C13 UNL     1      23.577   1.307  52.074  1.00  0.00     0.057 A 
HETATM   10  C14 UNL     1      24.969   1.243  52.095  1.00  0.00     0.103 A 
ENDROOT
BRANCH  10  11
HETATM   11  O2  UNL     1      25.715   1.977  51.354  1.00  0.00    -0.348 OA
BRANCH  11  12
HETATM   12  C15 UNL     1      26.477   2.727  50.600  1.00  0.00     0.177 C 
BRANCH  12  13
HETATM   13  C16 UNL     1      25.587   3.499  49.601  1.00  0.00     0.046 C 
BRANCH  13  14
HETATM   14  C17 UNL     1      25.595   4.978  49.858  1.00  0.00     0.119 C 
BRANCH  14  15
HETATM   15  N4  UNL     1      24.437   5.316  50.625  1.00  0.00    -0.408 N 
HETATM   16  C18 UNL     1      23.255   4.581  50.377  1.00  0.00     0.143 C 
HETATM   17  C19 UNL     1      22.167   5.460  49.756  1.00  0.00     0.187 C 
HETATM   18  O3  UNL     1      21.903   6.446  50.711  1.00  0.00    -0.388 OA
HETATM   19  C20 UNL     1      22.951   7.313  50.732  1.00  0.00     0.187 C 
HETATM   20  C21 UNL     1      24.294   6.700  50.902  1.00  0.00     0.143 C 
ENDBRANCH  14  15
ENDBRANCH  13  14
ENDBRANCH  12  13
ENDBRANCH  11  12
ENDBRANCH  10  11
BRANCH   1  21
HETATM   21  O1  UNL     1      26.972   0.290  52.960  1.00  0.00    -0.353 OA
HETATM   22  C1  UNL     1      27.816  -0.795  53.129  1.00  0.00     0.210 C 
ENDBRANCH   1  21
BRANCH   7  23
HETATM   23  N3  UNL     1      20.732   1.320  52.113  1.00  0.00    -0.363 N 
HETATM   24  H6  UNL     1      20.403   2.299  52.230  1.00  0.00     0.162 HD
BRANCH  23  25
HETATM   25  C7  UNL     1      20.235   0.870  50.812  1.00  0.00     0.132 C 
BRANCH  25  26
HETATM   26  C8  UNL     1      18.764   0.889  50.707  1.00  0.00     0.031 C 
HETATM   27  C9  UNL     1      17.933   0.007  51.247  1.00  0.00     0.186 C 
HETATM   28  F1  UNL     1      18.391  -1.035  51.976  1.00  0.00    -0.220 F 
ENDBRANCH  25  26
BRANCH  25  29
HETATM   29  C10 UNL     1      20.910   1.616  49.737  1.00  0.00     0.014 C 
HETATM   30  C11 UNL     1      21.714   1.144  48.792  1.00  0.00     0.083 C 
HETATM   31 CL1  UNL     1      22.493   2.079  47.535  1.00  0.00    -0.097 Cl
ENDBRANCH  25  29
ENDBRANCH  23  25
ENDBRANCH   7  23
TORSDOF 10
ENDMDL
MODEL 3
REMARK VINA RESULT:      -7.1      2.607      4.053
REMARK  10 active torsions:
REMARK  status: ('A' for Active; 'I' for Inactive)
REMARK    1  A    between atoms: O1_2  and  C2_3 
REMARK    2  A    between atoms: C6_9  and  N3_10 
REMARK    3  A    between atoms: N3_10  and  C7_11 
REMARK    4  A    between atoms: C7_11  and  C8_12 
REMARK    5  A    between atoms: C7_11  and  C10_15 
REMARK    6  A    between atoms: C14_20  and  O2_21 
REMARK    7  A    between atoms: O2_21  and  C15_22 
REMARK    8  A    between atoms: C15_22  and  C16_23 
REMARK    9  A    between atoms: C16_23  and  C17_24 
REMARK   10  A    between atoms: C17_24  and  N4_25 
ROOT
HETATM    1  C2  UNL     1      23.394  -0.094  53.122  1.00  0.00     0.103 A 
HETATM    2  C3  UNL     1      24.734  -0.367  53.423  1.00  0.00     0.072 A 
HETATM    3  C4  UNL     1      25.640   0.562  52.959  1.00  0.00     0.075 A 
HETATM    4  N1  UNL     1      26.936   0.326  53.213  1.00  0.00    -0.241 NA
HETATM    5  C5  UNL     1      27.938   1.150  52.805  1.00  0.00     0.235 A 
HETATM    6  N2  UNL     1      27.571   2.232  52.122  1.00  0.00    -0.224 NA
HETATM    7  C6  UNL     1      26.293   2.521  51.837  1.00  0.00     0.138 A 
HETATM    8  C12 UNL     1      25.286   1.687  52.248  1.00  0.00     0.041 A 
HETATM    9  C13 UNL     1      23.965   1.947  51.956  1.00  0.00     0.057 A 
HETATM   10  C14 UNL     1      23.003   1.041  52.399  1.00  0.00     0.103 A 
ENDROOT
BRANCH  10  11
HETATM   11  O2  UNL     1      21.749   1.188  52.179  1.00  0.00    -0.348 OA
BRANCH  11  12
HETATM   12  C15 UNL     1      20.468   1.338  51.955  1.00  0.00     0.177 C 
BRANCH  12  13
HETATM   13  C16 UNL     1      20.059   2.778  52.334  1.00  0.00     0.046 C 
BRANCH  13  14
HETATM   14  C17 UNL     1      19.453   3.520  51.179  1.00  0.00     0.119 C 
BRANCH  14  15
HETATM   15  N4  UNL     1      20.494   4.205  50.478  1.00  0.00    -0.408 N 
HETATM   16  C18 UNL     1      21.515   4.803  51.251  1.00  0.00     0.143 C 
HETATM   17  C19 UNL     1      21.479   6.330  51.147  1.00  0.00     0.187 C 
HETATM   18  O3  UNL     1      21.702   6.610  49.796  1.00  0.00    -0.388 OA
HETATM   19  C20 UNL     1      20.582   6.278  49.099  1.00  0.00     0.187 C 
HETATM   20  C21 UNL     1      20.067   4.901  49.318  1.00  0.00     0.143 C 
ENDBRANCH  14  15
ENDBRANCH  13  14
ENDBRANCH  12  13
ENDBRANCH  11  12
ENDBRANCH  10  11
BRANCH   1  21
HETATM   21  O1  UNL     1      22.442  -0.965  53.551  1.00  0.00    -0.353 OA
HETATM   22  C1  UNL     1      21.887  -1.124  54.811  1.00  0.00     0.210 C 
ENDBRANCH   1  21
BRANCH   7  23
HETATM   23  N3  UNL     1      26.027   3.726  51.133  1.00  0.00    -0.363 N 
HETATM   24  H6  UNL     1      25.878   4.698  51.471  1.00  0.00     0.162 HD
BRANCH  23  25
HETATM   25  C7  UNL     1      25.910   3.775  49.674  1.00  0.00     0.132 C 
BRANCH  25  26
HETATM   26  C8  UNL     1      24.701   4.478  49.205  1.00  0.00     0.031 C 
HETATM   27  C9  UNL     1      23.625   3.911  48.675  1.00  0.00     0.186 C 
HETATM   28  F1  UNL     1      23.545   2.571  48.513  1.00  0.00    -0.220 F 
ENDBRANCH  25  26
BRANCH  25  29
HETATM   29  C10 UNL     1      27.157   4.297  49.093  1.00  0.00     0.014 C 
HETATM   30  C11 UNL     1      27.380   5.500  48.578  1.00  0.00     0.083 C 
HETATM   31 CL1  UNL     1      28.888   6.071  47.898  1.00  0.00    -0.097 Cl
ENDBRANCH  25  29
ENDBRANCH  23  25
ENDBRANCH   7  23
TORSDOF 10
ENDMDL
MODEL 4
REMARK VINA RESULT:      -7.1      1.259      1.707
REMARK  10 active torsions:
REMARK  status: ('A' for Active; 'I' for Inactive)
REMARK    1  A    between atoms: O1_2  and  C2_3 
REMARK    2  A    between atoms: C6_9  and  N3_10 
REMARK    3  A    between atoms: N3_10  and  C7_11 
REMARK    4  A    between atoms: C7_11  and  C8_12 
REMARK    5  A    between atoms: C7_11  and  C10_15 
REMARK    6  A    between atoms: C14_20  and  O2_21 
REMARK    7  A    between atoms: O2_21  and  C15_22 
REMARK    8  A    between atoms: C15_22  and  C16_23 
REMARK    9  A    between atoms: C16_23  and  C17_24 
REMARK   10  A    between atoms: C17_24  and  N4_25 
ROOT
HETATM    1  C2  UNL     1      21.157   0.505  52.685  1.00  0.00     0.103 A 
HETATM    2  C3  UNL     1      21.209  -0.237  53.871  1.00  0.00     0.072 A 
HETATM    3  C4  UNL     1      22.477  -0.555  54.308  1.00  0.00     0.075 A 
HETATM    4  N1  UNL     1      22.569  -1.281  55.432  1.00  0.00    -0.241 NA
HETATM    5  C5  UNL     1      23.753  -1.676  55.971  1.00  0.00     0.235 A 
HETATM    6  N2  UNL     1      24.852  -1.302  55.319  1.00  0.00    -0.224 NA
HETATM    7  C6  UNL     1      24.825  -0.578  54.191  1.00  0.00     0.138 A 
HETATM    8  C12 UNL     1      23.629  -0.184  53.650  1.00  0.00     0.041 A 
HETATM    9  C13 UNL     1      23.567   0.547  52.483  1.00  0.00     0.057 A 
HETATM   10  C14 UNL     1      22.310   0.896  51.992  1.00  0.00     0.103 A 
ENDROOT
BRANCH  10  11
HETATM   11  O2  UNL     1      22.142   1.571  50.915  1.00  0.00    -0.348 OA
BRANCH  11  12
HETATM   12  C15 UNL     1      21.968   2.261  49.817  1.00  0.00     0.177 C 
BRANCH  12  13
HETATM   13  C16 UNL     1      23.237   3.098  49.546  1.00  0.00     0.046 C 
BRANCH  13  14
HETATM   14  C17 UNL     1      23.469   4.138  50.603  1.00  0.00     0.119 C 
BRANCH  14  15
HETATM   15  N4  UNL     1      23.585   5.415  49.972  1.00  0.00    -0.408 N 
HETATM   16  C18 UNL     1      24.815   5.724  49.347  1.00  0.00     0.143 C 
HETATM   17  C19 UNL     1      25.542   6.861  50.069  1.00  0.00     0.187 C 
HETATM   18  O3  UNL     1      24.688   7.963  49.970  1.00  0.00    -0.388 OA
HETATM   19  C20 UNL     1      23.632   7.763  50.805  1.00  0.00     0.187 C 
HETATM   20  C21 UNL     1      22.916   6.470  50.644  1.00  0.00     0.143 C 
ENDBRANCH  14  15
ENDBRANCH  13  14
ENDBRANCH  12  13
ENDBRANCH  11  12
ENDBRANCH  10  11
BRANCH   1  21
HETATM   21  O1  UNL     1      19.938   0.859  52.195  1.00  0.00    -0.353 OA
HETATM   22  C1  UNL     1      19.048   0.132  51.421  1.00  0.00     0.210 C 
ENDBRANCH   1  21
BRANCH   7  23
HETATM   23  N3  UNL     1      26.068  -0.211  53.608  1.00  0.00    -0.363 N 
HETATM   24  H6  UNL     1      26.586  -0.605  52.797  1.00  0.00     0.162 HD
BRANCH  23  25
HETATM   25  C7  UNL     1      26.882   0.891  54.123  1.00  0.00     0.132 C 
BRANCH  25  26
HETATM   26  C8  UNL     1      28.180   0.454  54.672  1.00  0.00     0.031 C 
HETATM   27  C9  UNL     1      29.045  -0.357  54.078  1.00  0.00     0.186 C 
HETATM   28  F1  UNL     1      28.795  -0.878  52.856  1.00  0.00    -0.220 F 
ENDBRANCH  25  26
BRANCH  25  29
HETATM   29  C10 UNL     1      27.000   1.942  53.099  1.00  0.00     0.014 C 
HETATM   30  C11 UNL     1      26.727   1.858  51.803  1.00  0.00     0.083 C 
HETATM   31 CL1  UNL     1      26.886   3.144  50.627  1.00  0.00    -0.097 Cl
ENDBRANCH  25  29
ENDBRANCH  23  25
ENDBRANCH   7  23
TORSDOF 10
ENDMDL
MODEL 5
REMARK VINA RESULT:      -7.0      3.296      5.660
REMARK  10 active torsions:
REMARK  status: ('A' for Active; 'I' for Inactive)
REMARK    1  A    between atoms: O1_2  and  C2_3 
REMARK    2  A    between atoms: C6_9  and  N3_10 
REMARK    3  A    between atoms: N3_10  and  C7_11 
REMARK    4  A    between atoms: C7_11  and  C8_12 
REMARK    5  A    between atoms: C7_11  and  C10_15 
REMARK    6  A    between atoms: C14_20  and  O2_21 
REMARK    7  A    between atoms: O2_21  and  C15_22 
REMARK    8  A    between atoms: C15_22  and  C16_23 
REMARK    9  A    between atoms: C16_23  and  C17_24 
REMARK   10  A    between atoms: C17_24  and  N4_25 
ROOT
HETATM    1  C2  UNL     1      26.747   0.874  53.179  1.00  0.00     0.103 A 
HETATM    2  C3  UNL     1      26.470   0.042  54.270  1.00  0.00     0.072 A 
HETATM    3  C4  UNL     1      25.160  -0.375  54.371  1.00  0.00     0.075 A 
HETATM    4  N1  UNL     1      24.851  -1.160  55.414  1.00  0.00    -0.241 NA
HETATM    5  C5  UNL     1      23.598  -1.635  55.644  1.00  0.00     0.235 A 
HETATM    6  N2  UNL     1      22.661  -1.278  54.768  1.00  0.00    -0.224 NA
HETATM    7  C6  UNL     1      22.908  -0.495  53.708  1.00  0.00     0.138 A 
HETATM    8  C12 UNL     1      24.172  -0.017  53.481  1.00  0.00     0.041 A 
HETATM    9  C13 UNL     1      24.455   0.803  52.410  1.00  0.00     0.057 A 
HETATM   10  C14 UNL     1      25.764   1.258  52.258  1.00  0.00     0.103 A 
ENDROOT
BRANCH  10  11
HETATM   11  O2  UNL     1      26.132   2.026  51.300  1.00  0.00    -0.348 OA
BRANCH  11  12
HETATM   12  C15 UNL     1      26.506   2.811  50.322  1.00  0.00     0.177 C 
BRANCH  12  13
HETATM   13  C16 UNL     1      25.574   4.041  50.282  1.00  0.00     0.046 C 
BRANCH  13  14
HETATM   14  C17 UNL     1      24.449   3.871  49.303  1.00  0.00     0.119 C 
BRANCH  14  15
HETATM   15  N4  UNL     1      23.211   3.897  50.017  1.00  0.00    -0.408 N 
HETATM   16  C18 UNL     1      22.075   4.388  49.334  1.00  0.00     0.143 C 
HETATM   17  C19 UNL     1      21.579   5.703  49.939  1.00  0.00     0.187 C 
HETATM   18  O3  UNL     1      21.224   5.390  51.254  1.00  0.00    -0.388 OA
HETATM   19  C20 UNL     1      22.364   5.193  51.969  1.00  0.00     0.187 C 
HETATM   20  C21 UNL     1      23.329   4.221  51.393  1.00  0.00     0.143 C 
ENDBRANCH  14  15
ENDBRANCH  13  14
ENDBRANCH  12  13
ENDBRANCH  11  12
ENDBRANCH  10  11
BRANCH   1  21
HETATM   21  O1  UNL     1      28.021   1.322  53.013  1.00  0.00    -0.353 OA
HETATM   22  C1  UNL     1      28.662   2.408  53.587  1.00  0.00     0.210 C 
ENDBRANCH   1  21
BRANCH   7  23
HETATM   23  N3  UNL     1      21.831  -0.214  52.824  1.00  0.00    -0.363 N 
HETATM   24  H6  UNL     1      21.715  -0.396  51.807  1.00  0.00     0.162 HD
BRANCH  23  25
HETATM   25  C7  UNL     1      20.601   0.442  53.269  1.00  0.00     0.132 C 
BRANCH  25  26
HETATM   26  C8  UNL     1      20.393   1.772  52.666  1.00  0.00     0.031 C 
HETATM   27  C9  UNL     1      20.272   2.030  51.371  1.00  0.00     0.186 C 
HETATM   28  F1  UNL     1      20.333   1.043  50.449  1.00  0.00    -0.220 F 
ENDBRANCH  25  26
BRANCH  25  29
HETATM   29  C10 UNL     1      19.459  -0.470  53.091  1.00  0.00     0.014 C 
HETATM   30  C11 UNL     1      19.132  -1.527  53.824  1.00  0.00     0.083 C 
HETATM   31 CL1  UNL     1      17.759  -2.581  53.566  1.00  0.00    -0.097 Cl
ENDBRANCH  25  29
ENDBRANCH  23  25
ENDBRANCH   7  23
TORSDOF 10
ENDMDL
MODEL 6
REMARK VINA RESULT:      -7.0      1.815      2.127
REMARK  10 active torsions:
REMARK  status: ('A' for Active; 'I' for Inactive)
REMARK    1  A    between atoms: O1_2  and  C2_3 
REMARK    2  A    between atoms: C6_9  and  N3_10 
REMARK    3  A    between atoms: N3_10  and  C7_11 
REMARK    4  A    between atoms: C7_11  and  C8_12 
REMARK    5  A    between atoms: C7_11  and  C10_15 
REMARK    6  A    between atoms: C14_20  and  O2_21 
REMARK    7  A    between atoms: O2_21  and  C15_22 
REMARK    8  A    between atoms: C15_22  and  C16_23 
REMARK    9  A    between atoms: C16_23  and  C17_24 
REMARK   10  A    between atoms: C17_24  and  N4_25 
ROOT
HETATM    1  C2  UNL     1      20.373  -0.443  53.406  1.00  0.00     0.103 A 
HETATM    2  C3  UNL     1      21.009  -0.912  54.562  1.00  0.00     0.072 A 
HETATM    3  C4  UNL     1      22.386  -0.901  54.518  1.00  0.00     0.075 A 
HETATM    4  N1  UNL     1      23.032  -1.358  55.601  1.00  0.00    -0.241 NA
HETATM    5  C5  UNL     1      24.388  -1.416  55.692  1.00  0.00     0.235 A 
HETATM    6  N2  UNL     1      25.069  -0.989  54.631  1.00  0.00    -0.224 NA
HETATM    7  C6  UNL     1      24.480  -0.522  53.520  1.00  0.00     0.138 A 
HETATM    8  C12 UNL     1      23.114  -0.467  53.432  1.00  0.00     0.041 A 
HETATM    9  C13 UNL     1      22.479  -0.008  52.299  1.00  0.00     0.057 A 
HETATM   10  C14 UNL     1      21.085   0.003  52.285  1.00  0.00     0.103 A 
ENDROOT
BRANCH  10  11
HETATM   11  O2  UNL     1      20.398   0.406  51.281  1.00  0.00    -0.348 OA
BRANCH  11  12
HETATM   12  C15 UNL     1      19.698   0.818  50.255  1.00  0.00     0.177 C 
BRANCH  12  13
HETATM   13  C16 UNL     1      19.852   2.349  50.125  1.00  0.00     0.046 C 
BRANCH  13  14
HETATM   14  C17 UNL     1      21.075   2.733  49.343  1.00  0.00     0.119 C 
BRANCH  14  15
HETATM   15  N4  UNL     1      21.953   3.469  50.198  1.00  0.00    -0.408 N 
HETATM   16  C18 UNL     1      21.378   4.130  51.308  1.00  0.00     0.143 C 
HETATM   17  C19 UNL     1      21.472   5.651  51.167  1.00  0.00     0.187 C 
HETATM   18  O3  UNL     1      22.840   5.931  51.124  1.00  0.00    -0.388 OA
HETATM   19  C20 UNL     1      23.322   5.532  49.916  1.00  0.00     0.187 C 
HETATM   20  C21 UNL     1      23.015   4.130  49.529  1.00  0.00     0.143 C 
ENDBRANCH  14  15
ENDBRANCH  13  14
ENDBRANCH  12  13
ENDBRANCH  11  12
ENDBRANCH  10  11
BRANCH   1  21
HETATM   21  O1  UNL     1      19.013  -0.422  53.378  1.00  0.00    -0.353 OA
HETATM   22  C1  UNL     1      18.110  -1.470  53.312  1.00  0.00     0.210 C 
ENDBRANCH   1  21
BRANCH   7  23
HETATM   23  N3  UNL     1      25.318  -0.061  52.469  1.00  0.00    -0.363 N 
HETATM   24  H6  UNL     1      25.496  -0.443  51.519  1.00  0.00     0.162 HD
BRANCH  23  25
HETATM   25  C7  UNL     1      26.138   1.146  52.590  1.00  0.00     0.132 C 
BRANCH  25  26
HETATM   26  C8  UNL     1      25.734   2.020  53.707  1.00  0.00     0.031 C 
HETATM   27  C9  UNL     1      24.864   3.020  53.641  1.00  0.00     0.186 C 
HETATM   28  F1  UNL     1      24.245   3.335  52.482  1.00  0.00    -0.220 F 
ENDBRANCH  25  26
BRANCH  25  29
HETATM   29  C10 UNL     1      27.563   0.778  52.616  1.00  0.00     0.014 C 
HETATM   30  C11 UNL     1      28.274   0.325  53.641  1.00  0.00     0.083 C 
HETATM   31 CL1  UNL     1      29.971  -0.098  53.617  1.00  0.00    -0.097 Cl
ENDBRANCH  25  29
ENDBRANCH  23  25
ENDBRANCH   7  23
TORSDOF 10
ENDMDL
MODEL 7
REMARK VINA RESULT:      -6.9      5.969      9.540
REMARK  10 active torsions:
REMARK  status: ('A' for Active; 'I' for Inactive)
REMARK    1  A    between atoms: O1_2  and  C2_3 
REMARK    2  A    between atoms: C6_9  and  N3_10 
REMARK    3  A    between atoms: N3_10  and  C7_11 
REMARK    4  A    between atoms: C7_11  and  C8_12 
REMARK    5  A    between atoms: C7_11  and  C10_15 
REMARK    6  A    between atoms: C14_20  and  O2_21 
REMARK    7  A    between atoms: O2_21  and  C15_22 
REMARK    8  A    between atoms: C15_22  and  C16_23 
REMARK    9  A    between atoms: C16_23  and  C17_24 
REMARK   10  A    between atoms: C17_24  and  N4_25 
ROOT
HETATM    1  C2  UNL     1      26.595   6.344  48.927  1.00  0.00     0.103 A 
HETATM    2  C3  UNL     1      26.869   7.665  48.551  1.00  0.00     0.072 A 
HETATM    3  C4  UNL     1      28.095   7.860  47.954  1.00  0.00     0.075 A 
HETATM    4  N1  UNL     1      28.403   9.116  47.594  1.00  0.00    -0.241 NA
HETATM    5  C5  UNL     1      29.580   9.457  47.006  1.00  0.00     0.235 A 
HETATM    6  N2  UNL     1      30.443   8.465  46.795  1.00  0.00    -0.224 NA
HETATM    7  C6  UNL     1      30.194   7.192  47.133  1.00  0.00     0.138 A 
HETATM    8  C12 UNL     1      29.007   6.853  47.727  1.00  0.00     0.041 A 
HETATM    9  C13 UNL     1      28.727   5.557  48.101  1.00  0.00     0.057 A 
HETATM   10  C14 UNL     1      27.502   5.298  48.712  1.00  0.00     0.103 A 
ENDROOT
BRANCH  10  11
HETATM   11  O2  UNL     1      27.145   4.130  49.101  1.00  0.00    -0.348 OA
BRANCH  11  12
HETATM   12  C15 UNL     1      26.782   2.936  49.496  1.00  0.00     0.177 C 
BRANCH  12  13
HETATM   13  C16 UNL     1      26.519   2.970  51.017  1.00  0.00     0.046 C 
BRANCH  13  14
HETATM   14  C17 UNL     1      26.585   1.605  51.637  1.00  0.00     0.119 C 
BRANCH  14  15
HETATM   15  N4  UNL     1      26.951   1.743  53.012  1.00  0.00    -0.408 N 
HETATM   16  C18 UNL     1      28.231   2.272  53.295  1.00  0.00     0.143 C 
HETATM   17  C19 UNL     1      29.141   1.226  53.944  1.00  0.00     0.187 C 
HETATM   18  O3  UNL     1      28.509   0.885  55.143  1.00  0.00    -0.388 OA
HETATM   19  C20 UNL     1      27.417   0.129  54.852  1.00  0.00     0.187 C 
HETATM   20  C21 UNL     1      26.476   0.707  53.857  1.00  0.00     0.143 C 
ENDBRANCH  14  15
ENDBRANCH  13  14
ENDBRANCH  12  13
ENDBRANCH  11  12
ENDBRANCH  10  11
BRANCH   1  21
HETATM   21  O1  UNL     1      25.401   6.074  49.521  1.00  0.00    -0.353 OA
HETATM   22  C1  UNL     1      24.793   6.680  50.608  1.00  0.00     0.210 C 
ENDBRANCH   1  21
BRANCH   7  23
HETATM   23  N3  UNL     1      31.181   6.218  46.822  1.00  0.00    -0.363 N 
HETATM   24  H6  UNL     1      31.191   5.455  46.115  1.00  0.00     0.162 HD
BRANCH  23  25
HETATM   25  C7  UNL     1      32.460   6.141  47.530  1.00  0.00     0.132 C 
BRANCH  25  26
HETATM   26  C8  UNL     1      32.369   5.459  48.834  1.00  0.00     0.031 C 
HETATM   27  C9  UNL     1      31.997   6.014  49.981  1.00  0.00     0.186 C 
HETATM   28  F1  UNL     1      31.653   7.319  50.050  1.00  0.00    -0.220 F 
ENDBRANCH  25  26
BRANCH  25  29
HETATM   29  C10 UNL     1      33.487   5.576  46.640  1.00  0.00     0.014 C 
HETATM   30  C11 UNL     1      33.982   4.345  46.639  1.00  0.00     0.083 C 
HETATM   31 CL1  UNL     1      35.207   3.723  45.556  1.00  0.00    -0.097 Cl
ENDBRANCH  25  29
ENDBRANCH  23  25
ENDBRANCH   7  23
TORSDOF 10
ENDMDL
MODEL 8
REMARK VINA RESULT:      -6.7      5.008      8.394
REMARK  10 active torsions:
REMARK  status: ('A' for Active; 'I' for Inactive)
REMARK    1  A    between atoms: O1_2  and  C2_3 
REMARK    2  A    between atoms: C6_9  and  N3_10 
REMARK    3  A    between atoms: N3_10  and  C7_11 
REMARK    4  A    between atoms: C7_11  and  C8_12 
REMARK    5  A    between atoms: C7_11  and  C10_15 
REMARK    6  A    between atoms: C14_20  and  O2_21 
REMARK    7  A    between atoms: O2_21  and  C15_22 
REMARK    8  A    between atoms: C15_22  and  C16_23 
REMARK    9  A    between atoms: C16_23  and  C17_24 
REMARK   10  A    between atoms: C17_24  and  N4_25 
ROOT
HETATM    1  C2  UNL     1      24.812   5.186  49.620  1.00  0.00     0.103 A 
HETATM    2  C3  UNL     1      24.984   6.387  48.921  1.00  0.00     0.072 A 
HETATM    3  C4  UNL     1      26.248   6.592  48.412  1.00  0.00     0.075 A 
HETATM    4  N1  UNL     1      26.457   7.740  47.750  1.00  0.00    -0.241 NA
HETATM    5  C5  UNL     1      27.655   8.080  47.205  1.00  0.00     0.235 A 
HETATM    6  N2  UNL     1      28.644   7.201  47.360  1.00  0.00    -0.224 NA
HETATM    7  C6  UNL     1      28.497   6.038  48.012  1.00  0.00     0.138 A 
HETATM    8  C12 UNL     1      27.287   5.701  48.561  1.00  0.00     0.041 A 
HETATM    9  C13 UNL     1      27.108   4.522  49.251  1.00  0.00     0.057 A 
HETATM   10  C14 UNL     1      25.850   4.260  49.790  1.00  0.00     0.103 A 
ENDROOT
BRANCH  10  11
HETATM   11  O2  UNL     1      25.579   3.196  50.451  1.00  0.00    -0.348 OA
BRANCH  11  12
HETATM   12  C15 UNL     1      25.302   2.110  51.127  1.00  0.00     0.177 C 
BRANCH  12  13
HETATM   13  C16 UNL     1      25.158   2.473  52.621  1.00  0.00     0.046 C 
BRANCH  13  14
HETATM   14  C17 UNL     1      25.765   1.434  53.519  1.00  0.00     0.119 C 
BRANCH  14  15
HETATM   15  N4  UNL     1      27.136   1.258  53.156  1.00  0.00    -0.408 N 
HETATM   16  C18 UNL     1      27.629  -0.065  53.097  1.00  0.00     0.143 C 
HETATM   17  C19 UNL     1      28.673  -0.326  54.185  1.00  0.00     0.187 C 
HETATM   18  O3  UNL     1      29.715   0.564  53.914  1.00  0.00    -0.388 OA
HETATM   19  C20 UNL     1      29.305   1.818  54.247  1.00  0.00     0.187 C 
HETATM   20  C21 UNL     1      28.014   2.255  53.655  1.00  0.00     0.143 C 
ENDBRANCH  14  15
ENDBRANCH  13  14
ENDBRANCH  12  13
ENDBRANCH  11  12
ENDBRANCH  10  11
BRANCH   1  21
HETATM   21  O1  UNL     1      23.588   4.913  50.149  1.00  0.00    -0.353 OA
HETATM   22  C1  UNL     1      22.337   5.376  49.776  1.00  0.00     0.210 C 
ENDBRANCH   1  21
BRANCH   7  23
HETATM   23  N3  UNL     1      29.618   5.168  48.078  1.00  0.00    -0.363 N 
HETATM   24  H6  UNL     1      29.678   4.138  48.204  1.00  0.00     0.162 HD
BRANCH  23  25
HETATM   25  C7  UNL     1      30.995   5.651  47.966  1.00  0.00     0.132 C 
BRANCH  25  26
HETATM   26  C8  UNL     1      31.540   6.169  49.235  1.00  0.00     0.031 C 
HETATM   27  C9  UNL     1      31.833   7.436  49.499  1.00  0.00     0.186 C 
HETATM   28  F1  UNL     1      31.646   8.407  48.577  1.00  0.00    -0.220 F 
ENDBRANCH  25  26
BRANCH  25  29
HETATM   29  C10 UNL     1      31.836   4.616  47.344  1.00  0.00     0.014 C 
HETATM   30  C11 UNL     1      33.014   4.162  47.753  1.00  0.00     0.083 C 
HETATM   31 CL1  UNL     1      33.975   2.926  46.972  1.00  0.00    -0.097 Cl
ENDBRANCH  25  29
ENDBRANCH  23  25
ENDBRANCH   7  23
TORSDOF 10
ENDMDL
MODEL 9
REMARK VINA RESULT:      -6.7      3.017      6.645
REMARK  10 active torsions:
REMARK  status: ('A' for Active; 'I' for Inactive)
REMARK    1  A    between atoms: O1_2  and  C2_3 
REMARK    2  A    between atoms: C6_9  and  N3_10 
REMARK    3  A    between atoms: N3_10  and  C7_11 
REMARK    4  A    between atoms: C7_11  and  C8_12 
REMARK    5  A    between atoms: C7_11  and  C10_15 
REMARK    6  A    between atoms: C14_20  and  O2_21 
REMARK    7  A    between atoms: O2_21  and  C15_22 
REMARK    8  A    between atoms: C15_22  and  C16_23 
REMARK    9  A    between atoms: C16_23  and  C17_24 
REMARK   10  A    between atoms: C17_24  and  N4_25 
ROOT
HETATM    1  C2  UNL     1      26.070   0.815  52.356  1.00  0.00     0.103 A 
HETATM    2  C3  UNL     1      26.843   1.672  51.563  1.00  0.00     0.072 A 
HETATM    3  C4  UNL     1      26.136   2.651  50.898  1.00  0.00     0.075 A 
HETATM    4  N1  UNL     1      26.840   3.481  50.114  1.00  0.00    -0.241 NA
HETATM    5  C5  UNL     1      26.274   4.484  49.392  1.00  0.00     0.235 A 
HETATM    6  N2  UNL     1      24.952   4.613  49.496  1.00  0.00    -0.224 NA
HETATM    7  C6  UNL     1      24.196   3.814  50.262  1.00  0.00     0.138 A 
HETATM    8  C12 UNL     1      24.771   2.803  50.987  1.00  0.00     0.041 A 
HETATM    9  C13 UNL     1      24.019   1.954  51.770  1.00  0.00     0.057 A 
HETATM   10  C14 UNL     1      24.679   0.943  52.465  1.00  0.00     0.103 A 
ENDROOT
BRANCH  10  11
HETATM   11  O2  UNL     1      24.074   0.100  53.218  1.00  0.00    -0.348 OA
BRANCH  11  12
HETATM   12  C15 UNL     1      23.458  -0.760  53.987  1.00  0.00     0.177 C 
BRANCH  12  13
HETATM   13  C16 UNL     1      22.145  -1.196  53.301  1.00  0.00     0.046 C 
BRANCH  13  14
HETATM   14  C17 UNL     1      20.979  -1.190  54.247  1.00  0.00     0.119 C 
BRANCH  14  15
HETATM   15  N4  UNL     1      20.054  -0.184  53.828  1.00  0.00    -0.408 N 
HETATM   16  C18 UNL     1      18.999  -0.584  52.975  1.00  0.00     0.143 C 
HETATM   17  C19 UNL     1      19.136   0.036  51.583  1.00  0.00     0.187 C 
HETATM   18  O3  UNL     1      19.062   1.416  51.788  1.00  0.00    -0.388 OA
HETATM   19  C20 UNL     1      20.223   1.826  52.366  1.00  0.00     0.187 C 
HETATM   20  C21 UNL     1      20.632   1.089  53.590  1.00  0.00     0.143 C 
ENDBRANCH  14  15
ENDBRANCH  13  14
ENDBRANCH  12  13
ENDBRANCH  11  12
ENDBRANCH  10  11
BRANCH   1  21
HETATM   21  O1  UNL     1      26.700  -0.174  53.045  1.00  0.00    -0.353 OA
HETATM   22  C1  UNL     1      27.538  -0.095  54.145  1.00  0.00     0.210 C 
ENDBRANCH   1  21
BRANCH   7  23
HETATM   23  N3  UNL     1      22.800   4.076  50.318  1.00  0.00    -0.363 N 
HETATM   24  H6  UNL     1      22.160   4.203  51.128  1.00  0.00     0.162 HD
BRANCH  23  25
HETATM   25  C7  UNL     1      21.978   4.217  49.116  1.00  0.00     0.132 C 
BRANCH  25  26
HETATM   26  C8  UNL     1      20.993   3.133  48.947  1.00  0.00     0.031 C 
HETATM   27  C9  UNL     1      21.245   1.914  48.488  1.00  0.00     0.186 C 
HETATM   28  F1  UNL     1      22.491   1.547  48.117  1.00  0.00    -0.220 F 
ENDBRANCH  25  26
BRANCH  25  29
HETATM   29  C10 UNL     1      21.385   5.563  49.075  1.00  0.00     0.014 C 
HETATM   30  C11 UNL     1      21.348   6.472  50.041  1.00  0.00     0.083 C 
HETATM   31 CL1  UNL     1      20.626   8.063  49.939  1.00  0.00    -0.097 Cl
ENDBRANCH  25  29
ENDBRANCH  23  25
ENDBRANCH   7  23
TORSDOF 10
ENDMDL
