MODEL 1
REMARK VINA RESULT:      -7.5      0.000      0.000
REMARK  5 active torsions:
REMARK  status: ('A' for Active; 'I' for Inactive)
REMARK    1  A    between atoms: O1_2  and  C2_3 
REMARK    2  A    between atoms: C5_6  and  C6_7 
REMARK    3  A    between atoms: C6_7  and  C7_8 
REMARK       I    between atoms: C7_8  and  N1_10 
REMARK    4  A    between atoms: N1_10  and  S1_11 
REMARK    5  A    between atoms: S1_11  and  C8_14 
ROOT
HETATM    1  C7  UNL     1      23.577   1.745  52.107  1.00  0.00     0.235 C 
HETATM    2  O2  UNL     1      23.850   2.729  52.865  1.00  0.00    -0.272 OA
HETATM    3  N1  UNL     1      23.181   1.756  50.734  1.00  0.00    -0.250 N 
HETATM    4  H8  UNL     1      23.003   0.825  50.297  1.00  0.00     0.181 HD
ENDROOT
BRANCH   3   5
HETATM    5  S1  UNL     1      23.017   3.237  49.875  1.00  0.00     0.265 S 
HETATM    6  O3  UNL     1      22.285   3.050  48.576  1.00  0.00    -0.200 OA
HETATM    7  O4  UNL     1      22.196   4.168  50.719  1.00  0.00    -0.200 OA
BRANCH   5   8
HETATM    8  C8  UNL     1      24.552   3.953  49.484  1.00  0.00     0.080 A 
HETATM    9  C9  UNL     1      24.523   5.263  49.027  1.00  0.00     0.027 A 
HETATM   10  C10 UNL     1      25.667   5.946  48.683  1.00  0.00     0.025 A 
HETATM   11  C11 UNL     1      26.895   5.303  48.799  1.00  0.00     0.034 A 
HETATM   12 CL1  UNL     1      28.401   6.121  48.376  1.00  0.00    -0.084 Cl
HETATM   13  C12 UNL     1      26.952   3.989  49.256  1.00  0.00     0.025 A 
HETATM   14  C13 UNL     1      25.779   3.333  49.593  1.00  0.00     0.027 A 
ENDBRANCH   5   8
ENDBRANCH   3   5
BRANCH   1  15
HETATM   15  C6  UNL     1      23.726   0.480  52.875  1.00  0.00     0.142 C 
BRANCH  15  16
HETATM   16  C5  UNL     1      25.172   0.331  53.183  1.00  0.00    -0.049 A 
HETATM   17  C4  UNL     1      25.512   0.231  54.532  1.00  0.00     0.010 A 
HETATM   18  C3  UNL     1      26.843   0.088  54.943  1.00  0.00     0.037 A 
HETATM   19  C2  UNL     1      27.858   0.043  53.978  1.00  0.00     0.068 A 
HETATM   20  C15 UNL     1      27.471   0.147  52.658  1.00  0.00     0.037 A 
HETATM   21  C14 UNL     1      26.174   0.288  52.211  1.00  0.00     0.010 A 
BRANCH  19  22
HETATM   22  O1  UNL     1      29.198  -0.098  54.337  1.00  0.00    -0.356 OA
HETATM   23  C1  UNL     1      29.945  -1.080  53.620  1.00  0.00     0.210 C 
ENDBRANCH  19  22
ENDBRANCH  15  16
ENDBRANCH   1  15
TORSDOF 5
ENDMDL
MODEL 2
REMARK VINA RESULT:      -7.3      1.353      1.770
REMARK  5 active torsions:
REMARK  status: ('A' for Active; 'I' for Inactive)
REMARK    1  A    between atoms: O1_2  and  C2_3 
REMARK    2  A    between atoms: C5_6  and  C6_7 
REMARK    3  A    between atoms: C6_7  and  C7_8 
REMARK       I    between atoms: C7_8  and  N1_10 
REMARK    4  A    between atoms: N1_10  and  S1_11 
REMARK    5  A    between atoms: S1_11  and  C8_14 
ROOT
HETATM    1  C7  UNL     1      23.625   2.908  52.000  1.00  0.00     0.235 C 
HETATM    2  O2  UNL     1      24.101   3.459  53.043  1.00  0.00    -0.272 OA
HETATM    3  N1  UNL     1      23.389   3.483  50.713  1.00  0.00    -0.250 N 
HETATM    4  H8  UNL     1      22.988   2.847  49.990  1.00  0.00     0.181 HD
ENDROOT
BRANCH   3   5
HETATM    5  S1  UNL     1      23.756   5.135  50.404  1.00  0.00     0.265 S 
HETATM    6  O3  UNL     1      22.768   5.758  49.459  1.00  0.00    -0.200 OA
HETATM    7  O4  UNL     1      23.656   5.877  51.705  1.00  0.00    -0.200 OA
BRANCH   5   8
HETATM    8  C8  UNL     1      25.328   5.345  49.694  1.00  0.00     0.080 A 
HETATM    9  C9  UNL     1      26.088   4.197  49.527  1.00  0.00     0.027 A 
HETATM   10  C10 UNL     1      27.351   4.225  48.978  1.00  0.00     0.025 A 
HETATM   11  C11 UNL     1      27.882   5.446  48.574  1.00  0.00     0.034 A 
HETATM   12 CL1  UNL     1      29.493   5.554  47.862  1.00  0.00    -0.084 Cl
HETATM   13  C12 UNL     1      27.139   6.614  48.730  1.00  0.00     0.025 A 
HETATM   14  C13 UNL     1      25.872   6.546  49.288  1.00  0.00     0.027 A 
ENDBRANCH   5   8
ENDBRANCH   3   5
BRANCH   1  15
HETATM   15  C6  UNL     1      23.318   1.483  52.296  1.00  0.00     0.142 C 
BRANCH  15  16
HETATM   16  C5  UNL     1      24.610   0.818  52.607  1.00  0.00    -0.049 A 
HETATM   17  C4  UNL     1      24.639   0.026  53.754  1.00  0.00     0.010 A 
HETATM   18  C3  UNL     1      25.801  -0.648  54.149  1.00  0.00     0.037 A 
HETATM   19  C2  UNL     1      26.961  -0.526  53.373  1.00  0.00     0.068 A 
HETATM   20  C15 UNL     1      26.882   0.269  52.248  1.00  0.00     0.037 A 
HETATM   21  C14 UNL     1      25.759   0.949  51.826  1.00  0.00     0.010 A 
BRANCH  19  22
HETATM   22  O1  UNL     1      28.143  -1.178  53.724  1.00  0.00    -0.356 OA
HETATM   23  C1  UNL     1      29.333  -0.389  53.698  1.00  0.00     0.210 C 
ENDBRANCH  19  22
ENDBRANCH  15  16
ENDBRANCH   1  15
TORSDOF 5
ENDMDL
MODEL 3
REMARK VINA RESULT:      -7.3      4.839      6.676
REMARK  5 active torsions:
REMARK  status: ('A' for Active; 'I' for Inactive)
REMARK    1  A    between atoms: O1_2  and  C2_3 
REMARK    2  A    between atoms: C5_6  and  C6_7 
REMARK    3  A    between atoms: C6_7  and  C7_8 
REMARK       I    between atoms: C7_8  and  N1_10 
REMARK    4  A    between atoms: N1_10  and  S1_11 
REMARK    5  A    between atoms: S1_11  and  C8_14 
ROOT
HETATM    1  C7  UNL     1      22.786   1.013  52.595  1.00  0.00     0.235 C 
HETATM    2  O2  UNL     1      22.160   2.103  52.797  1.00  0.00    -0.272 OA
HETATM    3  N1  UNL     1      22.462  -0.302  53.050  1.00  0.00    -0.250 N 
HETATM    4  H8  UNL     1      23.118  -1.063  52.768  1.00  0.00     0.181 HD
ENDROOT
BRANCH   3   5
HETATM    5  S1  UNL     1      21.061  -0.585  54.007  1.00  0.00     0.265 S 
HETATM    6  O3  UNL     1      21.124  -1.912  54.708  1.00  0.00    -0.200 OA
HETATM    7  O4  UNL     1      21.009   0.476  55.068  1.00  0.00    -0.200 OA
BRANCH   5   8
HETATM    8  C8  UNL     1      19.600  -0.586  53.065  1.00  0.00     0.080 A 
HETATM    9  C9  UNL     1      18.565  -1.380  53.534  1.00  0.00     0.027 A 
HETATM   10  C10 UNL     1      17.355  -1.470  52.883  1.00  0.00     0.025 A 
HETATM   11  C11 UNL     1      17.164  -0.739  51.715  1.00  0.00     0.034 A 
HETATM   12 CL1  UNL     1      15.639  -0.808  50.830  1.00  0.00    -0.084 Cl
HETATM   13  C12 UNL     1      18.188   0.067  51.223  1.00  0.00     0.025 A 
HETATM   14  C13 UNL     1      19.392   0.132  51.906  1.00  0.00     0.027 A 
ENDBRANCH   5   8
ENDBRANCH   3   5
BRANCH   1  15
HETATM   15  C6  UNL     1      23.990   1.287  51.767  1.00  0.00     0.142 C 
BRANCH  15  16
HETATM   16  C5  UNL     1      25.170   0.873  52.569  1.00  0.00    -0.049 A 
HETATM   17  C4  UNL     1      25.921  -0.188  52.066  1.00  0.00     0.010 A 
HETATM   18  C3  UNL     1      27.054  -0.667  52.735  1.00  0.00     0.037 A 
HETATM   19  C2  UNL     1      27.443  -0.066  53.939  1.00  0.00     0.068 A 
HETATM   20  C15 UNL     1      26.667   0.980  54.397  1.00  0.00     0.037 A 
HETATM   21  C14 UNL     1      25.546   1.480  53.769  1.00  0.00     0.010 A 
BRANCH  19  22
HETATM   22  O1  UNL     1      28.563  -0.506  54.644  1.00  0.00    -0.356 OA
HETATM   23  C1  UNL     1      29.732  -0.777  53.870  1.00  0.00     0.210 C 
ENDBRANCH  19  22
ENDBRANCH  15  16
ENDBRANCH   1  15
TORSDOF 5
ENDMDL
MODEL 4
REMARK VINA RESULT:      -7.0      3.156      6.969
REMARK  5 active torsions:
REMARK  status: ('A' for Active; 'I' for Inactive)
REMARK    1  A    between atoms: O1_2  and  C2_3 
REMARK    2  A    between atoms: C5_6  and  C6_7 
REMARK    3  A    between atoms: C6_7  and  C7_8 
REMARK       I    between atoms: C7_8  and  N1_10 
REMARK    4  A    between atoms: N1_10  and  S1_11 
REMARK    5  A    between atoms: S1_11  and  C8_14 
ROOT
HETATM    1  C7  UNL     1      25.856   3.130  50.501  1.00  0.00     0.235 C 
HETATM    2  O2  UNL     1      27.056   3.118  50.922  1.00  0.00    -0.272 OA
HETATM    3  N1  UNL     1      24.671   2.686  51.164  1.00  0.00    -0.250 N 
HETATM    4  H8  UNL     1      23.779   2.788  50.633  1.00  0.00     0.181 HD
ENDROOT
BRANCH   3   5
HETATM    5  S1  UNL     1      24.742   2.025  52.750  1.00  0.00     0.265 S 
HETATM    6  O3  UNL     1      24.887   3.095  53.795  1.00  0.00    -0.200 OA
HETATM    7  O4  UNL     1      23.442   1.321  53.012  1.00  0.00    -0.200 OA
BRANCH   5   8
HETATM    8  C8  UNL     1      26.082   0.938  52.959  1.00  0.00     0.080 A 
HETATM    9  C9  UNL     1      27.112   1.379  53.776  1.00  0.00     0.027 A 
HETATM   10  C10 UNL     1      28.231   0.616  54.024  1.00  0.00     0.025 A 
HETATM   11  C11 UNL     1      28.332  -0.641  53.436  1.00  0.00     0.034 A 
HETATM   12 CL1  UNL     1      29.738  -1.671  53.712  1.00  0.00    -0.084 Cl
HETATM   13  C12 UNL     1      27.311  -1.107  52.612  1.00  0.00     0.025 A 
HETATM   14  C13 UNL     1      26.200  -0.311  52.385  1.00  0.00     0.027 A 
ENDBRANCH   5   8
ENDBRANCH   3   5
BRANCH   1  15
HETATM   15  C6  UNL     1      25.824   3.706  49.130  1.00  0.00     0.142 C 
BRANCH  15  16
HETATM   16  C5  UNL     1      26.147   5.151  49.261  1.00  0.00    -0.049 A 
HETATM   17  C4  UNL     1      25.340   5.890  50.125  1.00  0.00     0.010 A 
HETATM   18  C3  UNL     1      25.549   7.260  50.328  1.00  0.00     0.037 A 
HETATM   19  C2  UNL     1      26.592   7.903  49.650  1.00  0.00     0.068 A 
HETATM   20  C15 UNL     1      27.361   7.128  48.806  1.00  0.00     0.037 A 
HETATM   21  C14 UNL     1      27.190   5.779  48.578  1.00  0.00     0.010 A 
BRANCH  19  22
HETATM   22  O1  UNL     1      26.840   9.265  49.819  1.00  0.00    -0.356 OA
HETATM   23  C1  UNL     1      27.986   9.788  49.146  1.00  0.00     0.210 C 
ENDBRANCH  19  22
ENDBRANCH  15  16
ENDBRANCH   1  15
TORSDOF 5
ENDMDL
MODEL 5
REMARK VINA RESULT:      -7.0      2.986      6.058
REMARK  5 active torsions:
REMARK  status: ('A' for Active; 'I' for Inactive)
REMARK    1  A    between atoms: O1_2  and  C2_3 
REMARK    2  A    between atoms: C5_6  and  C6_7 
REMARK    3  A    between atoms: C6_7  and  C7_8 
REMARK       I    between atoms: C7_8  and  N1_10 
REMARK    4  A    between atoms: N1_10  and  S1_11 
REMARK    5  A    between atoms: S1_11  and  C8_14 
ROOT
HETATM    1  C7  UNL     1      22.890   3.294  50.753  1.00  0.00     0.235 C 
HETATM    2  O2  UNL     1      23.060   4.072  51.745  1.00  0.00    -0.272 OA
HETATM    3  N1  UNL     1      22.660   1.885  50.750  1.00  0.00    -0.250 N 
HETATM    4  H8  UNL     1      22.546   1.437  49.815  1.00  0.00     0.181 HD
ENDROOT
BRANCH   3   5
HETATM    5  S1  UNL     1      22.579   1.001  52.224  1.00  0.00     0.265 S 
HETATM    6  O3  UNL     1      21.669   1.661  53.221  1.00  0.00    -0.200 OA
HETATM    7  O4  UNL     1      21.998  -0.349  51.917  1.00  0.00    -0.200 OA
BRANCH   5   8
HETATM    8  C8  UNL     1      24.130   0.843  52.991  1.00  0.00     0.080 A 
HETATM    9  C9  UNL     1      24.536  -0.447  53.303  1.00  0.00     0.027 A 
HETATM   10  C10 UNL     1      25.742  -0.711  53.912  1.00  0.00     0.025 A 
HETATM   11  C11 UNL     1      26.584   0.351  54.225  1.00  0.00     0.034 A 
HETATM   12 CL1  UNL     1      28.144   0.085  55.005  1.00  0.00    -0.084 Cl
HETATM   13  C12 UNL     1      26.201   1.655  53.922  1.00  0.00     0.025 A 
HETATM   14  C13 UNL     1      24.979   1.883  53.309  1.00  0.00     0.027 A 
ENDBRANCH   5   8
ENDBRANCH   3   5
BRANCH   1  15
HETATM   15  C6  UNL     1      22.965   4.084  49.494  1.00  0.00     0.142 C 
BRANCH  15  16
HETATM   16  C5  UNL     1      24.400   4.394  49.265  1.00  0.00    -0.049 A 
HETATM   17  C4  UNL     1      25.308   3.373  49.545  1.00  0.00     0.010 A 
HETATM   18  C3  UNL     1      26.685   3.549  49.367  1.00  0.00     0.037 A 
HETATM   19  C2  UNL     1      27.164   4.778  48.896  1.00  0.00     0.068 A 
HETATM   20  C15 UNL     1      26.227   5.756  48.634  1.00  0.00     0.037 A 
HETATM   21  C14 UNL     1      24.864   5.624  48.795  1.00  0.00     0.010 A 
BRANCH  19  22
HETATM   22  O1  UNL     1      28.527   5.003  48.702  1.00  0.00    -0.356 OA
HETATM   23  C1  UNL     1      28.882   6.224  48.053  1.00  0.00     0.210 C 
ENDBRANCH  19  22
ENDBRANCH  15  16
ENDBRANCH   1  15
TORSDOF 5
ENDMDL
MODEL 6
REMARK VINA RESULT:      -6.9      3.056      7.368
REMARK  5 active torsions:
REMARK  status: ('A' for Active; 'I' for Inactive)
REMARK    1  A    between atoms: O1_2  and  C2_3 
REMARK    2  A    between atoms: C5_6  and  C6_7 
REMARK    3  A    between atoms: C6_7  and  C7_8 
REMARK       I    between atoms: C7_8  and  N1_10 
REMARK    4  A    between atoms: N1_10  and  S1_11 
REMARK    5  A    between atoms: S1_11  and  C8_14 
ROOT
HETATM    1  C7  UNL     1      26.315   3.810  50.001  1.00  0.00     0.235 C 
HETATM    2  O2  UNL     1      26.808   2.779  49.442  1.00  0.00    -0.272 OA
HETATM    3  N1  UNL     1      25.529   3.893  51.191  1.00  0.00    -0.250 N 
HETATM    4  H8  UNL     1      25.223   4.849  51.477  1.00  0.00     0.181 HD
ENDROOT
BRANCH   3   5
HETATM    5  S1  UNL     1      25.126   2.479  52.084  1.00  0.00     0.265 S 
HETATM    6  O3  UNL     1      24.356   2.807  53.331  1.00  0.00    -0.200 OA
HETATM    7  O4  UNL     1      24.237   1.631  51.221  1.00  0.00    -0.200 OA
BRANCH   5   8
HETATM    8  C8  UNL     1      26.530   1.585  52.584  1.00  0.00     0.080 A 
HETATM    9  C9  UNL     1      26.460   0.206  52.460  1.00  0.00     0.027 A 
HETATM   10  C10 UNL     1      27.502  -0.619  52.820  1.00  0.00     0.025 A 
HETATM   11  C11 UNL     1      28.667  -0.049  53.325  1.00  0.00     0.034 A 
HETATM   12 CL1  UNL     1      30.041  -1.046  53.806  1.00  0.00    -0.084 Cl
HETATM   13  C12 UNL     1      28.763   1.334  53.459  1.00  0.00     0.025 A 
HETATM   14  C13 UNL     1      27.693   2.132  53.086  1.00  0.00     0.027 A 
ENDBRANCH   5   8
ENDBRANCH   3   5
BRANCH   1  15
HETATM   15  C6  UNL     1      26.678   5.016  49.209  1.00  0.00     0.142 C 
BRANCH  15  16
HETATM   16  C5  UNL     1      25.566   5.988  49.370  1.00  0.00    -0.049 A 
HETATM   17  C4  UNL     1      24.424   5.757  48.603  1.00  0.00     0.010 A 
HETATM   18  C3  UNL     1      23.313   6.607  48.670  1.00  0.00     0.037 A 
HETATM   19  C2  UNL     1      23.347   7.714  49.527  1.00  0.00     0.068 A 
HETATM   20  C15 UNL     1      24.499   7.900  50.264  1.00  0.00     0.037 A 
HETATM   21  C14 UNL     1      25.613   7.089  50.228  1.00  0.00     0.010 A 
BRANCH  19  22
HETATM   22  O1  UNL     1      22.266   8.589  49.629  1.00  0.00    -0.356 OA
HETATM   23  C1  UNL     1      21.056   8.042  50.155  1.00  0.00     0.210 C 
ENDBRANCH  19  22
ENDBRANCH  15  16
ENDBRANCH   1  15
TORSDOF 5
ENDMDL
MODEL 7
REMARK VINA RESULT:      -6.8      3.840      6.613
REMARK  5 active torsions:
REMARK  status: ('A' for Active; 'I' for Inactive)
REMARK    1  A    between atoms: O1_2  and  C2_3 
REMARK    2  A    between atoms: C5_6  and  C6_7 
REMARK    3  A    between atoms: C6_7  and  C7_8 
REMARK       I    between atoms: C7_8  and  N1_10 
REMARK    4  A    between atoms: N1_10  and  S1_11 
REMARK    5  A    between atoms: S1_11  and  C8_14 
ROOT
HETATM    1  C7  UNL     1      22.631   1.977  50.643  1.00  0.00     0.235 C 
HETATM    2  O2  UNL     1      22.146   3.146  50.775  1.00  0.00    -0.272 OA
HETATM    3  N1  UNL     1      23.863   1.457  51.145  1.00  0.00    -0.250 N 
HETATM    4  H8  UNL     1      24.070   0.460  50.918  1.00  0.00     0.181 HD
ENDROOT
BRANCH   3   5
HETATM    5  S1  UNL     1      24.925   2.444  52.070  1.00  0.00     0.265 S 
HETATM    6  O3  UNL     1      25.397   3.638  51.291  1.00  0.00    -0.200 OA
HETATM    7  O4  UNL     1      24.159   2.959  53.253  1.00  0.00    -0.200 OA
BRANCH   5   8
HETATM    8  C8  UNL     1      26.348   1.589  52.585  1.00  0.00     0.080 A 
HETATM    9  C9  UNL     1      26.354   0.218  52.374  1.00  0.00     0.027 A 
HETATM   10  C10 UNL     1      27.419  -0.577  52.735  1.00  0.00     0.025 A 
HETATM   11  C11 UNL     1      28.528   0.015  53.331  1.00  0.00     0.034 A 
HETATM   12 CL1  UNL     1      29.927  -0.944  53.818  1.00  0.00    -0.084 Cl
HETATM   13  C12 UNL     1      28.548   1.389  53.553  1.00  0.00     0.025 A 
HETATM   14  C13 UNL     1      27.457   2.157  53.176  1.00  0.00     0.027 A 
ENDBRANCH   5   8
ENDBRANCH   3   5
BRANCH   1  15
HETATM   15  C6  UNL     1      21.693   1.147  49.840  1.00  0.00     0.142 C 
BRANCH  15  16
HETATM   16  C5  UNL     1      20.667   0.625  50.779  1.00  0.00    -0.049 A 
HETATM   17  C4  UNL     1      21.133   0.144  52.002  1.00  0.00     0.010 A 
HETATM   18  C3  UNL     1      20.260  -0.374  52.966  1.00  0.00     0.037 A 
HETATM   19  C2  UNL     1      18.885  -0.408  52.699  1.00  0.00     0.068 A 
HETATM   20  C15 UNL     1      18.474   0.079  51.475  1.00  0.00     0.037 A 
HETATM   21  C14 UNL     1      19.299   0.595  50.499  1.00  0.00     0.010 A 
BRANCH  19  22
HETATM   22  O1  UNL     1      17.975  -0.914  53.627  1.00  0.00    -0.356 OA
HETATM   23  C1  UNL     1      17.376  -2.170  53.306  1.00  0.00     0.210 C 
ENDBRANCH  19  22
ENDBRANCH  15  16
ENDBRANCH   1  15
TORSDOF 5
ENDMDL
MODEL 8
REMARK VINA RESULT:      -6.7      4.395      6.136
REMARK  5 active torsions:
REMARK  status: ('A' for Active; 'I' for Inactive)
REMARK    1  A    between atoms: O1_2  and  C2_3 
REMARK    2  A    between atoms: C5_6  and  C6_7 
REMARK    3  A    between atoms: C6_7  and  C7_8 
REMARK       I    between atoms: C7_8  and  N1_10 
REMARK    4  A    between atoms: N1_10  and  S1_11 
REMARK    5  A    between atoms: S1_11  and  C8_14 
ROOT
HETATM    1  C7  UNL     1      22.690   2.860  51.418  1.00  0.00     0.235 C 
HETATM    2  O2  UNL     1      22.835   2.186  50.348  1.00  0.00    -0.272 OA
HETATM    3  N1  UNL     1      21.481   3.257  52.068  1.00  0.00    -0.250 N 
HETATM    4  H8  UNL     1      21.589   3.811  52.945  1.00  0.00     0.181 HD
ENDROOT
BRANCH   3   5
HETATM    5  S1  UNL     1      19.947   2.829  51.417  1.00  0.00     0.265 S 
HETATM    6  O3  UNL     1      18.896   3.850  51.749  1.00  0.00    -0.200 OA
HETATM    7  O4  UNL     1      20.078   2.795  49.922  1.00  0.00    -0.200 OA
BRANCH   5   8
HETATM    8  C8  UNL     1      19.371   1.304  52.019  1.00  0.00     0.080 A 
HETATM    9  C9  UNL     1      20.165   0.675  52.966  1.00  0.00     0.027 A 
HETATM   10  C10 UNL     1      19.824  -0.537  53.524  1.00  0.00     0.025 A 
HETATM   11  C11 UNL     1      18.642  -1.152  53.124  1.00  0.00     0.034 A 
HETATM   12 CL1  UNL     1      18.143  -2.705  53.798  1.00  0.00    -0.084 Cl
HETATM   13  C12 UNL     1      17.826  -0.541  52.174  1.00  0.00     0.025 A 
HETATM   14  C13 UNL     1      18.202   0.679  51.635  1.00  0.00     0.027 A 
ENDBRANCH   5   8
ENDBRANCH   3   5
BRANCH   1  15
HETATM   15  C6  UNL     1      24.030   3.215  51.958  1.00  0.00     0.142 C 
BRANCH  15  16
HETATM   16  C5  UNL     1      24.707   1.940  52.306  1.00  0.00    -0.049 A 
HETATM   17  C4  UNL     1      24.064   1.130  53.240  1.00  0.00     0.010 A 
HETATM   18  C3  UNL     1      24.607  -0.095  53.645  1.00  0.00     0.037 A 
HETATM   19  C2  UNL     1      25.826  -0.519  53.099  1.00  0.00     0.068 A 
HETATM   20  C15 UNL     1      26.424   0.318  52.179  1.00  0.00     0.037 A 
HETATM   21  C14 UNL     1      25.923   1.530  51.754  1.00  0.00     0.010 A 
BRANCH  19  22
HETATM   22  O1  UNL     1      26.408  -1.731  53.471  1.00  0.00    -0.356 OA
HETATM   23  C1  UNL     1      27.279  -2.334  52.513  1.00  0.00     0.210 C 
ENDBRANCH  19  22
ENDBRANCH  15  16
ENDBRANCH   1  15
TORSDOF 5
ENDMDL
MODEL 9
REMARK VINA RESULT:      -6.6      3.389      6.491
REMARK  5 active torsions:
REMARK  status: ('A' for Active; 'I' for Inactive)
REMARK    1  A    between atoms: O1_2  and  C2_3 
REMARK    2  A    between atoms: C5_6  and  C6_7 
REMARK    3  A    between atoms: C6_7  and  C7_8 
REMARK       I    between atoms: C7_8  and  N1_10 
REMARK    4  A    between atoms: N1_10  and  S1_11 
REMARK    5  A    between atoms: S1_11  and  C8_14 
ROOT
HETATM    1  C7  UNL     1      24.853   6.118  49.795  1.00  0.00     0.235 C 
HETATM    2  O2  UNL     1      25.209   6.782  50.821  1.00  0.00    -0.272 OA
HETATM    3  N1  UNL     1      24.120   4.894  49.732  1.00  0.00    -0.250 N 
HETATM    4  H8  UNL     1      23.933   4.516  48.778  1.00  0.00     0.181 HD
ENDROOT
BRANCH   3   5
HETATM    5  S1  UNL     1      23.586   4.110  51.167  1.00  0.00     0.265 S 
HETATM    6  O3  UNL     1      23.621   5.032  52.352  1.00  0.00    -0.200 OA
HETATM    7  O4  UNL     1      22.156   3.703  50.962  1.00  0.00    -0.200 OA
BRANCH   5   8
HETATM    8  C8  UNL     1      24.565   2.733  51.576  1.00  0.00     0.080 A 
HETATM    9  C9  UNL     1      23.951   1.741  52.326  1.00  0.00     0.027 A 
HETATM   10  C10 UNL     1      24.614   0.599  52.717  1.00  0.00     0.025 A 
HETATM   11  C11 UNL     1      25.944   0.433  52.346  1.00  0.00     0.034 A 
HETATM   12 CL1  UNL     1      26.853  -1.006  52.812  1.00  0.00    -0.084 Cl
HETATM   13  C12 UNL     1      26.583   1.414  51.591  1.00  0.00     0.025 A 
HETATM   14  C13 UNL     1      25.884   2.550  51.217  1.00  0.00     0.027 A 
ENDBRANCH   5   8
ENDBRANCH   3   5
BRANCH   1  15
HETATM   15  C6  UNL     1      25.327   6.818  48.571  1.00  0.00     0.142 C 
BRANCH  15  16
HETATM   16  C5  UNL     1      26.778   6.524  48.440  1.00  0.00    -0.049 A 
HETATM   17  C4  UNL     1      27.612   7.613  48.191  1.00  0.00     0.010 A 
HETATM   18  C3  UNL     1      28.996   7.458  48.048  1.00  0.00     0.037 A 
HETATM   19  C2  UNL     1      29.558   6.179  48.160  1.00  0.00     0.068 A 
HETATM   20  C15 UNL     1      28.691   5.134  48.407  1.00  0.00     0.037 A 
HETATM   21  C14 UNL     1      27.325   5.244  48.553  1.00  0.00     0.010 A 
BRANCH  19  22
HETATM   22  O1  UNL     1      30.931   5.973  48.026  1.00  0.00    -0.356 OA
HETATM   23  C1  UNL     1      31.713   6.133  49.209  1.00  0.00     0.210 C 
ENDBRANCH  19  22
ENDBRANCH  15  16
ENDBRANCH   1  15
TORSDOF 5
ENDMDL
