MODEL 1
REMARK VINA RESULT:      -8.0      0.000      0.000
REMARK  3 active torsions:
REMARK  status: ('A' for Active; 'I' for Inactive)
REMARK    1  A    between atoms: O1_1  and  C1_2 
REMARK    2  A    between atoms: C8_9  and  C9_10 
REMARK    3  A    between atoms: C9_10  and  C10_11 
ROOT
HETATM    1  C1  UNL     1      21.093   4.242  48.198  1.00  0.00     0.061 A 
HETATM    2  C2  UNL     1      21.791   3.376  47.492  1.00  0.00     0.036 A 
HETATM    3  C3  UNL     1      22.644   2.490  48.253  1.00  0.00     0.032 A 
HETATM    4  C4  UNL     1      22.762   2.492  49.566  1.00  0.00     0.032 A 
HETATM    5  C5  UNL     1      23.464   1.809  50.642  1.00  0.00     0.036 A 
HETATM    6  C6  UNL     1      23.131   2.292  51.869  1.00  0.00    -0.037 A 
HETATM    7  C7  UNL     1      23.874   1.583  52.987  1.00  0.00     0.043 C 
HETATM    8  C8  UNL     1      23.193   0.384  53.451  1.00  0.00    -0.002 C 
HETATM    9  C15 UNL     1      22.434  -0.415  52.401  1.00  0.00     0.051 C 
HETATM   10  C16 UNL     1      21.322   0.365  51.781  1.00  0.00     0.086 C 
HETATM   11  N1  UNL     1      21.129   1.190  52.715  1.00  0.00    -0.274 NA
HETATM   12  C17 UNL     1      20.191   2.197  52.718  1.00  0.00     0.438 C 
HETATM   13  N2  UNL     1      20.830   3.155  52.233  1.00  0.00    -0.398 NA
HETATM   14  C18 UNL     1      22.139   3.373  51.751  1.00  0.00     0.202 A 
HETATM   15  N3  UNL     1      21.977   3.439  50.272  1.00  0.00    -0.351 N 
HETATM   16  C19 UNL     1      21.069   4.425  49.667  1.00  0.00     0.189 A 
ENDROOT
BRANCH   8  17
HETATM   17  C9  UNL     1      24.043  -0.551  54.242  1.00  0.00     0.040 C 
BRANCH  17  18
HETATM   18  C10 UNL     1      25.503  -0.455  54.154  1.00  0.00    -0.070 A 
HETATM   19  C11 UNL     1      25.939  -1.120  53.075  1.00  0.00     0.004 A 
HETATM   20  C12 UNL     1      27.283  -1.315  52.565  1.00  0.00     0.007 A 
HETATM   21  C13 UNL     1      28.294  -0.780  53.214  1.00  0.00     0.045 A 
HETATM   22  S1  UNL     1      28.134   0.180  54.695  1.00  0.00    -0.137 SA
HETATM   23  C14 UNL     1      26.367   0.329  55.064  1.00  0.00     0.112 A 
ENDBRANCH  17  18
ENDBRANCH   8  17
BRANCH   1  24
HETATM   24  O1  UNL     1      20.242   5.142  47.580  1.00  0.00    -0.363 OA
HETATM   25  H1  UNL     1      19.488   5.594  48.052  1.00  0.00     0.217 HD
ENDBRANCH   1  24
TORSDOF 3
ENDMDL
MODEL 2
REMARK VINA RESULT:      -8.0      2.031      2.154
REMARK  3 active torsions:
REMARK  status: ('A' for Active; 'I' for Inactive)
REMARK    1  A    between atoms: O1_1  and  C1_2 
REMARK    2  A    between atoms: C8_9  and  C9_10 
REMARK    3  A    between atoms: C9_10  and  C10_11 
ROOT
HETATM    1  C1  UNL     1      23.326   6.937  49.185  1.00  0.00     0.061 A 
HETATM    2  C2  UNL     1      24.156   6.267  48.411  1.00  0.00     0.036 A 
HETATM    3  C3  UNL     1      24.714   5.063  48.986  1.00  0.00     0.032 A 
HETATM    4  C4  UNL     1      24.454   4.607  50.196  1.00  0.00     0.032 A 
HETATM    5  C5  UNL     1      24.789   3.510  51.089  1.00  0.00     0.036 A 
HETATM    6  C6  UNL     1      24.142   3.595  52.283  1.00  0.00    -0.037 A 
HETATM    7  C7  UNL     1      24.503   2.452  53.216  1.00  0.00     0.043 C 
HETATM    8  C8  UNL     1      23.664   1.279  53.027  1.00  0.00    -0.002 C 
HETATM    9  C15 UNL     1      23.199   0.998  51.606  1.00  0.00     0.051 C 
HETATM   10  C16 UNL     1      22.347   2.092  51.054  1.00  0.00     0.086 C 
HETATM   11  N1  UNL     1      21.934   2.575  52.144  1.00  0.00    -0.274 NA
HETATM   12  C17 UNL     1      21.082   3.647  52.277  1.00  0.00     0.438 C 
HETATM   13  N2  UNL     1      21.876   4.609  52.349  1.00  0.00    -0.398 NA
HETATM   14  C18 UNL     1      23.276   4.785  52.321  1.00  0.00     0.202 A 
HETATM   15  N3  UNL     1      23.545   5.366  50.977  1.00  0.00    -0.351 N 
HETATM   16  C19 UNL     1      22.894   6.617  50.564  1.00  0.00     0.189 A 
ENDROOT
BRANCH   8  17
HETATM   17  C9  UNL     1      24.209   0.021  53.611  1.00  0.00     0.040 C 
BRANCH  17  18
HETATM   18  C10 UNL     1      25.658  -0.139  53.767  1.00  0.00    -0.070 A 
HETATM   19  C11 UNL     1      26.133  -0.948  52.811  1.00  0.00     0.004 A 
HETATM   20  C12 UNL     1      27.484  -1.406  52.546  1.00  0.00     0.007 A 
HETATM   21  C13 UNL     1      28.459  -1.001  53.331  1.00  0.00     0.045 A 
HETATM   22  S1  UNL     1      28.241   0.083  54.715  1.00  0.00    -0.137 SA
HETATM   23  C14 UNL     1      26.493   0.556  54.772  1.00  0.00     0.112 A 
ENDBRANCH  17  18
ENDBRANCH   8  17
BRANCH   1  24
HETATM   24  O1  UNL     1      22.728   8.105  48.744  1.00  0.00    -0.363 OA
HETATM   25  H1  UNL     1      21.908   8.119  48.177  1.00  0.00     0.217 HD
ENDBRANCH   1  24
TORSDOF 3
ENDMDL
MODEL 3
REMARK VINA RESULT:      -7.9      4.526      7.291
REMARK  3 active torsions:
REMARK  status: ('A' for Active; 'I' for Inactive)
REMARK    1  A    between atoms: O1_1  and  C1_2 
REMARK    2  A    between atoms: C8_9  and  C9_10 
REMARK    3  A    between atoms: C9_10  and  C10_11 
ROOT
HETATM    1  C1  UNL     1      26.272   0.908  54.354  1.00  0.00     0.061 A 
HETATM    2  C2  UNL     1      26.239   2.112  53.821  1.00  0.00     0.036 A 
HETATM    3  C3  UNL     1      25.132   2.372  52.927  1.00  0.00     0.032 A 
HETATM    4  C4  UNL     1      24.183   1.509  52.621  1.00  0.00     0.032 A 
HETATM    5  C5  UNL     1      22.977   1.388  51.818  1.00  0.00     0.036 A 
HETATM    6  C6  UNL     1      22.391   0.167  51.941  1.00  0.00    -0.037 A 
HETATM    7  C7  UNL     1      21.137   0.042  51.092  1.00  0.00     0.043 C 
HETATM    8  C8  UNL     1      19.940   0.508  51.775  1.00  0.00    -0.002 C 
HETATM    9  C15 UNL     1      20.115   1.683  52.727  1.00  0.00     0.051 C 
HETATM   10  C16 UNL     1      21.030   1.369  53.864  1.00  0.00     0.086 C 
HETATM   11  N1  UNL     1      20.900   0.115  53.867  1.00  0.00    -0.274 NA
HETATM   12  C17 UNL     1      21.527  -0.756  54.729  1.00  0.00     0.438 C 
HETATM   13  N2  UNL     1      22.572  -1.039  54.105  1.00  0.00    -0.398 NA
HETATM   14  C18 UNL     1      23.153  -0.686  52.868  1.00  0.00     0.202 A 
HETATM   15  N3  UNL     1      24.267   0.232  53.235  1.00  0.00    -0.351 N 
HETATM   16  C19 UNL     1      25.324  -0.212  54.155  1.00  0.00     0.189 A 
ENDROOT
BRANCH   8  17
HETATM   17  C9  UNL     1      18.779   0.782  50.883  1.00  0.00     0.040 C 
BRANCH  17  18
HETATM   18  C10 UNL     1      17.582  -0.060  50.970  1.00  0.00    -0.070 A 
HETATM   19  C11 UNL     1      17.580  -0.730  52.131  1.00  0.00     0.004 A 
HETATM   20  C12 UNL     1      16.623  -1.676  52.674  1.00  0.00     0.007 A 
HETATM   21  C13 UNL     1      15.554  -1.976  51.968  1.00  0.00     0.045 A 
HETATM   22  S1  UNL     1      15.188  -1.298  50.372  1.00  0.00    -0.137 SA
HETATM   23  C14 UNL     1      16.491  -0.104  49.972  1.00  0.00     0.112 A 
ENDBRANCH  17  18
ENDBRANCH   8  17
BRANCH   1  24
HETATM   24  O1  UNL     1      27.283   0.542  55.225  1.00  0.00    -0.363 OA
HETATM   25  H1  UNL     1      27.229   0.674  56.212  1.00  0.00     0.217 HD
ENDBRANCH   1  24
TORSDOF 3
ENDMDL
MODEL 4
REMARK VINA RESULT:      -7.9      4.224      7.273
REMARK  3 active torsions:
REMARK  status: ('A' for Active; 'I' for Inactive)
REMARK    1  A    between atoms: O1_1  and  C1_2 
REMARK    2  A    between atoms: C8_9  and  C9_10 
REMARK    3  A    between atoms: C9_10  and  C10_11 
ROOT
HETATM    1  C1  UNL     1      29.549  -0.573  53.679  1.00  0.00     0.061 A 
HETATM    2  C2  UNL     1      29.274  -1.585  52.881  1.00  0.00     0.036 A 
HETATM    3  C3  UNL     1      27.871  -1.907  52.739  1.00  0.00     0.032 A 
HETATM    4  C4  UNL     1      26.882  -1.274  53.337  1.00  0.00     0.032 A 
HETATM    5  C5  UNL     1      25.432  -1.287  53.451  1.00  0.00     0.036 A 
HETATM    6  C6  UNL     1      24.965  -0.305  54.268  1.00  0.00    -0.037 A 
HETATM    7  C7  UNL     1      23.452  -0.329  54.391  1.00  0.00     0.043 C 
HETATM    8  C8  UNL     1      22.785   0.439  53.352  1.00  0.00    -0.002 C 
HETATM    9  C15 UNL     1      23.448   0.448  51.982  1.00  0.00     0.051 C 
HETATM   10  C16 UNL     1      24.810   1.059  52.008  1.00  0.00     0.086 C 
HETATM   11  N1  UNL     1      24.672   1.777  53.036  1.00  0.00    -0.274 NA
HETATM   12  C17 UNL     1      25.633   2.601  53.575  1.00  0.00     0.438 C 
HETATM   13  N2  UNL     1      26.205   1.844  54.389  1.00  0.00    -0.398 NA
HETATM   14  C18 UNL     1      26.077   0.500  54.801  1.00  0.00     0.202 A 
HETATM   15  N3  UNL     1      27.240  -0.186  54.175  1.00  0.00    -0.351 N 
HETATM   16  C19 UNL     1      28.609   0.273  54.449  1.00  0.00     0.189 A 
ENDROOT
BRANCH   8  17
HETATM   17  C9  UNL     1      21.336   0.134  53.181  1.00  0.00     0.040 C 
BRANCH  17  18
HETATM   18  C10 UNL     1      20.490   1.042  52.401  1.00  0.00    -0.070 A 
HETATM   19  C11 UNL     1      19.761   0.342  51.521  1.00  0.00     0.004 A 
HETATM   20  C12 UNL     1      18.787   0.782  50.539  1.00  0.00     0.007 A 
HETATM   21  C13 UNL     1      18.523   2.067  50.437  1.00  0.00     0.045 A 
HETATM   22  S1  UNL     1      19.281   3.325  51.428  1.00  0.00    -0.137 SA
HETATM   23  C14 UNL     1      20.384   2.503  52.607  1.00  0.00     0.112 A 
ENDBRANCH  17  18
ENDBRANCH   8  17
BRANCH   1  24
HETATM   24  O1  UNL     1      30.856  -0.171  53.893  1.00  0.00    -0.363 OA
HETATM   25  H1  UNL     1      31.220   0.701  53.574  1.00  0.00     0.217 HD
ENDBRANCH   1  24
TORSDOF 3
ENDMDL
MODEL 5
REMARK VINA RESULT:      -7.8      3.866      5.087
REMARK  3 active torsions:
REMARK  status: ('A' for Active; 'I' for Inactive)
REMARK    1  A    between atoms: O1_1  and  C1_2 
REMARK    2  A    between atoms: C8_9  and  C9_10 
REMARK    3  A    between atoms: C9_10  and  C10_11 
ROOT
HETATM    1  C1  UNL     1      27.059   7.440  48.995  1.00  0.00     0.061 A 
HETATM    2  C2  UNL     1      27.711   6.471  48.387  1.00  0.00     0.036 A 
HETATM    3  C3  UNL     1      27.239   5.131  48.659  1.00  0.00     0.032 A 
HETATM    4  C4  UNL     1      26.228   4.827  49.450  1.00  0.00     0.032 A 
HETATM    5  C5  UNL     1      25.489   3.681  49.954  1.00  0.00     0.036 A 
HETATM    6  C6  UNL     1      24.473   4.042  50.784  1.00  0.00    -0.037 A 
HETATM    7  C7  UNL     1      23.710   2.841  51.315  1.00  0.00     0.043 C 
HETATM    8  C8  UNL     1      22.629   2.421  50.438  1.00  0.00    -0.002 C 
HETATM    9  C15 UNL     1      22.865   2.586  48.943  1.00  0.00     0.051 C 
HETATM   10  C16 UNL     1      23.062   4.013  48.548  1.00  0.00     0.086 C 
HETATM   11  N1  UNL     1      22.460   4.558  49.512  1.00  0.00    -0.274 NA
HETATM   12  C17 UNL     1      22.306   5.912  49.701  1.00  0.00     0.438 C 
HETATM   13  N2  UNL     1      23.310   6.201  50.388  1.00  0.00    -0.398 NA
HETATM   14  C18 UNL     1      24.414   5.506  50.927  1.00  0.00     0.202 A 
HETATM   15  N3  UNL     1      25.558   5.915  50.067  1.00  0.00    -0.351 N 
HETATM   16  C19 UNL     1      25.907   7.335  49.919  1.00  0.00     0.189 A 
ENDROOT
BRANCH   8  17
HETATM   17  C9  UNL     1      22.116   1.046  50.693  1.00  0.00     0.040 C 
BRANCH  17  18
HETATM   18  C10 UNL     1      21.817   0.626  52.066  1.00  0.00    -0.070 A 
HETATM   19  C11 UNL     1      22.763  -0.218  52.500  1.00  0.00     0.004 A 
HETATM   20  C12 UNL     1      22.910  -0.898  53.774  1.00  0.00     0.007 A 
HETATM   21  C13 UNL     1      22.004  -0.702  54.708  1.00  0.00     0.045 A 
HETATM   22  S1  UNL     1      20.590   0.350  54.523  1.00  0.00    -0.137 SA
HETATM   23  C14 UNL     1      20.691   1.123  52.888  1.00  0.00     0.112 A 
ENDBRANCH  17  18
ENDBRANCH   8  17
BRANCH   1  24
HETATM   24  O1  UNL     1      27.419   8.764  48.813  1.00  0.00    -0.363 OA
HETATM   25  H1  UNL     1      26.772   9.520  48.872  1.00  0.00     0.217 HD
ENDBRANCH   1  24
TORSDOF 3
ENDMDL
MODEL 6
REMARK VINA RESULT:      -7.7      1.605      2.093
REMARK  3 active torsions:
REMARK  status: ('A' for Active; 'I' for Inactive)
REMARK    1  A    between atoms: O1_1  and  C1_2 
REMARK    2  A    between atoms: C8_9  and  C9_10 
REMARK    3  A    between atoms: C9_10  and  C10_11 
ROOT
HETATM    1  C1  UNL     1      22.221   5.920  47.491  1.00  0.00     0.061 A 
HETATM    2  C2  UNL     1      21.735   4.830  46.934  1.00  0.00     0.036 A 
HETATM    3  C3  UNL     1      22.138   3.582  47.545  1.00  0.00     0.032 A 
HETATM    4  C4  UNL     1      22.934   3.469  48.590  1.00  0.00     0.032 A 
HETATM    5  C5  UNL     1      23.540   2.465  49.449  1.00  0.00     0.036 A 
HETATM    6  C6  UNL     1      24.304   3.014  50.432  1.00  0.00    -0.037 A 
HETATM    7  C7  UNL     1      24.943   1.961  51.320  1.00  0.00     0.043 C 
HETATM    8  C8  UNL     1      24.091   1.559  52.428  1.00  0.00    -0.002 C 
HETATM    9  C15 UNL     1      22.593   1.536  52.159  1.00  0.00     0.051 C 
HETATM   10  C16 UNL     1      22.053   2.884  51.812  1.00  0.00     0.086 C 
HETATM   11  N1  UNL     1      22.939   3.589  52.366  1.00  0.00    -0.274 NA
HETATM   12  C17 UNL     1      22.979   4.964  52.383  1.00  0.00     0.438 C 
HETATM   13  N2  UNL     1      23.653   5.223  51.363  1.00  0.00    -0.398 NA
HETATM   14  C18 UNL     1      24.289   4.484  50.342  1.00  0.00     0.202 A 
HETATM   15  N3  UNL     1      23.416   4.679  49.152  1.00  0.00    -0.351 N 
HETATM   16  C19 UNL     1      23.125   6.033  48.658  1.00  0.00     0.189 A 
ENDROOT
BRANCH   8  17
HETATM   17  C9  UNL     1      24.481   0.278  53.082  1.00  0.00     0.040 C 
BRANCH  17  18
HETATM   18  C10 UNL     1      25.880   0.050  53.456  1.00  0.00    -0.070 A 
HETATM   19  C11 UNL     1      26.380  -0.970  52.745  1.00  0.00     0.004 A 
HETATM   20  C12 UNL     1      27.702  -1.568  52.752  1.00  0.00     0.007 A 
HETATM   21  C13 UNL     1      28.616  -1.083  53.566  1.00  0.00     0.045 A 
HETATM   22  S1  UNL     1      28.347   0.273  54.674  1.00  0.00    -0.137 SA
HETATM   23  C14 UNL     1      26.658   0.873  54.408  1.00  0.00     0.112 A 
ENDBRANCH  17  18
ENDBRANCH   8  17
BRANCH   1  24
HETATM   24  O1  UNL     1      21.907   7.173  46.994  1.00  0.00    -0.363 OA
HETATM   25  H1  UNL     1      22.546   7.939  46.996  1.00  0.00     0.217 HD
ENDBRANCH   1  24
TORSDOF 3
ENDMDL
MODEL 7
REMARK VINA RESULT:      -7.7      3.783      5.590
REMARK  3 active torsions:
REMARK  status: ('A' for Active; 'I' for Inactive)
REMARK    1  A    between atoms: O1_1  and  C1_2 
REMARK    2  A    between atoms: C8_9  and  C9_10 
REMARK    3  A    between atoms: C9_10  and  C10_11 
ROOT
HETATM    1  C1  UNL     1      26.328   5.498  49.246  1.00  0.00     0.061 A 
HETATM    2  C2  UNL     1      26.980   4.370  49.056  1.00  0.00     0.036 A 
HETATM    3  C3  UNL     1      26.420   3.205  49.707  1.00  0.00     0.032 A 
HETATM    4  C4  UNL     1      25.334   3.201  50.454  1.00  0.00     0.032 A 
HETATM    5  C5  UNL     1      24.499   2.302  51.234  1.00  0.00     0.036 A 
HETATM    6  C6  UNL     1      23.436   2.938  51.799  1.00  0.00    -0.037 A 
HETATM    7  C7  UNL     1      22.573   1.997  52.621  1.00  0.00     0.043 C 
HETATM    8  C8  UNL     1      21.550   1.330  51.831  1.00  0.00    -0.002 C 
HETATM    9  C15 UNL     1      21.917   0.984  50.395  1.00  0.00     0.051 C 
HETATM   10  C16 UNL     1      22.217   2.194  49.573  1.00  0.00     0.086 C 
HETATM   11  N1  UNL     1      21.565   3.041  50.242  1.00  0.00    -0.274 NA
HETATM   12  C17 UNL     1      21.463   4.383  49.959  1.00  0.00     0.438 C 
HETATM   13  N2  UNL     1      22.418   4.864  50.605  1.00  0.00    -0.398 NA
HETATM   14  C18 UNL     1      23.438   4.367  51.446  1.00  0.00     0.202 A 
HETATM   15  N3  UNL     1      24.669   4.445  50.613  1.00  0.00    -0.351 N 
HETATM   16  C19 UNL     1      25.099   5.728  50.040  1.00  0.00     0.189 A 
ENDROOT
BRANCH   8  17
HETATM   17  C9  UNL     1      20.949   0.127  52.475  1.00  0.00     0.040 C 
BRANCH  17  18
HETATM   18  C10 UNL     1      19.509  -0.119  52.351  1.00  0.00    -0.070 A 
HETATM   19  C11 UNL     1      19.136  -1.080  53.207  1.00  0.00     0.004 A 
HETATM   20  C12 UNL     1      17.834  -1.669  53.457  1.00  0.00     0.007 A 
HETATM   21  C13 UNL     1      16.798  -1.240  52.769  1.00  0.00     0.045 A 
HETATM   22  S1  UNL     1      16.877   0.029  51.534  1.00  0.00    -0.137 SA
HETATM   23  C14 UNL     1      18.583   0.636  51.478  1.00  0.00     0.112 A 
ENDBRANCH  17  18
ENDBRANCH   8  17
BRANCH   1  24
HETATM   24  O1  UNL     1      26.768   6.679  48.673  1.00  0.00    -0.363 OA
HETATM   25  H1  UNL     1      26.489   7.581  48.997  1.00  0.00     0.217 HD
ENDBRANCH   1  24
TORSDOF 3
ENDMDL
MODEL 8
REMARK VINA RESULT:      -7.7      4.390      6.881
REMARK  3 active torsions:
REMARK  status: ('A' for Active; 'I' for Inactive)
REMARK    1  A    between atoms: O1_1  and  C1_2 
REMARK    2  A    between atoms: C8_9  and  C9_10 
REMARK    3  A    between atoms: C9_10  and  C10_11 
ROOT
HETATM    1  C1  UNL     1      25.459  -0.232  54.515  1.00  0.00     0.061 A 
HETATM    2  C2  UNL     1      26.533   0.517  54.656  1.00  0.00     0.036 A 
HETATM    3  C3  UNL     1      26.704   1.560  53.668  1.00  0.00     0.032 A 
HETATM    4  C4  UNL     1      25.879   1.802  52.669  1.00  0.00     0.032 A 
HETATM    5  C5  UNL     1      25.703   2.696  51.535  1.00  0.00     0.036 A 
HETATM    6  C6  UNL     1      24.566   2.433  50.836  1.00  0.00    -0.037 A 
HETATM    7  C7  UNL     1      24.393   3.363  49.648  1.00  0.00     0.043 C 
HETATM    8  C8  UNL     1      23.706   4.599  49.989  1.00  0.00    -0.002 C 
HETATM    9  C15 UNL     1      23.972   5.162  51.378  1.00  0.00     0.051 C 
HETATM   10  C16 UNL     1      23.529   4.240  52.465  1.00  0.00     0.086 C 
HETATM   11  N1  UNL     1      22.661   3.592  51.818  1.00  0.00    -0.274 NA
HETATM   12  C17 UNL     1      21.889   2.567  52.314  1.00  0.00     0.438 C 
HETATM   13  N2  UNL     1      22.585   1.561  52.054  1.00  0.00    -0.398 NA
HETATM   14  C18 UNL     1      23.832   1.310  51.442  1.00  0.00     0.202 A 
HETATM   15  N3  UNL     1      24.734   0.969  52.576  1.00  0.00    -0.351 N 
HETATM   16  C19 UNL     1      24.406  -0.144  53.478  1.00  0.00     0.189 A 
ENDROOT
BRANCH   8  17
HETATM   17  C9  UNL     1      23.858   5.694  48.990  1.00  0.00     0.040 C 
BRANCH  17  18
HETATM   18  C10 UNL     1      24.974   6.638  49.111  1.00  0.00    -0.070 A 
HETATM   19  C11 UNL     1      26.075   6.116  48.554  1.00  0.00     0.004 A 
HETATM   20  C12 UNL     1      27.415   6.656  48.423  1.00  0.00     0.007 A 
HETATM   21  C13 UNL     1      27.669   7.853  48.907  1.00  0.00     0.045 A 
HETATM   22  S1  UNL     1      26.473   8.873  49.724  1.00  0.00    -0.137 SA
HETATM   23  C14 UNL     1      24.886   8.000  49.683  1.00  0.00     0.112 A 
ENDBRANCH  17  18
ENDBRANCH   8  17
BRANCH   1  24
HETATM   24  O1  UNL     1      25.189  -1.262  55.399  1.00  0.00    -0.363 OA
HETATM   25  H1  UNL     1      25.780  -1.492  56.168  1.00  0.00     0.217 HD
ENDBRANCH   1  24
TORSDOF 3
ENDMDL
MODEL 9
REMARK VINA RESULT:      -7.7      4.100      6.920
REMARK  3 active torsions:
REMARK  status: ('A' for Active; 'I' for Inactive)
REMARK    1  A    between atoms: O1_1  and  C1_2 
REMARK    2  A    between atoms: C8_9  and  C9_10 
REMARK    3  A    between atoms: C9_10  and  C10_11 
ROOT
HETATM    1  C1  UNL     1      27.799   1.258  52.987  1.00  0.00     0.061 A 
HETATM    2  C2  UNL     1      27.741   0.003  52.591  1.00  0.00     0.036 A 
HETATM    3  C3  UNL     1      26.418  -0.581  52.552  1.00  0.00     0.032 A 
HETATM    4  C4  UNL     1      25.302   0.042  52.876  1.00  0.00     0.032 A 
HETATM    5  C5  UNL     1      23.868  -0.176  52.968  1.00  0.00     0.036 A 
HETATM    6  C6  UNL     1      23.197   0.933  53.381  1.00  0.00    -0.037 A 
HETATM    7  C7  UNL     1      21.701   0.697  53.484  1.00  0.00     0.043 C 
HETATM    8  C8  UNL     1      21.000   0.936  52.232  1.00  0.00    -0.002 C 
HETATM    9  C15 UNL     1      21.751   0.585  50.956  1.00  0.00     0.051 C 
HETATM   10  C16 UNL     1      22.997   1.389  50.784  1.00  0.00     0.086 C 
HETATM   11  N1  UNL     1      22.678   2.382  51.493  1.00  0.00    -0.274 NA
HETATM   12  C17 UNL     1      23.459   3.491  51.721  1.00  0.00     0.438 C 
HETATM   13  N2  UNL     1      24.080   3.169  52.757  1.00  0.00    -0.398 NA
HETATM   14  C18 UNL     1      24.130   2.048  53.613  1.00  0.00     0.202 A 
HETATM   15  N3  UNL     1      25.428   1.396  53.284  1.00  0.00    -0.351 N 
HETATM   16  C19 UNL     1      26.687   2.146  53.397  1.00  0.00     0.189 A 
ENDROOT
BRANCH   8  17
HETATM   17  C9  UNL     1      19.632   0.350  52.160  1.00  0.00     0.040 C 
BRANCH  17  18
HETATM   18  C10 UNL     1      18.648   0.917  51.233  1.00  0.00    -0.070 A 
HETATM   19  C11 UNL     1      17.884  -0.061  50.726  1.00  0.00     0.004 A 
HETATM   20  C12 UNL     1      16.786  -0.006  49.779  1.00  0.00     0.007 A 
HETATM   21  C13 UNL     1      16.422   1.160  49.292  1.00  0.00     0.045 A 
HETATM   22  S1  UNL     1      17.187   2.701  49.716  1.00  0.00    -0.137 SA
HETATM   23  C14 UNL     1      18.460   2.359  50.958  1.00  0.00     0.112 A 
ENDBRANCH  17  18
ENDBRANCH   8  17
BRANCH   1  24
HETATM   24  O1  UNL     1      29.010   1.925  53.064  1.00  0.00    -0.363 OA
HETATM   25  H1  UNL     1      29.749   1.646  53.672  1.00  0.00     0.217 HD
ENDBRANCH   1  24
TORSDOF 3
ENDMDL
