MODEL 1
REMARK VINA RESULT:      -8.3      0.000      0.000
REMARK  7 active torsions:
REMARK  status: ('A' for Active; 'I' for Inactive)
REMARK    1  A    between atoms: C4_4  and  N1_5 
REMARK    2  A    between atoms: N1_5  and  C5_6 
REMARK    3  A    between atoms: C5_6  and  N2_7 
REMARK    4  A    between atoms: C11_14  and  N4_16 
REMARK    5  A    between atoms: N4_16  and  C13_17 
REMARK    6  A    between atoms: C13_17  and  C14_18 
REMARK    7  A    between atoms: C17_21  and  O1_22 
ROOT
HETATM    1  C1  UNL     1      22.928   4.141  52.116  1.00  0.00     0.018 C 
HETATM    2  C2  UNL     1      24.242   3.521  51.784  1.00  0.00     0.064 C 
HETATM    3  C3  UNL     1      24.499   3.876  50.339  1.00  0.00    -0.027 C 
HETATM    4  C4  UNL     1      25.559   4.700  50.145  1.00  0.00     0.133 C 
HETATM    5  C6  UNL     1      23.785   3.358  49.137  1.00  0.00     0.305 C 
HETATM    6  N3  UNL     1      22.410   3.623  49.116  1.00  0.00     0.088 NA
HETATM    7  C7  UNL     1      21.624   2.852  48.132  1.00  0.00     0.282 C 
HETATM    8  C8  UNL     1      21.583   1.403  48.817  1.00  0.00     0.124 C 
HETATM    9  C9  UNL     1      22.490   1.579  49.922  1.00  0.00    -0.102 C 
HETATM   10  C10 UNL     1      23.182   1.732  50.753  1.00  0.00    -0.064 C 
HETATM   11  C11 UNL     1      24.104   1.963  51.847  1.00  0.00     0.223 C 
HETATM   12  C12 UNL     1      23.490   1.509  53.112  1.00  0.00     0.064 C 
HETATM   13  H9  UNL     1      22.209   4.625  48.921  1.00  0.00     0.316 HD
ENDROOT
BRANCH  11  14
HETATM   14  N4  UNL     1      25.351   1.363  51.570  1.00  0.00     0.109 N 
HETATM   15  H17 UNL     1      25.725   1.742  50.647  1.00  0.00     0.318 HD
BRANCH  14  16
HETATM   16  C13 UNL     1      26.391   1.616  52.525  1.00  0.00     0.310 C 
BRANCH  16  17
HETATM   17  C14 UNL     1      27.103   0.313  52.770  1.00  0.00    -0.030 A 
HETATM   18  C15 UNL     1      26.413  -0.843  52.381  1.00  0.00     0.011 A 
HETATM   19  C16 UNL     1      26.970  -2.093  52.556  1.00  0.00     0.037 A 
HETATM   20  C17 UNL     1      28.232  -2.162  53.131  1.00  0.00     0.065 A 
HETATM   21  C18 UNL     1      28.900  -1.016  53.509  1.00  0.00     0.037 A 
HETATM   22  C19 UNL     1      28.360   0.254  53.342  1.00  0.00     0.011 A 
BRANCH  20  23
HETATM   23  O1  UNL     1      28.734  -3.443  53.280  1.00  0.00    -0.361 OA
HETATM   24  H22 UNL     1      29.263  -3.951  52.584  1.00  0.00     0.217 HD
ENDBRANCH  20  23
ENDBRANCH  16  17
ENDBRANCH  14  16
ENDBRANCH  11  14
BRANCH   4  25
HETATM   25  N1  UNL     1      26.038   5.206  48.882  1.00  0.00    -0.200 NA
BRANCH  25  26
HETATM   26  C5  UNL     1      27.317   5.165  48.712  1.00  0.00     0.092 C 
BRANCH  26  27
HETATM   27  N2  UNL     1      28.595   5.173  48.886  1.00  0.00    -0.241 NA
HETATM   28  H6  UNL     1      29.004   5.565  49.750  1.00  0.00     0.199 HD
ENDBRANCH  26  27
ENDBRANCH  25  26
ENDBRANCH   4  25
TORSDOF 7
ENDMDL
MODEL 2
REMARK VINA RESULT:      -8.0      2.111      3.740
REMARK  7 active torsions:
REMARK  status: ('A' for Active; 'I' for Inactive)
REMARK    1  A    between atoms: C4_4  and  N1_5 
REMARK    2  A    between atoms: N1_5  and  C5_6 
REMARK    3  A    between atoms: C5_6  and  N2_7 
REMARK    4  A    between atoms: C11_14  and  N4_16 
REMARK    5  A    between atoms: N4_16  and  C13_17 
REMARK    6  A    between atoms: C13_17  and  C14_18 
REMARK    7  A    between atoms: C17_21  and  O1_22 
ROOT
HETATM    1  C1  UNL     1      22.503   3.725  52.439  1.00  0.00     0.018 C 
HETATM    2  C2  UNL     1      23.477   2.993  51.581  1.00  0.00     0.064 C 
HETATM    3  C3  UNL     1      22.648   2.036  50.759  1.00  0.00    -0.027 C 
HETATM    4  C4  UNL     1      22.644   2.298  49.429  1.00  0.00     0.133 C 
HETATM    5  C6  UNL     1      21.931   0.819  51.236  1.00  0.00     0.305 C 
HETATM    6  N3  UNL     1      20.958   1.061  52.215  1.00  0.00     0.088 NA
HETATM    7  C7  UNL     1      20.471  -0.130  52.942  1.00  0.00     0.282 C 
HETATM    8  C8  UNL     1      21.713  -0.448  53.904  1.00  0.00     0.124 C 
HETATM    9  C9  UNL     1      22.705   0.472  53.413  1.00  0.00    -0.102 C 
HETATM   10  C10 UNL     1      23.444   1.177  53.024  1.00  0.00    -0.064 C 
HETATM   11  C11 UNL     1      24.406   2.121  52.490  1.00  0.00     0.223 C 
HETATM   12  C12 UNL     1      24.996   2.902  53.596  1.00  0.00     0.064 C 
HETATM   13  H9  UNL     1      20.113   1.520  51.819  1.00  0.00     0.316 HD
ENDROOT
BRANCH  11  14
HETATM   14  N4  UNL     1      25.358   1.449  51.693  1.00  0.00     0.109 N 
HETATM   15  H17 UNL     1      25.359   1.874  50.715  1.00  0.00     0.318 HD
BRANCH  14  16
HETATM   16  C13 UNL     1      26.719   1.540  52.139  1.00  0.00     0.310 C 
BRANCH  16  17
HETATM   17  C14 UNL     1      27.183   0.143  52.451  1.00  0.00    -0.030 A 
HETATM   18  C15 UNL     1      28.428   0.041  53.086  1.00  0.00     0.011 A 
HETATM   19  C16 UNL     1      28.953  -1.190  53.421  1.00  0.00     0.037 A 
HETATM   20  C17 UNL     1      28.206  -2.318  53.105  1.00  0.00     0.065 A 
HETATM   21  C18 UNL     1      26.982  -2.201  52.480  1.00  0.00     0.037 A 
HETATM   22  C19 UNL     1      26.432  -0.973  52.133  1.00  0.00     0.011 A 
BRANCH  20  23
HETATM   23  O1  UNL     1      28.786  -3.521  53.467  1.00  0.00    -0.361 OA
HETATM   24  H22 UNL     1      28.461  -4.437  53.190  1.00  0.00     0.217 HD
ENDBRANCH  20  23
ENDBRANCH  16  17
ENDBRANCH  14  16
ENDBRANCH  11  14
BRANCH   4  25
HETATM   25  N1  UNL     1      21.943   1.560  48.407  1.00  0.00    -0.200 NA
BRANCH  25  26
HETATM   26  C5  UNL     1      20.771   2.005  48.099  1.00  0.00     0.092 C 
BRANCH  26  27
HETATM   27  N2  UNL     1      19.784   2.649  47.574  1.00  0.00    -0.241 NA
HETATM   28  H6  UNL     1      18.855   2.207  47.491  1.00  0.00     0.199 HD
ENDBRANCH  26  27
ENDBRANCH  25  26
ENDBRANCH   4  25
TORSDOF 7
ENDMDL
MODEL 3
REMARK VINA RESULT:      -8.0      2.661      4.437
REMARK  7 active torsions:
REMARK  status: ('A' for Active; 'I' for Inactive)
REMARK    1  A    between atoms: C4_4  and  N1_5 
REMARK    2  A    between atoms: N1_5  and  C5_6 
REMARK    3  A    between atoms: C5_6  and  N2_7 
REMARK    4  A    between atoms: C11_14  and  N4_16 
REMARK    5  A    between atoms: N4_16  and  C13_17 
REMARK    6  A    between atoms: C13_17  and  C14_18 
REMARK    7  A    between atoms: C17_21  and  O1_22 
ROOT
HETATM    1  C1  UNL     1      23.627   4.667  52.966  1.00  0.00     0.018 C 
HETATM    2  C2  UNL     1      23.779   3.242  52.558  1.00  0.00     0.064 C 
HETATM    3  C3  UNL     1      25.165   3.139  51.970  1.00  0.00    -0.027 C 
HETATM    4  C4  UNL     1      26.020   2.363  52.681  1.00  0.00     0.133 C 
HETATM    5  C6  UNL     1      25.648   3.711  50.681  1.00  0.00     0.305 C 
HETATM    6  N3  UNL     1      25.547   5.105  50.587  1.00  0.00     0.088 NA
HETATM    7  C7  UNL     1      25.694   5.669  49.230  1.00  0.00     0.282 C 
HETATM    8  C8  UNL     1      24.289   5.277  48.564  1.00  0.00     0.124 C 
HETATM    9  C9  UNL     1      23.717   4.425  49.575  1.00  0.00    -0.102 C 
HETATM   10  C10 UNL     1      23.301   3.781  50.353  1.00  0.00    -0.064 C 
HETATM   11  C11 UNL     1      22.773   2.930  51.401  1.00  0.00     0.223 C 
HETATM   12  C12 UNL     1      21.396   3.353  51.730  1.00  0.00     0.064 C 
HETATM   13  H9  UNL     1      26.256   5.588  51.176  1.00  0.00     0.316 HD
ENDROOT
BRANCH  11  14
HETATM   14  N4  UNL     1      22.881   1.573  51.029  1.00  0.00     0.109 N 
HETATM   15  H17 UNL     1      23.679   1.122  51.573  1.00  0.00     0.318 HD
BRANCH  14  16
HETATM   16  C13 UNL     1      21.733   0.757  51.307  1.00  0.00     0.310 C 
BRANCH  16  17
HETATM   17  C14 UNL     1      22.001   0.031  52.597  1.00  0.00    -0.030 A 
HETATM   18  C15 UNL     1      23.350  -0.135  52.936  1.00  0.00     0.011 A 
HETATM   19  C16 UNL     1      23.715  -0.786  54.097  1.00  0.00     0.037 A 
HETATM   20  C17 UNL     1      22.699  -1.268  54.912  1.00  0.00     0.065 A 
HETATM   21  C18 UNL     1      21.375  -1.097  54.566  1.00  0.00     0.037 A 
HETATM   22  C19 UNL     1      20.983  -0.446  53.402  1.00  0.00     0.011 A 
BRANCH  20  23
HETATM   23  O1  UNL     1      23.129  -1.910  56.059  1.00  0.00    -0.361 OA
HETATM   24  H22 UNL     1      23.752  -1.519  56.753  1.00  0.00     0.217 HD
ENDBRANCH  20  23
ENDBRANCH  16  17
ENDBRANCH  14  16
ENDBRANCH  11  14
BRANCH   4  25
HETATM   25  N1  UNL     1      27.399   2.084  52.365  1.00  0.00    -0.200 NA
BRANCH  25  26
HETATM   26  C5  UNL     1      28.233   2.207  53.343  1.00  0.00     0.092 C 
BRANCH  26  27
HETATM   27  N2  UNL     1      29.254   2.493  54.079  1.00  0.00    -0.241 NA
HETATM   28  H6  UNL     1      30.209   2.260  53.763  1.00  0.00     0.199 HD
ENDBRANCH  26  27
ENDBRANCH  25  26
ENDBRANCH   4  25
TORSDOF 7
ENDMDL
MODEL 4
REMARK VINA RESULT:      -7.7      1.634      2.051
REMARK  7 active torsions:
REMARK  status: ('A' for Active; 'I' for Inactive)
REMARK    1  A    between atoms: C4_4  and  N1_5 
REMARK    2  A    between atoms: N1_5  and  C5_6 
REMARK    3  A    between atoms: C5_6  and  N2_7 
REMARK    4  A    between atoms: C11_14  and  N4_16 
REMARK    5  A    between atoms: N4_16  and  C13_17 
REMARK    6  A    between atoms: C13_17  and  C14_18 
REMARK    7  A    between atoms: C17_21  and  O1_22 
ROOT
HETATM    1  C1  UNL     1      22.734   3.914  52.204  1.00  0.00     0.018 C 
HETATM    2  C2  UNL     1      24.025   3.232  51.908  1.00  0.00     0.064 C 
HETATM    3  C3  UNL     1      24.337   3.572  50.470  1.00  0.00    -0.027 C 
HETATM    4  C4  UNL     1      25.439   4.345  50.304  1.00  0.00     0.133 C 
HETATM    5  C6  UNL     1      23.633   3.087  49.250  1.00  0.00     0.305 C 
HETATM    6  N3  UNL     1      22.272   3.416  49.192  1.00  0.00     0.088 NA
HETATM    7  C7  UNL     1      21.477   2.680  48.187  1.00  0.00     0.282 C 
HETATM    8  C8  UNL     1      21.350   1.236  48.872  1.00  0.00     0.124 C 
HETATM    9  C9  UNL     1      22.235   1.371  50.000  1.00  0.00    -0.102 C 
HETATM   10  C10 UNL     1      22.910   1.494  50.850  1.00  0.00    -0.064 C 
HETATM   11  C11 UNL     1      23.813   1.683  51.969  1.00  0.00     0.223 C 
HETATM   12  C12 UNL     1      23.144   1.261  53.217  1.00  0.00     0.064 C 
HETATM   13  H9  UNL     1      22.124   4.426  48.990  1.00  0.00     0.316 HD
ENDROOT
BRANCH  11  14
HETATM   14  N4  UNL     1      25.037   1.024  51.725  1.00  0.00     0.109 N 
HETATM   15  H17 UNL     1      25.820   1.747  51.672  1.00  0.00     0.318 HD
BRANCH  14  16
HETATM   16  C13 UNL     1      25.457   0.095  52.735  1.00  0.00     0.310 C 
BRANCH  16  17
HETATM   17  C14 UNL     1      26.715   0.642  53.353  1.00  0.00    -0.030 A 
HETATM   18  C15 UNL     1      27.134   1.892  52.881  1.00  0.00     0.011 A 
HETATM   19  C16 UNL     1      28.274   2.491  53.377  1.00  0.00     0.037 A 
HETATM   20  C17 UNL     1      28.986   1.811  54.356  1.00  0.00     0.065 A 
HETATM   21  C18 UNL     1      28.561   0.581  54.811  1.00  0.00     0.037 A 
HETATM   22  C19 UNL     1      27.417  -0.043  54.328  1.00  0.00     0.011 A 
BRANCH  20  23
HETATM   23  O1  UNL     1      30.118   2.463  54.811  1.00  0.00    -0.361 OA
HETATM   24  H22 UNL     1      30.657   3.140  54.287  1.00  0.00     0.217 HD
ENDBRANCH  20  23
ENDBRANCH  16  17
ENDBRANCH  14  16
ENDBRANCH  11  14
BRANCH   4  25
HETATM   25  N1  UNL     1      25.975   4.826  49.054  1.00  0.00    -0.200 NA
BRANCH  25  26
HETATM   26  C5  UNL     1      27.262   4.816  48.957  1.00  0.00     0.092 C 
BRANCH  26  27
HETATM   27  N2  UNL     1      28.483   5.009  48.586  1.00  0.00    -0.241 NA
HETATM   28  H6  UNL     1      28.823   4.634  47.685  1.00  0.00     0.199 HD
ENDBRANCH  26  27
ENDBRANCH  25  26
ENDBRANCH   4  25
TORSDOF 7
ENDMDL
MODEL 5
REMARK VINA RESULT:      -7.6      1.097      1.489
REMARK  7 active torsions:
REMARK  status: ('A' for Active; 'I' for Inactive)
REMARK    1  A    between atoms: C4_4  and  N1_5 
REMARK    2  A    between atoms: N1_5  and  C5_6 
REMARK    3  A    between atoms: C5_6  and  N2_7 
REMARK    4  A    between atoms: C11_14  and  N4_16 
REMARK    5  A    between atoms: N4_16  and  C13_17 
REMARK    6  A    between atoms: C13_17  and  C14_18 
REMARK    7  A    between atoms: C17_21  and  O1_22 
ROOT
HETATM    1  C1  UNL     1      22.016   3.782  52.316  1.00  0.00     0.018 C 
HETATM    2  C2  UNL     1      23.454   3.488  52.057  1.00  0.00     0.064 C 
HETATM    3  C3  UNL     1      23.749   4.095  50.706  1.00  0.00    -0.027 C 
HETATM    4  C4  UNL     1      24.624   5.130  50.736  1.00  0.00     0.133 C 
HETATM    5  C6  UNL     1      23.263   3.628  49.377  1.00  0.00     0.305 C 
HETATM    6  N3  UNL     1      21.869   3.617  49.236  1.00  0.00     0.088 NA
HETATM    7  C7  UNL     1      21.347   2.859  48.081  1.00  0.00     0.282 C 
HETATM    8  C8  UNL     1      21.555   1.346  48.570  1.00  0.00     0.124 C 
HETATM    9  C9  UNL     1      22.310   1.533  49.782  1.00  0.00    -0.102 C 
HETATM   10  C10 UNL     1      22.883   1.697  50.697  1.00  0.00    -0.064 C 
HETATM   11  C11 UNL     1      23.642   1.942  51.908  1.00  0.00     0.223 C 
HETATM   12  C12 UNL     1      23.034   1.196  53.029  1.00  0.00     0.064 C 
HETATM   13  H9  UNL     1      21.479   4.578  49.148  1.00  0.00     0.316 HD
ENDROOT
BRANCH  11  14
HETATM   14  N4  UNL     1      25.006   1.646  51.697  1.00  0.00     0.109 N 
HETATM   15  H17 UNL     1      25.416   2.352  51.012  1.00  0.00     0.318 HD
BRANCH  14  16
HETATM   16  C13 UNL     1      25.846   1.721  52.858  1.00  0.00     0.310 C 
BRANCH  16  17
HETATM   17  C14 UNL     1      26.633   0.440  52.926  1.00  0.00    -0.030 A 
HETATM   18  C15 UNL     1      27.924   0.543  53.459  1.00  0.00     0.011 A 
HETATM   19  C16 UNL     1      28.736  -0.567  53.570  1.00  0.00     0.037 A 
HETATM   20  C17 UNL     1      28.227  -1.784  53.136  1.00  0.00     0.065 A 
HETATM   21  C18 UNL     1      26.954  -1.871  52.614  1.00  0.00     0.037 A 
HETATM   22  C19 UNL     1      26.118  -0.768  52.491  1.00  0.00     0.011 A 
BRANCH  20  23
HETATM   23  O1  UNL     1      29.089  -2.858  53.275  1.00  0.00    -0.361 OA
HETATM   24  H22 UNL     1      28.815  -3.807  53.487  1.00  0.00     0.217 HD
ENDBRANCH  20  23
ENDBRANCH  16  17
ENDBRANCH  14  16
ENDBRANCH  11  14
BRANCH   4  25
HETATM   25  N1  UNL     1      25.089   5.900  49.608  1.00  0.00    -0.200 NA
BRANCH  25  26
HETATM   26  C5  UNL     1      25.888   6.875  49.888  1.00  0.00     0.092 C 
BRANCH  26  27
HETATM   27  N2  UNL     1      26.492   7.865  50.453  1.00  0.00    -0.241 NA
HETATM   28  H6  UNL     1      27.519   7.953  50.397  1.00  0.00     0.199 HD
ENDBRANCH  26  27
ENDBRANCH  25  26
ENDBRANCH   4  25
TORSDOF 7
ENDMDL
MODEL 6
REMARK VINA RESULT:      -7.4      2.897      5.061
REMARK  7 active torsions:
REMARK  status: ('A' for Active; 'I' for Inactive)
REMARK    1  A    between atoms: C4_4  and  N1_5 
REMARK    2  A    between atoms: N1_5  and  C5_6 
REMARK    3  A    between atoms: C5_6  and  N2_7 
REMARK    4  A    between atoms: C11_14  and  N4_16 
REMARK    5  A    between atoms: N4_16  and  C13_17 
REMARK    6  A    between atoms: C13_17  and  C14_18 
REMARK    7  A    between atoms: C17_21  and  O1_22 
ROOT
HETATM    1  C1  UNL     1      21.471   0.901  49.452  1.00  0.00     0.018 C 
HETATM    2  C2  UNL     1      22.198   1.143  50.730  1.00  0.00     0.064 C 
HETATM    3  C3  UNL     1      21.219   0.785  51.822  1.00  0.00    -0.027 C 
HETATM    4  C4  UNL     1      21.575  -0.294  52.563  1.00  0.00     0.133 C 
HETATM    5  C6  UNL     1      19.986   1.527  52.213  1.00  0.00     0.305 C 
HETATM    6  N3  UNL     1      19.035   1.657  51.193  1.00  0.00     0.088 NA
HETATM    7  C7  UNL     1      17.971   2.654  51.432  1.00  0.00     0.282 C 
HETATM    8  C8  UNL     1      18.763   4.029  51.204  1.00  0.00     0.124 C 
HETATM    9  C9  UNL     1      20.121   3.565  51.080  1.00  0.00    -0.102 C 
HETATM   10  C10 UNL     1      21.144   3.193  50.989  1.00  0.00    -0.064 C 
HETATM   11  C11 UNL     1      22.492   2.673  50.872  1.00  0.00     0.223 C 
HETATM   12  C12 UNL     1      23.131   3.232  49.663  1.00  0.00     0.064 C 
HETATM   13  H9  UNL     1      18.547   0.759  50.999  1.00  0.00     0.316 HD
ENDROOT
BRANCH  11  14
HETATM   14  N4  UNL     1      23.212   2.912  52.062  1.00  0.00     0.109 N 
HETATM   15  H17 UNL     1      23.110   2.071  52.709  1.00  0.00     0.318 HD
BRANCH  14  16
HETATM   16  C13 UNL     1      24.628   3.093  51.908  1.00  0.00     0.310 C 
BRANCH  16  17
HETATM   17  C14 UNL     1      25.288   1.788  52.263  1.00  0.00    -0.030 A 
HETATM   18  C15 UNL     1      24.778   1.133  53.392  1.00  0.00     0.011 A 
HETATM   19  C16 UNL     1      25.306  -0.071  53.811  1.00  0.00     0.037 A 
HETATM   20  C17 UNL     1      26.357  -0.605  53.077  1.00  0.00     0.065 A 
HETATM   21  C18 UNL     1      26.849   0.052  51.968  1.00  0.00     0.037 A 
HETATM   22  C19 UNL     1      26.334   1.264  51.526  1.00  0.00     0.011 A 
BRANCH  20  23
HETATM   23  O1  UNL     1      26.841  -1.812  53.548  1.00  0.00    -0.361 OA
HETATM   24  H22 UNL     1      27.426  -2.453  53.029  1.00  0.00     0.217 HD
ENDBRANCH  20  23
ENDBRANCH  16  17
ENDBRANCH  14  16
ENDBRANCH  11  14
BRANCH   4  25
HETATM   25  N1  UNL     1      20.839  -0.865  53.664  1.00  0.00    -0.200 NA
BRANCH  25  26
HETATM   26  C5  UNL     1      21.549  -1.253  54.670  1.00  0.00     0.092 C 
BRANCH  26  27
HETATM   27  N2  UNL     1      22.496  -1.695  55.427  1.00  0.00    -0.241 NA
HETATM   28  H6  UNL     1      23.165  -2.399  55.072  1.00  0.00     0.199 HD
ENDBRANCH  26  27
ENDBRANCH  25  26
ENDBRANCH   4  25
TORSDOF 7
ENDMDL
MODEL 7
REMARK VINA RESULT:      -7.2      2.407      4.479
REMARK  7 active torsions:
REMARK  status: ('A' for Active; 'I' for Inactive)
REMARK    1  A    between atoms: C4_4  and  N1_5 
REMARK    2  A    between atoms: N1_5  and  C5_6 
REMARK    3  A    between atoms: C5_6  and  N2_7 
REMARK    4  A    between atoms: C11_14  and  N4_16 
REMARK    5  A    between atoms: N4_16  and  C13_17 
REMARK    6  A    between atoms: C13_17  and  C14_18 
REMARK    7  A    between atoms: C17_21  and  O1_22 
ROOT
HETATM    1  C1  UNL     1      23.407   3.300  48.836  1.00  0.00     0.018 C 
HETATM    2  C2  UNL     1      23.885   2.848  50.173  1.00  0.00     0.064 C 
HETATM    3  C3  UNL     1      22.822   3.289  51.149  1.00  0.00    -0.027 C 
HETATM    4  C4  UNL     1      22.156   2.272  51.750  1.00  0.00     0.133 C 
HETATM    5  C6  UNL     1      22.503   4.682  51.573  1.00  0.00     0.305 C 
HETATM    6  N3  UNL     1      22.115   5.534  50.531  1.00  0.00     0.088 NA
HETATM    7  C7  UNL     1      22.117   6.977  50.849  1.00  0.00     0.282 C 
HETATM    8  C8  UNL     1      23.687   7.302  50.860  1.00  0.00     0.124 C 
HETATM    9  C9  UNL     1      24.257   5.984  50.745  1.00  0.00    -0.102 C 
HETATM   10  C10 UNL     1      24.669   4.977  50.658  1.00  0.00    -0.064 C 
HETATM   11  C11 UNL     1      25.190   3.628  50.542  1.00  0.00     0.223 C 
HETATM   12  C12 UNL     1      26.194   3.580  49.459  1.00  0.00     0.064 C 
HETATM   13  H9  UNL     1      21.157   5.319  50.187  1.00  0.00     0.316 HD
ENDROOT
BRANCH  11  14
HETATM   14  N4  UNL     1      25.674   3.184  51.791  1.00  0.00     0.109 N 
HETATM   15  H17 UNL     1      24.856   2.841  52.383  1.00  0.00     0.318 HD
BRANCH  14  16
HETATM   16  C13 UNL     1      26.589   2.079  51.747  1.00  0.00     0.310 C 
BRANCH  16  17
HETATM   17  C14 UNL     1      26.234   1.157  52.882  1.00  0.00    -0.030 A 
HETATM   18  C15 UNL     1      25.104   0.352  52.685  1.00  0.00     0.011 A 
HETATM   19  C16 UNL     1      24.686  -0.532  53.658  1.00  0.00     0.037 A 
HETATM   20  C17 UNL     1      25.423  -0.593  54.834  1.00  0.00     0.065 A 
HETATM   21  C18 UNL     1      26.533   0.205  55.013  1.00  0.00     0.037 A 
HETATM   22  C19 UNL     1      26.974   1.102  54.049  1.00  0.00     0.011 A 
BRANCH  20  23
HETATM   23  O1  UNL     1      24.952  -1.498  55.769  1.00  0.00    -0.361 OA
HETATM   24  H22 UNL     1      25.485  -1.875  56.542  1.00  0.00     0.217 HD
ENDBRANCH  20  23
ENDBRANCH  16  17
ENDBRANCH  14  16
ENDBRANCH  11  14
BRANCH   4  25
HETATM   25  N1  UNL     1      21.094   2.390  52.720  1.00  0.00    -0.200 NA
BRANCH  25  26
HETATM   26  C5  UNL     1      19.945   2.747  52.250  1.00  0.00     0.092 C 
BRANCH  26  27
HETATM   27  N2  UNL     1      18.924   3.421  51.843  1.00  0.00    -0.241 NA
HETATM   28  H6  UNL     1      18.630   4.278  52.339  1.00  0.00     0.199 HD
ENDBRANCH  26  27
ENDBRANCH  25  26
ENDBRANCH   4  25
TORSDOF 7
ENDMDL
MODEL 8
REMARK VINA RESULT:      -7.1      2.265      2.907
REMARK  7 active torsions:
REMARK  status: ('A' for Active; 'I' for Inactive)
REMARK    1  A    between atoms: C4_4  and  N1_5 
REMARK    2  A    between atoms: N1_5  and  C5_6 
REMARK    3  A    between atoms: C5_6  and  N2_7 
REMARK    4  A    between atoms: C11_14  and  N4_16 
REMARK    5  A    between atoms: N4_16  and  C13_17 
REMARK    6  A    between atoms: C13_17  and  C14_18 
REMARK    7  A    between atoms: C17_21  and  O1_22 
ROOT
HETATM    1  C1  UNL     1      20.217   3.702  51.816  1.00  0.00     0.018 C 
HETATM    2  C2  UNL     1      21.550   3.370  52.392  1.00  0.00     0.064 C 
HETATM    3  C3  UNL     1      22.558   3.838  51.370  1.00  0.00    -0.027 C 
HETATM    4  C4  UNL     1      23.342   4.863  51.784  1.00  0.00     0.133 C 
HETATM    5  C6  UNL     1      22.828   3.248  50.028  1.00  0.00     0.305 C 
HETATM    6  N3  UNL     1      21.727   3.237  49.162  1.00  0.00     0.088 NA
HETATM    7  C7  UNL     1      21.857   2.373  47.971  1.00  0.00     0.282 C 
HETATM    8  C8  UNL     1      21.680   0.914  48.611  1.00  0.00     0.124 C 
HETATM    9  C9  UNL     1      21.681   1.212  50.019  1.00  0.00    -0.102 C 
HETATM   10  C10 UNL     1      21.685   1.459  51.083  1.00  0.00    -0.064 C 
HETATM   11  C11 UNL     1      21.694   1.815  52.489  1.00  0.00     0.223 C 
HETATM   12  C12 UNL     1      20.538   1.189  53.162  1.00  0.00     0.064 C 
HETATM   13  H9  UNL     1      21.504   4.187  48.804  1.00  0.00     0.316 HD
ENDROOT
BRANCH  11  14
HETATM   14  N4  UNL     1      22.939   1.486  53.067  1.00  0.00     0.109 N 
HETATM   15  H17 UNL     1      22.787   1.184  54.078  1.00  0.00     0.318 HD
BRANCH  14  16
HETATM   16  C13 UNL     1      23.643   0.396  52.454  1.00  0.00     0.310 C 
BRANCH  16  17
HETATM   17  C14 UNL     1      25.113   0.642  52.654  1.00  0.00    -0.030 A 
HETATM   18  C15 UNL     1      25.598   1.867  52.179  1.00  0.00     0.011 A 
HETATM   19  C16 UNL     1      26.931   2.200  52.309  1.00  0.00     0.037 A 
HETATM   20  C17 UNL     1      27.769   1.279  52.924  1.00  0.00     0.065 A 
HETATM   21  C18 UNL     1      27.277   0.077  53.388  1.00  0.00     0.037 A 
HETATM   22  C19 UNL     1      25.940  -0.281  53.269  1.00  0.00     0.011 A 
BRANCH  20  23
HETATM   23  O1  UNL     1      29.092   1.673  53.024  1.00  0.00    -0.361 OA
HETATM   24  H22 UNL     1      29.503   2.474  52.563  1.00  0.00     0.217 HD
ENDBRANCH  20  23
ENDBRANCH  16  17
ENDBRANCH  14  16
ENDBRANCH  11  14
BRANCH   4  25
HETATM   25  N1  UNL     1      24.383   5.514  51.027  1.00  0.00    -0.200 NA
BRANCH  25  26
HETATM   26  C5  UNL     1      24.344   6.804  51.017  1.00  0.00     0.092 C 
BRANCH  26  27
HETATM   27  N2  UNL     1      24.223   8.047  51.341  1.00  0.00    -0.241 NA
HETATM   28  H6  UNL     1      23.941   8.314  52.298  1.00  0.00     0.199 HD
ENDBRANCH  26  27
ENDBRANCH  25  26
ENDBRANCH   4  25
TORSDOF 7
ENDMDL
MODEL 9
REMARK VINA RESULT:      -6.8      1.660      2.148
REMARK  7 active torsions:
REMARK  status: ('A' for Active; 'I' for Inactive)
REMARK    1  A    between atoms: C4_4  and  N1_5 
REMARK    2  A    between atoms: N1_5  and  C5_6 
REMARK    3  A    between atoms: C5_6  and  N2_7 
REMARK    4  A    between atoms: C11_14  and  N4_16 
REMARK    5  A    between atoms: N4_16  and  C13_17 
REMARK    6  A    between atoms: C13_17  and  C14_18 
REMARK    7  A    between atoms: C17_21  and  O1_22 
ROOT
HETATM    1  C1  UNL     1      22.913   4.103  52.722  1.00  0.00     0.018 C 
HETATM    2  C2  UNL     1      24.045   3.629  51.877  1.00  0.00     0.064 C 
HETATM    3  C3  UNL     1      23.482   3.510  50.481  1.00  0.00    -0.027 C 
HETATM    4  C4  UNL     1      24.012   4.380  49.586  1.00  0.00     0.133 C 
HETATM    5  C6  UNL     1      22.499   2.506  49.984  1.00  0.00     0.305 C 
HETATM    6  N3  UNL     1      21.264   2.520  50.645  1.00  0.00     0.088 NA
HETATM    7  C7  UNL     1      20.401   1.343  50.417  1.00  0.00     0.282 C 
HETATM    8  C8  UNL     1      21.139   0.227  51.301  1.00  0.00     0.124 C 
HETATM    9  C9  UNL     1      22.345   0.913  51.686  1.00  0.00    -0.102 C 
HETATM   10  C10 UNL     1      23.254   1.450  51.967  1.00  0.00    -0.064 C 
HETATM   11  C11 UNL     1      24.450   2.186  52.325  1.00  0.00     0.223 C 
HETATM   12  C12 UNL     1      24.666   2.095  53.783  1.00  0.00     0.064 C 
HETATM   13  H9  UNL     1      20.692   3.349  50.385  1.00  0.00     0.316 HD
ENDROOT
BRANCH  11  14
HETATM   14  N4  UNL     1      25.546   1.738  51.556  1.00  0.00     0.109 N 
HETATM   15  H17 UNL     1      25.592   2.300  50.651  1.00  0.00     0.318 HD
BRANCH  14  16
HETATM   16  C13 UNL     1      26.838   1.900  52.160  1.00  0.00     0.310 C 
BRANCH  16  17
HETATM   17  C14 UNL     1      27.351   0.526  52.499  1.00  0.00    -0.030 A 
HETATM   18  C15 UNL     1      26.536  -0.544  52.106  1.00  0.00     0.011 A 
HETATM   19  C16 UNL     1      26.905  -1.847  52.364  1.00  0.00     0.037 A 
HETATM   20  C17 UNL     1      28.109  -2.058  53.025  1.00  0.00     0.065 A 
HETATM   21  C18 UNL     1      28.900  -0.995  53.405  1.00  0.00     0.037 A 
HETATM   22  C19 UNL     1      28.550   0.326  53.157  1.00  0.00     0.011 A 
BRANCH  20  23
HETATM   23  O1  UNL     1      28.422  -3.386  53.253  1.00  0.00    -0.361 OA
HETATM   24  H22 UNL     1      28.306  -3.875  54.131  1.00  0.00     0.217 HD
ENDBRANCH  20  23
ENDBRANCH  16  17
ENDBRANCH  14  16
ENDBRANCH  11  14
BRANCH   4  25
HETATM   25  N1  UNL     1      23.668   4.498  48.190  1.00  0.00    -0.200 NA
BRANCH  25  26
HETATM   26  C5  UNL     1      22.945   5.520  47.877  1.00  0.00     0.092 C 
BRANCH  26  27
HETATM   27  N2  UNL     1      22.081   6.315  47.342  1.00  0.00    -0.241 NA
HETATM   28  H6  UNL     1      21.143   5.970  47.080  1.00  0.00     0.199 HD
ENDBRANCH  26  27
ENDBRANCH  25  26
ENDBRANCH   4  25
TORSDOF 7
ENDMDL
