MODEL 1
REMARK VINA RESULT:      -9.0      0.000      0.000
REMARK  2 active torsions:
REMARK  status: ('A' for Active; 'I' for Inactive)
REMARK    1  A    between atoms: C2_3  and  C17_20 
REMARK    2  A    between atoms: C3_4  and  C4_5 
REMARK       I    between atoms: C17_20  and  N2_21 
ROOT
HETATM    1  N1  UNL     1      28.562   2.041  54.003  1.00  0.00    -0.191 NA
HETATM    2  C1  UNL     1      28.506   0.897  53.674  1.00  0.00     0.105 C 
HETATM    3  C2  UNL     1      28.419  -0.466  53.303  1.00  0.00     0.112 C 
HETATM    4  C3  UNL     1      27.350  -0.913  52.517  1.00  0.00     0.034 C 
ENDROOT
BRANCH   3   5
HETATM    5  C17 UNL     1      29.351  -1.610  53.559  1.00  0.00     0.260 C 
HETATM    6  N2  UNL     1      28.836  -2.889  53.265  1.00  0.00    -0.365 N 
HETATM    7  H15 UNL     1      28.471  -3.850  53.021  1.00  0.00     0.159 HD
HETATM    8  H16 UNL     1      29.431  -2.881  52.368  1.00  0.00     0.159 HD
HETATM    9  O2  UNL     1      30.433  -1.282  54.001  1.00  0.00    -0.267 OA
ENDBRANCH   3   5
BRANCH   4  10
HETATM   10  C4  UNL     1      26.389   0.195  52.152  1.00  0.00    -0.041 A 
HETATM   11  C5  UNL     1      25.817   1.440  51.860  1.00  0.00     0.166 A 
HETATM   12  O1  UNL     1      25.434   2.803  51.598  1.00  0.00    -0.353 OA
HETATM   13  C16 UNL     1      24.943   0.436  52.479  1.00  0.00     0.086 A 
HETATM   14  C6  UNL     1      26.310   3.266  50.495  1.00  0.00     0.132 C 
HETATM   15  C7  UNL     1      25.402   3.459  49.592  1.00  0.00     0.007 C 
HETATM   16  C8  UNL     1      23.959   3.438  49.154  1.00  0.00     0.044 C 
HETATM   17  C9  UNL     1      22.746   3.184  49.514  1.00  0.00    -0.017 C 
HETATM   18  C10 UNL     1      21.611   3.313  48.696  1.00  0.00     0.003 C 
HETATM   19  C11 UNL     1      20.904   2.963  49.700  1.00  0.00     0.045 C 
HETATM   20  S1  UNL     1      19.778   2.475  51.055  1.00  0.00    -0.138 SA
HETATM   21  C12 UNL     1      20.589   2.586  52.677  1.00  0.00     0.105 C 
HETATM   22  C13 UNL     1      21.809   1.694  52.764  1.00  0.00    -0.020 C 
HETATM   23  C14 UNL     1      22.649   0.655  53.057  1.00  0.00    -0.029 C 
HETATM   24  C15 UNL     1      23.873  -0.195  53.124  1.00  0.00     0.005 C 
ENDBRANCH   4  10
TORSDOF 2
ENDMDL
MODEL 2
REMARK VINA RESULT:      -8.1      1.735      3.680
REMARK  2 active torsions:
REMARK  status: ('A' for Active; 'I' for Inactive)
REMARK    1  A    between atoms: C2_3  and  C17_20 
REMARK    2  A    between atoms: C3_4  and  C4_5 
REMARK       I    between atoms: C17_20  and  N2_21 
ROOT
HETATM    1  N1  UNL     1      26.792  -1.472  52.511  1.00  0.00    -0.191 NA
HETATM    2  C1  UNL     1      27.251  -0.463  52.949  1.00  0.00     0.105 C 
HETATM    3  C2  UNL     1      27.799   0.745  53.443  1.00  0.00     0.112 C 
HETATM    4  C3  UNL     1      27.025   1.912  53.460  1.00  0.00     0.034 C 
ENDROOT
BRANCH   3   5
HETATM    5  C17 UNL     1      29.135   1.034  54.054  1.00  0.00     0.260 C 
HETATM    6  N2  UNL     1      30.226   0.350  53.481  1.00  0.00    -0.365 N 
HETATM    7  H15 UNL     1      31.054  -0.136  53.039  1.00  0.00     0.159 HD
HETATM    8  H16 UNL     1      30.490   1.267  52.983  1.00  0.00     0.159 HD
HETATM    9  O2  UNL     1      29.100   1.819  54.980  1.00  0.00    -0.267 OA
ENDBRANCH   3   5
BRANCH   4  10
HETATM   10  C4  UNL     1      25.629   1.696  52.921  1.00  0.00    -0.041 A 
HETATM   11  C5  UNL     1      24.392   1.142  52.570  1.00  0.00     0.166 A 
HETATM   12  O1  UNL     1      23.196   0.384  52.309  1.00  0.00    -0.353 OA
HETATM   13  C16 UNL     1      24.935   2.171  51.676  1.00  0.00     0.086 A 
HETATM   14  C6  UNL     1      22.700  -0.062  53.633  1.00  0.00     0.132 C 
HETATM   15  C7  UNL     1      21.578   0.584  53.650  1.00  0.00     0.007 C 
HETATM   16  C8  UNL     1      20.592   1.523  53.001  1.00  0.00     0.044 C 
HETATM   17  C9  UNL     1      20.343   2.244  51.960  1.00  0.00    -0.017 C 
HETATM   18  C10 UNL     1      19.196   3.034  51.772  1.00  0.00     0.003 C 
HETATM   19  C11 UNL     1      19.649   3.336  50.618  1.00  0.00     0.045 C 
HETATM   20  S1  UNL     1      20.182   3.849  48.945  1.00  0.00    -0.138 SA
HETATM   21  C12 UNL     1      21.494   2.772  48.298  1.00  0.00     0.105 C 
HETATM   22  C13 UNL     1      22.722   2.779  49.182  1.00  0.00    -0.020 C 
HETATM   23  C14 UNL     1      23.971   3.031  49.683  1.00  0.00    -0.029 C 
HETATM   24  C15 UNL     1      25.163   3.009  50.578  1.00  0.00     0.005 C 
ENDBRANCH   4  10
TORSDOF 2
ENDMDL
MODEL 3
REMARK VINA RESULT:      -8.0      1.951      2.321
REMARK  2 active torsions:
REMARK  status: ('A' for Active; 'I' for Inactive)
REMARK    1  A    between atoms: C2_3  and  C17_20 
REMARK    2  A    between atoms: C3_4  and  C4_5 
REMARK       I    between atoms: C17_20  and  N2_21 
ROOT
HETATM    1  N1  UNL     1      27.208   2.669  51.467  1.00  0.00    -0.191 NA
HETATM    2  C1  UNL     1      27.256   1.872  52.352  1.00  0.00     0.105 C 
HETATM    3  C2  UNL     1      27.309   0.945  53.420  1.00  0.00     0.112 C 
HETATM    4  C3  UNL     1      26.125   0.494  54.017  1.00  0.00     0.034 C 
ENDROOT
BRANCH   3   5
HETATM    5  C17 UNL     1      28.473   0.251  54.056  1.00  0.00     0.260 C 
HETATM    6  N2  UNL     1      29.737   0.572  53.521  1.00  0.00    -0.365 N 
HETATM    7  H15 UNL     1      30.692   0.827  53.147  1.00  0.00     0.159 HD
HETATM    8  H16 UNL     1      29.904   1.190  54.386  1.00  0.00     0.159 HD
HETATM    9  O2  UNL     1      28.170  -0.513  54.950  1.00  0.00    -0.267 OA
ENDBRANCH   3   5
BRANCH   4  10
HETATM   10  C4  UNL     1      24.887   1.095  53.388  1.00  0.00    -0.041 A 
HETATM   11  C5  UNL     1      23.892   1.978  52.952  1.00  0.00     0.166 A 
HETATM   12  O1  UNL     1      22.992   3.046  52.604  1.00  0.00    -0.353 OA
HETATM   13  C16 UNL     1      23.473   0.606  53.260  1.00  0.00     0.086 A 
HETATM   14  C6  UNL     1      23.798   4.020  51.828  1.00  0.00     0.132 C 
HETATM   15  C7  UNL     1      23.182   3.924  50.693  1.00  0.00     0.007 C 
HETATM   16  C8  UNL     1      22.097   3.325  49.833  1.00  0.00     0.044 C 
HETATM   17  C9  UNL     1      21.104   2.501  49.800  1.00  0.00    -0.017 C 
HETATM   18  C10 UNL     1      20.307   2.232  48.676  1.00  0.00     0.003 C 
HETATM   19  C11 UNL     1      19.615   1.450  49.410  1.00  0.00     0.045 C 
HETATM   20  S1  UNL     1      18.544   0.303  50.348  1.00  0.00    -0.138 SA
HETATM   21  C12 UNL     1      18.745   0.510  52.142  1.00  0.00     0.105 C 
HETATM   22  C13 UNL     1      20.169   0.260  52.586  1.00  0.00    -0.020 C 
HETATM   23  C14 UNL     1      21.292  -0.323  53.109  1.00  0.00    -0.029 C 
HETATM   24  C15 UNL     1      22.705  -0.531  53.537  1.00  0.00     0.005 C 
ENDBRANCH   4  10
TORSDOF 2
ENDMDL
MODEL 4
REMARK VINA RESULT:      -7.9      3.757      5.461
REMARK  2 active torsions:
REMARK  status: ('A' for Active; 'I' for Inactive)
REMARK    1  A    between atoms: C2_3  and  C17_20 
REMARK    2  A    between atoms: C3_4  and  C4_5 
REMARK       I    between atoms: C17_20  and  N2_21 
ROOT
HETATM    1  N1  UNL     1      20.627   0.680  53.481  1.00  0.00    -0.191 NA
HETATM    2  C1  UNL     1      21.662   0.207  53.836  1.00  0.00     0.105 C 
HETATM    3  C2  UNL     1      22.893  -0.368  54.233  1.00  0.00     0.112 C 
HETATM    4  C3  UNL     1      24.098   0.144  53.738  1.00  0.00     0.034 C 
ENDROOT
BRANCH   3   5
HETATM    5  C17 UNL     1      23.190  -1.470  55.202  1.00  0.00     0.260 C 
HETATM    6  N2  UNL     1      24.485  -1.457  55.757  1.00  0.00    -0.365 N 
HETATM    7  H15 UNL     1      25.444  -1.439  56.202  1.00  0.00     0.159 HD
HETATM    8  H16 UNL     1      24.052  -1.065  56.661  1.00  0.00     0.159 HD
HETATM    9  O2  UNL     1      22.270  -2.244  55.372  1.00  0.00    -0.267 OA
ENDBRANCH   3   5
BRANCH   4  10
HETATM   10  C4  UNL     1      23.897   1.313  52.799  1.00  0.00    -0.041 A 
HETATM   11  C5  UNL     1      23.376   2.209  51.857  1.00  0.00     0.166 A 
HETATM   12  O1  UNL     1      22.664   2.990  50.879  1.00  0.00    -0.353 OA
HETATM   13  C16 UNL     1      24.837   2.079  51.913  1.00  0.00     0.086 A 
HETATM   14  C6  UNL     1      21.361   3.328  51.501  1.00  0.00     0.132 C 
HETATM   15  C7  UNL     1      21.500   4.614  51.560  1.00  0.00     0.007 C 
HETATM   16  C8  UNL     1      22.312   5.861  51.314  1.00  0.00     0.044 C 
HETATM   17  C9  UNL     1      23.424   6.328  50.853  1.00  0.00    -0.017 C 
HETATM   18  C10 UNL     1      23.789   7.684  50.830  1.00  0.00     0.003 C 
HETATM   19  C11 UNL     1      24.869   7.336  50.245  1.00  0.00     0.045 C 
HETATM   20  S1  UNL     1      26.453   6.975  49.406  1.00  0.00    -0.138 SA
HETATM   21  C12 UNL     1      26.459   5.313  48.670  1.00  0.00     0.105 C 
HETATM   22  C13 UNL     1      26.244   4.232  49.707  1.00  0.00    -0.020 C 
HETATM   23  C14 UNL     1      26.455   3.212  50.594  1.00  0.00    -0.029 C 
HETATM   24  C15 UNL     1      26.202   2.153  51.613  1.00  0.00     0.005 C 
ENDBRANCH   4  10
TORSDOF 2
ENDMDL
MODEL 5
REMARK VINA RESULT:      -7.8      4.609      6.235
REMARK  2 active torsions:
REMARK  status: ('A' for Active; 'I' for Inactive)
REMARK    1  A    between atoms: C2_3  and  C17_20 
REMARK    2  A    between atoms: C3_4  and  C4_5 
REMARK       I    between atoms: C17_20  and  N2_21 
ROOT
HETATM    1  N1  UNL     1      20.075   3.277  52.489  1.00  0.00    -0.191 NA
HETATM    2  C1  UNL     1      20.462   2.177  52.736  1.00  0.00     0.105 C 
HETATM    3  C2  UNL     1      20.906   0.861  53.008  1.00  0.00     0.112 C 
HETATM    4  C3  UNL     1      21.903   0.278  52.216  1.00  0.00     0.034 C 
ENDROOT
BRANCH   3   5
HETATM    5  C17 UNL     1      20.530  -0.092  54.100  1.00  0.00     0.260 C 
HETATM    6  N2  UNL     1      19.346  -0.827  53.884  1.00  0.00    -0.365 N 
HETATM    7  H15 UNL     1      18.476  -1.403  53.719  1.00  0.00     0.159 HD
HETATM    8  H16 UNL     1      19.962  -1.676  53.644  1.00  0.00     0.159 HD
HETATM    9  O2  UNL     1      21.296  -0.097  55.043  1.00  0.00    -0.267 OA
ENDBRANCH   3   5
BRANCH   4  10
HETATM   10  C4  UNL     1      22.395   1.201  51.122  1.00  0.00    -0.041 A 
HETATM   11  C5  UNL     1      22.646   1.809  49.887  1.00  0.00     0.166 A 
HETATM   12  O1  UNL     1      22.778   2.271  48.529  1.00  0.00    -0.353 OA
HETATM   13  C16 UNL     1      23.696   1.919  50.907  1.00  0.00     0.086 A 
HETATM   14  C6  UNL     1      21.397   2.517  48.048  1.00  0.00     0.132 C 
HETATM   15  C7  UNL     1      21.478   3.796  47.867  1.00  0.00     0.007 C 
HETATM   16  C8  UNL     1      22.264   5.083  47.911  1.00  0.00     0.044 C 
HETATM   17  C9  UNL     1      23.405   5.619  48.186  1.00  0.00    -0.017 C 
HETATM   18  C10 UNL     1      23.711   6.985  48.074  1.00  0.00     0.003 C 
HETATM   19  C11 UNL     1      24.901   6.702  48.439  1.00  0.00     0.045 C 
HETATM   20  S1  UNL     1      26.636   6.435  48.950  1.00  0.00    -0.138 SA
HETATM   21  C12 UNL     1      27.110   4.685  48.831  1.00  0.00     0.105 C 
HETATM   22  C13 UNL     1      26.244   3.802  49.703  1.00  0.00    -0.020 C 
HETATM   23  C14 UNL     1      25.796   3.015  50.729  1.00  0.00    -0.029 C 
HETATM   24  C15 UNL     1      24.914   2.144  51.558  1.00  0.00     0.005 C 
ENDBRANCH   4  10
TORSDOF 2
ENDMDL
MODEL 6
REMARK VINA RESULT:      -7.7      4.135      6.563
REMARK  2 active torsions:
REMARK  status: ('A' for Active; 'I' for Inactive)
REMARK    1  A    between atoms: C2_3  and  C17_20 
REMARK    2  A    between atoms: C3_4  and  C4_5 
REMARK       I    between atoms: C17_20  and  N2_21 
ROOT
HETATM    1  N1  UNL     1      21.151   0.901  49.576  1.00  0.00    -0.191 NA
HETATM    2  C1  UNL     1      20.701   0.643  50.649  1.00  0.00     0.105 C 
HETATM    3  C2  UNL     1      20.185   0.317  51.926  1.00  0.00     0.112 C 
HETATM    4  C3  UNL     1      20.854   0.740  53.082  1.00  0.00     0.034 C 
ENDROOT
BRANCH   3   5
HETATM    5  C17 UNL     1      18.933  -0.403  52.321  1.00  0.00     0.260 C 
HETATM    6  N2  UNL     1      18.900  -0.882  53.646  1.00  0.00    -0.365 N 
HETATM    7  H15 UNL     1      18.854  -1.220  54.646  1.00  0.00     0.159 HD
HETATM    8  H16 UNL     1      18.252  -0.058  53.888  1.00  0.00     0.159 HD
HETATM    9  O2  UNL     1      18.108  -0.489  51.434  1.00  0.00    -0.267 OA
ENDBRANCH   3   5
BRANCH   4  10
HETATM   10  C4  UNL     1      22.102   1.538  52.777  1.00  0.00    -0.041 A 
HETATM   11  C5  UNL     1      23.395   2.075  52.797  1.00  0.00     0.166 A 
HETATM   12  O1  UNL     1      24.759   2.491  52.995  1.00  0.00    -0.353 OA
HETATM   13  C16 UNL     1      22.318   2.953  52.326  1.00  0.00     0.086 A 
HETATM   14  C6  UNL     1      25.579   1.260  52.886  1.00  0.00     0.132 C 
HETATM   15  C7  UNL     1      26.259   1.570  51.829  1.00  0.00     0.007 C 
HETATM   16  C8  UNL     1      26.593   2.533  50.717  1.00  0.00     0.044 C 
HETATM   17  C9  UNL     1      26.333   3.686  50.200  1.00  0.00    -0.017 C 
HETATM   18  C10 UNL     1      26.940   4.218  49.050  1.00  0.00     0.003 C 
HETATM   19  C11 UNL     1      26.248   5.275  49.229  1.00  0.00     0.045 C 
HETATM   20  S1  UNL     1      25.318   6.843  49.369  1.00  0.00    -0.138 SA
HETATM   21  C12 UNL     1      24.589   7.047  51.021  1.00  0.00     0.105 C 
HETATM   22  C13 UNL     1      23.632   5.925  51.361  1.00  0.00    -0.020 C 
HETATM   23  C14 UNL     1      22.491   5.202  51.578  1.00  0.00    -0.029 C 
HETATM   24  C15 UNL     1      21.580   4.073  51.926  1.00  0.00     0.005 C 
ENDBRANCH   4  10
TORSDOF 2
ENDMDL
MODEL 7
REMARK VINA RESULT:      -7.6      3.108      4.589
REMARK  2 active torsions:
REMARK  status: ('A' for Active; 'I' for Inactive)
REMARK    1  A    between atoms: C2_3  and  C17_20 
REMARK    2  A    between atoms: C3_4  and  C4_5 
REMARK       I    between atoms: C17_20  and  N2_21 
ROOT
HETATM    1  N1  UNL     1      23.289   0.203  53.461  1.00  0.00    -0.191 NA
HETATM    2  C1  UNL     1      24.454   0.126  53.220  1.00  0.00     0.105 C 
HETATM    3  C2  UNL     1      25.831   0.021  52.910  1.00  0.00     0.112 C 
HETATM    4  C3  UNL     1      26.404   0.876  51.960  1.00  0.00     0.034 C 
ENDROOT
BRANCH   3   5
HETATM    5  C17 UNL     1      26.899  -0.858  53.485  1.00  0.00     0.260 C 
HETATM    6  N2  UNL     1      27.641  -0.297  54.545  1.00  0.00    -0.365 N 
HETATM    7  H15 UNL     1      28.183   0.103  55.358  1.00  0.00     0.159 HD
HETATM    8  H16 UNL     1      27.068  -0.910  55.219  1.00  0.00     0.159 HD
HETATM    9  O2  UNL     1      26.993  -1.943  52.949  1.00  0.00    -0.267 OA
ENDBRANCH   3   5
BRANCH   4  10
HETATM   10  C4  UNL     1      25.407   1.850  51.372  1.00  0.00    -0.041 A 
HETATM   11  C5  UNL     1      24.275   2.427  50.783  1.00  0.00     0.166 A 
HETATM   12  O1  UNL     1      23.029   2.810  50.172  1.00  0.00    -0.353 OA
HETATM   13  C16 UNL     1      25.565   3.074  50.518  1.00  0.00     0.086 A 
HETATM   14  C6  UNL     1      21.965   2.356  51.099  1.00  0.00     0.132 C 
HETATM   15  C7  UNL     1      21.481   3.512  51.423  1.00  0.00     0.007 C 
HETATM   16  C8  UNL     1      21.487   5.017  51.314  1.00  0.00     0.044 C 
HETATM   17  C9  UNL     1      22.052   6.037  50.762  1.00  0.00    -0.017 C 
HETATM   18  C10 UNL     1      21.699   7.380  50.979  1.00  0.00     0.003 C 
HETATM   19  C11 UNL     1      22.593   7.705  50.128  1.00  0.00     0.045 C 
HETATM   20  S1  UNL     1      23.839   8.306  48.932  1.00  0.00    -0.138 SA
HETATM   21  C12 UNL     1      24.429   6.973  47.848  1.00  0.00     0.105 C 
HETATM   22  C13 UNL     1      25.066   5.845  48.631  1.00  0.00    -0.020 C 
HETATM   23  C14 UNL     1      25.985   5.007  49.201  1.00  0.00    -0.029 C 
HETATM   24  C15 UNL     1      26.575   3.880  49.979  1.00  0.00     0.005 C 
ENDBRANCH   4  10
TORSDOF 2
ENDMDL
MODEL 8
REMARK VINA RESULT:      -7.5      2.560      3.464
REMARK  2 active torsions:
REMARK  status: ('A' for Active; 'I' for Inactive)
REMARK    1  A    between atoms: C2_3  and  C17_20 
REMARK    2  A    between atoms: C3_4  and  C4_5 
REMARK       I    between atoms: C17_20  and  N2_21 
ROOT
HETATM    1  N1  UNL     1      26.775   1.883  51.225  1.00  0.00    -0.191 NA
HETATM    2  C1  UNL     1      26.230   1.126  51.967  1.00  0.00     0.105 C 
HETATM    3  C2  UNL     1      25.583   0.247  52.868  1.00  0.00     0.112 C 
HETATM    4  C3  UNL     1      24.206   0.361  53.093  1.00  0.00     0.034 C 
ENDROOT
BRANCH   3   5
HETATM    5  C17 UNL     1      26.113  -0.915  53.651  1.00  0.00     0.260 C 
HETATM    6  N2  UNL     1      27.135  -1.655  53.022  1.00  0.00    -0.365 N 
HETATM    7  H15 UNL     1      27.922  -2.198  52.573  1.00  0.00     0.159 HD
HETATM    8  H16 UNL     1      27.837  -1.166  53.675  1.00  0.00     0.159 HD
HETATM    9  O2  UNL     1      25.577  -1.074  54.729  1.00  0.00    -0.267 OA
ENDBRANCH   3   5
BRANCH   4  10
HETATM   10  C4  UNL     1      23.571   1.472  52.286  1.00  0.00    -0.041 A 
HETATM   11  C5  UNL     1      23.011   2.688  51.878  1.00  0.00     0.166 A 
HETATM   12  O1  UNL     1      22.469   4.006  51.670  1.00  0.00    -0.353 OA
HETATM   13  C16 UNL     1      22.523   1.476  51.210  1.00  0.00     0.086 A 
HETATM   14  C6  UNL     1      23.555   4.952  52.025  1.00  0.00     0.132 C 
HETATM   15  C7  UNL     1      23.738   5.487  50.861  1.00  0.00     0.007 C 
HETATM   16  C8  UNL     1      23.393   5.598  49.397  1.00  0.00     0.044 C 
HETATM   17  C9  UNL     1      22.635   5.156  48.450  1.00  0.00    -0.017 C 
HETATM   18  C10 UNL     1      22.670   5.584  47.113  1.00  0.00     0.003 C 
HETATM   19  C11 UNL     1      21.696   4.792  46.881  1.00  0.00     0.045 C 
HETATM   20  S1  UNL     1      20.305   3.701  46.414  1.00  0.00    -0.138 SA
HETATM   21  C12 UNL     1      19.394   3.113  47.872  1.00  0.00     0.105 C 
HETATM   22  C13 UNL     1      20.279   2.332  48.818  1.00  0.00    -0.020 C 
HETATM   23  C14 UNL     1      20.883   1.309  49.499  1.00  0.00    -0.029 C 
HETATM   24  C15 UNL     1      21.769   0.576  50.448  1.00  0.00     0.005 C 
ENDBRANCH   4  10
TORSDOF 2
ENDMDL
MODEL 9
REMARK VINA RESULT:      -7.4      5.662      7.341
REMARK  2 active torsions:
REMARK  status: ('A' for Active; 'I' for Inactive)
REMARK    1  A    between atoms: C2_3  and  C17_20 
REMARK    2  A    between atoms: C3_4  and  C4_5 
REMARK       I    between atoms: C17_20  and  N2_21 
ROOT
HETATM    1  N1  UNL     1      26.623   9.787  50.133  1.00  0.00    -0.191 NA
HETATM    2  C1  UNL     1      27.555   9.226  49.645  1.00  0.00     0.105 C 
HETATM    3  C2  UNL     1      28.662   8.543  49.088  1.00  0.00     0.112 C 
HETATM    4  C3  UNL     1      28.472   7.327  48.420  1.00  0.00     0.034 C 
ENDROOT
BRANCH   3   5
HETATM    5  C17 UNL     1      30.109   8.920  49.015  1.00  0.00     0.260 C 
HETATM    6  N2  UNL     1      30.585   9.710  50.082  1.00  0.00    -0.365 N 
HETATM    7  H15 UNL     1      30.958  10.277  50.892  1.00  0.00     0.159 HD
HETATM    8  H16 UNL     1      31.053   8.825  50.478  1.00  0.00     0.159 HD
HETATM    9  O2  UNL     1      30.684   8.503  48.031  1.00  0.00    -0.267 OA
ENDBRANCH   3   5
BRANCH   4  10
HETATM   10  C4  UNL     1      27.022   6.898  48.385  1.00  0.00    -0.041 A 
HETATM   11  C5  UNL     1      25.623   6.877  48.439  1.00  0.00     0.166 A 
HETATM   12  O1  UNL     1      24.200   7.074  48.543  1.00  0.00    -0.353 OA
HETATM   13  C16 UNL     1      26.321   5.645  48.823  1.00  0.00     0.086 A 
HETATM   14  C6  UNL     1      23.863   8.126  47.555  1.00  0.00     0.132 C 
HETATM   15  C7  UNL     1      23.112   7.424  46.769  1.00  0.00     0.007 C 
HETATM   16  C8  UNL     1      22.456   6.116  46.400  1.00  0.00     0.044 C 
HETATM   17  C9  UNL     1      22.292   4.881  46.735  1.00  0.00    -0.017 C 
HETATM   18  C10 UNL     1      21.531   3.938  46.024  1.00  0.00     0.003 C 
HETATM   19  C11 UNL     1      21.811   3.092  46.937  1.00  0.00     0.045 C 
HETATM   20  S1  UNL     1      22.134   1.783  48.173  1.00  0.00    -0.138 SA
HETATM   21  C12 UNL     1      22.755   2.472  49.735  1.00  0.00     0.105 C 
HETATM   22  C13 UNL     1      24.046   3.239  49.544  1.00  0.00    -0.020 C 
HETATM   23  C14 UNL     1      25.369   3.587  49.532  1.00  0.00    -0.029 C 
HETATM   24  C15 UNL     1      26.619   4.375  49.333  1.00  0.00     0.005 C 
ENDBRANCH   4  10
TORSDOF 2
ENDMDL
