MODEL 1
REMARK VINA RESULT:     -10.0      0.000      0.000
REMARK  1 active torsions:
REMARK  status: ('A' for Active; 'I' for Inactive)
REMARK    1  A    between atoms: N3_11  and  C8_12 
ROOT
HETATM    1  O1  UNL     1      26.196  -0.224  55.358  1.00  0.00    -0.360 OA
HETATM    2  C1  UNL     1      25.175  -0.890  55.557  1.00  0.00     0.142 A 
HETATM    3  C2  UNL     1      25.186  -0.256  54.272  1.00  0.00     0.185 A 
HETATM    4  C3  UNL     1      25.668   0.507  53.342  1.00  0.00     0.009 C 
HETATM    5  C4  UNL     1      26.143   1.338  52.262  1.00  0.00     0.018 C 
HETATM    6  C5  UNL     1      27.096   2.146  51.890  1.00  0.00     0.118 C 
HETATM    7  N1  UNL     1      26.749   2.551  50.570  1.00  0.00    -0.254 NA
HETATM    8  C6  UNL     1      25.682   3.314  50.398  1.00  0.00     0.233 C 
HETATM    9  N2  UNL     1      24.851   3.764  51.418  1.00  0.00    -0.237 NA
HETATM   10  C7  UNL     1      23.605   3.780  51.562  1.00  0.00     0.215 C 
HETATM   11  N3  UNL     1      22.326   3.489  51.062  1.00  0.00    -0.317 N 
HETATM   12  C14 UNL     1      21.531   2.361  51.157  1.00  0.00     0.099 C 
HETATM   13  C15 UNL     1      20.608   1.624  51.618  1.00  0.00     0.032 C 
HETATM   14  C16 UNL     1      19.607   0.727  52.061  1.00  0.00    -0.001 A 
HETATM   15  C17 UNL     1      18.393   0.859  51.444  1.00  0.00     0.014 A 
HETATM   16  C18 UNL     1      17.330   0.009  51.767  1.00  0.00     0.001 A 
HETATM   17  C19 UNL     1      17.645  -0.918  52.725  1.00  0.00     0.003 A 
HETATM   18  C20 UNL     1      18.822  -1.106  53.377  1.00  0.00     0.038 A 
HETATM   19  C21 UNL     1      19.783  -0.247  53.004  1.00  0.00     0.091 A 
HETATM   20  O2  UNL     1      21.074  -0.128  53.433  1.00  0.00    -0.261 OA
HETATM   21  C22 UNL     1      21.611  -1.035  54.316  1.00  0.00     0.365 C 
HETATM   22  O3  UNL     1      21.161  -2.030  54.863  1.00  0.00    -0.238 OA
HETATM   23  N4  UNL     1      22.868  -1.179  54.937  1.00  0.00    -0.333 N 
HETATM   24  C23 UNL     1      23.923  -1.669  55.731  1.00  0.00     0.169 C 
HETATM   25  H17 UNL     1      23.230  -0.289  54.549  1.00  0.00     0.164 HD
ENDROOT
BRANCH  11  26
HETATM   26  C8  UNL     1      22.088   4.691  50.412  1.00  0.00     0.041 A 
HETATM   27  C9  UNL     1      21.844   5.981  50.782  1.00  0.00     0.030 A 
HETATM   28  C10 UNL     1      21.617   7.059  49.953  1.00  0.00     0.004 A 
HETATM   29  C11 UNL     1      21.637   6.813  48.592  1.00  0.00     0.019 A 
HETATM   30  C12 UNL     1      21.883   5.511  48.162  1.00  0.00     0.013 A 
HETATM   31 BR1  UNL     1      21.887   5.337  46.243  1.00  0.00    -0.051 Br
HETATM   32  C13 UNL     1      22.110   4.434  49.030  1.00  0.00     0.049 A 
ENDBRANCH  11  26
TORSDOF 1
ENDMDL
MODEL 2
REMARK VINA RESULT:      -9.9      2.480      4.006
REMARK  1 active torsions:
REMARK  status: ('A' for Active; 'I' for Inactive)
REMARK    1  A    between atoms: N3_11  and  C8_12 
ROOT
HETATM    1  O1  UNL     1      22.378  -1.015  55.265  1.00  0.00    -0.360 OA
HETATM    2  C1  UNL     1      21.264  -0.927  54.740  1.00  0.00     0.142 A 
HETATM    3  C2  UNL     1      22.337  -0.720  53.811  1.00  0.00     0.185 A 
HETATM    4  C3  UNL     1      23.577  -0.595  53.459  1.00  0.00     0.009 C 
HETATM    5  C4  UNL     1      24.935  -0.445  52.991  1.00  0.00     0.018 C 
HETATM    6  C5  UNL     1      26.184  -0.422  53.361  1.00  0.00     0.118 C 
HETATM    7  N1  UNL     1      26.925  -0.205  52.166  1.00  0.00    -0.254 NA
HETATM    8  C6  UNL     1      26.815   0.962  51.552  1.00  0.00     0.233 C 
HETATM    9  N2  UNL     1      26.021   2.019  51.984  1.00  0.00    -0.237 NA
HETATM   10  C7  UNL     1      25.198   2.764  51.401  1.00  0.00     0.215 C 
HETATM   11  N3  UNL     1      24.524   3.137  50.227  1.00  0.00    -0.317 N 
HETATM   12  C14 UNL     1      23.335   2.708  49.668  1.00  0.00     0.099 C 
HETATM   13  C15 UNL     1      22.096   2.744  49.399  1.00  0.00     0.032 C 
HETATM   14  C16 UNL     1      20.728   2.693  49.042  1.00  0.00    -0.001 A 
HETATM   15  C17 UNL     1      20.403   3.339  47.882  1.00  0.00     0.014 A 
HETATM   16  C18 UNL     1      19.089   3.333  47.401  1.00  0.00     0.001 A 
HETATM   17  C19 UNL     1      18.221   2.636  48.199  1.00  0.00     0.003 A 
HETATM   18  C20 UNL     1      18.471   1.974  49.359  1.00  0.00     0.038 A 
HETATM   19  C21 UNL     1      19.756   2.033  49.742  1.00  0.00     0.091 A 
HETATM   20  O2  UNL     1      20.374   1.500  50.837  1.00  0.00    -0.261 OA
HETATM   21  C22 UNL     1      19.693   0.678  51.702  1.00  0.00     0.365 C 
HETATM   22  O3  UNL     1      18.545   0.263  51.725  1.00  0.00    -0.238 OA
HETATM   23  N4  UNL     1      20.034  -0.002  52.889  1.00  0.00    -0.333 N 
HETATM   24  C23 UNL     1      19.958  -0.804  54.045  1.00  0.00     0.169 C 
HETATM   25  H17 UNL     1      20.982   0.415  52.928  1.00  0.00     0.164 HD
ENDROOT
BRANCH  11  26
HETATM   26  C8  UNL     1      25.432   4.079  49.767  1.00  0.00     0.041 A 
HETATM   27  C9  UNL     1      26.654   4.058  49.160  1.00  0.00     0.030 A 
HETATM   28  C10 UNL     1      27.418   5.142  48.783  1.00  0.00     0.004 A 
HETATM   29  C11 UNL     1      26.895   6.394  49.046  1.00  0.00     0.019 A 
HETATM   30  C12 UNL     1      25.650   6.470  49.665  1.00  0.00     0.013 A 
HETATM   31 BR1  UNL     1      25.058   8.281  49.954  1.00  0.00    -0.051 Br
HETATM   32  C13 UNL     1      24.895   5.349  50.038  1.00  0.00     0.049 A 
ENDBRANCH  11  26
TORSDOF 1
ENDMDL
MODEL 3
REMARK VINA RESULT:      -9.7      2.647      6.261
REMARK  1 active torsions:
REMARK  status: ('A' for Active; 'I' for Inactive)
REMARK    1  A    between atoms: N3_11  and  C8_12 
ROOT
HETATM    1  O1  UNL     1      26.412  -1.568  53.547  1.00  0.00    -0.360 OA
HETATM    2  C1  UNL     1      27.026  -0.651  52.993  1.00  0.00     0.142 A 
HETATM    3  C2  UNL     1      25.694  -0.281  53.374  1.00  0.00     0.185 A 
HETATM    4  C3  UNL     1      24.512  -0.486  53.862  1.00  0.00     0.009 C 
HETATM    5  C4  UNL     1      23.178  -0.640  54.392  1.00  0.00     0.018 C 
HETATM    6  C5  UNL     1      22.342  -1.488  54.922  1.00  0.00     0.118 C 
HETATM    7  N1  UNL     1      21.153  -0.743  55.160  1.00  0.00    -0.254 NA
HETATM    8  C6  UNL     1      20.457  -0.306  54.123  1.00  0.00     0.233 C 
HETATM    9  N2  UNL     1      20.794  -0.518  52.791  1.00  0.00    -0.237 NA
HETATM   10  C7  UNL     1      20.861   0.242  51.795  1.00  0.00     0.215 C 
HETATM   11  N3  UNL     1      20.725   1.525  51.241  1.00  0.00    -0.317 N 
HETATM   12  C14 UNL     1      21.615   2.575  51.112  1.00  0.00     0.099 C 
HETATM   13  C15 UNL     1      22.459   3.319  50.528  1.00  0.00     0.032 C 
HETATM   14  C16 UNL     1      23.408   4.207  49.967  1.00  0.00    -0.001 A 
HETATM   15  C17 UNL     1      22.881   5.298  49.332  1.00  0.00     0.014 A 
HETATM   16  C18 UNL     1      23.713   6.269  48.765  1.00  0.00     0.001 A 
HETATM   17  C19 UNL     1      25.048   6.000  48.922  1.00  0.00     0.003 A 
HETATM   18  C20 UNL     1      25.640   4.944  49.537  1.00  0.00     0.038 A 
HETATM   19  C21 UNL     1      24.765   4.065  50.049  1.00  0.00     0.091 A 
HETATM   20  O2  UNL     1      24.982   2.898  50.725  1.00  0.00    -0.261 OA
HETATM   21  C22 UNL     1      26.254   2.510  51.074  1.00  0.00     0.365 C 
HETATM   22  O3  UNL     1      27.352   3.016  50.908  1.00  0.00    -0.238 OA
HETATM   23  N4  UNL     1      26.793   1.394  51.744  1.00  0.00    -0.333 N 
HETATM   24  C23 UNL     1      27.703   0.493  52.332  1.00  0.00     0.169 C 
HETATM   25  H17 UNL     1      25.878   0.913  51.811  1.00  0.00     0.164 HD
ENDROOT
BRANCH  11  26
HETATM   26  C8  UNL     1      19.394   1.438  50.861  1.00  0.00     0.041 A 
HETATM   27  C9  UNL     1      18.642   0.607  50.083  1.00  0.00     0.030 A 
HETATM   28  C10 UNL     1      17.293   0.705  49.818  1.00  0.00     0.004 A 
HETATM   29  C11 UNL     1      16.618   1.759  50.404  1.00  0.00     0.019 A 
HETATM   30  C12 UNL     1      17.340   2.636  51.210  1.00  0.00     0.013 A 
HETATM   31 BR1  UNL     1      16.256   4.043  51.958  1.00  0.00    -0.051 Br
HETATM   32  C13 UNL     1      18.714   2.512  51.460  1.00  0.00     0.049 A 
ENDBRANCH  11  26
TORSDOF 1
ENDMDL
MODEL 4
REMARK VINA RESULT:      -9.4      2.704      5.996
REMARK  1 active torsions:
REMARK  status: ('A' for Active; 'I' for Inactive)
REMARK    1  A    between atoms: N3_11  and  C8_12 
ROOT
HETATM    1  O1  UNL     1      18.176   2.006  49.905  1.00  0.00    -0.360 OA
HETATM    2  C1  UNL     1      18.553   1.125  50.685  1.00  0.00     0.142 A 
HETATM    3  C2  UNL     1      19.324   2.330  50.788  1.00  0.00     0.185 A 
HETATM    4  C3  UNL     1      19.671   3.534  50.460  1.00  0.00     0.009 C 
HETATM    5  C4  UNL     1      20.112   4.873  50.151  1.00  0.00     0.018 C 
HETATM    6  C5  UNL     1      19.922   5.893  49.363  1.00  0.00     0.118 C 
HETATM    7  N1  UNL     1      20.864   6.874  49.785  1.00  0.00    -0.254 NA
HETATM    8  C6  UNL     1      22.153   6.640  49.601  1.00  0.00     0.233 C 
HETATM    9  N2  UNL     1      22.679   5.494  49.015  1.00  0.00    -0.237 NA
HETATM   10  C7  UNL     1      23.607   4.716  49.342  1.00  0.00     0.215 C 
HETATM   11  N3  UNL     1      24.625   4.357  50.241  1.00  0.00    -0.317 N 
HETATM   12  C14 UNL     1      24.621   3.560  51.371  1.00  0.00     0.099 C 
HETATM   13  C15 UNL     1      24.793   2.502  52.049  1.00  0.00     0.032 C 
HETATM   14  C16 UNL     1      24.949   1.377  52.892  1.00  0.00    -0.001 A 
HETATM   15  C17 UNL     1      26.177   1.257  53.482  1.00  0.00     0.014 A 
HETATM   16  C18 UNL     1      26.449   0.206  54.365  1.00  0.00     0.001 A 
HETATM   17  C19 UNL     1      25.385  -0.637  54.551  1.00  0.00     0.003 A 
HETATM   18  C20 UNL     1      24.144  -0.581  54.001  1.00  0.00     0.038 A 
HETATM   19  C21 UNL     1      23.975   0.459  53.168  1.00  0.00     0.091 A 
HETATM   20  O2  UNL     1      22.883   0.835  52.441  1.00  0.00    -0.261 OA
HETATM   21  C22 UNL     1      21.684   0.177  52.573  1.00  0.00     0.365 C 
HETATM   22  O3  UNL     1      21.323  -0.763  53.264  1.00  0.00    -0.238 OA
HETATM   23  N4  UNL     1      20.414   0.313  51.977  1.00  0.00    -0.333 N 
HETATM   24  C23 UNL     1      19.060   0.112  51.644  1.00  0.00     0.169 C 
HETATM   25  H17 UNL     1      20.732   1.051  51.323  1.00  0.00     0.164 HD
ENDROOT
BRANCH  11  26
HETATM   26  C8  UNL     1      25.664   5.066  49.658  1.00  0.00     0.041 A 
HETATM   27  C9  UNL     1      26.756   4.769  48.894  1.00  0.00     0.030 A 
HETATM   28  C10 UNL     1      27.701   5.648  48.412  1.00  0.00     0.004 A 
HETATM   29  C11 UNL     1      27.532   6.982  48.731  1.00  0.00     0.019 A 
HETATM   30  C12 UNL     1      26.432   7.338  49.508  1.00  0.00     0.013 A 
HETATM   31 BR1  UNL     1      26.334   9.231  49.857  1.00  0.00    -0.051 Br
HETATM   32  C13 UNL     1      25.486   6.421  49.986  1.00  0.00     0.049 A 
ENDBRANCH  11  26
TORSDOF 1
ENDMDL
MODEL 5
REMARK VINA RESULT:      -9.1      8.544     12.219
REMARK  1 active torsions:
REMARK  status: ('A' for Active; 'I' for Inactive)
REMARK    1  A    between atoms: N3_11  and  C8_12 
ROOT
HETATM    1  O1  UNL     1      29.212  12.358  45.433  1.00  0.00    -0.360 OA
HETATM    2  C1  UNL     1      28.121  11.937  45.831  1.00  0.00     0.142 A 
HETATM    3  C2  UNL     1      29.233  11.275  46.448  1.00  0.00     0.185 A 
HETATM    4  C3  UNL     1      30.488  11.019  46.640  1.00  0.00     0.009 C 
HETATM    5  C4  UNL     1      31.866  10.682  46.909  1.00  0.00     0.018 C 
HETATM    6  C5  UNL     1      33.100  10.928  46.570  1.00  0.00     0.118 C 
HETATM    7  N1  UNL     1      33.892  10.089  47.404  1.00  0.00    -0.254 NA
HETATM    8  C6  UNL     1      33.832   8.779  47.231  1.00  0.00     0.233 C 
HETATM    9  N2  UNL     1      33.045   8.135  46.282  1.00  0.00    -0.237 NA
HETATM   10  C7  UNL     1      32.261   7.158  46.342  1.00  0.00     0.215 C 
HETATM   11  N3  UNL     1      31.642   6.148  47.096  1.00  0.00    -0.317 N 
HETATM   12  C14 UNL     1      30.465   6.127  47.822  1.00  0.00     0.099 C 
HETATM   13  C15 UNL     1      29.240   5.892  48.044  1.00  0.00     0.032 C 
HETATM   14  C16 UNL     1      27.885   5.673  48.390  1.00  0.00    -0.001 A 
HETATM   15  C17 UNL     1      27.620   4.462  48.968  1.00  0.00     0.014 A 
HETATM   16  C18 UNL     1      26.326   4.136  49.388  1.00  0.00     0.001 A 
HETATM   17  C19 UNL     1      25.412   5.131  49.157  1.00  0.00     0.003 A 
HETATM   18  C20 UNL     1      25.602   6.351  48.591  1.00  0.00     0.038 A 
HETATM   19  C21 UNL     1      26.873   6.575  48.220  1.00  0.00     0.091 A 
HETATM   20  O2  UNL     1      27.436   7.667  47.624  1.00  0.00    -0.261 OA
HETATM   21  C22 UNL     1      26.704   8.811  47.408  1.00  0.00     0.365 C 
HETATM   22  O3  UNL     1      25.548   9.116  47.651  1.00  0.00    -0.238 OA
HETATM   23  N4  UNL     1      26.984  10.064  46.828  1.00  0.00    -0.333 N 
HETATM   24  C23 UNL     1      26.846  11.383  46.351  1.00  0.00     0.169 C 
HETATM   25  H17 UNL     1      27.939   9.785  46.536  1.00  0.00     0.164 HD
ENDROOT
BRANCH  11  26
HETATM   26  C8  UNL     1      32.587   5.151  46.908  1.00  0.00     0.041 A 
HETATM   27  C9  UNL     1      33.941   5.093  46.744  1.00  0.00     0.030 A 
HETATM   28  C10 UNL     1      34.711   3.966  46.555  1.00  0.00     0.004 A 
HETATM   29  C11 UNL     1      34.047   2.754  46.528  1.00  0.00     0.019 A 
HETATM   30  C12 UNL     1      32.663   2.759  46.692  1.00  0.00     0.013 A 
HETATM   31 BR1  UNL     1      31.889   0.995  46.638  1.00  0.00    -0.051 Br
HETATM   32  C13 UNL     1      31.905   3.923  46.881  1.00  0.00     0.049 A 
ENDBRANCH  11  26
TORSDOF 1
ENDMDL
MODEL 6
REMARK VINA RESULT:      -9.0      3.312      6.505
REMARK  1 active torsions:
REMARK  status: ('A' for Active; 'I' for Inactive)
REMARK    1  A    between atoms: N3_11  and  C8_12 
ROOT
HETATM    1  O1  UNL     1      19.515   4.804  46.989  1.00  0.00    -0.360 OA
HETATM    2  C1  UNL     1      18.652   3.970  47.281  1.00  0.00     0.142 A 
HETATM    3  C2  UNL     1      19.484   4.325  48.393  1.00  0.00     0.185 A 
HETATM    4  C3  UNL     1      20.465   4.934  48.979  1.00  0.00     0.009 C 
HETATM    5  C4  UNL     1      21.538   5.579  49.698  1.00  0.00     0.018 C 
HETATM    6  C5  UNL     1      22.555   6.386  49.581  1.00  0.00     0.118 C 
HETATM    7  N1  UNL     1      23.106   6.487  50.889  1.00  0.00    -0.254 NA
HETATM    8  C6  UNL     1      23.681   5.421  51.422  1.00  0.00     0.233 C 
HETATM    9  N2  UNL     1      23.796   4.182  50.800  1.00  0.00    -0.237 NA
HETATM   10  C7  UNL     1      23.563   3.010  51.179  1.00  0.00     0.215 C 
HETATM   11  N3  UNL     1      23.133   2.126  52.182  1.00  0.00    -0.317 N 
HETATM   12  C14 UNL     1      21.881   1.641  52.512  1.00  0.00     0.099 C 
HETATM   13  C15 UNL     1      20.922   0.811  52.530  1.00  0.00     0.032 C 
HETATM   14  C16 UNL     1      19.798  -0.044  52.611  1.00  0.00    -0.001 A 
HETATM   15  C17 UNL     1      19.810  -0.924  53.658  1.00  0.00     0.014 A 
HETATM   16  C18 UNL     1      18.740  -1.800  53.870  1.00  0.00     0.001 A 
HETATM   17  C19 UNL     1      17.738  -1.670  52.945  1.00  0.00     0.003 A 
HETATM   18  C20 UNL     1      17.659  -0.824  51.885  1.00  0.00     0.038 A 
HETATM   19  C21 UNL     1      18.729  -0.022  51.761  1.00  0.00     0.091 A 
HETATM   20  O2  UNL     1      19.005   0.940  50.832  1.00  0.00    -0.261 OA
HETATM   21  C22 UNL     1      18.075   1.293  49.882  1.00  0.00     0.365 C 
HETATM   22  O3  UNL     1      16.938   0.913  49.650  1.00  0.00    -0.238 OA
HETATM   23  N4  UNL     1      18.059   2.212  48.814  1.00  0.00    -0.333 N 
HETATM   24  C23 UNL     1      17.642   2.966  47.699  1.00  0.00     0.169 C 
HETATM   25  H17 UNL     1      19.052   2.478  48.946  1.00  0.00     0.164 HD
ENDROOT
BRANCH  11  26
HETATM   26  C8  UNL     1      24.364   1.882  52.773  1.00  0.00     0.041 A 
HETATM   27  C9  UNL     1      25.244   2.584  53.545  1.00  0.00     0.030 A 
HETATM   28  C10 UNL     1      26.456   2.148  54.036  1.00  0.00     0.004 A 
HETATM   29  C11 UNL     1      26.829   0.856  53.716  1.00  0.00     0.019 A 
HETATM   30  C12 UNL     1      25.964   0.097  52.930  1.00  0.00     0.013 A 
HETATM   31 BR1  UNL     1      26.623  -1.680  52.581  1.00  0.00    -0.051 Br
HETATM   32  C13 UNL     1      24.737   0.568  52.444  1.00  0.00     0.049 A 
ENDBRANCH  11  26
TORSDOF 1
ENDMDL
MODEL 7
REMARK VINA RESULT:      -9.0      3.249      5.963
REMARK  1 active torsions:
REMARK  status: ('A' for Active; 'I' for Inactive)
REMARK    1  A    between atoms: N3_11  and  C8_12 
ROOT
HETATM    1  O1  UNL     1      25.412   4.944  48.989  1.00  0.00    -0.360 OA
HETATM    2  C1  UNL     1      25.885   4.119  49.777  1.00  0.00     0.142 A 
HETATM    3  C2  UNL     1      24.569   3.770  49.326  1.00  0.00     0.185 A 
HETATM    4  C3  UNL     1      23.464   3.952  48.676  1.00  0.00     0.009 C 
HETATM    5  C4  UNL     1      22.207   4.084  47.978  1.00  0.00     0.018 C 
HETATM    6  C5  UNL     1      21.506   4.861  47.202  1.00  0.00     0.118 C 
HETATM    7  N1  UNL     1      20.284   4.165  46.979  1.00  0.00    -0.254 NA
HETATM    8  C6  UNL     1      19.454   3.996  47.995  1.00  0.00     0.233 C 
HETATM    9  N2  UNL     1      19.676   4.451  49.291  1.00  0.00    -0.237 NA
HETATM   10  C7  UNL     1      19.577   3.907  50.417  1.00  0.00     0.215 C 
HETATM   11  N3  UNL     1      19.274   2.776  51.191  1.00  0.00    -0.317 N 
HETATM   12  C14 UNL     1      20.051   1.716  51.623  1.00  0.00     0.099 C 
HETATM   13  C15 UNL     1      20.764   1.051  52.433  1.00  0.00     0.032 C 
HETATM   14  C16 UNL     1      21.570   0.234  53.261  1.00  0.00    -0.001 A 
HETATM   15  C17 UNL     1      20.889  -0.666  54.032  1.00  0.00     0.014 A 
HETATM   16  C18 UNL     1      21.572  -1.555  54.868  1.00  0.00     0.001 A 
HETATM   17  C19 UNL     1      22.934  -1.415  54.816  1.00  0.00     0.003 A 
HETATM   18  C20 UNL     1      23.675  -0.548  54.078  1.00  0.00     0.038 A 
HETATM   19  C21 UNL     1      22.936   0.265  53.307  1.00  0.00     0.091 A 
HETATM   20  O2  UNL     1      23.321   1.253  52.446  1.00  0.00    -0.261 OA
HETATM   21  C22 UNL     1      24.650   1.475  52.175  1.00  0.00     0.365 C 
HETATM   22  O3  UNL     1      25.678   0.941  52.560  1.00  0.00    -0.238 OA
HETATM   23  N4  UNL     1      25.350   2.392  51.366  1.00  0.00    -0.333 N 
HETATM   24  C23 UNL     1      26.390   3.091  50.721  1.00  0.00     0.169 C 
HETATM   25  H17 UNL     1      24.492   2.910  51.103  1.00  0.00     0.164 HD
ENDROOT
BRANCH  11  26
HETATM   26  C8  UNL     1      17.925   3.028  51.392  1.00  0.00     0.041 A 
HETATM   27  C9  UNL     1      17.150   4.128  51.617  1.00  0.00     0.030 A 
HETATM   28  C10 UNL     1      15.785   4.163  51.806  1.00  0.00     0.004 A 
HETATM   29  C11 UNL     1      15.119   2.952  51.765  1.00  0.00     0.019 A 
HETATM   30  C12 UNL     1      15.866   1.798  51.538  1.00  0.00     0.013 A 
HETATM   31 BR1  UNL     1      14.793   0.198  51.501  1.00  0.00    -0.051 Br
HETATM   32  C13 UNL     1      17.255   1.793  51.349  1.00  0.00     0.049 A 
ENDBRANCH  11  26
TORSDOF 1
ENDMDL
MODEL 8
REMARK VINA RESULT:      -8.8      2.225      5.827
REMARK  1 active torsions:
REMARK  status: ('A' for Active; 'I' for Inactive)
REMARK    1  A    between atoms: N3_11  and  C8_12 
ROOT
HETATM    1  O1  UNL     1      18.384  -1.273  53.023  1.00  0.00    -0.360 OA
HETATM    2  C1  UNL     1      19.473  -1.471  53.573  1.00  0.00     0.142 A 
HETATM    3  C2  UNL     1      19.390  -0.186  52.942  1.00  0.00     0.185 A 
HETATM    4  C3  UNL     1      18.825   0.742  52.236  1.00  0.00     0.009 C 
HETATM    5  C4  UNL     1      18.260   1.821  51.462  1.00  0.00     0.018 C 
HETATM    6  C5  UNL     1      17.223   2.192  50.765  1.00  0.00     0.118 C 
HETATM    7  N1  UNL     1      17.521   3.511  50.322  1.00  0.00    -0.254 NA
HETATM    8  C6  UNL     1      18.497   3.684  49.446  1.00  0.00     0.233 C 
HETATM    9  N2  UNL     1      19.274   2.664  48.907  1.00  0.00    -0.237 NA
HETATM   10  C7  UNL     1      20.511   2.521  48.753  1.00  0.00     0.215 C 
HETATM   11  N3  UNL     1      21.814   3.023  48.900  1.00  0.00    -0.317 N 
HETATM   12  C14 UNL     1      22.729   2.930  49.933  1.00  0.00     0.099 C 
HETATM   13  C15 UNL     1      23.728   2.470  50.564  1.00  0.00     0.032 C 
HETATM   14  C16 UNL     1      24.823   2.030  51.344  1.00  0.00    -0.001 A 
HETATM   15  C17 UNL     1      26.014   2.647  51.078  1.00  0.00     0.014 A 
HETATM   16  C18 UNL     1      27.165   2.327  51.805  1.00  0.00     0.001 A 
HETATM   17  C19 UNL     1      26.956   1.369  52.762  1.00  0.00     0.003 A 
HETATM   18  C20 UNL     1      25.808   0.716  53.080  1.00  0.00     0.038 A 
HETATM   19  C21 UNL     1      24.758   1.088  52.332  1.00  0.00     0.091 A 
HETATM   20  O2  UNL     1      23.462   0.657  52.358  1.00  0.00    -0.261 OA
HETATM   21  C22 UNL     1      23.030  -0.226  53.320  1.00  0.00     0.365 C 
HETATM   22  O3  UNL     1      23.587  -0.771  54.259  1.00  0.00    -0.238 OA
HETATM   23  N4  UNL     1      21.797  -0.847  53.603  1.00  0.00    -0.333 N 
HETATM   24  C23 UNL     1      20.803  -1.642  54.207  1.00  0.00     0.169 C 
HETATM   25  H17 UNL     1      21.338  -0.461  52.758  1.00  0.00     0.164 HD
ENDROOT
BRANCH  11  26
HETATM   26  C8  UNL     1      21.916   3.672  47.679  1.00  0.00     0.041 A 
HETATM   27  C9  UNL     1      21.751   3.337  46.366  1.00  0.00     0.030 A 
HETATM   28  C10 UNL     1      21.917   4.154  45.269  1.00  0.00     0.004 A 
HETATM   29  C11 UNL     1      22.293   5.461  45.516  1.00  0.00     0.019 A 
HETATM   30  C12 UNL     1      22.475   5.854  46.840  1.00  0.00     0.013 A 
HETATM   31 BR1  UNL     1      22.988   7.703  47.017  1.00  0.00    -0.051 Br
HETATM   32  C13 UNL     1      22.299   4.999  47.938  1.00  0.00     0.049 A 
ENDBRANCH  11  26
TORSDOF 1
ENDMDL
MODEL 9
REMARK VINA RESULT:      -8.7      2.456      6.030
REMARK  1 active torsions:
REMARK  status: ('A' for Active; 'I' for Inactive)
REMARK    1  A    between atoms: N3_11  and  C8_12 
ROOT
HETATM    1  O1  UNL     1      16.116  -1.500  52.314  1.00  0.00    -0.360 OA
HETATM    2  C1  UNL     1      17.026  -1.909  53.043  1.00  0.00     0.142 A 
HETATM    3  C2  UNL     1      17.247  -0.574  52.570  1.00  0.00     0.185 A 
HETATM    4  C3  UNL     1      16.972   0.490  51.884  1.00  0.00     0.009 C 
HETATM    5  C4  UNL     1      16.730   1.709  51.150  1.00  0.00     0.018 C 
HETATM    6  C5  UNL     1      15.925   2.295  50.309  1.00  0.00     0.118 C 
HETATM    7  N1  UNL     1      16.478   3.589  50.100  1.00  0.00    -0.254 NA
HETATM    8  C6  UNL     1      17.635   3.693  49.466  1.00  0.00     0.233 C 
HETATM    9  N2  UNL     1      18.373   2.622  48.974  1.00  0.00    -0.237 NA
HETATM   10  C7  UNL     1      19.585   2.309  49.055  1.00  0.00     0.215 C 
HETATM   11  N3  UNL     1      20.879   2.593  49.522  1.00  0.00    -0.317 N 
HETATM   12  C14 UNL     1      21.529   2.268  50.698  1.00  0.00     0.099 C 
HETATM   13  C15 UNL     1      22.300   1.606  51.456  1.00  0.00     0.032 C 
HETATM   14  C16 UNL     1      23.135   0.935  52.382  1.00  0.00    -0.001 A 
HETATM   15  C17 UNL     1      24.424   1.388  52.438  1.00  0.00     0.014 A 
HETATM   16  C18 UNL     1      25.340   0.832  53.337  1.00  0.00     0.001 A 
HETATM   17  C19 UNL     1      24.808  -0.167  54.108  1.00  0.00     0.003 A 
HETATM   18  C20 UNL     1      23.544  -0.667  54.107  1.00  0.00     0.038 A 
HETATM   19  C21 UNL     1      22.737  -0.074  53.214  1.00  0.00     0.091 A 
HETATM   20  O2  UNL     1      21.422  -0.305  52.925  1.00  0.00    -0.261 OA
HETATM   21  C22 UNL     1      20.683  -1.197  53.665  1.00  0.00     0.365 C 
HETATM   22  O3  UNL     1      20.949  -1.904  54.623  1.00  0.00    -0.238 OA
HETATM   23  N4  UNL     1      19.349  -1.649  53.616  1.00  0.00    -0.333 N 
HETATM   24  C23 UNL     1      18.154  -2.337  53.906  1.00  0.00     0.169 C 
HETATM   25  H17 UNL     1      19.136  -1.122  52.750  1.00  0.00     0.164 HD
ENDROOT
BRANCH  11  26
HETATM   26  C8  UNL     1      21.325   3.329  48.435  1.00  0.00     0.041 A 
HETATM   27  C9  UNL     1      21.480   3.117  47.096  1.00  0.00     0.030 A 
HETATM   28  C10 UNL     1      21.966   4.005  46.161  1.00  0.00     0.004 A 
HETATM   29  C11 UNL     1      22.340   5.253  46.622  1.00  0.00     0.019 A 
HETATM   30  C12 UNL     1      22.201   5.521  47.982  1.00  0.00     0.013 A 
HETATM   31 BR1  UNL     1      22.756   7.303  48.463  1.00  0.00    -0.051 Br
HETATM   32  C13 UNL     1      21.703   4.596  48.911  1.00  0.00     0.049 A 
ENDBRANCH  11  26
TORSDOF 1
ENDMDL
