MODEL 1
REMARK VINA RESULT:      -8.9      0.000      0.000
REMARK  4 active torsions:
REMARK  status: ('A' for Active; 'I' for Inactive)
REMARK       I    between atoms: C1_2  and  N1_3 
REMARK    1  A    between atoms: C1_2  and  C14_20 
REMARK    2  A    between atoms: N1_3  and  C2_4 
REMARK    3  A    between atoms: C15_22  and  C16_23 
REMARK    4  A    between atoms: C16_23  and  N5_24 
ROOT
HETATM    1  C2  UNL     1      26.192   4.324  49.443  1.00  0.00     0.014 C 
HETATM    2  C3  UNL     1      26.041   3.489  50.450  1.00  0.00     0.032 C 
HETATM    3  C4  UNL     1      24.689   3.409  51.011  1.00  0.00     0.183 C 
HETATM    4  N2  UNL     1      24.528   2.297  51.897  1.00  0.00    -0.290 NA
HETATM    5  C5  UNL     1      25.350   1.696  52.629  1.00  0.00     0.086 C 
HETATM    6  C6  UNL     1      24.644   0.613  53.336  1.00  0.00     0.021 C 
HETATM    7  C7  UNL     1      23.360   0.696  52.908  1.00  0.00     0.075 C 
HETATM    8  C8  UNL     1      22.242  -0.192  53.338  1.00  0.00     0.009 C 
HETATM    9 BR1  UNL     1      21.506  -1.674  54.367  1.00  0.00    -0.054 Br
HETATM   10  C9  UNL     1      21.163   0.248  52.666  1.00  0.00     0.104 C 
HETATM   11  N3  UNL     1      21.156   1.336  51.754  1.00  0.00    -0.360 N 
HETATM   12  C10 UNL     1      22.157   2.233  51.297  1.00  0.00     0.207 C 
HETATM   13  N4  UNL     1      22.671   2.260  50.091  1.00  0.00    -0.246 NA
HETATM   14  C11 UNL     1      23.668   3.274  49.913  1.00  0.00     0.061 C 
HETATM   15  C12 UNL     1      23.855   4.125  48.928  1.00  0.00     0.009 C 
HETATM   16  C13 UNL     1      24.997   5.076  49.010  1.00  0.00     0.086 C 
HETATM   17  H8  UNL     1      20.392   1.747  51.186  1.00  0.00     0.166 HD
ENDROOT
BRANCH   1  18
HETATM   18  N1  UNL     1      27.386   4.583  48.735  1.00  0.00    -0.328 N 
HETATM   19  C1  UNL     1      27.975   5.823  48.480  1.00  0.00     0.253 C 
HETATM   20  O1  UNL     1      27.519   6.930  48.852  1.00  0.00    -0.270 OA
HETATM   21  H1  UNL     1      27.980   3.843  48.308  1.00  0.00     0.168 HD
BRANCH  19  22
HETATM   22  C14 UNL     1      29.192   6.297  47.777  1.00  0.00     0.244 A 
HETATM   23  O2  UNL     1      30.086   7.111  48.481  1.00  0.00    -0.364 OA
HETATM   24  C15 UNL     1      30.486   5.802  48.371  1.00  0.00     0.189 A 
BRANCH  24  25
HETATM   25  C16 UNL     1      31.582   5.332  47.498  1.00  0.00     0.307 C 
BRANCH  25  26
HETATM   26  N5  UNL     1      32.576   4.466  48.024  1.00  0.00     0.091 N 
HETATM   27  C17 UNL     1      33.855   5.140  48.215  1.00  0.00     0.272 C 
HETATM   28  C18 UNL     1      34.402   5.489  46.883  1.00  0.00     0.030 C 
HETATM   29  C19 UNL     1      34.672   4.259  46.086  1.00  0.00     0.003 C 
HETATM   30  C20 UNL     1      34.046   3.016  46.625  1.00  0.00     0.030 C 
HETATM   31  C21 UNL     1      32.750   3.211  47.346  1.00  0.00     0.272 C 
ENDBRANCH  25  26
ENDBRANCH  24  25
ENDBRANCH  19  22
ENDBRANCH   1  18
TORSDOF 4
ENDMDL
MODEL 2
REMARK VINA RESULT:      -8.8      4.509      8.857
REMARK  4 active torsions:
REMARK  status: ('A' for Active; 'I' for Inactive)
REMARK       I    between atoms: C1_2  and  N1_3 
REMARK    1  A    between atoms: C1_2  and  C14_20 
REMARK    2  A    between atoms: N1_3  and  C2_4 
REMARK    3  A    between atoms: C15_22  and  C16_23 
REMARK    4  A    between atoms: C16_23  and  N5_24 
ROOT
HETATM    1  C2  UNL     1      24.178   4.376  50.133  1.00  0.00     0.014 C 
HETATM    2  C3  UNL     1      25.378   4.480  49.602  1.00  0.00     0.032 C 
HETATM    3  C4  UNL     1      25.712   5.794  49.044  1.00  0.00     0.183 C 
HETATM    4  N2  UNL     1      27.106   5.923  48.744  1.00  0.00    -0.290 NA
HETATM    5  C5  UNL     1      27.965   5.069  48.420  1.00  0.00     0.086 C 
HETATM    6  C6  UNL     1      29.256   5.753  48.227  1.00  0.00     0.021 C 
HETATM    7  C7  UNL     1      29.000   7.060  48.482  1.00  0.00     0.075 C 
HETATM    8  C8  UNL     1      29.996   8.168  48.420  1.00  0.00     0.009 C 
HETATM    9 BR1  UNL     1      31.788   8.870  48.119  1.00  0.00    -0.054 Br
HETATM   10  C9  UNL     1      29.309   9.279  48.746  1.00  0.00     0.104 C 
HETATM   11  N3  UNL     1      27.927   9.319  49.068  1.00  0.00    -0.360 N 
HETATM   12  C10 UNL     1      26.913   8.329  49.142  1.00  0.00     0.207 C 
HETATM   13  N4  UNL     1      26.341   7.896  50.239  1.00  0.00    -0.246 NA
HETATM   14  C11 UNL     1      25.348   6.888  50.011  1.00  0.00     0.061 C 
HETATM   15  C12 UNL     1      24.142   6.746  50.519  1.00  0.00     0.009 C 
HETATM   16  C13 UNL     1      23.321   5.579  50.098  1.00  0.00     0.086 C 
HETATM   17  H8  UNL     1      27.310  10.109  49.336  1.00  0.00     0.166 HD
ENDROOT
BRANCH   1  18
HETATM   18  N1  UNL     1      23.618   3.225  50.731  1.00  0.00    -0.328 N 
HETATM   19  C1  UNL     1      23.584   2.901  52.089  1.00  0.00     0.253 C 
HETATM   20  O1  UNL     1      24.061   3.602  53.013  1.00  0.00    -0.270 OA
HETATM   21  H1  UNL     1      23.151   2.464  50.199  1.00  0.00     0.168 HD
BRANCH  19  22
HETATM   22  C14 UNL     1      23.059   1.775  52.900  1.00  0.00     0.244 A 
HETATM   23  O2  UNL     1      22.509   0.678  52.228  1.00  0.00    -0.364 OA
HETATM   24  C15 UNL     1      23.783   0.469  52.695  1.00  0.00     0.189 A 
BRANCH  24  25
HETATM   25  C16 UNL     1      24.123  -0.391  53.847  1.00  0.00     0.307 C 
BRANCH  25  26
HETATM   26  N5  UNL     1      25.451  -0.869  54.000  1.00  0.00     0.091 N 
HETATM   27  C17 UNL     1      26.223  -0.065  54.940  1.00  0.00     0.272 C 
HETATM   28  C18 UNL     1      26.429   1.277  54.346  1.00  0.00     0.030 C 
HETATM   29  C19 UNL     1      27.229   1.182  53.093  1.00  0.00     0.003 C 
HETATM   30  C20 UNL     1      27.353  -0.196  52.535  1.00  0.00     0.030 C 
HETATM   31  C21 UNL     1      26.188  -1.099  52.789  1.00  0.00     0.272 C 
ENDBRANCH  25  26
ENDBRANCH  24  25
ENDBRANCH  19  22
ENDBRANCH   1  18
TORSDOF 4
ENDMDL
MODEL 3
REMARK VINA RESULT:      -8.6      6.104      8.245
REMARK  4 active torsions:
REMARK  status: ('A' for Active; 'I' for Inactive)
REMARK       I    between atoms: C1_2  and  N1_3 
REMARK    1  A    between atoms: C1_2  and  C14_20 
REMARK    2  A    between atoms: N1_3  and  C2_4 
REMARK    3  A    between atoms: C15_22  and  C16_23 
REMARK    4  A    between atoms: C16_23  and  N5_24 
ROOT
HETATM    1  C2  UNL     1      20.480   0.652  52.889  1.00  0.00     0.014 C 
HETATM    2  C3  UNL     1      19.829  -0.436  53.242  1.00  0.00     0.032 C 
HETATM    3  C4  UNL     1      18.381  -0.411  53.011  1.00  0.00     0.183 C 
HETATM    4  N2  UNL     1      17.783  -1.704  53.148  1.00  0.00    -0.290 NA
HETATM    5  C5  UNL     1      18.106  -2.697  53.843  1.00  0.00     0.086 C 
HETATM    6  C6  UNL     1      17.133  -3.776  53.599  1.00  0.00     0.021 C 
HETATM    7  C7  UNL     1      16.256  -3.260  52.702  1.00  0.00     0.075 C 
HETATM    8  C8  UNL     1      15.075  -3.971  52.135  1.00  0.00     0.009 C 
HETATM    9 BR1  UNL     1      13.909  -5.522  51.956  1.00  0.00    -0.054 Br
HETATM   10  C9  UNL     1      14.500  -3.089  51.298  1.00  0.00     0.104 C 
HETATM   11  N3  UNL     1      14.969  -1.772  51.052  1.00  0.00    -0.360 N 
HETATM   12  C10 UNL     1      16.064  -1.017  51.548  1.00  0.00     0.207 C 
HETATM   13  N4  UNL     1      17.127  -0.667  50.866  1.00  0.00    -0.246 NA
HETATM   14  C11 UNL     1      18.075   0.092  51.627  1.00  0.00     0.061 C 
HETATM   15  C12 UNL     1      18.747   1.180  51.314  1.00  0.00     0.009 C 
HETATM   16  C13 UNL     1      19.684   1.756  52.316  1.00  0.00     0.086 C 
HETATM   17  H8  UNL     1      14.610  -1.023  50.430  1.00  0.00     0.166 HD
ENDROOT
BRANCH   1  18
HETATM   18  N1  UNL     1      21.870   0.879  53.009  1.00  0.00    -0.328 N 
HETATM   19  C1  UNL     1      22.781   1.144  51.985  1.00  0.00     0.253 C 
HETATM   20  O1  UNL     1      22.498   1.224  50.766  1.00  0.00    -0.270 OA
HETATM   21  H1  UNL     1      22.383   0.870  53.913  1.00  0.00     0.168 HD
BRANCH  19  22
HETATM   22  C14 UNL     1      24.240   1.405  51.902  1.00  0.00     0.244 A 
HETATM   23  O2  UNL     1      24.857   2.048  52.979  1.00  0.00    -0.364 OA
HETATM   24  C15 UNL     1      25.060   0.691  52.945  1.00  0.00     0.189 A 
BRANCH  24  25
HETATM   25  C16 UNL     1      26.338   0.044  52.584  1.00  0.00     0.307 C 
BRANCH  25  26
HETATM   26  N5  UNL     1      27.044  -0.710  53.558  1.00  0.00     0.091 N 
HETATM   27  C17 UNL     1      27.550   0.123  54.642  1.00  0.00     0.272 C 
HETATM   28  C18 UNL     1      28.603   1.011  54.095  1.00  0.00     0.030 C 
HETATM   29  C19 UNL     1      29.753   0.214  53.584  1.00  0.00     0.003 C 
HETATM   30  C20 UNL     1      29.476  -1.244  53.416  1.00  0.00     0.030 C 
HETATM   31  C21 UNL     1      28.065  -1.592  53.063  1.00  0.00     0.272 C 
ENDBRANCH  25  26
ENDBRANCH  24  25
ENDBRANCH  19  22
ENDBRANCH   1  18
TORSDOF 4
ENDMDL
MODEL 4
REMARK VINA RESULT:      -8.2      4.395     10.393
REMARK  4 active torsions:
REMARK  status: ('A' for Active; 'I' for Inactive)
REMARK       I    between atoms: C1_2  and  N1_3 
REMARK    1  A    between atoms: C1_2  and  C14_20 
REMARK    2  A    between atoms: N1_3  and  C2_4 
REMARK    3  A    between atoms: C15_22  and  C16_23 
REMARK    4  A    between atoms: C16_23  and  N5_24 
ROOT
HETATM    1  C2  UNL     1      25.562   6.184  49.886  1.00  0.00     0.014 C 
HETATM    2  C3  UNL     1      26.715   5.994  49.281  1.00  0.00     0.032 C 
HETATM    3  C4  UNL     1      27.274   7.165  48.598  1.00  0.00     0.183 C 
HETATM    4  N2  UNL     1      28.638   6.974  48.210  1.00  0.00    -0.290 NA
HETATM    5  C5  UNL     1      29.276   5.936  47.910  1.00  0.00     0.086 C 
HETATM    6  C6  UNL     1      30.663   6.315  47.589  1.00  0.00     0.021 C 
HETATM    7  C7  UNL     1      30.703   7.661  47.749  1.00  0.00     0.075 C 
HETATM    8  C8  UNL     1      31.900   8.525  47.540  1.00  0.00     0.009 C 
HETATM    9 BR1  UNL     1      33.773   8.807  47.080  1.00  0.00    -0.054 Br
HETATM   10  C9  UNL     1      31.484   9.776  47.810  1.00  0.00     0.104 C 
HETATM   11  N3  UNL     1      30.168  10.131  48.206  1.00  0.00    -0.360 N 
HETATM   12  C10 UNL     1      28.978   9.387  48.418  1.00  0.00     0.207 C 
HETATM   13  N4  UNL     1      28.410   9.162  49.578  1.00  0.00    -0.246 NA
HETATM   14  C11 UNL     1      27.216   8.375  49.491  1.00  0.00     0.061 C 
HETATM   15  C12 UNL     1      26.047   8.529  50.075  1.00  0.00     0.009 C 
HETATM   16  C13 UNL     1      24.973   7.536  49.800  1.00  0.00     0.086 C 
HETATM   17  H8  UNL     1      29.750  11.051  48.442  1.00  0.00     0.166 HD
ENDROOT
BRANCH   1  18
HETATM   18  N1  UNL     1      24.820   5.223  50.608  1.00  0.00    -0.328 N 
HETATM   19  C1  UNL     1      23.886   4.314  50.106  1.00  0.00     0.253 C 
HETATM   20  O1  UNL     1      23.553   4.209  48.902  1.00  0.00    -0.270 OA
HETATM   21  H1  UNL     1      24.894   5.085  51.636  1.00  0.00     0.168 HD
BRANCH  19  22
HETATM   22  C14 UNL     1      23.024   3.251  50.679  1.00  0.00     0.244 A 
HETATM   23  O2  UNL     1      23.078   1.976  50.105  1.00  0.00    -0.364 OA
HETATM   24  C15 UNL     1      23.779   2.094  51.279  1.00  0.00     0.189 A 
BRANCH  24  25
HETATM   25  C16 UNL     1      23.357   1.508  52.569  1.00  0.00     0.307 C 
BRANCH  25  26
HETATM   26  N5  UNL     1      22.943   0.151  52.622  1.00  0.00     0.091 N 
HETATM   27  C17 UNL     1      21.507   0.002  52.418  1.00  0.00     0.272 C 
HETATM   28  C18 UNL     1      20.806   0.599  53.578  1.00  0.00     0.030 C 
HETATM   29  C19 UNL     1      21.146  -0.130  54.832  1.00  0.00     0.003 C 
HETATM   30  C20 UNL     1      22.326  -1.038  54.726  1.00  0.00     0.030 C 
HETATM   31  C21 UNL     1      23.384  -0.605  53.762  1.00  0.00     0.272 C 
ENDBRANCH  25  26
ENDBRANCH  24  25
ENDBRANCH  19  22
ENDBRANCH   1  18
TORSDOF 4
ENDMDL
MODEL 5
REMARK VINA RESULT:      -8.0      5.949     12.477
REMARK  4 active torsions:
REMARK  status: ('A' for Active; 'I' for Inactive)
REMARK       I    between atoms: C1_2  and  N1_3 
REMARK    1  A    between atoms: C1_2  and  C14_20 
REMARK    2  A    between atoms: N1_3  and  C2_4 
REMARK    3  A    between atoms: C15_22  and  C16_23 
REMARK    4  A    between atoms: C16_23  and  N5_24 
ROOT
HETATM    1  C2  UNL     1      20.360   3.130  50.901  1.00  0.00     0.014 C 
HETATM    2  C3  UNL     1      21.131   2.248  51.500  1.00  0.00     0.032 C 
HETATM    3  C4  UNL     1      22.520   2.198  51.032  1.00  0.00     0.183 C 
HETATM    4  N2  UNL     1      23.364   1.434  51.899  1.00  0.00    -0.290 NA
HETATM    5  C5  UNL     1      23.113   0.465  52.655  1.00  0.00     0.086 C 
HETATM    6  C6  UNL     1      24.361   0.059  53.326  1.00  0.00     0.021 C 
HETATM    7  C7  UNL     1      25.304   0.910  52.852  1.00  0.00     0.075 C 
HETATM    8  C8  UNL     1      26.746   0.907  53.233  1.00  0.00     0.009 C 
HETATM    9 BR1  UNL     1      28.274   0.214  54.224  1.00  0.00    -0.054 Br
HETATM   10  C9  UNL     1      27.299   1.911  52.528  1.00  0.00     0.104 C 
HETATM   11  N3  UNL     1      26.601   2.758  51.628  1.00  0.00    -0.360 N 
HETATM   12  C10 UNL     1      25.249   2.827  51.202  1.00  0.00     0.207 C 
HETATM   13  N4  UNL     1      24.397   3.776  51.505  1.00  0.00    -0.246 NA
HETATM   14  C11 UNL     1      23.096   3.584  50.935  1.00  0.00     0.061 C 
HETATM   15  C12 UNL     1      22.294   4.435  50.331  1.00  0.00     0.009 C 
HETATM   16  C13 UNL     1      20.976   3.950  49.838  1.00  0.00     0.086 C 
HETATM   17  H8  UNL     1      26.926   3.555  51.048  1.00  0.00     0.166 HD
ENDROOT
BRANCH   1  18
HETATM   18  N1  UNL     1      18.993   3.373  51.167  1.00  0.00    -0.328 N 
HETATM   19  C1  UNL     1      17.888   2.823  50.514  1.00  0.00     0.253 C 
HETATM   20  O1  UNL     1      17.940   2.006  49.565  1.00  0.00    -0.270 OA
HETATM   21  H1  UNL     1      18.652   4.016  51.909  1.00  0.00     0.168 HD
BRANCH  19  22
HETATM   22  C14 UNL     1      16.414   2.943  50.637  1.00  0.00     0.244 A 
HETATM   23  O2  UNL     1      15.658   1.767  50.682  1.00  0.00    -0.364 OA
HETATM   24  C15 UNL     1      15.846   2.360  51.906  1.00  0.00     0.189 A 
BRANCH  24  25
HETATM   25  C16 UNL     1      14.797   3.077  52.659  1.00  0.00     0.307 C 
BRANCH  25  26
HETATM   26  N5  UNL     1      13.449   2.638  52.578  1.00  0.00     0.091 N 
HETATM   27  C17 UNL     1      12.531   3.726  52.262  1.00  0.00     0.272 C 
HETATM   28  C18 UNL     1      12.498   4.658  53.414  1.00  0.00     0.030 C 
HETATM   29  C19 UNL     1      11.967   3.977  54.628  1.00  0.00     0.003 C 
HETATM   30  C20 UNL     1      11.910   2.488  54.534  1.00  0.00     0.030 C 
HETATM   31  C21 UNL     1      12.966   1.858  53.683  1.00  0.00     0.272 C 
ENDBRANCH  25  26
ENDBRANCH  24  25
ENDBRANCH  19  22
ENDBRANCH   1  18
TORSDOF 4
ENDMDL
MODEL 6
REMARK VINA RESULT:      -8.0      6.218     12.052
REMARK  4 active torsions:
REMARK  status: ('A' for Active; 'I' for Inactive)
REMARK       I    between atoms: C1_2  and  N1_3 
REMARK    1  A    between atoms: C1_2  and  C14_20 
REMARK    2  A    between atoms: N1_3  and  C2_4 
REMARK    3  A    between atoms: C15_22  and  C16_23 
REMARK    4  A    between atoms: C16_23  and  N5_24 
ROOT
HETATM    1  C2  UNL     1      21.016   1.432  52.188  1.00  0.00     0.014 C 
HETATM    2  C3  UNL     1      22.284   1.723  51.991  1.00  0.00     0.032 C 
HETATM    3  C4  UNL     1      23.187   1.407  53.102  1.00  0.00     0.183 C 
HETATM    4  N2  UNL     1      24.566   1.480  52.725  1.00  0.00    -0.290 NA
HETATM    5  C5  UNL     1      25.152   2.170  51.856  1.00  0.00     0.086 C 
HETATM    6  C6  UNL     1      26.589   1.846  51.891  1.00  0.00     0.021 C 
HETATM    7  C7  UNL     1      26.712   0.911  52.866  1.00  0.00     0.075 C 
HETATM    8  C8  UNL     1      27.985   0.260  53.287  1.00  0.00     0.009 C 
HETATM    9 BR1  UNL     1      29.910  -0.021  53.166  1.00  0.00    -0.054 Br
HETATM   10  C9  UNL     1      27.638  -0.590  54.271  1.00  0.00     0.104 C 
HETATM   11  N3  UNL     1      26.319  -0.778  54.760  1.00  0.00    -0.360 N 
HETATM   12  C10 UNL     1      25.064  -0.202  54.430  1.00  0.00     0.207 C 
HETATM   13  N4  UNL     1      24.074  -0.813  53.826  1.00  0.00    -0.246 NA
HETATM   14  C11 UNL     1      22.925   0.019  53.619  1.00  0.00     0.061 C 
HETATM   15  C12 UNL     1      21.647  -0.230  53.802  1.00  0.00     0.009 C 
HETATM   16  C13 UNL     1      20.657   0.838  53.492  1.00  0.00     0.086 C 
HETATM   17  H8  UNL     1      25.946  -1.403  55.499  1.00  0.00     0.166 HD
ENDROOT
BRANCH   1  18
HETATM   18  N1  UNL     1      19.953   1.638  51.280  1.00  0.00    -0.328 N 
HETATM   19  C1  UNL     1      19.015   2.673  51.286  1.00  0.00     0.253 C 
HETATM   20  O1  UNL     1      18.971   3.605  52.123  1.00  0.00    -0.270 OA
HETATM   21  H1  UNL     1      19.747   1.012  50.476  1.00  0.00     0.168 HD
BRANCH  19  22
HETATM   22  C14 UNL     1      17.855   3.060  50.446  1.00  0.00     0.244 A 
HETATM   23  O2  UNL     1      17.382   2.136  49.508  1.00  0.00    -0.364 OA
HETATM   24  C15 UNL     1      16.627   2.210  50.652  1.00  0.00     0.189 A 
BRANCH  24  25
HETATM   25  C16 UNL     1      15.288   2.830  50.734  1.00  0.00     0.307 C 
BRANCH  25  26
HETATM   26  N5  UNL     1      14.418   2.486  51.801  1.00  0.00     0.091 N 
HETATM   27  C17 UNL     1      13.026   2.403  51.376  1.00  0.00     0.272 C 
HETATM   28  C18 UNL     1      12.567   3.764  51.011  1.00  0.00     0.030 C 
HETATM   29  C19 UNL     1      12.609   4.669  52.194  1.00  0.00     0.003 C 
HETATM   30  C20 UNL     1      13.390   4.145  53.354  1.00  0.00     0.030 C 
HETATM   31  C21 UNL     1      14.546   3.263  53.003  1.00  0.00     0.272 C 
ENDBRANCH  25  26
ENDBRANCH  24  25
ENDBRANCH  19  22
ENDBRANCH   1  18
TORSDOF 4
ENDMDL
MODEL 7
REMARK VINA RESULT:      -8.0      4.158      9.898
REMARK  4 active torsions:
REMARK  status: ('A' for Active; 'I' for Inactive)
REMARK       I    between atoms: C1_2  and  N1_3 
REMARK    1  A    between atoms: C1_2  and  C14_20 
REMARK    2  A    between atoms: N1_3  and  C2_4 
REMARK    3  A    between atoms: C15_22  and  C16_23 
REMARK    4  A    between atoms: C16_23  and  N5_24 
ROOT
HETATM    1  C2  UNL     1      25.970   4.877  49.349  1.00  0.00     0.014 C 
HETATM    2  C3  UNL     1      27.221   4.885  48.938  1.00  0.00     0.032 C 
HETATM    3  C4  UNL     1      27.642   6.087  48.213  1.00  0.00     0.183 C 
HETATM    4  N2  UNL     1      29.062   6.157  48.045  1.00  0.00    -0.290 NA
HETATM    5  C5  UNL     1      29.930   5.256  47.956  1.00  0.00     0.086 C 
HETATM    6  C6  UNL     1      31.249   5.891  47.792  1.00  0.00     0.021 C 
HETATM    7  C7  UNL     1      30.999   7.224  47.803  1.00  0.00     0.075 C 
HETATM    8  C8  UNL     1      32.021   8.301  47.668  1.00  0.00     0.009 C 
HETATM    9 BR1  UNL     1      33.851   8.933  47.448  1.00  0.00    -0.054 Br
HETATM   10  C9  UNL     1      31.330   9.454  47.734  1.00  0.00     0.104 C 
HETATM   11  N3  UNL     1      29.924   9.555  47.898  1.00  0.00    -0.360 N 
HETATM   12  C10 UNL     1      28.884   8.596  48.024  1.00  0.00     0.207 C 
HETATM   13  N4  UNL     1      28.193   8.353  49.110  1.00  0.00    -0.246 NA
HETATM   14  C11 UNL     1      27.205   7.327  48.945  1.00  0.00     0.061 C 
HETATM   15  C12 UNL     1      25.951   7.278  49.339  1.00  0.00     0.009 C 
HETATM   16  C13 UNL     1      25.150   6.063  49.029  1.00  0.00     0.086 C 
HETATM   17  H8  UNL     1      29.301  10.382  47.967  1.00  0.00     0.166 HD
ENDROOT
BRANCH   1  18
HETATM   18  N1  UNL     1      25.325   3.843  50.064  1.00  0.00    -0.328 N 
HETATM   19  C1  UNL     1      25.907   2.909  50.924  1.00  0.00     0.253 C 
HETATM   20  O1  UNL     1      27.128   2.844  51.202  1.00  0.00    -0.270 OA
HETATM   21  H1  UNL     1      24.302   3.660  50.022  1.00  0.00     0.168 HD
BRANCH  19  22
HETATM   22  C14 UNL     1      25.419   1.776  51.749  1.00  0.00     0.244 A 
HETATM   23  O2  UNL     1      25.696   1.792  53.120  1.00  0.00    -0.364 OA
HETATM   24  C15 UNL     1      24.413   2.162  52.802  1.00  0.00     0.189 A 
BRANCH  24  25
HETATM   25  C16 UNL     1      23.217   1.327  53.041  1.00  0.00     0.307 C 
BRANCH  25  26
HETATM   26  N5  UNL     1      21.935   1.818  52.681  1.00  0.00     0.091 N 
HETATM   27  C17 UNL     1      21.172   0.852  51.898  1.00  0.00     0.272 C 
HETATM   28  C18 UNL     1      21.837   0.688  50.584  1.00  0.00     0.030 C 
HETATM   29  C19 UNL     1      21.827   1.969  49.824  1.00  0.00     0.003 C 
HETATM   30  C20 UNL     1      21.483   3.174  50.636  1.00  0.00     0.030 C 
HETATM   31  C21 UNL     1      21.899   3.119  52.072  1.00  0.00     0.272 C 
ENDBRANCH  25  26
ENDBRANCH  24  25
ENDBRANCH  19  22
ENDBRANCH   1  18
TORSDOF 4
ENDMDL
MODEL 8
REMARK VINA RESULT:      -7.9      3.878      5.060
REMARK  4 active torsions:
REMARK  status: ('A' for Active; 'I' for Inactive)
REMARK       I    between atoms: C1_2  and  N1_3 
REMARK    1  A    between atoms: C1_2  and  C14_20 
REMARK    2  A    between atoms: N1_3  and  C2_4 
REMARK    3  A    between atoms: C15_22  and  C16_23 
REMARK    4  A    between atoms: C16_23  and  N5_24 
ROOT
HETATM    1  C2  UNL     1      27.622   5.693  48.609  1.00  0.00     0.014 C 
HETATM    2  C3  UNL     1      26.717   6.612  48.345  1.00  0.00     0.032 C 
HETATM    3  C4  UNL     1      25.321   6.179  48.459  1.00  0.00     0.183 C 
HETATM    4  N2  UNL     1      24.403   7.276  48.439  1.00  0.00    -0.290 NA
HETATM    5  C5  UNL     1      24.477   8.407  47.900  1.00  0.00     0.086 C 
HETATM    6  C6  UNL     1      23.240   9.150  48.200  1.00  0.00     0.021 C 
HETATM    7  C7  UNL     1      22.498   8.302  48.955  1.00  0.00     0.075 C 
HETATM    8  C8  UNL     1      21.147   8.594  49.514  1.00  0.00     0.009 C 
HETATM    9 BR1  UNL     1      19.601   9.747  49.794  1.00  0.00    -0.054 Br
HETATM   10  C9  UNL     1      20.796   7.483  50.187  1.00  0.00     0.104 C 
HETATM   11  N3  UNL     1      21.591   6.313  50.302  1.00  0.00    -0.360 N 
HETATM   12  C10 UNL     1      22.868   5.947  49.802  1.00  0.00     0.207 C 
HETATM   13  N4  UNL     1      23.957   5.794  50.516  1.00  0.00    -0.246 NA
HETATM   14  C11 UNL     1      25.105   5.423  49.742  1.00  0.00     0.061 C 
HETATM   15  C12 UNL     1      26.030   4.515  49.968  1.00  0.00     0.009 C 
HETATM   16  C13 UNL     1      27.128   4.350  48.977  1.00  0.00     0.086 C 
HETATM   17  H8  UNL     1      21.421   5.417  50.797  1.00  0.00     0.166 HD
ENDROOT
BRANCH   1  18
HETATM   18  N1  UNL     1      29.025   5.855  48.570  1.00  0.00    -0.328 N 
HETATM   19  C1  UNL     1      29.746   7.049  48.627  1.00  0.00     0.253 C 
HETATM   20  O1  UNL     1      29.244   8.194  48.724  1.00  0.00    -0.270 OA
HETATM   21  H1  UNL     1      29.698   5.067  48.491  1.00  0.00     0.168 HD
BRANCH  19  22
HETATM   22  C14 UNL     1      31.181   7.426  48.603  1.00  0.00     0.244 A 
HETATM   23  O2  UNL     1      31.839   7.596  49.825  1.00  0.00    -0.364 OA
HETATM   24  C15 UNL     1      32.104   6.399  49.207  1.00  0.00     0.189 A 
BRANCH  24  25
HETATM   25  C16 UNL     1      33.384   6.060  48.552  1.00  0.00     0.307 C 
BRANCH  25  26
HETATM   26  N5  UNL     1      33.630   4.724  48.139  1.00  0.00     0.091 N 
HETATM   27  C17 UNL     1      34.617   4.649  47.068  1.00  0.00     0.272 C 
HETATM   28  C18 UNL     1      34.033   5.261  45.852  1.00  0.00     0.030 C 
HETATM   29  C19 UNL     1      32.838   4.497  45.398  1.00  0.00     0.003 C 
HETATM   30  C20 UNL     1      32.295   3.534  46.401  1.00  0.00     0.030 C 
HETATM   31  C21 UNL     1      32.472   3.930  47.832  1.00  0.00     0.272 C 
ENDBRANCH  25  26
ENDBRANCH  24  25
ENDBRANCH  19  22
ENDBRANCH   1  18
TORSDOF 4
ENDMDL
MODEL 9
REMARK VINA RESULT:      -7.9      3.463      4.587
REMARK  4 active torsions:
REMARK  status: ('A' for Active; 'I' for Inactive)
REMARK       I    between atoms: C1_2  and  N1_3 
REMARK    1  A    between atoms: C1_2  and  C14_20 
REMARK    2  A    between atoms: N1_3  and  C2_4 
REMARK    3  A    between atoms: C15_22  and  C16_23 
REMARK    4  A    between atoms: C16_23  and  N5_24 
ROOT
HETATM    1  C2  UNL     1      25.278   3.744  50.071  1.00  0.00     0.014 C 
HETATM    2  C3  UNL     1      24.073   3.232  49.929  1.00  0.00     0.032 C 
HETATM    3  C4  UNL     1      23.845   1.950  50.602  1.00  0.00     0.183 C 
HETATM    4  N2  UNL     1      22.460   1.593  50.647  1.00  0.00    -0.290 NA
HETATM    5  C5  UNL     1      21.509   1.867  49.876  1.00  0.00     0.086 C 
HETATM    6  C6  UNL     1      20.284   1.239  50.401  1.00  0.00     0.021 C 
HETATM    7  C7  UNL     1      20.676   0.602  51.533  1.00  0.00     0.075 C 
HETATM    8  C8  UNL     1      19.791  -0.189  52.435  1.00  0.00     0.009 C 
HETATM    9 BR1  UNL     1      18.064  -0.928  52.954  1.00  0.00    -0.054 Br
HETATM   10  C9  UNL     1      20.594  -0.632  53.419  1.00  0.00     0.104 C 
HETATM   11  N3  UNL     1      21.985  -0.367  53.518  1.00  0.00    -0.360 N 
HETATM   12  C10 UNL     1      22.901   0.358  52.711  1.00  0.00     0.207 C 
HETATM   13  N4  UNL     1      23.472   1.494  53.030  1.00  0.00    -0.246 NA
HETATM   14  C11 UNL     1      24.353   1.999  52.018  1.00  0.00     0.061 C 
HETATM   15  C12 UNL     1      25.558   2.517  52.116  1.00  0.00     0.009 C 
HETATM   16  C13 UNL     1      26.245   2.971  50.876  1.00  0.00     0.086 C 
HETATM   17  H8  UNL     1      22.686  -0.650  54.229  1.00  0.00     0.166 HD
ENDROOT
BRANCH   1  18
HETATM   18  N1  UNL     1      25.747   4.959  49.524  1.00  0.00    -0.328 N 
HETATM   19  C1  UNL     1      26.965   5.191  48.881  1.00  0.00     0.253 C 
HETATM   20  O1  UNL     1      27.855   4.330  48.686  1.00  0.00    -0.270 OA
HETATM   21  H1  UNL     1      25.210   5.850  49.544  1.00  0.00     0.168 HD
BRANCH  19  22
HETATM   22  C14 UNL     1      27.629   6.359  48.253  1.00  0.00     0.244 A 
HETATM   23  O2  UNL     1      26.827   7.304  47.604  1.00  0.00    -0.364 OA
HETATM   24  C15 UNL     1      27.248   7.688  48.853  1.00  0.00     0.189 A 
BRANCH  24  25
HETATM   25  C16 UNL     1      28.275   8.719  49.109  1.00  0.00     0.307 C 
BRANCH  25  26
HETATM   26  N5  UNL     1      28.369   9.847  48.252  1.00  0.00     0.091 N 
HETATM   27  C17 UNL     1      29.588   9.833  47.451  1.00  0.00     0.272 C 
HETATM   28  C18 UNL     1      30.744  10.020  48.358  1.00  0.00     0.030 C 
HETATM   29  C19 UNL     1      30.679  11.348  49.030  1.00  0.00     0.003 C 
HETATM   30  C20 UNL     1      29.357  12.035  48.926  1.00  0.00     0.030 C 
HETATM   31  C21 UNL     1      28.167  11.131  48.864  1.00  0.00     0.272 C 
ENDBRANCH  25  26
ENDBRANCH  24  25
ENDBRANCH  19  22
ENDBRANCH   1  18
TORSDOF 4
ENDMDL
