MODEL 1
REMARK VINA RESULT:      -7.5      0.000      0.000
REMARK  2 active torsions:
REMARK  status: ('A' for Active; 'I' for Inactive)
REMARK    1  A    between atoms: C2_2  and  C3_3 
REMARK       I    between atoms: C3_3  and  N1_5 
REMARK    2  A    between atoms: C10_15  and  C11_16 
ROOT
HETATM    1  C3  UNL     1      25.916  -0.096  52.987  1.00  0.00     0.219 C 
HETATM    2  O1  UNL     1      26.431  -0.974  52.225  1.00  0.00    -0.273 OA
HETATM    3  N1  UNL     1      26.147   1.328  53.008  1.00  0.00    -0.351 N 
HETATM    4  C4  UNL     1      25.628   2.482  53.831  1.00  0.00     0.129 C 
HETATM    5  C5  UNL     1      24.690   2.994  52.928  1.00  0.00     0.048 C 
HETATM    6  C6  UNL     1      23.710   3.914  52.531  1.00  0.00    -0.008 C 
HETATM    7  C7  UNL     1      23.918   4.465  51.317  1.00  0.00     0.091 C 
HETATM    8  N2  UNL     1      24.888   4.439  50.170  1.00  0.00    -0.317 N 
HETATM    9  C8  UNL     1      25.440   3.214  50.268  1.00  0.00     0.111 C 
HETATM   10  N3  UNL     1      24.468   2.817  49.446  1.00  0.00    -0.229 NA
HETATM   11  C9  UNL     1      23.541   3.810  48.922  1.00  0.00     0.231 C 
HETATM   12  N4  UNL     1      23.286   5.175  48.939  1.00  0.00    -0.252 NA
HETATM   13  C10 UNL     1      24.462   5.742  49.820  1.00  0.00     0.248 C 
HETATM   14  C17 UNL     1      26.401   2.317  50.690  1.00  0.00     0.098 C 
HETATM   15  C18 UNL     1      26.975   1.921  51.971  1.00  0.00     0.133 C 
ENDROOT
BRANCH  13  16
HETATM   16  C11 UNL     1      25.346   6.481  48.908  1.00  0.00    -0.014 A 
HETATM   17  C12 UNL     1      26.675   6.088  48.958  1.00  0.00     0.011 A 
HETATM   18  C13 UNL     1      27.627   6.691  48.158  1.00  0.00     0.001 A 
HETATM   19  C14 UNL     1      27.281   7.716  47.271  1.00  0.00     0.000 A 
HETATM   20  C15 UNL     1      25.952   8.094  47.236  1.00  0.00     0.001 A 
HETATM   21  C16 UNL     1      24.997   7.496  48.033  1.00  0.00     0.011 A 
ENDBRANCH  13  16
BRANCH   1  22
HETATM   22  C2  UNL     1      24.949  -0.612  53.986  1.00  0.00     0.098 C 
HETATM   23  C1  UNL     1      23.539  -0.547  53.442  1.00  0.00     0.014 C 
ENDBRANCH   1  22
TORSDOF 2
ENDMDL
MODEL 2
REMARK VINA RESULT:      -7.4      3.008      4.975
REMARK  2 active torsions:
REMARK  status: ('A' for Active; 'I' for Inactive)
REMARK    1  A    between atoms: C2_2  and  C3_3 
REMARK       I    between atoms: C3_3  and  N1_5 
REMARK    2  A    between atoms: C10_15  and  C11_16 
ROOT
HETATM    1  C3  UNL     1      27.439   0.076  54.194  1.00  0.00     0.219 C 
HETATM    2  O1  UNL     1      27.112  -0.143  55.403  1.00  0.00    -0.273 OA
HETATM    3  N1  UNL     1      26.598   0.104  53.022  1.00  0.00    -0.351 N 
HETATM    4  C4  UNL     1      26.826   0.344  51.550  1.00  0.00     0.129 C 
HETATM    5  C5  UNL     1      26.392   1.672  51.472  1.00  0.00     0.048 C 
HETATM    6  C6  UNL     1      26.119   2.858  50.777  1.00  0.00    -0.008 C 
HETATM    7  C7  UNL     1      24.884   3.359  50.988  1.00  0.00     0.091 C 
HETATM    8  N2  UNL     1      23.620   3.075  51.750  1.00  0.00    -0.317 N 
HETATM    9  C8  UNL     1      24.054   2.351  52.798  1.00  0.00     0.111 C 
HETATM   10  N3  UNL     1      24.168   3.517  53.434  1.00  0.00    -0.229 NA
HETATM   11  C9  UNL     1      23.742   4.733  52.753  1.00  0.00     0.231 C 
HETATM   12  N4  UNL     1      23.168   5.170  51.567  1.00  0.00    -0.252 NA
HETATM   13  C10 UNL     1      22.907   3.828  50.786  1.00  0.00     0.248 C 
HETATM   14  C17 UNL     1      24.342   1.172  53.458  1.00  0.00     0.098 C 
HETATM   15  C18 UNL     1      25.158  -0.007  53.188  1.00  0.00     0.133 C 
ENDROOT
BRANCH  13  16
HETATM   16  C11 UNL     1      21.450   3.631  50.772  1.00  0.00    -0.014 A 
HETATM   17  C12 UNL     1      20.868   3.767  49.521  1.00  0.00     0.011 A 
HETATM   18  C13 UNL     1      19.505   3.611  49.348  1.00  0.00     0.001 A 
HETATM   19  C14 UNL     1      18.670   3.310  50.430  1.00  0.00     0.000 A 
HETATM   20  C15 UNL     1      19.270   3.179  51.668  1.00  0.00     0.001 A 
HETATM   21  C16 UNL     1      20.629   3.333  51.846  1.00  0.00     0.011 A 
ENDBRANCH  13  16
BRANCH   1  22
HETATM   22  C2  UNL     1      28.881   0.339  53.965  1.00  0.00     0.098 C 
HETATM   23  C1  UNL     1      29.615  -0.951  53.671  1.00  0.00     0.014 C 
ENDBRANCH   1  22
TORSDOF 2
ENDMDL
MODEL 3
REMARK VINA RESULT:      -7.4      3.570      7.714
REMARK  2 active torsions:
REMARK  status: ('A' for Active; 'I' for Inactive)
REMARK    1  A    between atoms: C2_2  and  C3_3 
REMARK       I    between atoms: C3_3  and  N1_5 
REMARK    2  A    between atoms: C10_15  and  C11_16 
ROOT
HETATM    1  C3  UNL     1      22.444   4.968  47.859  1.00  0.00     0.219 C 
HETATM    2  O1  UNL     1      22.836   6.067  48.364  1.00  0.00    -0.273 OA
HETATM    3  N1  UNL     1      22.880   3.627  48.166  1.00  0.00    -0.351 N 
HETATM    4  C4  UNL     1      22.523   2.248  47.669  1.00  0.00     0.129 C 
HETATM    5  C5  UNL     1      21.683   1.846  48.713  1.00  0.00     0.048 C 
HETATM    6  C6  UNL     1      20.854   0.923  49.366  1.00  0.00    -0.008 C 
HETATM    7  C7  UNL     1      21.158   0.718  50.665  1.00  0.00     0.091 C 
HETATM    8  N2  UNL     1      22.131   1.156  51.723  1.00  0.00    -0.317 N 
HETATM    9  C8  UNL     1      22.496   2.384  51.309  1.00  0.00     0.111 C 
HETATM   10  N3  UNL     1      21.489   2.831  52.060  1.00  0.00    -0.229 NA
HETATM   11  C9  UNL     1      20.724   1.876  52.850  1.00  0.00     0.231 C 
HETATM   12  N4  UNL     1      20.671   0.526  53.171  1.00  0.00    -0.252 NA
HETATM   13  C10 UNL     1      21.904  -0.070  52.394  1.00  0.00     0.248 C 
HETATM   14  C17 UNL     1      23.309   3.276  50.639  1.00  0.00     0.098 C 
HETATM   15  C18 UNL     1      23.800   3.424  49.273  1.00  0.00     0.133 C 
ENDROOT
BRANCH  13  16
HETATM   16  C11 UNL     1      22.900  -0.435  53.411  1.00  0.00    -0.014 A 
HETATM   17  C12 UNL     1      22.370  -1.042  54.538  1.00  0.00     0.011 A 
HETATM   18  C13 UNL     1      23.183  -1.443  55.583  1.00  0.00     0.001 A 
HETATM   19  C14 UNL     1      24.568  -1.250  55.533  1.00  0.00     0.000 A 
HETATM   20  C15 UNL     1      25.077  -0.643  54.402  1.00  0.00     0.001 A 
HETATM   21  C16 UNL     1      24.271  -0.241  53.357  1.00  0.00     0.011 A 
ENDBRANCH  13  16
BRANCH   1  22
HETATM   22  C2  UNL     1      21.397   5.087  46.815  1.00  0.00     0.098 C 
HETATM   23  C1  UNL     1      20.021   5.098  47.443  1.00  0.00     0.014 C 
ENDBRANCH   1  22
TORSDOF 2
ENDMDL
MODEL 4
REMARK VINA RESULT:      -7.3      6.342      8.979
REMARK  2 active torsions:
REMARK  status: ('A' for Active; 'I' for Inactive)
REMARK    1  A    between atoms: C2_2  and  C3_3 
REMARK       I    between atoms: C3_3  and  N1_5 
REMARK    2  A    between atoms: C10_15  and  C11_16 
ROOT
HETATM    1  C3  UNL     1      27.773  10.261  48.104  1.00  0.00     0.219 C 
HETATM    2  O1  UNL     1      28.459  11.320  48.260  1.00  0.00    -0.273 OA
HETATM    3  N1  UNL     1      28.036   9.135  47.241  1.00  0.00    -0.351 N 
HETATM    4  C4  UNL     1      27.338   7.830  46.945  1.00  0.00     0.129 C 
HETATM    5  C5  UNL     1      28.124   6.976  47.727  1.00  0.00     0.048 C 
HETATM    6  C6  UNL     1      28.481   5.718  48.230  1.00  0.00    -0.008 C 
HETATM    7  C7  UNL     1      29.788   5.411  48.094  1.00  0.00     0.091 C 
HETATM    8  N2  UNL     1      31.075   5.975  47.561  1.00  0.00    -0.317 N 
HETATM    9  C8  UNL     1      30.875   7.305  47.636  1.00  0.00     0.111 C 
HETATM   10  N3  UNL     1      31.424   7.221  48.849  1.00  0.00    -0.229 NA
HETATM   11  C9  UNL     1      31.926   5.932  49.305  1.00  0.00     0.231 C 
HETATM   12  N4  UNL     1      32.092   4.619  48.883  1.00  0.00    -0.252 NA
HETATM   13  C10 UNL     1      31.554   4.653  47.404  1.00  0.00     0.248 C 
HETATM   14  C17 UNL     1      30.495   8.533  47.132  1.00  0.00     0.098 C 
HETATM   15  C18 UNL     1      29.294   9.085  46.514  1.00  0.00     0.133 C 
ENDROOT
BRANCH  13  16
HETATM   16  C11 UNL     1      32.726   4.497  46.531  1.00  0.00    -0.014 A 
HETATM   17  C12 UNL     1      33.633   3.540  46.957  1.00  0.00     0.011 A 
HETATM   18  C13 UNL     1      34.786   3.280  46.240  1.00  0.00     0.001 A 
HETATM   19  C14 UNL     1      35.073   3.974  45.059  1.00  0.00     0.000 A 
HETATM   20  C15 UNL     1      34.157   4.925  44.651  1.00  0.00     0.001 A 
HETATM   21  C16 UNL     1      33.005   5.188  45.363  1.00  0.00     0.011 A 
ENDBRANCH  13  16
BRANCH   1  22
HETATM   22  C2  UNL     1      26.540  10.177  48.923  1.00  0.00     0.098 C 
HETATM   23  C1  UNL     1      26.787   9.362  50.173  1.00  0.00     0.014 C 
ENDBRANCH   1  22
TORSDOF 2
ENDMDL
MODEL 5
REMARK VINA RESULT:      -7.2      7.375     10.048
REMARK  2 active torsions:
REMARK  status: ('A' for Active; 'I' for Inactive)
REMARK    1  A    between atoms: C2_2  and  C3_3 
REMARK       I    between atoms: C3_3  and  N1_5 
REMARK    2  A    between atoms: C10_15  and  C11_16 
ROOT
HETATM    1  C3  UNL     1      29.949  11.636  48.387  1.00  0.00     0.219 C 
HETATM    2  O1  UNL     1      30.891  12.333  48.881  1.00  0.00    -0.273 OA
HETATM    3  N1  UNL     1      30.023  10.599  47.387  1.00  0.00    -0.351 N 
HETATM    4  C4  UNL     1      29.022   9.696  46.708  1.00  0.00     0.129 C 
HETATM    5  C5  UNL     1      29.242   8.527  47.444  1.00  0.00     0.048 C 
HETATM    6  C6  UNL     1      29.008   7.179  47.748  1.00  0.00    -0.008 C 
HETATM    7  C7  UNL     1      30.121   6.418  47.813  1.00  0.00     0.091 C 
HETATM    8  N2  UNL     1      31.613   6.511  47.665  1.00  0.00    -0.317 N 
HETATM    9  C8  UNL     1      31.867   7.800  47.961  1.00  0.00     0.111 C 
HETATM   10  N3  UNL     1      32.025   7.379  49.217  1.00  0.00    -0.229 NA
HETATM   11  C9  UNL     1      31.924   5.954  49.498  1.00  0.00     0.231 C 
HETATM   12  N4  UNL     1      31.734   4.732  48.866  1.00  0.00    -0.252 NA
HETATM   13  C10 UNL     1      31.636   5.132  47.346  1.00  0.00     0.248 C 
HETATM   14  C17 UNL     1      32.070   9.128  47.646  1.00  0.00     0.098 C 
HETATM   15  C18 UNL     1      31.329  10.159  46.926  1.00  0.00     0.133 C 
ENDROOT
BRANCH  13  16
HETATM   16  C11 UNL     1      32.866   4.644  46.706  1.00  0.00    -0.014 A 
HETATM   17  C12 UNL     1      33.123   5.201  45.464  1.00  0.00     0.011 A 
HETATM   18  C13 UNL     1      34.244   4.841  44.738  1.00  0.00     0.001 A 
HETATM   19  C14 UNL     1      35.155   3.904  45.237  1.00  0.00     0.000 A 
HETATM   20  C15 UNL     1      34.881   3.359  46.477  1.00  0.00     0.001 A 
HETATM   21  C16 UNL     1      33.764   3.715  47.205  1.00  0.00     0.011 A 
ENDBRANCH  13  16
BRANCH   1  22
HETATM   22  C2  UNL     1      28.595  11.933  48.915  1.00  0.00     0.098 C 
HETATM   23  C1  UNL     1      28.181  13.341  48.551  1.00  0.00     0.014 C 
ENDBRANCH   1  22
TORSDOF 2
ENDMDL
MODEL 6
REMARK VINA RESULT:      -6.9      4.162      5.468
REMARK  2 active torsions:
REMARK  status: ('A' for Active; 'I' for Inactive)
REMARK    1  A    between atoms: C2_2  and  C3_3 
REMARK       I    between atoms: C3_3  and  N1_5 
REMARK    2  A    between atoms: C10_15  and  C11_16 
ROOT
HETATM    1  C3  UNL     1      17.858   2.951  51.324  1.00  0.00     0.219 C 
HETATM    2  O1  UNL     1      17.454   3.975  51.960  1.00  0.00    -0.273 OA
HETATM    3  N1  UNL     1      18.845   2.872  50.275  1.00  0.00    -0.351 N 
HETATM    4  C4  UNL     1      19.426   1.760  49.436  1.00  0.00     0.129 C 
HETATM    5  C5  UNL     1      20.634   1.577  50.117  1.00  0.00     0.048 C 
HETATM    6  C6  UNL     1      21.880   0.964  50.309  1.00  0.00    -0.008 C 
HETATM    7  C7  UNL     1      22.912   1.823  50.446  1.00  0.00     0.091 C 
HETATM    8  N2  UNL     1      23.216   3.295  50.466  1.00  0.00    -0.317 N 
HETATM    9  C8  UNL     1      22.051   3.838  50.868  1.00  0.00     0.111 C 
HETATM   10  N3  UNL     1      22.539   3.728  52.105  1.00  0.00    -0.229 NA
HETATM   11  C9  UNL     1      23.894   3.225  52.284  1.00  0.00     0.231 C 
HETATM   12  N4  UNL     1      25.000   2.801  51.560  1.00  0.00    -0.252 NA
HETATM   13  C10 UNL     1      24.540   2.995  50.066  1.00  0.00     0.248 C 
HETATM   14  C17 UNL     1      20.815   4.417  50.661  1.00  0.00     0.098 C 
HETATM   15  C18 UNL     1      19.602   4.064  49.931  1.00  0.00     0.133 C 
ENDROOT
BRANCH  13  16
HETATM   16  C11 UNL     1      25.317   4.123  49.534  1.00  0.00    -0.014 A 
HETATM   17  C12 UNL     1      26.656   3.840  49.310  1.00  0.00     0.011 A 
HETATM   18  C13 UNL     1      27.515   4.801  48.811  1.00  0.00     0.001 A 
HETATM   19  C14 UNL     1      27.060   6.091  48.515  1.00  0.00     0.000 A 
HETATM   20  C15 UNL     1      25.724   6.354  48.746  1.00  0.00     0.001 A 
HETATM   21  C16 UNL     1      24.862   5.399  49.244  1.00  0.00     0.011 A 
ENDBRANCH  13  16
BRANCH   1  22
HETATM   22  C2  UNL     1      17.228   1.668  51.720  1.00  0.00     0.098 C 
HETATM   23  C1  UNL     1      15.723   1.757  51.599  1.00  0.00     0.014 C 
ENDBRANCH   1  22
TORSDOF 2
ENDMDL
MODEL 7
REMARK VINA RESULT:      -6.9      3.409      6.436
REMARK  2 active torsions:
REMARK  status: ('A' for Active; 'I' for Inactive)
REMARK    1  A    between atoms: C2_2  and  C3_3 
REMARK       I    between atoms: C3_3  and  N1_5 
REMARK    2  A    between atoms: C10_15  and  C11_16 
ROOT
HETATM    1  C3  UNL     1      19.451   3.164  49.856  1.00  0.00     0.219 C 
HETATM    2  O1  UNL     1      19.245   2.497  48.794  1.00  0.00    -0.273 OA
HETATM    3  N1  UNL     1      20.185   2.778  51.037  1.00  0.00    -0.351 N 
HETATM    4  C4  UNL     1      20.515   3.437  52.353  1.00  0.00     0.129 C 
HETATM    5  C5  UNL     1      21.829   3.830  52.082  1.00  0.00     0.048 C 
HETATM    6  C6  UNL     1      23.054   4.420  52.425  1.00  0.00    -0.008 C 
HETATM    7  C7  UNL     1      24.134   3.648  52.183  1.00  0.00     0.091 C 
HETATM    8  N2  UNL     1      24.512   2.297  51.644  1.00  0.00    -0.317 N 
HETATM    9  C8  UNL     1      23.490   2.006  50.816  1.00  0.00     0.111 C 
HETATM   10  N3  UNL     1      24.224   2.583  49.864  1.00  0.00    -0.229 NA
HETATM   11  C9  UNL     1      25.558   3.063  50.199  1.00  0.00     0.231 C 
HETATM   12  N4  UNL     1      26.460   3.118  51.253  1.00  0.00    -0.252 NA
HETATM   13  C10 UNL     1      25.702   2.360  52.407  1.00  0.00     0.248 C 
HETATM   14  C17 UNL     1      22.270   1.441  50.503  1.00  0.00     0.098 C 
HETATM   15  C18 UNL     1      20.913   1.519  51.031  1.00  0.00     0.133 C 
ENDROOT
BRANCH  13  16
HETATM   16  C11 UNL     1      26.406   1.084  52.599  1.00  0.00    -0.014 A 
HETATM   17  C12 UNL     1      27.674   1.207  53.145  1.00  0.00     0.011 A 
HETATM   18  C13 UNL     1      28.458   0.094  53.385  1.00  0.00     0.001 A 
HETATM   19  C14 UNL     1      27.997  -1.193  53.085  1.00  0.00     0.000 A 
HETATM   20  C15 UNL     1      26.731  -1.294  52.540  1.00  0.00     0.001 A 
HETATM   21  C16 UNL     1      25.944  -0.187  52.299  1.00  0.00     0.011 A 
ENDBRANCH  13  16
BRANCH   1  22
HETATM   22  C2  UNL     1      18.854   4.522  49.880  1.00  0.00     0.098 C 
HETATM   23  C1  UNL     1      19.593   5.443  48.934  1.00  0.00     0.014 C 
ENDBRANCH   1  22
TORSDOF 2
ENDMDL
MODEL 8
REMARK VINA RESULT:      -6.9      7.066      8.723
REMARK  2 active torsions:
REMARK  status: ('A' for Active; 'I' for Inactive)
REMARK    1  A    between atoms: C2_2  and  C3_3 
REMARK       I    between atoms: C3_3  and  N1_5 
REMARK    2  A    between atoms: C10_15  and  C11_16 
ROOT
HETATM    1  C3  UNL     1      34.412   4.672  46.018  1.00  0.00     0.219 C 
HETATM    2  O1  UNL     1      34.379   4.774  44.751  1.00  0.00    -0.273 OA
HETATM    3  N1  UNL     1      34.282   5.711  47.010  1.00  0.00    -0.351 N 
HETATM    4  C4  UNL     1      34.298   5.756  48.518  1.00  0.00     0.129 C 
HETATM    5  C5  UNL     1      32.921   5.833  48.753  1.00  0.00     0.048 C 
HETATM    6  C6  UNL     1      31.799   5.932  49.587  1.00  0.00    -0.008 C 
HETATM    7  C7  UNL     1      30.938   6.917  49.255  1.00  0.00     0.091 C 
HETATM    8  N2  UNL     1      30.747   8.013  48.246  1.00  0.00    -0.317 N 
HETATM    9  C8  UNL     1      31.435   7.566  47.178  1.00  0.00     0.111 C 
HETATM   10  N3  UNL     1      30.284   7.016  46.789  1.00  0.00    -0.229 NA
HETATM   11  C9  UNL     1      29.090   7.246  47.588  1.00  0.00     0.231 C 
HETATM   12  N4  UNL     1      28.650   7.931  48.714  1.00  0.00    -0.252 NA
HETATM   13  C10 UNL     1      29.942   8.697  49.188  1.00  0.00     0.248 C 
HETATM   14  C17 UNL     1      32.558   7.459  46.382  1.00  0.00     0.098 C 
HETATM   15  C18 UNL     1      33.947   7.058  46.577  1.00  0.00     0.133 C 
ENDROOT
BRANCH  13  16
HETATM   16  C11 UNL     1      29.705  10.121  48.911  1.00  0.00    -0.014 A 
HETATM   17  C12 UNL     1      30.859  10.880  48.793  1.00  0.00     0.011 A 
HETATM   18  C13 UNL     1      30.798  12.237  48.533  1.00  0.00     0.001 A 
HETATM   19  C14 UNL     1      29.569  12.887  48.381  1.00  0.00     0.000 A 
HETATM   20  C15 UNL     1      28.430  12.114  48.503  1.00  0.00     0.001 A 
HETATM   21  C16 UNL     1      28.485  10.760  48.762  1.00  0.00     0.011 A 
ENDBRANCH  13  16
BRANCH   1  22
HETATM   22  C2  UNL     1      34.611   3.298  46.539  1.00  0.00     0.098 C 
HETATM   23  C1  UNL     1      33.278   2.629  46.793  1.00  0.00     0.014 C 
ENDBRANCH   1  22
TORSDOF 2
ENDMDL
MODEL 9
REMARK VINA RESULT:      -6.8      3.873      6.651
REMARK  2 active torsions:
REMARK  status: ('A' for Active; 'I' for Inactive)
REMARK    1  A    between atoms: C2_2  and  C3_3 
REMARK       I    between atoms: C3_3  and  N1_5 
REMARK    2  A    between atoms: C10_15  and  C11_16 
ROOT
HETATM    1  C3  UNL     1      19.947   2.892  47.566  1.00  0.00     0.219 C 
HETATM    2  O1  UNL     1      20.541   3.418  46.573  1.00  0.00    -0.273 OA
HETATM    3  N1  UNL     1      20.453   1.929  48.514  1.00  0.00    -0.351 N 
HETATM    4  C4  UNL     1      19.890   1.220  49.721  1.00  0.00     0.129 C 
HETATM    5  C5  UNL     1      20.469   2.002  50.727  1.00  0.00     0.048 C 
HETATM    6  C6  UNL     1      20.716   2.332  52.067  1.00  0.00    -0.008 C 
HETATM    7  C7  UNL     1      22.022   2.484  52.374  1.00  0.00     0.091 C 
HETATM    8  N2  UNL     1      23.387   2.419  51.750  1.00  0.00    -0.317 N 
HETATM    9  C8  UNL     1      23.140   2.691  50.454  1.00  0.00     0.111 C 
HETATM   10  N3  UNL     1      23.358   3.966  50.781  1.00  0.00    -0.229 NA
HETATM   11  C9  UNL     1      23.758   4.283  52.144  1.00  0.00     0.231 C 
HETATM   12  N4  UNL     1      24.062   3.678  53.357  1.00  0.00    -0.252 NA
HETATM   13  C10 UNL     1      23.925   2.144  53.030  1.00  0.00     0.248 C 
HETATM   14  C17 UNL     1      22.871   2.349  49.144  1.00  0.00     0.098 C 
HETATM   15  C18 UNL     1      21.858   1.557  48.455  1.00  0.00     0.133 C 
ENDROOT
BRANCH  13  16
HETATM   16  C11 UNL     1      25.287   1.591  53.045  1.00  0.00    -0.014 A 
HETATM   17  C12 UNL     1      25.430   0.406  52.341  1.00  0.00     0.011 A 
HETATM   18  C13 UNL     1      26.653  -0.235  52.264  1.00  0.00     0.001 A 
HETATM   19  C14 UNL     1      27.785   0.294  52.894  1.00  0.00     0.000 A 
HETATM   20  C15 UNL     1      27.622   1.475  53.591  1.00  0.00     0.001 A 
HETATM   21  C16 UNL     1      26.404   2.119  53.671  1.00  0.00     0.011 A 
ENDBRANCH  13  16
BRANCH   1  22
HETATM   22  C2  UNL     1      18.546   3.331  47.774  1.00  0.00     0.098 C 
HETATM   23  C1  UNL     1      17.782   3.306  46.469  1.00  0.00     0.014 C 
ENDBRANCH   1  22
TORSDOF 2
ENDMDL
