MODEL 1
REMARK VINA RESULT:      -7.5      0.000      0.000
REMARK  5 active torsions:
REMARK  status: ('A' for Active; 'I' for Inactive)
REMARK    1  A    between atoms: N1_4  and  C3_5 
REMARK    2  A    between atoms: C3_5  and  C4_6 
REMARK    3  A    between atoms: C4_6  and  N2_15 
REMARK    4  A    between atoms: C7_9  and  O2_10 
REMARK    5  A    between atoms: C16_21  and  N3_22 
ROOT
HETATM    1  C4  UNL     1      24.775   0.562  52.679  1.00  0.00     0.044 C 
HETATM    2  C5  UNL     1      23.762   0.119  53.366  1.00  0.00    -0.027 A 
HETATM    3  C6  UNL     1      22.415   0.538  53.000  1.00  0.00     0.046 A 
HETATM    4  C7  UNL     1      21.384   0.087  53.698  1.00  0.00     0.068 A 
HETATM    5  C9  UNL     1      21.538  -0.821  54.834  1.00  0.00     0.033 A 
HETATM    6  C10 UNL     1      22.770  -1.186  55.147  1.00  0.00    -0.019 A 
HETATM    7  C11 UNL     1      24.056  -0.799  54.499  1.00  0.00     0.068 A 
ENDROOT
BRANCH   1   8
HETATM    8  C3  UNL     1      24.811   1.468  51.524  1.00  0.00     0.206 C 
BRANCH   8   9
HETATM    9  N1  UNL     1      24.230   2.777  51.803  1.00  0.00    -0.294 N 
HETATM   10  C2  UNL     1      23.898   3.496  50.794  1.00  0.00     0.129 A 
HETATM   11  O1  UNL     1      23.701   3.971  52.063  1.00  0.00     0.000 OA
HETATM   12  C1  UNL     1      22.615   4.861  52.300  1.00  0.00     0.000 C 
ENDBRANCH   8   9
ENDBRANCH   1   8
BRANCH   1  13
HETATM   13  N2  UNL     1      26.127   0.215  52.954  1.00  0.00    -0.310 N 
HETATM   14  C12 UNL     1      26.559  -1.075  52.537  1.00  0.00     0.095 A 
HETATM   15  C13 UNL     1      27.818  -1.375  52.803  1.00  0.00    -0.004 A 
HETATM   16  C14 UNL     1      28.823  -0.540  53.474  1.00  0.00     0.079 A 
HETATM   17  C15 UNL     1      28.194   0.755  53.831  1.00  0.00     0.036 A 
HETATM   18 BR1  UNL     1      29.469   1.885  54.714  1.00  0.00    -0.051 Br
HETATM   19  C16 UNL     1      26.962   1.158  53.618  1.00  0.00     0.119 A 
BRANCH  19  20
HETATM   20  N3  UNL     1      26.521   2.442  54.031  1.00  0.00    -0.384 N 
HETATM   21  H19 UNL     1      26.828   3.416  53.754  1.00  0.00     0.157 HD
HETATM   22  H20 UNL     1      25.746   2.444  54.744  1.00  0.00     0.157 HD
ENDBRANCH  19  20
ENDBRANCH   1  13
BRANCH   4  23
HETATM   23  O2  UNL     1      20.085   0.459  53.383  1.00  0.00    -0.356 OA
HETATM   24  C8  UNL     1      19.104  -0.424  52.936  1.00  0.00     0.210 C 
ENDBRANCH   4  23
TORSDOF 5
ENDMDL
MODEL 2
REMARK VINA RESULT:      -7.3      2.797      4.919
REMARK  5 active torsions:
REMARK  status: ('A' for Active; 'I' for Inactive)
REMARK    1  A    between atoms: N1_4  and  C3_5 
REMARK    2  A    between atoms: C3_5  and  C4_6 
REMARK    3  A    between atoms: C4_6  and  N2_15 
REMARK    4  A    between atoms: C7_9  and  O2_10 
REMARK    5  A    between atoms: C16_21  and  N3_22 
ROOT
HETATM    1  C4  UNL     1      24.380   2.485  52.266  1.00  0.00     0.044 C 
HETATM    2  C5  UNL     1      23.389   1.671  52.045  1.00  0.00    -0.027 A 
HETATM    3  C6  UNL     1      23.088   0.632  53.023  1.00  0.00     0.046 A 
HETATM    4  C7  UNL     1      22.079  -0.196  52.799  1.00  0.00     0.068 A 
HETATM    5  C9  UNL     1      21.244  -0.116  51.601  1.00  0.00     0.033 A 
HETATM    6  C10 UNL     1      21.537   0.835  50.729  1.00  0.00    -0.019 A 
HETATM    7  C11 UNL     1      22.619   1.860  50.787  1.00  0.00     0.068 A 
ENDROOT
BRANCH   1   8
HETATM    8  C3  UNL     1      25.314   2.553  53.397  1.00  0.00     0.206 C 
BRANCH   8   9
HETATM    9  N1  UNL     1      26.434   1.627  53.274  1.00  0.00    -0.294 N 
HETATM   10  C2  UNL     1      27.610   2.105  53.452  1.00  0.00     0.129 A 
HETATM   11  O1  UNL     1      27.453   0.777  53.159  1.00  0.00     0.000 OA
HETATM   12  C1  UNL     1      28.401  -0.154  53.671  1.00  0.00     0.000 C 
ENDBRANCH   8   9
ENDBRANCH   1   8
BRANCH   1  13
HETATM   13  N2  UNL     1      24.756   3.530  51.377  1.00  0.00    -0.310 N 
HETATM   14  C12 UNL     1      25.725   3.214  50.384  1.00  0.00     0.095 A 
HETATM   15  C13 UNL     1      26.058   4.200  49.570  1.00  0.00    -0.004 A 
HETATM   16  C14 UNL     1      25.550   5.578  49.566  1.00  0.00     0.079 A 
HETATM   17  C15 UNL     1      24.559   5.716  50.662  1.00  0.00     0.036 A 
HETATM   18 BR1  UNL     1      23.865   7.505  50.700  1.00  0.00    -0.051 Br
HETATM   19  C16 UNL     1      24.155   4.811  51.524  1.00  0.00     0.119 A 
BRANCH  19  20
HETATM   20  N3  UNL     1      23.190   5.117  52.519  1.00  0.00    -0.384 N 
HETATM   21  H19 UNL     1      22.988   6.004  53.058  1.00  0.00     0.157 HD
HETATM   22  H20 UNL     1      22.548   4.323  52.781  1.00  0.00     0.157 HD
ENDBRANCH  19  20
ENDBRANCH   1  13
BRANCH   4  23
HETATM   23  O2  UNL     1      21.758  -1.198  53.703  1.00  0.00    -0.356 OA
HETATM   24  C8  UNL     1      22.321  -1.317  54.973  1.00  0.00     0.210 C 
ENDBRANCH   4  23
TORSDOF 5
ENDMDL
MODEL 3
REMARK VINA RESULT:      -7.1      2.754      5.865
REMARK  5 active torsions:
REMARK  status: ('A' for Active; 'I' for Inactive)
REMARK    1  A    between atoms: N1_4  and  C3_5 
REMARK    2  A    between atoms: C3_5  and  C4_6 
REMARK    3  A    between atoms: C4_6  and  N2_15 
REMARK    4  A    between atoms: C7_9  and  O2_10 
REMARK    5  A    between atoms: C16_21  and  N3_22 
ROOT
HETATM    1  C4  UNL     1      24.909   1.692  52.069  1.00  0.00     0.044 C 
HETATM    2  C5  UNL     1      26.069   1.292  52.503  1.00  0.00    -0.027 A 
HETATM    3  C6  UNL     1      26.305  -0.133  52.696  1.00  0.00     0.046 A 
HETATM    4  C7  UNL     1      27.485  -0.540  53.138  1.00  0.00     0.068 A 
HETATM    5  C9  UNL     1      28.575   0.385  53.444  1.00  0.00     0.033 A 
HETATM    6  C10 UNL     1      28.336   1.674  53.261  1.00  0.00    -0.019 A 
HETATM    7  C11 UNL     1      27.091   2.337  52.778  1.00  0.00     0.068 A 
ENDROOT
BRANCH   1   8
HETATM    8  C3  UNL     1      23.713   0.917  51.715  1.00  0.00     0.206 C 
BRANCH   8   9
HETATM    9  N1  UNL     1      23.002   0.394  52.876  1.00  0.00    -0.294 N 
HETATM   10  C2  UNL     1      21.749   0.651  52.959  1.00  0.00     0.129 A 
HETATM   11  O1  UNL     1      22.359  -0.085  53.939  1.00  0.00     0.000 OA
HETATM   12  C1  UNL     1      21.596  -1.067  54.632  1.00  0.00     0.000 C 
ENDBRANCH   8   9
ENDBRANCH   1   8
BRANCH   1  13
HETATM   13  N2  UNL     1      24.577   3.058  51.847  1.00  0.00    -0.310 N 
HETATM   14  C12 UNL     1      23.848   3.719  52.875  1.00  0.00     0.095 A 
HETATM   15  C13 UNL     1      23.551   4.986  52.647  1.00  0.00    -0.004 A 
HETATM   16  C14 UNL     1      23.883   5.793  51.465  1.00  0.00     0.079 A 
HETATM   17  C15 UNL     1      24.637   4.941  50.513  1.00  0.00     0.036 A 
HETATM   18 BR1  UNL     1      25.094   5.951  48.947  1.00  0.00    -0.051 Br
HETATM   19  C16 UNL     1      24.984   3.680  50.634  1.00  0.00     0.119 A 
BRANCH  19  20
HETATM   20  N3  UNL     1      25.711   3.011  49.615  1.00  0.00    -0.384 N 
HETATM   21  H19 UNL     1      26.404   2.212  49.650  1.00  0.00     0.157 HD
HETATM   22  H20 UNL     1      25.542   3.364  48.636  1.00  0.00     0.157 HD
ENDBRANCH  19  20
ENDBRANCH   1  13
BRANCH   4  23
HETATM   23  O2  UNL     1      27.753  -1.887  53.335  1.00  0.00    -0.356 OA
HETATM   24  C8  UNL     1      29.008  -2.470  53.167  1.00  0.00     0.210 C 
ENDBRANCH   4  23
TORSDOF 5
ENDMDL
MODEL 4
REMARK VINA RESULT:      -6.9      2.889      5.513
REMARK  5 active torsions:
REMARK  status: ('A' for Active; 'I' for Inactive)
REMARK    1  A    between atoms: N1_4  and  C3_5 
REMARK    2  A    between atoms: C3_5  and  C4_6 
REMARK    3  A    between atoms: C4_6  and  N2_15 
REMARK    4  A    between atoms: C7_9  and  O2_10 
REMARK    5  A    between atoms: C16_21  and  N3_22 
ROOT
HETATM    1  C4  UNL     1      23.463   2.357  52.029  1.00  0.00     0.044 C 
HETATM    2  C5  UNL     1      24.502   1.611  52.272  1.00  0.00    -0.027 A 
HETATM    3  C6  UNL     1      24.423   0.598  53.317  1.00  0.00     0.046 A 
HETATM    4  C7  UNL     1      25.480  -0.161  53.564  1.00  0.00     0.068 A 
HETATM    5  C9  UNL     1      26.735  -0.029  52.827  1.00  0.00     0.033 A 
HETATM    6  C10 UNL     1      26.782   0.897  51.883  1.00  0.00    -0.019 A 
HETATM    7  C11 UNL     1      25.719   1.848  51.450  1.00  0.00     0.068 A 
ENDROOT
BRANCH   1   8
HETATM    8  C3  UNL     1      22.137   2.367  52.660  1.00  0.00     0.206 C 
BRANCH   8   9
HETATM    9  N1  UNL     1      21.189   1.466  52.015  1.00  0.00    -0.294 N 
HETATM   10  C2  UNL     1      20.709   0.513  52.728  1.00  0.00     0.129 A 
HETATM   11  O1  UNL     1      20.324   0.646  51.421  1.00  0.00     0.000 OA
HETATM   12  C1  UNL     1      19.016   0.225  51.047  1.00  0.00     0.000 C 
ENDBRANCH   8   9
ENDBRANCH   1   8
BRANCH   1  13
HETATM   13  N2  UNL     1      23.436   3.372  51.032  1.00  0.00    -0.310 N 
HETATM   14  C12 UNL     1      23.199   2.953  49.693  1.00  0.00     0.095 A 
HETATM   15  C13 UNL     1      23.178   3.913  48.785  1.00  0.00    -0.004 A 
HETATM   16  C14 UNL     1      23.369   5.355  48.990  1.00  0.00     0.079 A 
HETATM   17  C15 UNL     1      23.601   5.596  50.435  1.00  0.00     0.036 A 
HETATM   18 BR1  UNL     1      23.859   7.470  50.756  1.00  0.00    -0.051 Br
HETATM   19  C16 UNL     1      23.644   4.726  51.418  1.00  0.00     0.119 A 
BRANCH  19  20
HETATM   20  N3  UNL     1      23.881   5.133  52.757  1.00  0.00    -0.384 N 
HETATM   21  H19 UNL     1      23.793   4.619  53.677  1.00  0.00     0.157 HD
HETATM   22  H20 UNL     1      24.204   6.129  52.874  1.00  0.00     0.157 HD
ENDBRANCH  19  20
ENDBRANCH   1  13
BRANCH   4  23
HETATM   23  O2  UNL     1      25.448  -1.137  54.550  1.00  0.00    -0.356 OA
HETATM   24  C8  UNL     1      24.471  -1.218  55.541  1.00  0.00     0.210 C 
ENDBRANCH   4  23
TORSDOF 5
ENDMDL
MODEL 5
REMARK VINA RESULT:      -6.7      1.963      4.558
REMARK  5 active torsions:
REMARK  status: ('A' for Active; 'I' for Inactive)
REMARK    1  A    between atoms: N1_4  and  C3_5 
REMARK    2  A    between atoms: C3_5  and  C4_6 
REMARK    3  A    between atoms: C4_6  and  N2_15 
REMARK    4  A    between atoms: C7_9  and  O2_10 
REMARK    5  A    between atoms: C16_21  and  N3_22 
ROOT
HETATM    1  C4  UNL     1      25.676   1.722  52.589  1.00  0.00     0.044 C 
HETATM    2  C5  UNL     1      25.494   2.425  51.510  1.00  0.00    -0.027 A 
HETATM    3  C6  UNL     1      24.143   2.837  51.147  1.00  0.00     0.046 A 
HETATM    4  C7  UNL     1      23.958   3.553  50.049  1.00  0.00     0.068 A 
HETATM    5  C9  UNL     1      25.057   3.953  49.173  1.00  0.00     0.033 A 
HETATM    6  C10 UNL     1      26.273   3.567  49.523  1.00  0.00    -0.019 A 
HETATM    7  C11 UNL     1      26.698   2.764  50.705  1.00  0.00     0.068 A 
ENDROOT
BRANCH   1   8
HETATM    8  C3  UNL     1      24.704   1.235  53.576  1.00  0.00     0.206 C 
BRANCH   8   9
HETATM    9  N1  UNL     1      23.531   0.616  52.970  1.00  0.00    -0.294 N 
HETATM   10  C2  UNL     1      22.793  -0.108  53.729  1.00  0.00     0.129 A 
HETATM   11  O1  UNL     1      22.461   0.052  52.411  1.00  0.00     0.000 OA
HETATM   12  C1  UNL     1      21.087   0.014  52.041  1.00  0.00     0.000 C 
ENDBRANCH   8   9
ENDBRANCH   1   8
BRANCH   1  13
HETATM   13  N2  UNL     1      26.951   1.270  53.031  1.00  0.00    -0.310 N 
HETATM   14  C12 UNL     1      27.801   2.235  53.640  1.00  0.00     0.095 A 
HETATM   15  C13 UNL     1      28.980   1.793  54.042  1.00  0.00    -0.004 A 
HETATM   16  C14 UNL     1      29.516   0.429  53.937  1.00  0.00     0.079 A 
HETATM   17  C15 UNL     1      28.497  -0.426  53.282  1.00  0.00     0.036 A 
HETATM   18 BR1  UNL     1      29.152  -2.223  53.120  1.00  0.00    -0.051 Br
HETATM   19  C16 UNL     1      27.303  -0.096  52.845  1.00  0.00     0.119 A 
BRANCH  19  20
HETATM   20  N3  UNL     1      26.447  -1.051  52.235  1.00  0.00    -0.384 N 
HETATM   21  H19 UNL     1      25.421  -1.019  51.981  1.00  0.00     0.157 HD
HETATM   22  H20 UNL     1      26.903  -1.967  51.984  1.00  0.00     0.157 HD
ENDBRANCH  19  20
ENDBRANCH   1  13
BRANCH   4  23
HETATM   23  O2  UNL     1      22.689   3.967  49.668  1.00  0.00    -0.356 OA
HETATM   24  C8  UNL     1      22.260   5.294  49.682  1.00  0.00     0.210 C 
ENDBRANCH   4  23
TORSDOF 5
ENDMDL
MODEL 6
REMARK VINA RESULT:      -6.6      4.600      7.815
REMARK  5 active torsions:
REMARK  status: ('A' for Active; 'I' for Inactive)
REMARK    1  A    between atoms: N1_4  and  C3_5 
REMARK    2  A    between atoms: C3_5  and  C4_6 
REMARK    3  A    between atoms: C4_6  and  N2_15 
REMARK    4  A    between atoms: C7_9  and  O2_10 
REMARK    5  A    between atoms: C16_21  and  N3_22 
ROOT
HETATM    1  C4  UNL     1      24.485   5.387  50.587  1.00  0.00     0.044 C 
HETATM    2  C5  UNL     1      25.557   5.648  49.897  1.00  0.00    -0.027 A 
HETATM    3  C6  UNL     1      25.988   7.033  49.746  1.00  0.00     0.046 A 
HETATM    4  C7  UNL     1      27.080   7.298  49.045  1.00  0.00     0.068 A 
HETATM    5  C9  UNL     1      27.881   6.255  48.408  1.00  0.00     0.033 A 
HETATM    6  C10 UNL     1      27.470   5.007  48.559  1.00  0.00    -0.019 A 
HETATM    7  C11 UNL     1      26.282   4.494  49.300  1.00  0.00     0.068 A 
ENDROOT
BRANCH   1   8
HETATM    8  C3  UNL     1      23.567   6.294  51.288  1.00  0.00     0.206 C 
BRANCH   8   9
HETATM    9  N1  UNL     1      22.752   7.098  50.383  1.00  0.00    -0.294 N 
HETATM   10  C2  UNL     1      21.483   7.080  50.567  1.00  0.00     0.129 A 
HETATM   11  O1  UNL     1      22.014   7.834  49.555  1.00  0.00     0.000 OA
HETATM   12  C1  UNL     1      21.340   9.026  49.164  1.00  0.00     0.000 C 
ENDBRANCH   8   9
ENDBRANCH   1   8
BRANCH   1  13
HETATM   13  N2  UNL     1      23.980   4.073  50.794  1.00  0.00    -0.310 N 
HETATM   14  C12 UNL     1      24.359   3.420  52.000  1.00  0.00     0.095 A 
HETATM   15  C13 UNL     1      23.879   2.201  52.170  1.00  0.00    -0.004 A 
HETATM   16  C14 UNL     1      23.003   1.441  51.268  1.00  0.00     0.079 A 
HETATM   17  C15 UNL     1      22.719   2.277  50.076  1.00  0.00     0.036 A 
HETATM   18 BR1  UNL     1      21.576   1.326  48.863  1.00  0.00    -0.051 Br
HETATM   19  C16 UNL     1      23.140   3.491  49.804  1.00  0.00     0.119 A 
BRANCH  19  20
HETATM   20  N3  UNL     1      22.768   4.151  48.603  1.00  0.00    -0.384 N 
HETATM   21  H19 UNL     1      21.884   4.659  48.321  1.00  0.00     0.157 HD
HETATM   22  H20 UNL     1      23.496   4.142  47.841  1.00  0.00     0.157 HD
ENDBRANCH  19  20
ENDBRANCH   1  13
BRANCH   4  23
HETATM   23  O2  UNL     1      27.526   8.602  48.877  1.00  0.00    -0.356 OA
HETATM   24  C8  UNL     1      28.763   9.070  49.318  1.00  0.00     0.210 C 
ENDBRANCH   4  23
TORSDOF 5
ENDMDL
MODEL 7
REMARK VINA RESULT:      -6.5      3.575      5.549
REMARK  5 active torsions:
REMARK  status: ('A' for Active; 'I' for Inactive)
REMARK    1  A    between atoms: N1_4  and  C3_5 
REMARK    2  A    between atoms: C3_5  and  C4_6 
REMARK    3  A    between atoms: C4_6  and  N2_15 
REMARK    4  A    between atoms: C7_9  and  O2_10 
REMARK    5  A    between atoms: C16_21  and  N3_22 
ROOT
HETATM    1  C4  UNL     1      23.117   1.445  51.463  1.00  0.00     0.044 C 
HETATM    2  C5  UNL     1      23.095   0.615  52.466  1.00  0.00    -0.027 A 
HETATM    3  C6  UNL     1      24.325   0.357  53.205  1.00  0.00     0.046 A 
HETATM    4  C7  UNL     1      24.302  -0.487  54.225  1.00  0.00     0.068 A 
HETATM    5  C9  UNL     1      23.087  -1.180  54.648  1.00  0.00     0.033 A 
HETATM    6  C10 UNL     1      21.984  -0.929  53.962  1.00  0.00    -0.019 A 
HETATM    7  C11 UNL     1      21.793  -0.024  52.793  1.00  0.00     0.068 A 
ENDROOT
BRANCH   1   8
HETATM    8  C3  UNL     1      24.230   2.221  50.903  1.00  0.00     0.206 C 
BRANCH   8   9
HETATM    9  N1  UNL     1      24.129   3.651  51.177  1.00  0.00    -0.294 N 
HETATM   10  C2  UNL     1      24.925   4.426  50.537  1.00  0.00     0.129 A 
HETATM   11  O1  UNL     1      24.032   4.954  51.431  1.00  0.00     0.000 OA
HETATM   12  C1  UNL     1      23.526   6.265  51.200  1.00  0.00     0.000 C 
ENDBRANCH   8   9
ENDBRANCH   1   8
BRANCH   1  13
HETATM   13  N2  UNL     1      21.974   1.765  50.679  1.00  0.00    -0.310 N 
HETATM   14  C12 UNL     1      21.831   1.080  49.440  1.00  0.00     0.095 A 
HETATM   15  C13 UNL     1      20.762   1.394  48.729  1.00  0.00    -0.004 A 
HETATM   16  C14 UNL     1      19.708   2.361  49.062  1.00  0.00     0.079 A 
HETATM   17  C15 UNL     1      20.027   2.968  50.377  1.00  0.00     0.036 A 
HETATM   18 BR1  UNL     1      18.676   4.243  50.858  1.00  0.00    -0.051 Br
HETATM   19  C16 UNL     1      21.052   2.734  51.164  1.00  0.00     0.119 A 
BRANCH  19  20
HETATM   20  N3  UNL     1      21.205   3.413  52.401  1.00  0.00    -0.384 N 
HETATM   21  H19 UNL     1      20.674   3.346  53.313  1.00  0.00     0.157 HD
HETATM   22  H20 UNL     1      21.989   4.117  52.434  1.00  0.00     0.157 HD
ENDBRANCH  19  20
ENDBRANCH   1  13
BRANCH   4  23
HETATM   23  O2  UNL     1      25.450  -0.761  54.956  1.00  0.00    -0.356 OA
HETATM   24  C8  UNL     1      26.527   0.115  55.080  1.00  0.00     0.210 C 
ENDBRANCH   4  23
TORSDOF 5
ENDMDL
MODEL 8
REMARK VINA RESULT:      -6.4      7.932     10.197
REMARK  5 active torsions:
REMARK  status: ('A' for Active; 'I' for Inactive)
REMARK    1  A    between atoms: N1_4  and  C3_5 
REMARK    2  A    between atoms: C3_5  and  C4_6 
REMARK    3  A    between atoms: C4_6  and  N2_15 
REMARK    4  A    between atoms: C7_9  and  O2_10 
REMARK    5  A    between atoms: C16_21  and  N3_22 
ROOT
HETATM    1  C4  UNL     1      29.437   6.563  47.697  1.00  0.00     0.044 C 
HETATM    2  C5  UNL     1      28.267   6.209  48.146  1.00  0.00    -0.027 A 
HETATM    3  C6  UNL     1      28.063   4.839  48.603  1.00  0.00     0.046 A 
HETATM    4  C7  UNL     1      26.874   4.480  49.060  1.00  0.00     0.068 A 
HETATM    5  C9  UNL     1      25.743   5.404  49.129  1.00  0.00     0.033 A 
HETATM    6  C10 UNL     1      25.953   6.641  48.709  1.00  0.00    -0.019 A 
HETATM    7  C11 UNL     1      27.201   7.246  48.163  1.00  0.00     0.068 A 
ENDROOT
BRANCH   1   8
HETATM    8  C3  UNL     1      30.671   5.781  47.556  1.00  0.00     0.206 C 
BRANCH   8   9
HETATM    9  N1  UNL     1      31.841   6.450  48.115  1.00  0.00    -0.294 N 
HETATM   10  C2  UNL     1      32.989   5.952  47.834  1.00  0.00     0.129 A 
HETATM   11  O1  UNL     1      32.906   7.064  48.628  1.00  0.00     0.000 OA
HETATM   12  C1  UNL     1      33.971   8.009  48.598  1.00  0.00     0.000 C 
ENDBRANCH   8   9
ENDBRANCH   1   8
BRANCH   1  13
HETATM   13  N2  UNL     1      29.739   7.872  47.229  1.00  0.00    -0.310 N 
HETATM   14  C12 UNL     1      29.697   8.079  45.822  1.00  0.00     0.095 A 
HETATM   15  C13 UNL     1      29.982   9.302  45.411  1.00  0.00    -0.004 A 
HETATM   16  C14 UNL     1      30.334  10.470  46.228  1.00  0.00     0.079 A 
HETATM   17  C15 UNL     1      30.327  10.063  47.655  1.00  0.00     0.036 A 
HETATM   18 BR1  UNL     1      30.784  11.559  48.768  1.00  0.00    -0.051 Br
HETATM   19  C16 UNL     1      30.062   8.886  48.173  1.00  0.00     0.119 A 
BRANCH  19  20
HETATM   20  N3  UNL     1      30.101   8.669  49.576  1.00  0.00    -0.384 N 
HETATM   21  H19 UNL     1      29.372   8.318  50.256  1.00  0.00     0.157 HD
HETATM   22  H20 UNL     1      31.020   8.896  50.040  1.00  0.00     0.157 HD
ENDBRANCH  19  20
ENDBRANCH   1  13
BRANCH   4  23
HETATM   23  O2  UNL     1      26.636   3.187  49.505  1.00  0.00    -0.356 OA
HETATM   24  C8  UNL     1      26.133   2.872  50.766  1.00  0.00     0.210 C 
ENDBRANCH   4  23
TORSDOF 5
ENDMDL
MODEL 9
REMARK VINA RESULT:      -6.4      3.150      4.957
REMARK  5 active torsions:
REMARK  status: ('A' for Active; 'I' for Inactive)
REMARK    1  A    between atoms: N1_4  and  C3_5 
REMARK    2  A    between atoms: C3_5  and  C4_6 
REMARK    3  A    between atoms: C4_6  and  N2_15 
REMARK    4  A    between atoms: C7_9  and  O2_10 
REMARK    5  A    between atoms: C16_21  and  N3_22 
ROOT
HETATM    1  C4  UNL     1      23.481   2.699  51.021  1.00  0.00     0.044 C 
HETATM    2  C5  UNL     1      23.923   1.855  51.908  1.00  0.00    -0.027 A 
HETATM    3  C6  UNL     1      23.061   0.764  52.345  1.00  0.00     0.046 A 
HETATM    4  C7  UNL     1      23.511  -0.095  53.247  1.00  0.00     0.068 A 
HETATM    5  C9  UNL     1      24.847   0.003  53.832  1.00  0.00     0.033 A 
HETATM    6  C10 UNL     1      25.610   1.002  53.419  1.00  0.00    -0.019 A 
HETATM    7  C11 UNL     1      25.302   2.068  52.424  1.00  0.00     0.068 A 
ENDROOT
BRANCH   1   8
HETATM    8  C3  UNL     1      22.185   2.756  50.334  1.00  0.00     0.206 C 
BRANCH   8   9
HETATM    9  N1  UNL     1      22.307   2.944  48.892  1.00  0.00    -0.294 N 
HETATM   10  C2  UNL     1      22.065   1.928  48.148  1.00  0.00     0.129 A 
HETATM   11  O1  UNL     1      22.421   3.120  47.577  1.00  0.00     0.000 OA
HETATM   12  C1  UNL     1      21.915   3.438  46.285  1.00  0.00     0.000 C 
ENDBRANCH   8   9
ENDBRANCH   1   8
BRANCH   1  13
HETATM   13  N2  UNL     1      24.241   3.796  50.528  1.00  0.00    -0.310 N 
HETATM   14  C12 UNL     1      25.300   3.494  49.627  1.00  0.00     0.095 A 
HETATM   15  C13 UNL     1      25.991   4.529  49.183  1.00  0.00    -0.004 A 
HETATM   16  C14 UNL     1      25.799   5.949  49.505  1.00  0.00     0.079 A 
HETATM   17  C15 UNL     1      24.661   6.065  50.450  1.00  0.00     0.036 A 
HETATM   18 BR1  UNL     1      24.369   7.906  50.905  1.00  0.00    -0.051 Br
HETATM   19  C16 UNL     1      23.909   5.113  50.953  1.00  0.00     0.119 A 
BRANCH  19  20
HETATM   20  N3  UNL     1      22.851   5.404  51.854  1.00  0.00    -0.384 N 
HETATM   21  H19 UNL     1      22.804   6.021  52.712  1.00  0.00     0.157 HD
HETATM   22  H20 UNL     1      21.937   4.923  51.644  1.00  0.00     0.157 HD
ENDBRANCH  19  20
ENDBRANCH   1  13
BRANCH   4  23
HETATM   23  O2  UNL     1      22.724  -1.148  53.691  1.00  0.00    -0.356 OA
HETATM   24  C8  UNL     1      22.033  -1.154  54.902  1.00  0.00     0.210 C 
ENDBRANCH   4  23
TORSDOF 5
ENDMDL
