MODEL 1
REMARK VINA RESULT:      -8.6      0.000      0.000
REMARK  0 active torsions:
REMARK  status: ('A' for Active; 'I' for Inactive)
ROOT
HETATM    1 CL1  UNL     1      22.691   6.501  48.360  1.00  0.00    -0.086 Cl
HETATM    2  C1  UNL     1      22.841   4.941  48.852  1.00  0.00     0.050 A 
HETATM    3  C2  UNL     1      22.333   3.779  48.141  1.00  0.00     0.053 A 
HETATM    4  C3  UNL     1      22.700   2.751  49.042  1.00  0.00     0.053 A 
HETATM    5  C4  UNL     1      23.469   3.047  50.374  1.00  0.00     0.054 A 
HETATM    6  C5  UNL     1      24.090   4.099  51.295  1.00  0.00     0.397 A 
HETATM    7  C6  UNL     1      23.512   4.576  50.150  1.00  0.00     0.211 A 
HETATM    8  C7  UNL     1      23.145   5.233  51.583  1.00  0.00     0.250 A 
HETATM    9  N1  UNL     1      24.076   5.399  50.795  1.00  0.00     0.050 N 
HETATM   10  N2  UNL     1      25.167   5.931  50.409  1.00  0.00    -0.250 N 
HETATM   11  C8  UNL     1      26.056   5.249  49.522  1.00  0.00     0.147 C 
HETATM   12  C9  UNL     1      26.821   4.050  49.632  1.00  0.00     0.025 C 
HETATM   13  C10 UNL     1      26.474   2.640  49.844  1.00  0.00     0.040 C 
HETATM   14  C11 UNL     1      26.004   2.133  51.152  1.00  0.00    -0.033 A 
HETATM   15  C12 UNL     1      27.100   2.263  52.030  1.00  0.00     0.121 A 
HETATM   16  N3  UNL     1      27.281   2.007  53.323  1.00  0.00    -0.273 NA
HETATM   17  C13 UNL     1      26.290   1.513  54.081  1.00  0.00     0.114 A 
HETATM   18  C14 UNL     1      25.152   1.361  53.244  1.00  0.00     0.025 A 
HETATM   19  C15 UNL     1      24.866   1.602  51.874  1.00  0.00     0.093 A 
HETATM   20  C16 UNL     1      23.467   1.205  51.786  1.00  0.00     0.123 A 
HETATM   21  N4  UNL     1      23.900   2.368  51.627  1.00  0.00    -0.243 NA
HETATM   22  C17 UNL     1      22.060   1.791  51.598  1.00  0.00     0.073 C 
HETATM   23  C18 UNL     1      21.320   1.256  50.467  1.00  0.00     0.117 C 
HETATM   24  N5  UNL     1      21.966   1.376  49.048  1.00  0.00    -0.363 N 
HETATM   25  N6  UNL     1      21.357   2.975  52.334  1.00  0.00    -0.280 N 
HETATM   26  C19 UNL     1      21.998   4.220  52.163  1.00  0.00     0.180 C 
HETATM   27  H3  UNL     1      25.282   6.873  50.841  1.00  0.00     0.187 HD
HETATM   28  H14 UNL     1      22.272   1.198  48.159  1.00  0.00     0.165 HD
ENDROOT
TORSDOF 0
ENDMDL
MODEL 2
REMARK VINA RESULT:      -8.5      1.983      3.353
REMARK  0 active torsions:
REMARK  status: ('A' for Active; 'I' for Inactive)
ROOT
HETATM    1 CL1  UNL     1      24.645   5.750  50.672  1.00  0.00    -0.086 Cl
HETATM    2  C1  UNL     1      23.900   4.318  50.368  1.00  0.00     0.050 A 
HETATM    3  C2  UNL     1      23.878   3.634  49.085  1.00  0.00     0.053 A 
HETATM    4  C3  UNL     1      23.069   2.518  49.409  1.00  0.00     0.053 A 
HETATM    5  C4  UNL     1      22.494   2.296  50.849  1.00  0.00     0.054 A 
HETATM    6  C5  UNL     1      22.379   2.816  52.283  1.00  0.00     0.397 A 
HETATM    7  C6  UNL     1      23.118   3.586  51.427  1.00  0.00     0.211 A 
HETATM    8  C7  UNL     1      21.958   4.260  52.332  1.00  0.00     0.250 A 
HETATM    9  N1  UNL     1      23.130   3.957  52.556  1.00  0.00     0.050 N 
HETATM   10  N2  UNL     1      24.168   3.861  53.289  1.00  0.00    -0.250 N 
HETATM   11  C8  UNL     1      25.162   2.863  53.046  1.00  0.00     0.147 C 
HETATM   12  C9  UNL     1      25.150   1.437  53.085  1.00  0.00     0.025 C 
HETATM   13  C10 UNL     1      24.406   0.407  52.350  1.00  0.00     0.040 C 
HETATM   14  C11 UNL     1      22.970   0.152  52.592  1.00  0.00    -0.033 A 
HETATM   15  C12 UNL     1      22.886  -0.359  53.904  1.00  0.00     0.121 A 
HETATM   16  N3  UNL     1      21.878  -0.741  54.683  1.00  0.00    -0.273 NA
HETATM   17  C13 UNL     1      20.607  -0.684  54.256  1.00  0.00     0.114 A 
HETATM   18  C14 UNL     1      20.628  -0.173  52.930  1.00  0.00     0.025 A 
HETATM   19  C15 UNL     1      21.639   0.255  52.028  1.00  0.00     0.093 A 
HETATM   20  C16 UNL     1      20.855   0.654  50.867  1.00  0.00     0.123 A 
HETATM   21  N4  UNL     1      21.534   1.425  51.581  1.00  0.00    -0.243 NA
HETATM   22  C17 UNL     1      20.417   1.898  50.081  1.00  0.00     0.073 C 
HETATM   23  C18 UNL     1      20.780   1.891  48.673  1.00  0.00     0.117 C 
HETATM   24  N5  UNL     1      22.292   1.733  48.309  1.00  0.00    -0.363 N 
HETATM   25  N6  UNL     1      19.781   3.232  50.582  1.00  0.00    -0.280 N 
HETATM   26  C19 UNL     1      20.603   3.966  51.463  1.00  0.00     0.180 C 
HETATM   27  H3  UNL     1      24.143   4.578  54.045  1.00  0.00     0.187 HD
HETATM   28  H14 UNL     1      23.118   1.469  47.902  1.00  0.00     0.165 HD
ENDROOT
TORSDOF 0
ENDMDL
MODEL 3
REMARK VINA RESULT:      -8.5      1.992      4.290
REMARK  0 active torsions:
REMARK  status: ('A' for Active; 'I' for Inactive)
ROOT
HETATM    1 CL1  UNL     1      18.970   2.715  49.788  1.00  0.00    -0.086 Cl
HETATM    2  C1  UNL     1      20.318   3.112  50.640  1.00  0.00     0.050 A 
HETATM    3  C2  UNL     1      20.463   4.280  51.493  1.00  0.00     0.053 A 
HETATM    4  C3  UNL     1      21.810   4.127  51.903  1.00  0.00     0.053 A 
HETATM    5  C4  UNL     1      22.688   2.915  51.440  1.00  0.00     0.054 A 
HETATM    6  C5  UNL     1      22.777   1.632  50.613  1.00  0.00     0.397 A 
HETATM    7  C6  UNL     1      21.574   2.283  50.576  1.00  0.00     0.211 A 
HETATM    8  C7  UNL     1      22.298   1.830  49.201  1.00  0.00     0.250 A 
HETATM    9  N1  UNL     1      21.584   1.238  50.010  1.00  0.00     0.050 N 
HETATM   10  N2  UNL     1      20.964   0.220  50.459  1.00  0.00    -0.250 N 
HETATM   11  C8  UNL     1      20.692   0.067  51.854  1.00  0.00     0.147 C 
HETATM   12  C9  UNL     1      21.523  -0.083  53.004  1.00  0.00     0.025 C 
HETATM   13  C10 UNL     1      22.552   0.756  53.630  1.00  0.00     0.040 C 
HETATM   14  C11 UNL     1      23.890   0.940  53.027  1.00  0.00    -0.033 A 
HETATM   15  C12 UNL     1      24.515  -0.322  53.088  1.00  0.00     0.121 A 
HETATM   16  N3  UNL     1      25.695  -0.787  52.685  1.00  0.00    -0.273 NA
HETATM   17  C13 UNL     1      26.586   0.008  52.074  1.00  0.00     0.114 A 
HETATM   18  C14 UNL     1      26.006   1.302  51.984  1.00  0.00     0.025 A 
HETATM   19  C15 UNL     1      24.774   1.887  52.379  1.00  0.00     0.093 A 
HETATM   20  C16 UNL     1      24.933   3.260  51.917  1.00  0.00     0.123 A 
HETATM   21  N4  UNL     1      24.099   2.440  51.474  1.00  0.00    -0.243 NA
HETATM   22  C17 UNL     1      24.409   4.242  50.858  1.00  0.00     0.073 C 
HETATM   23  C18 UNL     1      23.837   5.468  51.390  1.00  0.00     0.117 C 
HETATM   24  N5  UNL     1      22.650   5.342  52.400  1.00  0.00    -0.363 N 
HETATM   25  N6  UNL     1      24.257   4.068  49.315  1.00  0.00    -0.280 N 
HETATM   26  C19 UNL     1      23.365   3.043  48.937  1.00  0.00     0.180 C 
HETATM   27  H3  UNL     1      20.729  -0.432  49.679  1.00  0.00     0.187 HD
HETATM   28  H14 UNL     1      22.060   5.456  53.145  1.00  0.00     0.165 HD
ENDROOT
TORSDOF 0
ENDMDL
MODEL 4
REMARK VINA RESULT:      -8.2      1.408      1.687
REMARK  0 active torsions:
REMARK  status: ('A' for Active; 'I' for Inactive)
ROOT
HETATM    1 CL1  UNL     1      24.177   8.182  47.941  1.00  0.00    -0.086 Cl
HETATM    2  C1  UNL     1      23.790   6.647  48.377  1.00  0.00     0.050 A 
HETATM    3  C2  UNL     1      22.906   5.758  47.640  1.00  0.00     0.053 A 
HETATM    4  C3  UNL     1      22.911   4.631  48.497  1.00  0.00     0.053 A 
HETATM    5  C4  UNL     1      23.751   4.593  49.818  1.00  0.00     0.054 A 
HETATM    6  C5  UNL     1      24.707   5.331  50.757  1.00  0.00     0.397 A 
HETATM    7  C6  UNL     1      24.312   6.022  49.644  1.00  0.00     0.211 A 
HETATM    8  C7  UNL     1      24.210   6.707  51.107  1.00  0.00     0.250 A 
HETATM    9  N1  UNL     1      25.132   6.577  50.301  1.00  0.00     0.050 N 
HETATM   10  N2  UNL     1      26.334   6.720  49.905  1.00  0.00    -0.250 N 
HETATM   11  C8  UNL     1      26.925   5.811  48.973  1.00  0.00     0.147 C 
HETATM   12  C9  UNL     1      27.234   4.419  49.023  1.00  0.00     0.025 C 
HETATM   13  C10 UNL     1      26.429   3.205  49.197  1.00  0.00     0.040 C 
HETATM   14  C11 UNL     1      25.830   2.837  50.498  1.00  0.00    -0.033 A 
HETATM   15  C12 UNL     1      26.915   2.549  51.352  1.00  0.00     0.121 A 
HETATM   16  N3  UNL     1      27.014   2.195  52.631  1.00  0.00    -0.273 NA
HETATM   17  C13 UNL     1      25.924   2.039  53.397  1.00  0.00     0.114 A 
HETATM   18  C14 UNL     1      24.792   2.319  52.585  1.00  0.00     0.025 A 
HETATM   19  C15 UNL     1      24.588   2.698  51.231  1.00  0.00     0.093 A 
HETATM   20  C16 UNL     1      23.137   2.807  51.166  1.00  0.00     0.123 A 
HETATM   21  N4  UNL     1      23.940   3.757  51.036  1.00  0.00    -0.243 NA
HETATM   22  C17 UNL     1      22.013   3.845  51.035  1.00  0.00     0.073 C 
HETATM   23  C18 UNL     1      21.120   3.641  49.906  1.00  0.00     0.117 C 
HETATM   24  N5  UNL     1      21.750   3.591  48.476  1.00  0.00    -0.363 N 
HETATM   25  N6  UNL     1      21.768   5.167  51.828  1.00  0.00    -0.280 N 
HETATM   26  C19 UNL     1      22.793   6.124  51.682  1.00  0.00     0.180 C 
HETATM   27  H3  UNL     1      26.770   7.547  50.366  1.00  0.00     0.187 HD
HETATM   28  H14 UNL     1      21.966   3.355  47.573  1.00  0.00     0.165 HD
ENDROOT
TORSDOF 0
ENDMDL
MODEL 5
REMARK VINA RESULT:      -8.2      2.105      4.403
REMARK  0 active torsions:
REMARK  status: ('A' for Active; 'I' for Inactive)
ROOT
HETATM    1 CL1  UNL     1      20.189   4.206  47.494  1.00  0.00    -0.086 Cl
HETATM    2  C1  UNL     1      20.835   4.228  49.004  1.00  0.00     0.050 A 
HETATM    3  C2  UNL     1      20.752   5.337  49.941  1.00  0.00     0.053 A 
HETATM    4  C3  UNL     1      21.512   4.817  51.016  1.00  0.00     0.053 A 
HETATM    5  C4  UNL     1      22.146   3.385  50.971  1.00  0.00     0.054 A 
HETATM    6  C5  UNL     1      22.365   2.099  50.172  1.00  0.00     0.397 A 
HETATM    7  C6  UNL     1      21.627   3.069  49.550  1.00  0.00     0.211 A 
HETATM    8  C7  UNL     1      22.869   2.372  48.781  1.00  0.00     0.250 A 
HETATM    9  N1  UNL     1      21.694   2.045  48.952  1.00  0.00     0.050 N 
HETATM   10  N2  UNL     1      20.693   1.268  48.824  1.00  0.00    -0.250 N 
HETATM   11  C8  UNL     1      19.632   1.257  49.782  1.00  0.00     0.147 C 
HETATM   12  C9  UNL     1      19.564   0.918  51.166  1.00  0.00     0.025 C 
HETATM   13  C10 UNL     1      20.209   1.446  52.374  1.00  0.00     0.040 C 
HETATM   14  C11 UNL     1      21.640   1.211  52.669  1.00  0.00    -0.033 A 
HETATM   15  C12 UNL     1      21.761  -0.175  52.899  1.00  0.00     0.121 A 
HETATM   16  N3  UNL     1      22.785  -0.977  53.176  1.00  0.00    -0.273 NA
HETATM   17  C13 UNL     1      24.033  -0.499  53.295  1.00  0.00     0.114 A 
HETATM   18  C14 UNL     1      23.973   0.903  53.071  1.00  0.00     0.025 A 
HETATM   19  C15 UNL     1      22.943   1.835  52.774  1.00  0.00     0.093 A 
HETATM   20  C16 UNL     1      23.688   3.083  52.679  1.00  0.00     0.123 A 
HETATM   21  N4  UNL     1      23.092   2.523  51.732  1.00  0.00    -0.243 NA
HETATM   22  C17 UNL     1      24.154   4.132  51.658  1.00  0.00     0.073 C 
HETATM   23  C18 UNL     1      23.720   5.491  51.934  1.00  0.00     0.117 C 
HETATM   24  N5  UNL     1      22.184   5.755  52.064  1.00  0.00    -0.363 N 
HETATM   25  N6  UNL     1      24.891   3.948  50.294  1.00  0.00    -0.280 N 
HETATM   26  C19 UNL     1      24.158   3.211  49.339  1.00  0.00     0.180 C 
HETATM   27  H3  UNL     1      20.798   0.682  47.968  1.00  0.00     0.187 HD
HETATM   28  H14 UNL     1      21.325   6.065  52.351  1.00  0.00     0.165 HD
ENDROOT
TORSDOF 0
ENDMDL
MODEL 6
REMARK VINA RESULT:      -7.7      2.154      5.530
REMARK  0 active torsions:
REMARK  status: ('A' for Active; 'I' for Inactive)
ROOT
HETATM    1 CL1  UNL     1      24.872   1.816  53.077  1.00  0.00    -0.086 Cl
HETATM    2  C1  UNL     1      25.002   2.649  51.667  1.00  0.00     0.050 A 
HETATM    3  C2  UNL     1      26.199   2.737  50.846  1.00  0.00     0.053 A 
HETATM    4  C3  UNL     1      25.740   3.603  49.824  1.00  0.00     0.053 A 
HETATM    5  C4  UNL     1      24.276   4.160  49.800  1.00  0.00     0.054 A 
HETATM    6  C5  UNL     1      22.909   4.216  50.483  1.00  0.00     0.397 A 
HETATM    7  C6  UNL     1      23.856   3.450  51.107  1.00  0.00     0.211 A 
HETATM    8  C7  UNL     1      23.017   4.551  51.946  1.00  0.00     0.250 A 
HETATM    9  N1  UNL     1      22.777   3.394  51.600  1.00  0.00     0.050 N 
HETATM   10  N2  UNL     1      22.052   2.349  51.525  1.00  0.00    -0.250 N 
HETATM   11  C8  UNL     1      22.194   1.419  50.448  1.00  0.00     0.147 C 
HETATM   12  C9  UNL     1      21.995   1.513  49.039  1.00  0.00     0.025 C 
HETATM   13  C10 UNL     1      22.598   2.330  47.980  1.00  0.00     0.040 C 
HETATM   14  C11 UNL     1      22.309   3.774  47.839  1.00  0.00    -0.033 A 
HETATM   15  C12 UNL     1      20.947   3.860  47.485  1.00  0.00     0.121 A 
HETATM   16  N3  UNL     1      20.116   4.873  47.253  1.00  0.00    -0.273 NA
HETATM   17  C13 UNL     1      20.529   6.147  47.338  1.00  0.00     0.114 A 
HETATM   18  C14 UNL     1      21.905   6.123  47.695  1.00  0.00     0.025 A 
HETATM   19  C15 UNL     1      22.863   5.108  47.958  1.00  0.00     0.093 A 
HETATM   20  C16 UNL     1      24.050   5.891  48.271  1.00  0.00     0.123 A 
HETATM   21  N4  UNL     1      23.438   5.154  49.075  1.00  0.00    -0.243 NA
HETATM   22  C17 UNL     1      24.967   6.271  49.443  1.00  0.00     0.073 C 
HETATM   23  C18 UNL     1      26.369   5.938  49.257  1.00  0.00     0.117 C 
HETATM   24  N5  UNL     1      26.734   4.445  48.968  1.00  0.00    -0.363 N 
HETATM   25  N6  UNL     1      24.610   6.819  50.861  1.00  0.00    -0.280 N 
HETATM   26  C19 UNL     1      23.830   5.938  51.638  1.00  0.00     0.180 C 
HETATM   27  H3  UNL     1      21.381   2.317  52.322  1.00  0.00     0.187 HD
HETATM   28  H14 UNL     1      27.119   3.645  48.612  1.00  0.00     0.165 HD
ENDROOT
TORSDOF 0
ENDMDL
MODEL 7
REMARK VINA RESULT:      -7.7      2.324      4.464
REMARK  0 active torsions:
REMARK  status: ('A' for Active; 'I' for Inactive)
ROOT
HETATM    1 CL1  UNL     1      18.835   0.614  51.197  1.00  0.00    -0.086 Cl
HETATM    2  C1  UNL     1      19.769   1.954  51.023  1.00  0.00     0.050 A 
HETATM    3  C2  UNL     1      19.350   3.318  51.305  1.00  0.00     0.053 A 
HETATM    4  C3  UNL     1      20.518   4.024  50.930  1.00  0.00     0.053 A 
HETATM    5  C4  UNL     1      21.800   3.292  50.404  1.00  0.00     0.054 A 
HETATM    6  C5  UNL     1      22.467   1.964  50.044  1.00  0.00     0.397 A 
HETATM    7  C6  UNL     1      21.181   1.880  50.502  1.00  0.00     0.211 A 
HETATM    8  C7  UNL     1      21.610   1.124  49.137  1.00  0.00     0.250 A 
HETATM    9  N1  UNL     1      21.709   0.830  50.329  1.00  0.00     0.050 N 
HETATM   10  N2  UNL     1      22.052   0.077  51.297  1.00  0.00    -0.250 N 
HETATM   11  C8  UNL     1      22.342   0.611  52.591  1.00  0.00     0.147 C 
HETATM   12  C9  UNL     1      23.345   1.497  53.084  1.00  0.00     0.025 C 
HETATM   13  C10 UNL     1      23.704   2.889  52.789  1.00  0.00     0.040 C 
HETATM   14  C11 UNL     1      24.369   3.279  51.527  1.00  0.00    -0.033 A 
HETATM   15  C12 UNL     1      25.649   2.687  51.568  1.00  0.00     0.121 A 
HETATM   16  N3  UNL     1      26.678   2.653  50.725  1.00  0.00    -0.273 NA
HETATM   17  C13 UNL     1      26.627   3.278  49.538  1.00  0.00     0.114 A 
HETATM   18  C14 UNL     1      25.351   3.897  49.439  1.00  0.00     0.025 A 
HETATM   19  C15 UNL     1      24.205   3.988  50.274  1.00  0.00     0.093 A 
HETATM   20  C16 UNL     1      23.302   4.785  49.455  1.00  0.00     0.123 A 
HETATM   21  N4  UNL     1      23.119   3.591  49.782  1.00  0.00    -0.243 NA
HETATM   22  C17 UNL     1      22.003   4.676  48.642  1.00  0.00     0.073 C 
HETATM   23  C18 UNL     1      20.948   5.590  49.050  1.00  0.00     0.117 C 
HETATM   24  N5  UNL     1      20.464   5.531  50.536  1.00  0.00    -0.363 N 
HETATM   25  N6  UNL     1      21.583   3.642  47.551  1.00  0.00    -0.280 N 
HETATM   26  C19 UNL     1      21.510   2.313  48.017  1.00  0.00     0.180 C 
HETATM   27  H3  UNL     1      22.093  -0.917  50.984  1.00  0.00     0.187 HD
HETATM   28  H14 UNL     1      20.176   5.761  51.419  1.00  0.00     0.165 HD
ENDROOT
TORSDOF 0
ENDMDL
MODEL 8
REMARK VINA RESULT:      -7.5      7.452     10.866
REMARK  0 active torsions:
REMARK  status: ('A' for Active; 'I' for Inactive)
ROOT
HETATM    1 CL1  UNL     1      32.421   3.621  47.645  1.00  0.00    -0.086 Cl
HETATM    2  C1  UNL     1      32.406   5.102  46.933  1.00  0.00     0.050 A 
HETATM    3  C2  UNL     1      32.715   5.371  45.538  1.00  0.00     0.053 A 
HETATM    4  C3  UNL     1      32.594   6.781  45.520  1.00  0.00     0.053 A 
HETATM    5  C4  UNL     1      32.194   7.598  46.796  1.00  0.00     0.054 A 
HETATM    6  C5  UNL     1      31.830   7.570  48.281  1.00  0.00     0.397 A 
HETATM    7  C6  UNL     1      32.093   6.355  47.708  1.00  0.00     0.211 A 
HETATM    8  C7  UNL     1      32.817   6.775  49.093  1.00  0.00     0.250 A 
HETATM    9  N1  UNL     1      31.713   6.295  48.832  1.00  0.00     0.050 N 
HETATM   10  N2  UNL     1      30.559   5.849  49.134  1.00  0.00    -0.250 N 
HETATM   11  C8  UNL     1      29.472   5.907  48.208  1.00  0.00     0.147 C 
HETATM   12  C9  UNL     1      28.763   6.982  47.594  1.00  0.00     0.025 C 
HETATM   13  C10 UNL     1      29.154   8.077  46.699  1.00  0.00     0.040 C 
HETATM   14  C11 UNL     1      29.947   9.233  47.172  1.00  0.00    -0.033 A 
HETATM   15  C12 UNL     1      29.115   9.926  48.076  1.00  0.00     0.121 A 
HETATM   16  N3  UNL     1      29.274  11.008  48.832  1.00  0.00    -0.273 NA
HETATM   17  C13 UNL     1      30.427  11.694  48.834  1.00  0.00     0.114 A 
HETATM   18  C14 UNL     1      31.311  11.038  47.935  1.00  0.00     0.025 A 
HETATM   19  C15 UNL     1      31.233   9.895  47.095  1.00  0.00     0.093 A 
HETATM   20  C16 UNL     1      32.563   9.871  46.500  1.00  0.00     0.123 A 
HETATM   21  N4  UNL     1      32.102   9.005  47.277  1.00  0.00    -0.243 NA
HETATM   22  C17 UNL     1      33.873   9.069  46.516  1.00  0.00     0.073 C 
HETATM   23  C18 UNL     1      34.297   8.565  45.221  1.00  0.00     0.117 C 
HETATM   24  N5  UNL     1      33.307   7.643  44.435  1.00  0.00    -0.363 N 
HETATM   25  N6  UNL     1      34.740   8.584  47.720  1.00  0.00    -0.280 N 
HETATM   26  C19 UNL     1      34.076   7.687  48.582  1.00  0.00     0.180 C 
HETATM   27  H3  UNL     1      30.558   5.482  50.110  1.00  0.00     0.187 HD
HETATM   28  H14 UNL     1      32.781   7.231  43.750  1.00  0.00     0.165 HD
ENDROOT
TORSDOF 0
ENDMDL
MODEL 9
REMARK VINA RESULT:      -7.3      6.159      9.374
REMARK  0 active torsions:
REMARK  status: ('A' for Active; 'I' for Inactive)
ROOT
HETATM    1 CL1  UNL     1      33.637   8.475  47.844  1.00  0.00    -0.086 Cl
HETATM    2  C1  UNL     1      32.135   8.848  47.295  1.00  0.00     0.050 A 
HETATM    3  C2  UNL     1      31.795   9.170  45.918  1.00  0.00     0.053 A 
HETATM    4  C3  UNL     1      30.414   9.447  46.057  1.00  0.00     0.053 A 
HETATM    5  C4  UNL     1      29.677   9.338  47.435  1.00  0.00     0.054 A 
HETATM    6  C5  UNL     1      29.783   9.034  48.930  1.00  0.00     0.397 A 
HETATM    7  C6  UNL     1      30.946   8.926  48.216  1.00  0.00     0.211 A 
HETATM    8  C7  UNL     1      30.908   9.787  49.586  1.00  0.00     0.250 A 
HETATM    9  N1  UNL     1      31.033   8.585  49.351  1.00  0.00     0.050 N 
HETATM   10  N2  UNL     1      31.180   7.364  49.682  1.00  0.00    -0.250 N 
HETATM   11  C8  UNL     1      30.716   6.304  48.842  1.00  0.00     0.147 C 
HETATM   12  C9  UNL     1      29.423   5.902  48.394  1.00  0.00     0.025 C 
HETATM   13  C10 UNL     1      28.378   6.551  47.595  1.00  0.00     0.040 C 
HETATM   14  C11 UNL     1      27.548   7.652  48.132  1.00  0.00    -0.033 A 
HETATM   15  C12 UNL     1      26.767   7.079  49.157  1.00  0.00     0.121 A 
HETATM   16  N3  UNL     1      25.868   7.561  50.011  1.00  0.00    -0.273 NA
HETATM   17  C13 UNL     1      25.529   8.860  50.007  1.00  0.00     0.114 A 
HETATM   18  C14 UNL     1      26.289   9.492  48.987  1.00  0.00     0.025 A 
HETATM   19  C15 UNL     1      27.258   9.068  48.038  1.00  0.00     0.093 A 
HETATM   20  C16 UNL     1      27.574  10.316  47.355  1.00  0.00     0.123 A 
HETATM   21  N4  UNL     1      28.368   9.659  48.066  1.00  0.00    -0.243 NA
HETATM   22  C17 UNL     1      28.699  11.350  47.198  1.00  0.00     0.073 C 
HETATM   23  C18 UNL     1      29.142  11.569  45.831  1.00  0.00     0.117 C 
HETATM   24  N5  UNL     1      29.656  10.334  45.023  1.00  0.00    -0.363 N 
HETATM   25  N6  UNL     1      29.544  12.089  48.283  1.00  0.00    -0.280 N 
HETATM   26  C19 UNL     1      30.321  11.232  49.090  1.00  0.00     0.180 C 
HETATM   27  H3  UNL     1      31.647   7.295  50.611  1.00  0.00     0.187 HD
HETATM   28  H14 UNL     1      29.824   9.690  44.334  1.00  0.00     0.165 HD
ENDROOT
TORSDOF 0
ENDMDL
