MODEL 1
REMARK VINA RESULT:     -10.5      0.000      0.000
REMARK  6 active torsions:
REMARK  status: ('A' for Active; 'I' for Inactive)
REMARK    1  A    between atoms: C5_5  and  N1_6 
REMARK    2  A    between atoms: N1_6  and  C6_7 
REMARK    3  A    between atoms: N4_17  and  C14_18 
REMARK    4  A    between atoms: C14_18  and  C15_19 
REMARK    5  A    between atoms: C15_19  and  C16_20 
REMARK    6  A    between atoms: C16_20  and  N5_21 
ROOT
HETATM    1  C6  UNL     1      23.367   3.326  50.746  1.00  0.00     0.142 A 
HETATM    2  N2  UNL     1      22.637   4.094  49.931  1.00  0.00    -0.224 NA
HETATM    3  C7  UNL     1      21.311   3.956  49.838  1.00  0.00     0.236 A 
HETATM    4  N3  UNL     1      20.679   3.029  50.570  1.00  0.00    -0.241 NA
HETATM    5  C8  UNL     1      21.366   2.214  51.420  1.00  0.00     0.075 A 
HETATM    6  C9  UNL     1      20.623   1.296  52.124  1.00  0.00     0.071 A 
HETATM    7  C10 UNL     1      21.275   0.448  52.993  1.00  0.00     0.098 A 
HETATM    8  C11 UNL     1      22.639   0.575  53.104  1.00  0.00     0.071 A 
HETATM    9  C12 UNL     1      23.340   1.510  52.377  1.00  0.00     0.050 A 
HETATM   10  C13 UNL     1      22.739   2.381  51.497  1.00  0.00     0.041 A 
HETATM   11  N4  UNL     1      23.265  -0.323  54.011  1.00  0.00    -0.314 N 
HETATM   12  C20 UNL     1      22.428  -1.244  54.700  1.00  0.00     0.248 C 
HETATM   13  O2  UNL     1      22.865  -1.758  55.760  1.00  0.00    -0.271 OA
HETATM   14  C21 UNL     1      21.070  -1.623  54.223  1.00  0.00     0.279 C 
HETATM   15  O3  UNL     1      20.479  -0.458  53.678  1.00  0.00    -0.340 OA
ENDROOT
BRANCH   1  16
HETATM   16  N1  UNL     1      24.772   3.458  50.853  1.00  0.00    -0.340 N 
HETATM   17  H6  UNL     1      25.342   2.927  51.542  1.00  0.00     0.167 HD
BRANCH  16  18
HETATM   18  C5  UNL     1      25.626   4.290  50.087  1.00  0.00     0.035 A 
HETATM   19  C4  UNL     1      26.745   3.834  49.427  1.00  0.00     0.030 A 
HETATM   20  C3  UNL     1      27.584   4.608  48.668  1.00  0.00     0.011 A 
HETATM   21  C2  UNL     1      27.324   5.954  48.527  1.00  0.00    -0.040 A 
HETATM   22  C1  UNL     1      28.190   6.846  47.723  1.00  0.00     0.050 C 
HETATM   23  C23 UNL     1      26.222   6.471  49.162  1.00  0.00     0.042 A 
HETATM   24  C22 UNL     1      25.436   5.638  49.899  1.00  0.00     0.053 A 
HETATM   25 CL1  UNL     1      25.863   8.163  49.010  1.00  0.00    -0.084 Cl
ENDBRANCH  16  18
ENDBRANCH   1  16
BRANCH  11  26
HETATM   26  C14 UNL     1      24.746  -0.283  54.218  1.00  0.00     0.134 C 
BRANCH  26  27
HETATM   27  C15 UNL     1      25.448  -0.695  52.986  1.00  0.00     0.050 C 
BRANCH  27  28
HETATM   28  C16 UNL     1      26.905  -0.906  53.159  1.00  0.00     0.276 C 
BRANCH  28  29
HETATM   29  N5  UNL     1      27.768   0.220  53.132  1.00  0.00     0.109 N 
HETATM   30  C17 UNL     1      28.263   0.412  54.525  1.00  0.00     0.303 C 
HETATM   31  C18 UNL     1      29.310   1.500  54.433  1.00  0.00     0.231 C 
HETATM   32  O1  UNL     1      28.693   2.698  54.062  1.00  0.00    -0.282 OA
HETATM   33  N6  UNL     1      27.415   2.538  53.743  1.00  0.00    -0.274 N 
HETATM   34  C19 UNL     1      27.168   1.486  52.758  1.00  0.00     0.418 C 
HETATM   35  H20 UNL     1      26.727   2.542  54.496  1.00  0.00     0.189 HD
ENDBRANCH  28  29
ENDBRANCH  27  28
ENDBRANCH  26  27
ENDBRANCH  11  26
TORSDOF 6
ENDMDL
MODEL 2
REMARK VINA RESULT:     -10.1      2.741      5.973
REMARK  6 active torsions:
REMARK  status: ('A' for Active; 'I' for Inactive)
REMARK    1  A    between atoms: C5_5  and  N1_6 
REMARK    2  A    between atoms: N1_6  and  C6_7 
REMARK    3  A    between atoms: N4_17  and  C14_18 
REMARK    4  A    between atoms: C14_18  and  C15_19 
REMARK    5  A    between atoms: C15_19  and  C16_20 
REMARK    6  A    between atoms: C16_20  and  N5_21 
ROOT
HETATM    1  C6  UNL     1      23.602  -0.296  53.631  1.00  0.00     0.142 A 
HETATM    2  N2  UNL     1      23.727  -1.038  54.735  1.00  0.00    -0.224 NA
HETATM    3  C7  UNL     1      22.662  -1.535  55.370  1.00  0.00     0.236 A 
HETATM    4  N3  UNL     1      21.429  -1.295  54.904  1.00  0.00    -0.241 NA
HETATM    5  C8  UNL     1      21.234  -0.545  53.783  1.00  0.00     0.075 A 
HETATM    6  C9  UNL     1      19.930  -0.356  53.389  1.00  0.00     0.071 A 
HETATM    7  C10 UNL     1      19.684   0.399  52.263  1.00  0.00     0.098 A 
HETATM    8  C11 UNL     1      20.766   0.919  51.596  1.00  0.00     0.071 A 
HETATM    9  C12 UNL     1      22.056   0.703  52.028  1.00  0.00     0.050 A 
HETATM   10  C13 UNL     1      22.356  -0.043  53.145  1.00  0.00     0.041 A 
HETATM   11  N4  UNL     1      20.461   1.691  50.442  1.00  0.00    -0.314 N 
HETATM   12  C20 UNL     1      19.088   1.842  50.103  1.00  0.00     0.248 C 
HETATM   13  O2  UNL     1      18.805   2.160  48.920  1.00  0.00    -0.271 OA
HETATM   14  C21 UNL     1      17.982   1.641  51.078  1.00  0.00     0.279 C 
HETATM   15  O3  UNL     1      18.352   0.558  51.911  1.00  0.00    -0.340 OA
ENDROOT
BRANCH   1  16
HETATM   16  N1  UNL     1      24.721   0.241  52.949  1.00  0.00    -0.340 N 
HETATM   17  H6  UNL     1      24.640   0.956  52.199  1.00  0.00     0.167 HD
BRANCH  16  18
HETATM   18  C5  UNL     1      26.089  -0.071  53.147  1.00  0.00     0.035 A 
HETATM   19  C4  UNL     1      26.654  -1.277  52.797  1.00  0.00     0.030 A 
HETATM   20  C3  UNL     1      27.974  -1.608  52.963  1.00  0.00     0.011 A 
HETATM   21  C2  UNL     1      28.840  -0.690  53.520  1.00  0.00    -0.040 A 
HETATM   22  C1  UNL     1      30.276  -0.983  53.728  1.00  0.00     0.050 C 
HETATM   23  C23 UNL     1      28.336   0.532  53.891  1.00  0.00     0.042 A 
HETATM   24  C22 UNL     1      27.013   0.786  53.694  1.00  0.00     0.053 A 
HETATM   25 CL1  UNL     1      29.394   1.714  54.598  1.00  0.00    -0.084 Cl
ENDBRANCH  16  18
ENDBRANCH   1  16
BRANCH  11  26
HETATM   26  C14 UNL     1      21.555   2.310  49.631  1.00  0.00     0.134 C 
BRANCH  26  27
HETATM   27  C15 UNL     1      21.697   3.742  49.969  1.00  0.00     0.050 C 
BRANCH  27  28
HETATM   28  C16 UNL     1      22.941   4.072  50.704  1.00  0.00     0.276 C 
BRANCH  28  29
HETATM   29  N5  UNL     1      24.190   3.712  50.133  1.00  0.00     0.109 N 
HETATM   30  C17 UNL     1      25.053   3.246  51.254  1.00  0.00     0.303 C 
HETATM   31  C18 UNL     1      26.305   2.706  50.599  1.00  0.00     0.231 C 
HETATM   32  O1  UNL     1      26.989   3.757  49.982  1.00  0.00    -0.282 OA
HETATM   33  N6  UNL     1      26.301   4.892  49.996  1.00  0.00    -0.274 N 
HETATM   34  C19 UNL     1      24.935   4.774  49.486  1.00  0.00     0.418 C 
HETATM   35  H20 UNL     1      26.363   5.482  50.825  1.00  0.00     0.189 HD
ENDBRANCH  28  29
ENDBRANCH  27  28
ENDBRANCH  26  27
ENDBRANCH  11  26
TORSDOF 6
ENDMDL
MODEL 3
REMARK VINA RESULT:     -10.0      2.451      6.027
REMARK  6 active torsions:
REMARK  status: ('A' for Active; 'I' for Inactive)
REMARK    1  A    between atoms: C5_5  and  N1_6 
REMARK    2  A    between atoms: N1_6  and  C6_7 
REMARK    3  A    between atoms: N4_17  and  C14_18 
REMARK    4  A    between atoms: C14_18  and  C15_19 
REMARK    5  A    between atoms: C15_19  and  C16_20 
REMARK    6  A    between atoms: C16_20  and  N5_21 
ROOT
HETATM    1  C6  UNL     1      22.002  -0.453  52.828  1.00  0.00     0.142 A 
HETATM    2  N2  UNL     1      21.080  -1.093  53.553  1.00  0.00    -0.224 NA
HETATM    3  C7  UNL     1      21.367  -1.614  54.750  1.00  0.00     0.236 A 
HETATM    4  N3  UNL     1      22.604  -1.504  55.252  1.00  0.00    -0.241 NA
HETATM    5  C8  UNL     1      23.589  -0.864  54.561  1.00  0.00     0.075 A 
HETATM    6  C9  UNL     1      24.824  -0.807  55.164  1.00  0.00     0.071 A 
HETATM    7  C10 UNL     1      25.852  -0.173  54.503  1.00  0.00     0.098 A 
HETATM    8  C11 UNL     1      25.578   0.370  53.270  1.00  0.00     0.071 A 
HETATM    9  C12 UNL     1      24.325   0.288  52.706  1.00  0.00     0.050 A 
HETATM   10  C13 UNL     1      23.264  -0.333  53.325  1.00  0.00     0.041 A 
HETATM   11  N4  UNL     1      26.671   1.012  52.627  1.00  0.00    -0.314 N 
HETATM   12  C20 UNL     1      27.915   1.026  53.315  1.00  0.00     0.248 C 
HETATM   13  O2  UNL     1      28.763   1.892  52.982  1.00  0.00    -0.271 OA
HETATM   14  C21 UNL     1      28.255   0.068  54.402  1.00  0.00     0.279 C 
HETATM   15  O3  UNL     1      27.076  -0.145  55.155  1.00  0.00    -0.340 OA
ENDROOT
BRANCH   1  16
HETATM   16  N1  UNL     1      21.715   0.101  51.557  1.00  0.00    -0.340 N 
HETATM   17  H6  UNL     1      21.791  -0.438  50.672  1.00  0.00     0.167 HD
BRANCH  16  18
HETATM   18  C5  UNL     1      21.292   1.421  51.262  1.00  0.00     0.035 A 
HETATM   19  C4  UNL     1      20.757   2.277  52.199  1.00  0.00     0.030 A 
HETATM   20  C3  UNL     1      20.350   3.563  51.951  1.00  0.00     0.011 A 
HETATM   21  C2  UNL     1      20.468   4.079  50.678  1.00  0.00    -0.040 A 
HETATM   22  C1  UNL     1      20.046   5.458  50.342  1.00  0.00     0.050 C 
HETATM   23  C23 UNL     1      20.993   3.274  49.699  1.00  0.00     0.042 A 
HETATM   24  C22 UNL     1      21.376   2.007  50.022  1.00  0.00     0.053 A 
HETATM   25 CL1  UNL     1      21.156   3.888  48.082  1.00  0.00    -0.084 Cl
ENDBRANCH  16  18
ENDBRANCH   1  16
BRANCH  11  26
HETATM   26  C14 UNL     1      26.497   1.641  51.281  1.00  0.00     0.134 C 
BRANCH  26  27
HETATM   27  C15 UNL     1      25.949   3.007  51.421  1.00  0.00     0.050 C 
BRANCH  27  28
HETATM   28  C16 UNL     1      24.781   3.284  50.551  1.00  0.00     0.276 C 
BRANCH  28  29
HETATM   29  N5  UNL     1      24.250   4.600  50.516  1.00  0.00     0.109 N 
HETATM   30  C17 UNL     1      25.365   5.499  50.107  1.00  0.00     0.303 C 
HETATM   31  C18 UNL     1      24.731   6.858  49.907  1.00  0.00     0.231 C 
HETATM   32  O1  UNL     1      24.270   7.333  51.137  1.00  0.00    -0.282 OA
HETATM   33  N6  UNL     1      24.363   6.427  52.103  1.00  0.00    -0.274 N 
HETATM   34  C19 UNL     1      23.764   5.134  51.773  1.00  0.00     0.418 C 
HETATM   35  H20 UNL     1      25.252   6.336  52.593  1.00  0.00     0.189 HD
ENDBRANCH  28  29
ENDBRANCH  27  28
ENDBRANCH  26  27
ENDBRANCH  11  26
TORSDOF 6
ENDMDL
MODEL 4
REMARK VINA RESULT:      -9.9      1.705      4.905
REMARK  6 active torsions:
REMARK  status: ('A' for Active; 'I' for Inactive)
REMARK    1  A    between atoms: C5_5  and  N1_6 
REMARK    2  A    between atoms: N1_6  and  C6_7 
REMARK    3  A    between atoms: N4_17  and  C14_18 
REMARK    4  A    between atoms: C14_18  and  C15_19 
REMARK    5  A    between atoms: C15_19  and  C16_20 
REMARK    6  A    between atoms: C16_20  and  N5_21 
ROOT
HETATM    1  C6  UNL     1      26.709   2.171  51.900  1.00  0.00     0.142 A 
HETATM    2  N2  UNL     1      27.947   2.551  52.229  1.00  0.00    -0.224 NA
HETATM    3  C7  UNL     1      28.541   2.116  53.344  1.00  0.00     0.236 A 
HETATM    4  N3  UNL     1      27.897   1.278  54.166  1.00  0.00    -0.241 NA
HETATM    5  C8  UNL     1      26.632   0.853  53.888  1.00  0.00     0.075 A 
HETATM    6  C9  UNL     1      26.059  -0.005  54.797  1.00  0.00     0.071 A 
HETATM    7  C10 UNL     1      24.780  -0.459  54.560  1.00  0.00     0.098 A 
HETATM    8  C11 UNL     1      24.152  -0.024  53.418  1.00  0.00     0.071 A 
HETATM    9  C12 UNL     1      24.766   0.836  52.536  1.00  0.00     0.050 A 
HETATM   10  C13 UNL     1      26.041   1.319  52.725  1.00  0.00     0.041 A 
HETATM   11  N4  UNL     1      22.834  -0.518  53.218  1.00  0.00    -0.314 N 
HETATM   12  C20 UNL     1      22.312  -1.400  54.205  1.00  0.00     0.248 C 
HETATM   13  O2  UNL     1      21.353  -2.145  53.881  1.00  0.00    -0.271 OA
HETATM   14  C21 UNL     1      22.846  -1.477  55.592  1.00  0.00     0.279 C 
HETATM   15  O3  UNL     1      24.250  -1.322  55.507  1.00  0.00    -0.340 OA
ENDROOT
BRANCH   1  16
HETATM   16  N1  UNL     1      26.064   2.625  50.725  1.00  0.00    -0.340 N 
HETATM   17  H6  UNL     1      25.383   2.050  50.191  1.00  0.00     0.167 HD
BRANCH  16  18
HETATM   18  C5  UNL     1      26.211   3.882  50.086  1.00  0.00     0.035 A 
HETATM   19  C4  UNL     1      27.185   4.153  49.151  1.00  0.00     0.030 A 
HETATM   20  C3  UNL     1      27.349   5.351  48.506  1.00  0.00     0.011 A 
HETATM   21  C2  UNL     1      26.492   6.395  48.785  1.00  0.00    -0.040 A 
HETATM   22  C1  UNL     1      26.613   7.715  48.125  1.00  0.00     0.050 C 
HETATM   23  C23 UNL     1      25.500   6.188  49.710  1.00  0.00     0.042 A 
HETATM   24  C22 UNL     1      25.401   4.969  50.309  1.00  0.00     0.053 A 
HETATM   25 CL1  UNL     1      24.402   7.480  50.090  1.00  0.00    -0.084 Cl
ENDBRANCH  16  18
ENDBRANCH   1  16
BRANCH  11  26
HETATM   26  C14 UNL     1      22.046  -0.116  52.012  1.00  0.00     0.134 C 
BRANCH  26  27
HETATM   27  C15 UNL     1      21.088   0.954  52.358  1.00  0.00     0.050 C 
BRANCH  27  28
HETATM   28  C16 UNL     1      20.462   1.610  51.185  1.00  0.00     0.276 C 
BRANCH  28  29
HETATM   29  N5  UNL     1      20.542   3.022  51.067  1.00  0.00     0.109 N 
HETATM   30  C17 UNL     1      21.709   3.311  50.187  1.00  0.00     0.303 C 
HETATM   31  C18 UNL     1      21.663   4.802  49.936  1.00  0.00     0.231 C 
HETATM   32  O1  UNL     1      21.897   5.476  51.138  1.00  0.00    -0.282 OA
HETATM   33  N6  UNL     1      21.938   4.658  52.183  1.00  0.00    -0.274 N 
HETATM   34  C19 UNL     1      20.788   3.761  52.290  1.00  0.00     0.418 C 
HETATM   35  H20 UNL     1      22.821   4.194  52.396  1.00  0.00     0.189 HD
ENDBRANCH  28  29
ENDBRANCH  27  28
ENDBRANCH  26  27
ENDBRANCH  11  26
TORSDOF 6
ENDMDL
MODEL 5
REMARK VINA RESULT:      -9.8      1.834      5.103
REMARK  6 active torsions:
REMARK  status: ('A' for Active; 'I' for Inactive)
REMARK    1  A    between atoms: C5_5  and  N1_6 
REMARK    2  A    between atoms: N1_6  and  C6_7 
REMARK    3  A    between atoms: N4_17  and  C14_18 
REMARK    4  A    between atoms: C14_18  and  C15_19 
REMARK    5  A    between atoms: C15_19  and  C16_20 
REMARK    6  A    between atoms: C16_20  and  N5_21 
ROOT
HETATM    1  C6  UNL     1      26.728   2.139  51.920  1.00  0.00     0.142 A 
HETATM    2  N2  UNL     1      27.965   2.535  52.238  1.00  0.00    -0.224 NA
HETATM    3  C7  UNL     1      28.567   2.120  53.357  1.00  0.00     0.236 A 
HETATM    4  N3  UNL     1      27.933   1.287  54.193  1.00  0.00    -0.241 NA
HETATM    5  C8  UNL     1      26.671   0.848  53.926  1.00  0.00     0.075 A 
HETATM    6  C9  UNL     1      26.108  -0.002  54.848  1.00  0.00     0.071 A 
HETATM    7  C10 UNL     1      24.832  -0.470  54.623  1.00  0.00     0.098 A 
HETATM    8  C11 UNL     1      24.195  -0.055  53.478  1.00  0.00     0.071 A 
HETATM    9  C12 UNL     1      24.799   0.798  52.582  1.00  0.00     0.050 A 
HETATM   10  C13 UNL     1      26.071   1.294  52.759  1.00  0.00     0.041 A 
HETATM   11  N4  UNL     1      22.881  -0.563  53.290  1.00  0.00    -0.314 N 
HETATM   12  C20 UNL     1      22.370  -1.435  54.291  1.00  0.00     0.248 C 
HETATM   13  O2  UNL     1      21.416  -2.192  53.981  1.00  0.00    -0.271 OA
HETATM   14  C21 UNL     1      22.910  -1.489  55.677  1.00  0.00     0.279 C 
HETATM   15  O3  UNL     1      24.313  -1.323  55.584  1.00  0.00    -0.340 OA
ENDROOT
BRANCH   1  16
HETATM   16  N1  UNL     1      26.075   2.573  50.741  1.00  0.00    -0.340 N 
HETATM   17  H6  UNL     1      25.426   1.970  50.197  1.00  0.00     0.167 HD
BRANCH  16  18
HETATM   18  C5  UNL     1      26.171   3.839  50.112  1.00  0.00     0.035 A 
HETATM   19  C4  UNL     1      27.130   4.155  49.175  1.00  0.00     0.030 A 
HETATM   20  C3  UNL     1      27.245   5.364  48.540  1.00  0.00     0.011 A 
HETATM   21  C2  UNL     1      26.350   6.372  48.831  1.00  0.00    -0.040 A 
HETATM   22  C1  UNL     1      26.418   7.701  48.182  1.00  0.00     0.050 C 
HETATM   23  C23 UNL     1      25.370   6.120  49.759  1.00  0.00     0.042 A 
HETATM   24  C22 UNL     1      25.321   4.893  50.348  1.00  0.00     0.053 A 
HETATM   25 CL1  UNL     1      24.225   7.365  50.154  1.00  0.00    -0.084 Cl
ENDBRANCH  16  18
ENDBRANCH   1  16
BRANCH  11  26
HETATM   26  C14 UNL     1      22.085  -0.184  52.082  1.00  0.00     0.134 C 
BRANCH  26  27
HETATM   27  C15 UNL     1      21.163   0.925  52.402  1.00  0.00     0.050 C 
BRANCH  27  28
HETATM   28  C16 UNL     1      21.279   2.092  51.495  1.00  0.00     0.276 C 
BRANCH  28  29
HETATM   29  N5  UNL     1      21.636   1.873  50.139  1.00  0.00     0.109 N 
HETATM   30  C17 UNL     1      22.066   3.190  49.592  1.00  0.00     0.303 C 
HETATM   31  C18 UNL     1      22.605   2.895  48.210  1.00  0.00     0.231 C 
HETATM   32  O1  UNL     1      21.559   2.450  47.396  1.00  0.00    -0.282 OA
HETATM   33  N6  UNL     1      20.432   2.258  48.072  1.00  0.00    -0.274 N 
HETATM   34  C19 UNL     1      20.579   1.415  49.258  1.00  0.00     0.418 C 
HETATM   35  H20 UNL     1      19.824   3.060  48.230  1.00  0.00     0.189 HD
ENDBRANCH  28  29
ENDBRANCH  27  28
ENDBRANCH  26  27
ENDBRANCH  11  26
TORSDOF 6
ENDMDL
MODEL 6
REMARK VINA RESULT:      -9.5      2.099      4.925
REMARK  6 active torsions:
REMARK  status: ('A' for Active; 'I' for Inactive)
REMARK    1  A    between atoms: C5_5  and  N1_6 
REMARK    2  A    between atoms: N1_6  and  C6_7 
REMARK    3  A    between atoms: N4_17  and  C14_18 
REMARK    4  A    between atoms: C14_18  and  C15_19 
REMARK    5  A    between atoms: C15_19  and  C16_20 
REMARK    6  A    between atoms: C16_20  and  N5_21 
ROOT
HETATM    1  C6  UNL     1      25.876   2.309  51.283  1.00  0.00     0.142 A 
HETATM    2  N2  UNL     1      27.174   2.352  51.602  1.00  0.00    -0.224 NA
HETATM    3  C7  UNL     1      27.664   1.664  52.637  1.00  0.00     0.236 A 
HETATM    4  N3  UNL     1      26.851   0.907  53.386  1.00  0.00    -0.241 NA
HETATM    5  C8  UNL     1      25.519   0.822  53.114  1.00  0.00     0.075 A 
HETATM    6  C9  UNL     1      24.773   0.019  53.944  1.00  0.00     0.071 A 
HETATM    7  C10 UNL     1      23.420  -0.096  53.710  1.00  0.00     0.098 A 
HETATM    8  C11 UNL     1      22.896   0.604  52.650  1.00  0.00     0.071 A 
HETATM    9  C12 UNL     1      23.683   1.396  51.845  1.00  0.00     0.050 A 
HETATM   10  C13 UNL     1      25.038   1.545  52.035  1.00  0.00     0.041 A 
HETATM   11  N4  UNL     1      21.496   0.455  52.450  1.00  0.00    -0.314 N 
HETATM   12  C20 UNL     1      20.795  -0.391  53.353  1.00  0.00     0.248 C 
HETATM   13  O2  UNL     1      19.684  -0.850  52.988  1.00  0.00    -0.271 OA
HETATM   14  C21 UNL     1      21.315  -0.752  54.701  1.00  0.00     0.279 C 
HETATM   15  O3  UNL     1      22.715  -0.917  54.577  1.00  0.00    -0.340 OA
ENDROOT
BRANCH   1  16
HETATM   16  N1  UNL     1      25.340   3.036  50.192  1.00  0.00    -0.340 N 
HETATM   17  H6  UNL     1      24.435   2.798  49.741  1.00  0.00     0.167 HD
BRANCH  16  18
HETATM   18  C5  UNL     1      25.901   4.163  49.543  1.00  0.00     0.035 A 
HETATM   19  C4  UNL     1      25.197   5.315  49.269  1.00  0.00     0.030 A 
HETATM   20  C3  UNL     1      25.711   6.427  48.654  1.00  0.00     0.011 A 
HETATM   21  C2  UNL     1      27.034   6.437  48.263  1.00  0.00    -0.040 A 
HETATM   22  C1  UNL     1      27.651   7.604  47.594  1.00  0.00     0.050 C 
HETATM   23  C23 UNL     1      27.789   5.317  48.508  1.00  0.00     0.042 A 
HETATM   24  C22 UNL     1      27.207   4.251  49.124  1.00  0.00     0.053 A 
HETATM   25 CL1  UNL     1      29.458   5.291  48.029  1.00  0.00    -0.084 Cl
ENDBRANCH  16  18
ENDBRANCH   1  16
BRANCH  11  26
HETATM   26  C14 UNL     1      20.809   1.167  51.328  1.00  0.00     0.134 C 
BRANCH  26  27
HETATM   27  C15 UNL     1      20.214   2.430  51.810  1.00  0.00     0.050 C 
BRANCH  27  28
HETATM   28  C16 UNL     1      20.285   3.545  50.837  1.00  0.00     0.276 C 
BRANCH  28  29
HETATM   29  N5  UNL     1      20.818   4.791  51.260  1.00  0.00     0.109 N 
HETATM   30  C17 UNL     1      21.474   5.401  50.070  1.00  0.00     0.303 C 
HETATM   31  C18 UNL     1      21.874   6.795  50.502  1.00  0.00     0.231 C 
HETATM   32  O1  UNL     1      22.856   6.703  51.493  1.00  0.00    -0.282 OA
HETATM   33  N6  UNL     1      23.060   5.454  51.895  1.00  0.00    -0.274 N 
HETATM   34  C19 UNL     1      21.844   4.741  52.283  1.00  0.00     0.418 C 
HETATM   35  H20 UNL     1      23.702   4.874  51.356  1.00  0.00     0.189 HD
ENDBRANCH  28  29
ENDBRANCH  27  28
ENDBRANCH  26  27
ENDBRANCH  11  26
TORSDOF 6
ENDMDL
MODEL 7
REMARK VINA RESULT:      -9.5      3.298      7.931
REMARK  6 active torsions:
REMARK  status: ('A' for Active; 'I' for Inactive)
REMARK    1  A    between atoms: C5_5  and  N1_6 
REMARK    2  A    between atoms: N1_6  and  C6_7 
REMARK    3  A    between atoms: N4_17  and  C14_18 
REMARK    4  A    between atoms: C14_18  and  C15_19 
REMARK    5  A    between atoms: C15_19  and  C16_20 
REMARK    6  A    between atoms: C16_20  and  N5_21 
ROOT
HETATM    1  C6  UNL     1      24.523   0.193  53.424  1.00  0.00     0.142 A 
HETATM    2  N2  UNL     1      25.253  -0.926  53.446  1.00  0.00    -0.224 NA
HETATM    3  C7  UNL     1      26.345  -1.066  52.690  1.00  0.00     0.236 A 
HETATM    4  N3  UNL     1      26.734  -0.071  51.881  1.00  0.00    -0.241 NA
HETATM    5  C8  UNL     1      26.033   1.095  51.811  1.00  0.00     0.075 A 
HETATM    6  C9  UNL     1      26.515   2.051  50.949  1.00  0.00     0.071 A 
HETATM    7  C10 UNL     1      25.837   3.246  50.842  1.00  0.00     0.098 A 
HETATM    8  C11 UNL     1      24.711   3.410  51.613  1.00  0.00     0.071 A 
HETATM    9  C12 UNL     1      24.265   2.423  52.463  1.00  0.00     0.050 A 
HETATM   10  C13 UNL     1      24.905   1.213  52.607  1.00  0.00     0.041 A 
HETATM   11  N4  UNL     1      24.046   4.657  51.466  1.00  0.00    -0.314 N 
HETATM   12  C20 UNL     1      24.606   5.592  50.553  1.00  0.00     0.248 C 
HETATM   13  O2  UNL     1      24.298   6.803  50.686  1.00  0.00    -0.271 OA
HETATM   14  C21 UNL     1      25.533   5.202  49.456  1.00  0.00     0.279 C 
HETATM   15  O3  UNL     1      26.366   4.174  49.958  1.00  0.00    -0.340 OA
ENDROOT
BRANCH   1  16
HETATM   16  N1  UNL     1      23.361   0.356  54.216  1.00  0.00    -0.340 N 
HETATM   17  H6  UNL     1      23.358   0.863  55.123  1.00  0.00     0.167 HD
BRANCH  16  18
HETATM   18  C5  UNL     1      22.052  -0.114  53.942  1.00  0.00     0.035 A 
HETATM   19  C4  UNL     1      21.540  -1.287  54.449  1.00  0.00     0.030 A 
HETATM   20  C3  UNL     1      20.276  -1.764  54.214  1.00  0.00     0.011 A 
HETATM   21  C2  UNL     1      19.417  -1.043  53.412  1.00  0.00    -0.040 A 
HETATM   22  C1  UNL     1      18.040  -1.501  53.117  1.00  0.00     0.050 C 
HETATM   23  C23 UNL     1      19.868   0.137  52.875  1.00  0.00     0.042 A 
HETATM   24  C22 UNL     1      21.138   0.545  53.155  1.00  0.00     0.053 A 
HETATM   25 CL1  UNL     1      18.816   1.072  51.859  1.00  0.00    -0.084 Cl
ENDBRANCH  16  18
ENDBRANCH   1  16
BRANCH  11  26
HETATM   26  C14 UNL     1      22.808   4.955  52.252  1.00  0.00     0.134 C 
BRANCH  26  27
HETATM   27  C15 UNL     1      21.638   5.041  51.354  1.00  0.00     0.050 C 
BRANCH  27  28
HETATM   28  C16 UNL     1      20.980   3.739  51.087  1.00  0.00     0.276 C 
BRANCH  28  29
HETATM   29  N5  UNL     1      21.025   3.205  49.773  1.00  0.00     0.109 N 
HETATM   30  C17 UNL     1      21.772   1.920  49.860  1.00  0.00     0.303 C 
HETATM   31  C18 UNL     1      21.651   1.291  48.489  1.00  0.00     0.231 C 
HETATM   32  O1  UNL     1      22.332   2.084  47.561  1.00  0.00    -0.282 OA
HETATM   33  N6  UNL     1      22.759   3.228  48.081  1.00  0.00    -0.274 N 
HETATM   34  C19 UNL     1      21.726   3.994  48.779  1.00  0.00     0.418 C 
HETATM   35  H20 UNL     1      23.651   3.229  48.574  1.00  0.00     0.189 HD
ENDBRANCH  28  29
ENDBRANCH  27  28
ENDBRANCH  26  27
ENDBRANCH  11  26
TORSDOF 6
ENDMDL
MODEL 8
REMARK VINA RESULT:      -9.5      3.008      6.496
REMARK  6 active torsions:
REMARK  status: ('A' for Active; 'I' for Inactive)
REMARK    1  A    between atoms: C5_5  and  N1_6 
REMARK    2  A    between atoms: N1_6  and  C6_7 
REMARK    3  A    between atoms: N4_17  and  C14_18 
REMARK    4  A    between atoms: C14_18  and  C15_19 
REMARK    5  A    between atoms: C15_19  and  C16_20 
REMARK    6  A    between atoms: C16_20  and  N5_21 
ROOT
HETATM    1  C6  UNL     1      25.291   3.257  50.839  1.00  0.00     0.142 A 
HETATM    2  N2  UNL     1      26.444   3.672  50.304  1.00  0.00    -0.224 NA
HETATM    3  C7  UNL     1      26.475   4.587  49.331  1.00  0.00     0.236 A 
HETATM    4  N3  UNL     1      25.334   5.113  48.866  1.00  0.00    -0.241 NA
HETATM    5  C8  UNL     1      24.127   4.731  49.369  1.00  0.00     0.075 A 
HETATM    6  C9  UNL     1      23.017   5.330  48.822  1.00  0.00     0.071 A 
HETATM    7  C10 UNL     1      21.773   4.974  49.296  1.00  0.00     0.098 A 
HETATM    8  C11 UNL     1      21.719   4.034  50.297  1.00  0.00     0.071 A 
HETATM    9  C12 UNL     1      22.859   3.461  50.814  1.00  0.00     0.050 A 
HETATM   10  C13 UNL     1      24.124   3.782  50.377  1.00  0.00     0.041 A 
HETATM   11  N4  UNL     1      20.415   3.698  50.751  1.00  0.00    -0.314 N 
HETATM   12  C20 UNL     1      19.318   4.360  50.133  1.00  0.00     0.248 C 
HETATM   13  O2  UNL     1      18.225   4.392  50.752  1.00  0.00    -0.271 OA
HETATM   14  C21 UNL     1      19.408   5.009  48.797  1.00  0.00     0.279 C 
HETATM   15  O3  UNL     1      20.688   5.607  48.709  1.00  0.00    -0.340 OA
ENDROOT
BRANCH   1  16
HETATM   16  N1  UNL     1      25.241   2.285  51.867  1.00  0.00    -0.340 N 
HETATM   17  H6  UNL     1      24.378   2.071  52.405  1.00  0.00     0.167 HD
BRANCH  16  18
HETATM   18  C5  UNL     1      26.296   1.462  52.335  1.00  0.00     0.035 A 
HETATM   19  C4  UNL     1      27.422   1.948  52.961  1.00  0.00     0.030 A 
HETATM   20  C3  UNL     1      28.455   1.181  53.435  1.00  0.00     0.011 A 
HETATM   21  C2  UNL     1      28.401  -0.190  53.297  1.00  0.00    -0.040 A 
HETATM   22  C1  UNL     1      29.481  -1.076  53.786  1.00  0.00     0.050 C 
HETATM   23  C23 UNL     1      27.303  -0.736  52.681  1.00  0.00     0.042 A 
HETATM   24  C22 UNL     1      26.318   0.092  52.235  1.00  0.00     0.053 A 
HETATM   25 CL1  UNL     1      27.200  -2.459  52.486  1.00  0.00    -0.084 Cl
ENDBRANCH  16  18
ENDBRANCH   1  16
BRANCH  11  26
HETATM   26  C14 UNL     1      20.226   2.687  51.838  1.00  0.00     0.134 C 
BRANCH  26  27
HETATM   27  C15 UNL     1      19.974   1.352  51.258  1.00  0.00     0.050 C 
BRANCH  27  28
HETATM   28  C16 UNL     1      20.992   0.334  51.612  1.00  0.00     0.276 C 
BRANCH  28  29
HETATM   29  N5  UNL     1      21.298   0.119  52.982  1.00  0.00     0.109 N 
HETATM   30  C17 UNL     1      22.420  -0.860  53.019  1.00  0.00     0.303 C 
HETATM   31  C18 UNL     1      22.840  -0.934  54.471  1.00  0.00     0.231 C 
HETATM   32  O1  UNL     1      21.801  -1.492  55.220  1.00  0.00    -0.282 OA
HETATM   33  N6  UNL     1      20.692  -1.660  54.510  1.00  0.00    -0.274 N 
HETATM   34  C19 UNL     1      20.249  -0.463  53.795  1.00  0.00     0.418 C 
HETATM   35  H20 UNL     1      20.601  -2.508  53.953  1.00  0.00     0.189 HD
ENDBRANCH  28  29
ENDBRANCH  27  28
ENDBRANCH  26  27
ENDBRANCH  11  26
TORSDOF 6
ENDMDL
MODEL 9
REMARK VINA RESULT:      -9.1      3.293      6.959
REMARK  6 active torsions:
REMARK  status: ('A' for Active; 'I' for Inactive)
REMARK    1  A    between atoms: C5_5  and  N1_6 
REMARK    2  A    between atoms: N1_6  and  C6_7 
REMARK    3  A    between atoms: N4_17  and  C14_18 
REMARK    4  A    between atoms: C14_18  and  C15_19 
REMARK    5  A    between atoms: C15_19  and  C16_20 
REMARK    6  A    between atoms: C16_20  and  N5_21 
ROOT
HETATM    1  C6  UNL     1      21.176   0.244  53.085  1.00  0.00     0.142 A 
HETATM    2  N2  UNL     1      20.305  -0.677  53.510  1.00  0.00    -0.224 NA
HETATM    3  C7  UNL     1      20.677  -1.674  54.317  1.00  0.00     0.236 A 
HETATM    4  N3  UNL     1      21.951  -1.773  54.721  1.00  0.00    -0.241 NA
HETATM    5  C8  UNL     1      22.887  -0.867  54.323  1.00  0.00     0.075 A 
HETATM    6  C9  UNL     1      24.166  -1.059  54.792  1.00  0.00     0.071 A 
HETATM    7  C10 UNL     1      25.148  -0.170  54.414  1.00  0.00     0.098 A 
HETATM    8  C11 UNL     1      24.786   0.864  53.584  1.00  0.00     0.071 A 
HETATM    9  C12 UNL     1      23.492   1.016  53.139  1.00  0.00     0.050 A 
HETATM   10  C13 UNL     1      22.474   0.157  53.487  1.00  0.00     0.041 A 
HETATM   11  N4  UNL     1      25.833   1.753  53.220  1.00  0.00    -0.314 N 
HETATM   12  C20 UNL     1      27.128   1.485  53.746  1.00  0.00     0.248 C 
HETATM   13  O2  UNL     1      27.958   2.428  53.777  1.00  0.00    -0.271 OA
HETATM   14  C21 UNL     1      27.539   0.148  54.254  1.00  0.00     0.279 C 
HETATM   15  O3  UNL     1      26.419  -0.410  54.915  1.00  0.00    -0.340 OA
ENDROOT
BRANCH   1  16
HETATM   16  N1  UNL     1      20.799   1.305  52.227  1.00  0.00    -0.340 N 
HETATM   17  H6  UNL     1      21.460   2.040  51.908  1.00  0.00     0.167 HD
BRANCH  16  18
HETATM   18  C5  UNL     1      19.521   1.554  51.668  1.00  0.00     0.035 A 
HETATM   19  C4  UNL     1      18.876   2.768  51.750  1.00  0.00     0.030 A 
HETATM   20  C3  UNL     1      17.646   3.046  51.210  1.00  0.00     0.011 A 
HETATM   21  C2  UNL     1      16.968   2.062  50.522  1.00  0.00    -0.040 A 
HETATM   22  C1  UNL     1      15.638   2.296  49.916  1.00  0.00     0.050 C 
HETATM   23  C23 UNL     1      17.559   0.829  50.406  1.00  0.00     0.042 A 
HETATM   24  C22 UNL     1      18.783   0.629  50.969  1.00  0.00     0.053 A 
HETATM   25 CL1  UNL     1      16.735  -0.437  49.548  1.00  0.00    -0.084 Cl
ENDBRANCH  16  18
ENDBRANCH   1  16
BRANCH  11  26
HETATM   26  C14 UNL     1      25.564   2.918  52.321  1.00  0.00     0.134 C 
BRANCH  26  27
HETATM   27  C15 UNL     1      25.979   2.605  50.938  1.00  0.00     0.050 C 
BRANCH  27  28
HETATM   28  C16 UNL     1      25.106   3.194  49.895  1.00  0.00     0.276 C 
BRANCH  28  29
HETATM   29  N5  UNL     1      25.499   4.412  49.281  1.00  0.00     0.109 N 
HETATM   30  C17 UNL     1      26.988   4.403  49.228  1.00  0.00     0.303 C 
HETATM   31  C18 UNL     1      27.368   5.621  48.415  1.00  0.00     0.231 C 
HETATM   32  O1  UNL     1      27.003   6.772  49.118  1.00  0.00    -0.282 OA
HETATM   33  N6  UNL     1      26.297   6.503  50.209  1.00  0.00    -0.274 N 
HETATM   34  C19 UNL     1      25.145   5.632  49.979  1.00  0.00     0.418 C 
HETATM   35  H20 UNL     1      26.802   6.271  51.064  1.00  0.00     0.189 HD
ENDBRANCH  28  29
ENDBRANCH  27  28
ENDBRANCH  26  27
ENDBRANCH  11  26
TORSDOF 6
ENDMDL
