MODEL 1
REMARK VINA RESULT:      -5.8      0.000      0.000
REMARK  9 active torsions:
REMARK  status: ('A' for Active; 'I' for Inactive)
REMARK    1  A    between atoms: O1_2  and  C2_3 
REMARK    2  A    between atoms: C2_3  and  C3_4 
REMARK    3  A    between atoms: C3_4  and  O4_19 
REMARK    4  A    between atoms: C4_5  and  C5_6 
REMARK    5  A    between atoms: C5_6  and  N1_7 
REMARK    6  A    between atoms: N1_7  and  C6_8 
REMARK    7  A    between atoms: C9_11  and  O2_12 
REMARK    8  A    between atoms: O2_12  and  C10_13 
REMARK    9  A    between atoms: C11_15  and  O3_16 
ROOT
HETATM    1  C6  UNL     1      23.455   0.207  53.295  1.00  0.00     0.026 A 
HETATM    2  C7  UNL     1      22.336  -0.193  53.873  1.00  0.00     0.005 A 
HETATM    3  C8  UNL     1      20.902   0.167  53.979  1.00  0.00     0.068 A 
HETATM    4  C9  UNL     1      20.662   1.401  53.151  1.00  0.00     0.183 A 
HETATM    5  C11 UNL     1      21.941   1.805  52.527  1.00  0.00     0.077 A 
HETATM    6  C13 UNL     1      23.205   1.418  52.481  1.00  0.00     0.063 A 
ENDROOT
BRANCH   1   7
HETATM    7  N1  UNL     1      24.761  -0.311  53.337  1.00  0.00    -0.387 N 
HETATM    8  H9  UNL     1      25.260  -0.314  52.419  1.00  0.00     0.160 HD
BRANCH   7   9
HETATM    9  C5  UNL     1      25.149  -0.738  54.663  1.00  0.00     0.149 C 
BRANCH   9  10
HETATM   10  C4  UNL     1      26.341   0.085  55.076  1.00  0.00     0.027 C 
HETATM   11  C3  UNL     1      27.609   0.152  54.723  1.00  0.00     0.067 C 
BRANCH  11  12
HETATM   12  C2  UNL     1      28.974   0.714  54.824  1.00  0.00     0.231 C 
BRANCH  12  13
HETATM   13  O1  UNL     1      29.010   2.097  54.755  1.00  0.00    -0.390 OA
HETATM   14  C1  UNL     1      28.658   2.599  53.524  1.00  0.00     0.201 C 
ENDBRANCH  12  13
ENDBRANCH  11  12
BRANCH  11  15
HETATM   15  O4  UNL     1      27.693  -0.836  53.721  1.00  0.00    -0.358 OA
HETATM   16  C14 UNL     1      28.968  -1.340  53.325  1.00  0.00     0.209 C 
ENDBRANCH  11  15
ENDBRANCH   9  10
ENDBRANCH   7   9
ENDBRANCH   1   7
BRANCH   5  17
HETATM   17  O3  UNL     1      21.633   2.944  51.780  1.00  0.00    -0.357 OA
HETATM   18  C12 UNL     1      22.242   3.320  50.585  1.00  0.00     0.209 C 
ENDBRANCH   5  17
BRANCH   4  19
HETATM   19  O2  UNL     1      19.653   1.210  52.209  1.00  0.00    -0.364 OA
BRANCH  19  20
HETATM   20  C10 UNL     1      19.139  -0.067  52.326  1.00  0.00     0.283 C 
HETATM   21 CL1  UNL     1      17.817  -0.338  51.181  1.00  0.00    -0.102 Cl
ENDBRANCH  19  20
ENDBRANCH   4  19
TORSDOF 9
ENDMDL
MODEL 2
REMARK VINA RESULT:      -5.8      4.231      7.345
REMARK  9 active torsions:
REMARK  status: ('A' for Active; 'I' for Inactive)
REMARK    1  A    between atoms: O1_2  and  C2_3 
REMARK    2  A    between atoms: C2_3  and  C3_4 
REMARK    3  A    between atoms: C3_4  and  O4_19 
REMARK    4  A    between atoms: C4_5  and  C5_6 
REMARK    5  A    between atoms: C5_6  and  N1_7 
REMARK    6  A    between atoms: N1_7  and  C6_8 
REMARK    7  A    between atoms: C9_11  and  O2_12 
REMARK    8  A    between atoms: O2_12  and  C10_13 
REMARK    9  A    between atoms: C11_15  and  O3_16 
ROOT
HETATM    1  C6  UNL     1      26.879   2.198  52.813  1.00  0.00     0.026 A 
HETATM    2  C7  UNL     1      28.158   2.151  53.148  1.00  0.00     0.005 A 
HETATM    3  C8  UNL     1      29.086   1.421  54.042  1.00  0.00     0.068 A 
HETATM    4  C9  UNL     1      28.294   0.406  54.822  1.00  0.00     0.183 A 
HETATM    5  C11 UNL     1      26.876   0.500  54.410  1.00  0.00     0.077 A 
HETATM    6  C13 UNL     1      26.112   1.194  53.583  1.00  0.00     0.063 A 
ENDROOT
BRANCH   1   7
HETATM    7  N1  UNL     1      26.187   3.009  51.896  1.00  0.00    -0.387 N 
HETATM    8  H9  UNL     1      25.685   3.820  52.323  1.00  0.00     0.160 HD
BRANCH   7   9
HETATM    9  C5  UNL     1      26.316   2.544  50.533  1.00  0.00     0.149 C 
BRANCH   9  10
HETATM   10  C4  UNL     1      26.712   3.725  49.686  1.00  0.00     0.027 C 
HETATM   11  C3  UNL     1      26.200   4.909  49.418  1.00  0.00     0.067 C 
BRANCH  11  12
HETATM   12  C2  UNL     1      26.214   6.227  48.745  1.00  0.00     0.231 C 
BRANCH  12  13
HETATM   13  O1  UNL     1      27.409   6.912  48.896  1.00  0.00    -0.390 OA
HETATM   14  C1  UNL     1      28.358   6.583  47.958  1.00  0.00     0.201 C 
ENDBRANCH  12  13
ENDBRANCH  11  12
BRANCH  11  15
HETATM   15  O4  UNL     1      25.017   4.902  50.184  1.00  0.00    -0.358 OA
HETATM   16  C14 UNL     1      24.239   6.093  50.302  1.00  0.00     0.209 C 
ENDBRANCH  11  15
ENDBRANCH   9  10
ENDBRANCH   7   9
ENDBRANCH   1   7
BRANCH   5  17
HETATM   17  O3  UNL     1      26.216  -0.469  55.170  1.00  0.00    -0.357 OA
HETATM   18  C12 UNL     1      24.925  -0.939  54.940  1.00  0.00     0.209 C 
ENDBRANCH   5  17
BRANCH   4  19
HETATM   19  O2  UNL     1      28.803  -0.881  54.670  1.00  0.00    -0.364 OA
BRANCH  19  20
HETATM   20  C10 UNL     1      28.997  -1.155  53.330  1.00  0.00     0.283 C 
HETATM   21 CL1  UNL     1      27.978  -2.498  52.791  1.00  0.00    -0.102 Cl
ENDBRANCH  19  20
ENDBRANCH   4  19
TORSDOF 9
ENDMDL
MODEL 3
REMARK VINA RESULT:      -5.8      4.726      7.268
REMARK  9 active torsions:
REMARK  status: ('A' for Active; 'I' for Inactive)
REMARK    1  A    between atoms: O1_2  and  C2_3 
REMARK    2  A    between atoms: C2_3  and  C3_4 
REMARK    3  A    between atoms: C3_4  and  O4_19 
REMARK    4  A    between atoms: C4_5  and  C5_6 
REMARK    5  A    between atoms: C5_6  and  N1_7 
REMARK    6  A    between atoms: N1_7  and  C6_8 
REMARK    7  A    between atoms: C9_11  and  O2_12 
REMARK    8  A    between atoms: O2_12  and  C10_13 
REMARK    9  A    between atoms: C11_15  and  O3_16 
ROOT
HETATM    1  C6  UNL     1      26.872   2.311  51.725  1.00  0.00     0.026 A 
HETATM    2  C7  UNL     1      26.402   1.091  51.528  1.00  0.00     0.005 A 
HETATM    3  C8  UNL     1      26.453  -0.270  52.112  1.00  0.00     0.068 A 
HETATM    4  C9  UNL     1      27.342  -0.231  53.327  1.00  0.00     0.183 A 
HETATM    5  C11 UNL     1      27.838   1.152  53.502  1.00  0.00     0.077 A 
HETATM    6  C13 UNL     1      27.741   2.337  52.923  1.00  0.00     0.063 A 
ENDROOT
BRANCH   1   7
HETATM    7  N1  UNL     1      26.684   3.507  51.011  1.00  0.00    -0.387 N 
HETATM    8  H9  UNL     1      26.712   4.374  51.594  1.00  0.00     0.160 HD
BRANCH   7   9
HETATM    9  C5  UNL     1      26.487   3.286  49.595  1.00  0.00     0.149 C 
BRANCH   9  10
HETATM   10  C4  UNL     1      27.210   4.383  48.859  1.00  0.00     0.027 C 
HETATM   11  C3  UNL     1      27.093   5.693  48.764  1.00  0.00     0.067 C 
BRANCH  11  12
HETATM   12  C2  UNL     1      27.503   7.016  48.244  1.00  0.00     0.231 C 
BRANCH  12  13
HETATM   13  O1  UNL     1      28.589   6.960  47.386  1.00  0.00    -0.390 OA
HETATM   14  C1  UNL     1      29.752   7.449  47.932  1.00  0.00     0.201 C 
ENDBRANCH  12  13
ENDBRANCH  11  12
BRANCH  11  15
HETATM   15  O4  UNL     1      25.996   5.956  49.610  1.00  0.00    -0.358 OA
HETATM   16  C14 UNL     1      25.783   7.276  50.107  1.00  0.00     0.209 C 
ENDBRANCH  11  15
ENDBRANCH   9  10
ENDBRANCH   7   9
ENDBRANCH   1   7
BRANCH   5  17
HETATM   17  O3  UNL     1      28.644   1.102  54.641  1.00  0.00    -0.357 OA
HETATM   18  C12 UNL     1      29.690   1.975  54.933  1.00  0.00     0.209 C 
ENDBRANCH   5  17
BRANCH   4  19
HETATM   19  O2  UNL     1      26.692  -0.706  54.464  1.00  0.00    -0.364 OA
BRANCH  19  20
HETATM   20  C10 UNL     1      25.324  -0.623  54.293  1.00  0.00     0.283 C 
HETATM   21 CL1  UNL     1      24.457  -1.295  55.680  1.00  0.00    -0.102 Cl
ENDBRANCH  19  20
ENDBRANCH   4  19
TORSDOF 9
ENDMDL
MODEL 4
REMARK VINA RESULT:      -5.8      4.396      6.435
REMARK  9 active torsions:
REMARK  status: ('A' for Active; 'I' for Inactive)
REMARK    1  A    between atoms: O1_2  and  C2_3 
REMARK    2  A    between atoms: C2_3  and  C3_4 
REMARK    3  A    between atoms: C3_4  and  O4_19 
REMARK    4  A    between atoms: C4_5  and  C5_6 
REMARK    5  A    between atoms: C5_6  and  N1_7 
REMARK    6  A    between atoms: N1_7  and  C6_8 
REMARK    7  A    between atoms: C9_11  and  O2_12 
REMARK    8  A    between atoms: O2_12  and  C10_13 
REMARK    9  A    between atoms: C11_15  and  O3_16 
ROOT
HETATM    1  C6  UNL     1      25.156   2.343  52.672  1.00  0.00     0.026 A 
HETATM    2  C7  UNL     1      26.129   2.027  53.510  1.00  0.00     0.005 A 
HETATM    3  C8  UNL     1      26.568   0.926  54.400  1.00  0.00     0.068 A 
HETATM    4  C9  UNL     1      25.560  -0.188  54.309  1.00  0.00     0.183 A 
HETATM    5  C11 UNL     1      24.498   0.215  53.361  1.00  0.00     0.077 A 
HETATM    6  C13 UNL     1      24.174   1.239  52.589  1.00  0.00     0.063 A 
ENDROOT
BRANCH   1   7
HETATM    7  N1  UNL     1      24.931   3.497  51.902  1.00  0.00    -0.387 N 
HETATM    8  H9  UNL     1      25.010   4.397  52.428  1.00  0.00     0.160 HD
BRANCH   7   9
HETATM    9  C5  UNL     1      24.633   3.195  50.519  1.00  0.00     0.149 C 
BRANCH   9  10
HETATM   10  C4  UNL     1      25.831   3.593  49.698  1.00  0.00     0.027 C 
HETATM   11  C3  UNL     1      26.359   4.728  49.287  1.00  0.00     0.067 C 
BRANCH  11  12
HETATM   12  C2  UNL     1      27.380   5.517  48.563  1.00  0.00     0.231 C 
BRANCH  12  13
HETATM   13  O1  UNL     1      28.601   4.872  48.449  1.00  0.00    -0.390 OA
HETATM   14  C1  UNL     1      29.636   5.705  48.097  1.00  0.00     0.201 C 
ENDBRANCH  12  13
ENDBRANCH  11  12
BRANCH  11  15
HETATM   15  O4  UNL     1      25.477   5.682  49.833  1.00  0.00    -0.358 OA
HETATM   16  C14 UNL     1      25.893   7.041  49.964  1.00  0.00     0.209 C 
ENDBRANCH  11  15
ENDBRANCH   9  10
ENDBRANCH   7   9
ENDBRANCH   1   7
BRANCH   5  17
HETATM   17  O3  UNL     1      23.614  -0.865  53.331  1.00  0.00    -0.357 OA
HETATM   18  C12 UNL     1      22.259  -0.812  53.650  1.00  0.00     0.209 C 
ENDBRANCH   5  17
BRANCH   4  19
HETATM   19  O2  UNL     1      26.151  -1.399  53.954  1.00  0.00    -0.364 OA
BRANCH  19  20
HETATM   20  C10 UNL     1      27.137  -1.182  53.011  1.00  0.00     0.283 C 
HETATM   21 CL1  UNL     1      28.186  -2.596  52.836  1.00  0.00    -0.102 Cl
ENDBRANCH  19  20
ENDBRANCH   4  19
TORSDOF 9
ENDMDL
MODEL 5
REMARK VINA RESULT:      -5.7      4.430      6.623
REMARK  9 active torsions:
REMARK  status: ('A' for Active; 'I' for Inactive)
REMARK    1  A    between atoms: O1_2  and  C2_3 
REMARK    2  A    between atoms: C2_3  and  C3_4 
REMARK    3  A    between atoms: C3_4  and  O4_19 
REMARK    4  A    between atoms: C4_5  and  C5_6 
REMARK    5  A    between atoms: C5_6  and  N1_7 
REMARK    6  A    between atoms: N1_7  and  C6_8 
REMARK    7  A    between atoms: C9_11  and  O2_12 
REMARK    8  A    between atoms: O2_12  and  C10_13 
REMARK    9  A    between atoms: C11_15  and  O3_16 
ROOT
HETATM    1  C6  UNL     1      26.435   2.075  51.836  1.00  0.00     0.026 A 
HETATM    2  C7  UNL     1      25.201   1.622  51.988  1.00  0.00     0.005 A 
HETATM    3  C8  UNL     1      24.441   0.575  52.710  1.00  0.00     0.068 A 
HETATM    4  C9  UNL     1      25.409  -0.231  53.534  1.00  0.00     0.183 A 
HETATM    5  C11 UNL     1      26.769   0.316  53.330  1.00  0.00     0.077 A 
HETATM    6  C13 UNL     1      27.376   1.277  52.653  1.00  0.00     0.063 A 
ENDROOT
BRANCH   1   7
HETATM    7  N1  UNL     1      26.950   3.129  51.063  1.00  0.00    -0.387 N 
HETATM    8  H9  UNL     1      27.637   3.740  51.559  1.00  0.00     0.160 HD
BRANCH   7   9
HETATM    9  C5  UNL     1      26.413   3.150  49.720  1.00  0.00     0.149 C 
BRANCH   9  10
HETATM   10  C4  UNL     1      26.269   4.592  49.310  1.00  0.00     0.027 C 
HETATM   11  C3  UNL     1      27.044   5.495  48.744  1.00  0.00     0.067 C 
BRANCH  11  12
HETATM   12  C2  UNL     1      27.316   6.849  48.214  1.00  0.00     0.231 C 
BRANCH  12  13
HETATM   13  O1  UNL     1      26.377   7.793  48.600  1.00  0.00    -0.390 OA
HETATM   14  C1  UNL     1      26.618   8.338  49.839  1.00  0.00     0.201 C 
ENDBRANCH  12  13
ENDBRANCH  11  12
BRANCH  11  15
HETATM   15  O4  UNL     1      28.240   4.776  48.541  1.00  0.00    -0.358 OA
HETATM   16  C14 UNL     1      29.426   5.465  48.149  1.00  0.00     0.209 C 
ENDBRANCH  11  15
ENDBRANCH   9  10
ENDBRANCH   7   9
ENDBRANCH   1   7
BRANCH   5  17
HETATM   17  O3  UNL     1      27.599  -0.478  54.125  1.00  0.00    -0.357 OA
HETATM   18  C12 UNL     1      28.869  -0.125  54.575  1.00  0.00     0.209 C 
ENDBRANCH   5  17
BRANCH   4  19
HETATM   19  O2  UNL     1      25.050  -0.262  54.879  1.00  0.00    -0.364 OA
BRANCH  19  20
HETATM   20  C10 UNL     1      24.333  -1.412  55.148  1.00  0.00     0.283 C 
HETATM   21 CL1  UNL     1      22.595  -1.087  55.221  1.00  0.00    -0.102 Cl
ENDBRANCH  19  20
ENDBRANCH   4  19
TORSDOF 9
ENDMDL
MODEL 6
REMARK VINA RESULT:      -5.6      2.970      7.327
REMARK  9 active torsions:
REMARK  status: ('A' for Active; 'I' for Inactive)
REMARK    1  A    between atoms: O1_2  and  C2_3 
REMARK    2  A    between atoms: C2_3  and  C3_4 
REMARK    3  A    between atoms: C3_4  and  O4_19 
REMARK    4  A    between atoms: C4_5  and  C5_6 
REMARK    5  A    between atoms: C5_6  and  N1_7 
REMARK    6  A    between atoms: N1_7  and  C6_8 
REMARK    7  A    between atoms: C9_11  and  O2_12 
REMARK    8  A    between atoms: O2_12  and  C10_13 
REMARK    9  A    between atoms: C11_15  and  O3_16 
ROOT
HETATM    1  C6  UNL     1      24.242   0.011  53.240  1.00  0.00     0.026 A 
HETATM    2  C7  UNL     1      24.201   1.324  53.082  1.00  0.00     0.005 A 
HETATM    3  C8  UNL     1      25.098   2.494  52.936  1.00  0.00     0.068 A 
HETATM    4  C9  UNL     1      26.522   2.009  52.991  1.00  0.00     0.183 A 
HETATM    5  C11 UNL     1      26.512   0.540  53.166  1.00  0.00     0.077 A 
HETATM    6  C13 UNL     1      25.646  -0.453  53.288  1.00  0.00     0.063 A 
ENDROOT
BRANCH   1   7
HETATM    7  N1  UNL     1      23.218  -0.944  53.361  1.00  0.00    -0.387 N 
HETATM    8  H9  UNL     1      23.219  -1.682  52.622  1.00  0.00     0.160 HD
BRANCH   7   9
HETATM    9  C5  UNL     1      22.364  -0.702  54.503  1.00  0.00     0.149 C 
BRANCH   9  10
HETATM   10  C4  UNL     1      20.961  -1.086  54.111  1.00  0.00     0.027 C 
HETATM   11  C3  UNL     1      20.009  -0.554  53.371  1.00  0.00     0.067 C 
BRANCH  11  12
HETATM   12  C2  UNL     1      18.656  -0.552  52.771  1.00  0.00     0.231 C 
BRANCH  12  13
HETATM   13  O1  UNL     1      17.674  -1.037  53.618  1.00  0.00    -0.390 OA
HETATM   14  C1  UNL     1      17.039  -2.160  53.143  1.00  0.00     0.201 C 
ENDBRANCH  12  13
ENDBRANCH  11  12
BRANCH  11  15
HETATM   15  O4  UNL     1      20.612   0.638  52.920  1.00  0.00    -0.358 OA
HETATM   16  C14 UNL     1      20.744   0.882  51.520  1.00  0.00     0.209 C 
ENDBRANCH  11  15
ENDBRANCH   9  10
ENDBRANCH   7   9
ENDBRANCH   1   7
BRANCH   5  17
HETATM   17  O3  UNL     1      27.859   0.173  53.203  1.00  0.00    -0.357 OA
HETATM   18  C12 UNL     1      28.660   0.144  54.342  1.00  0.00     0.209 C 
ENDBRANCH   5  17
BRANCH   4  19
HETATM   19  O2  UNL     1      27.251   2.401  51.870  1.00  0.00    -0.364 OA
BRANCH  19  20
HETATM   20  C10 UNL     1      26.431   2.417  50.759  1.00  0.00     0.283 C 
HETATM   21 CL1  UNL     1      26.779   3.805  49.718  1.00  0.00    -0.102 Cl
ENDBRANCH  19  20
ENDBRANCH   4  19
TORSDOF 9
ENDMDL
MODEL 7
REMARK VINA RESULT:      -5.6      3.245      7.236
REMARK  9 active torsions:
REMARK  status: ('A' for Active; 'I' for Inactive)
REMARK    1  A    between atoms: O1_2  and  C2_3 
REMARK    2  A    between atoms: C2_3  and  C3_4 
REMARK    3  A    between atoms: C3_4  and  O4_19 
REMARK    4  A    between atoms: C4_5  and  C5_6 
REMARK    5  A    between atoms: C5_6  and  N1_7 
REMARK    6  A    between atoms: N1_7  and  C6_8 
REMARK    7  A    between atoms: C9_11  and  O2_12 
REMARK    8  A    between atoms: O2_12  and  C10_13 
REMARK    9  A    between atoms: C11_15  and  O3_16 
ROOT
HETATM    1  C6  UNL     1      25.037   1.298  52.271  1.00  0.00     0.026 A 
HETATM    2  C7  UNL     1      26.124   1.866  52.766  1.00  0.00     0.005 A 
HETATM    3  C8  UNL     1      27.101   1.713  53.869  1.00  0.00     0.068 A 
HETATM    4  C9  UNL     1      26.708   0.512  54.688  1.00  0.00     0.183 A 
HETATM    5  C11 UNL     1      25.491  -0.084  54.093  1.00  0.00     0.077 A 
HETATM    6  C13 UNL     1      24.662   0.118  53.082  1.00  0.00     0.063 A 
ENDROOT
BRANCH   1   7
HETATM    7  N1  UNL     1      24.236   1.628  51.164  1.00  0.00    -0.387 N 
HETATM    8  H9  UNL     1      24.230   0.915  50.401  1.00  0.00     0.160 HD
BRANCH   7   9
HETATM    9  C5  UNL     1      23.577   2.907  51.315  1.00  0.00     0.149 C 
BRANCH   9  10
HETATM   10  C4  UNL     1      22.353   2.689  52.165  1.00  0.00     0.027 C 
HETATM   11  C3  UNL     1      21.275   1.935  52.093  1.00  0.00     0.067 C 
BRANCH  11  12
HETATM   12  C2  UNL     1      19.978   1.441  52.608  1.00  0.00     0.231 C 
BRANCH  12  13
HETATM   13  O1  UNL     1      20.064   0.206  53.230  1.00  0.00    -0.390 OA
HETATM   14  C1  UNL     1      20.793   0.224  54.396  1.00  0.00     0.201 C 
ENDBRANCH  12  13
ENDBRANCH  11  12
BRANCH  11  15
HETATM   15  O4  UNL     1      21.480   1.236  50.886  1.00  0.00    -0.358 OA
HETATM   16  C14 UNL     1      20.465   1.238  49.883  1.00  0.00     0.209 C 
ENDBRANCH  11  15
ENDBRANCH   9  10
ENDBRANCH   7   9
ENDBRANCH   1   7
BRANCH   5  17
HETATM   17  O3  UNL     1      25.198  -1.183  54.902  1.00  0.00    -0.357 OA
HETATM   18  C12 UNL     1      24.036  -1.351  55.653  1.00  0.00     0.209 C 
ENDBRANCH   5  17
BRANCH   4  19
HETATM   19  O2  UNL     1      27.747  -0.408  54.797  1.00  0.00    -0.364 OA
BRANCH  19  20
HETATM   20  C10 UNL     1      28.955   0.216  54.555  1.00  0.00     0.283 C 
HETATM   21 CL1  UNL     1      29.985  -0.758  53.496  1.00  0.00    -0.102 Cl
ENDBRANCH  19  20
ENDBRANCH   4  19
TORSDOF 9
ENDMDL
MODEL 8
REMARK VINA RESULT:      -5.6      1.841      3.093
REMARK  9 active torsions:
REMARK  status: ('A' for Active; 'I' for Inactive)
REMARK    1  A    between atoms: O1_2  and  C2_3 
REMARK    2  A    between atoms: C2_3  and  C3_4 
REMARK    3  A    between atoms: C3_4  and  O4_19 
REMARK    4  A    between atoms: C4_5  and  C5_6 
REMARK    5  A    between atoms: C5_6  and  N1_7 
REMARK    6  A    between atoms: N1_7  and  C6_8 
REMARK    7  A    between atoms: C9_11  and  O2_12 
REMARK    8  A    between atoms: O2_12  and  C10_13 
REMARK    9  A    between atoms: C11_15  and  O3_16 
ROOT
HETATM    1  C6  UNL     1      24.017   2.155  51.821  1.00  0.00     0.026 A 
HETATM    2  C7  UNL     1      23.213   1.819  50.826  1.00  0.00     0.005 A 
HETATM    3  C8  UNL     1      21.959   1.075  50.560  1.00  0.00     0.068 A 
HETATM    4  C9  UNL     1      21.450   0.524  51.866  1.00  0.00     0.183 A 
HETATM    5  C11 UNL     1      22.381   0.929  52.942  1.00  0.00     0.077 A 
HETATM    6  C13 UNL     1      23.504   1.611  53.098  1.00  0.00     0.063 A 
ENDROOT
BRANCH   1   7
HETATM    7  N1  UNL     1      25.208   2.901  51.843  1.00  0.00    -0.387 N 
HETATM    8  H9  UNL     1      25.148   3.806  52.362  1.00  0.00     0.160 HD
BRANCH   7   9
HETATM    9  C5  UNL     1      26.287   2.249  51.133  1.00  0.00     0.149 C 
BRANCH   9  10
HETATM   10  C4  UNL     1      26.664   1.016  51.910  1.00  0.00     0.027 C 
HETATM   11  C3  UNL     1      27.242   0.770  53.069  1.00  0.00     0.067 C 
BRANCH  11  12
HETATM   12  C2  UNL     1      27.758  -0.142  54.114  1.00  0.00     0.231 C 
BRANCH  12  13
HETATM   13  O1  UNL     1      28.383  -1.269  53.606  1.00  0.00    -0.390 OA
HETATM   14  C1  UNL     1      29.751  -1.157  53.532  1.00  0.00     0.201 C 
ENDBRANCH  12  13
ENDBRANCH  11  12
BRANCH  11  15
HETATM   15  O4  UNL     1      27.497   2.068  53.556  1.00  0.00    -0.358 OA
HETATM   16  C14 UNL     1      28.841   2.494  53.775  1.00  0.00     0.209 C 
ENDBRANCH  11  15
ENDBRANCH   9  10
ENDBRANCH   7   9
ENDBRANCH   1   7
BRANCH   5  17
HETATM   17  O3  UNL     1      21.840   0.386  54.109  1.00  0.00    -0.357 OA
HETATM   18  C12 UNL     1      22.091  -0.893  54.601  1.00  0.00     0.209 C 
ENDBRANCH   5  17
BRANCH   4  19
HETATM   19  O2  UNL     1      20.141   0.923  52.125  1.00  0.00    -0.364 OA
BRANCH  19  20
HETATM   20  C10 UNL     1      19.289   0.374  51.186  1.00  0.00     0.283 C 
HETATM   21 CL1  UNL     1      18.021  -0.594  51.951  1.00  0.00    -0.102 Cl
ENDBRANCH  19  20
ENDBRANCH   4  19
TORSDOF 9
ENDMDL
MODEL 9
REMARK VINA RESULT:      -5.6      3.999      7.569
REMARK  9 active torsions:
REMARK  status: ('A' for Active; 'I' for Inactive)
REMARK    1  A    between atoms: O1_2  and  C2_3 
REMARK    2  A    between atoms: C2_3  and  C3_4 
REMARK    3  A    between atoms: C3_4  and  O4_19 
REMARK    4  A    between atoms: C4_5  and  C5_6 
REMARK    5  A    between atoms: C5_6  and  N1_7 
REMARK    6  A    between atoms: N1_7  and  C6_8 
REMARK    7  A    between atoms: C9_11  and  O2_12 
REMARK    8  A    between atoms: O2_12  and  C10_13 
REMARK    9  A    between atoms: C11_15  and  O3_16 
ROOT
HETATM    1  C6  UNL     1      26.632   2.160  52.779  1.00  0.00     0.026 A 
HETATM    2  C7  UNL     1      27.929   2.139  53.035  1.00  0.00     0.005 A 
HETATM    3  C8  UNL     1      28.922   1.450  53.892  1.00  0.00     0.068 A 
HETATM    4  C9  UNL     1      28.195   0.450  54.751  1.00  0.00     0.183 A 
HETATM    5  C11 UNL     1      26.753   0.513  54.425  1.00  0.00     0.077 A 
HETATM    6  C13 UNL     1      25.929   1.171  53.626  1.00  0.00     0.063 A 
ENDROOT
BRANCH   1   7
HETATM    7  N1  UNL     1      25.872   2.931  51.883  1.00  0.00    -0.387 N 
HETATM    8  H9  UNL     1      24.948   3.248  52.253  1.00  0.00     0.160 HD
BRANCH   7   9
HETATM    9  C5  UNL     1      26.540   3.130  50.615  1.00  0.00     0.149 C 
BRANCH   9  10
HETATM   10  C4  UNL     1      25.486   3.479  49.597  1.00  0.00     0.027 C 
HETATM   11  C3  UNL     1      24.741   4.533  49.331  1.00  0.00     0.067 C 
BRANCH  11  12
HETATM   12  C2  UNL     1      23.711   5.252  48.549  1.00  0.00     0.231 C 
BRANCH  12  13
HETATM   13  O1  UNL     1      22.572   4.501  48.312  1.00  0.00    -0.390 OA
HETATM   14  C1  UNL     1      21.409   5.121  48.706  1.00  0.00     0.201 C 
ENDBRANCH  12  13
ENDBRANCH  11  12
BRANCH  11  15
HETATM   15  O4  UNL     1      25.158   5.448  50.318  1.00  0.00    -0.358 OA
HETATM   16  C14 UNL     1      24.185   6.166  51.077  1.00  0.00     0.209 C 
ENDBRANCH  11  15
ENDBRANCH   9  10
ENDBRANCH   7   9
ENDBRANCH   1   7
BRANCH   5  17
HETATM   17  O3  UNL     1      26.156  -0.439  55.255  1.00  0.00    -0.357 OA
HETATM   18  C12 UNL     1      24.880  -0.974  55.088  1.00  0.00     0.209 C 
ENDBRANCH   5  17
BRANCH   4  19
HETATM   19  O2  UNL     1      28.712  -0.835  54.608  1.00  0.00    -0.364 OA
BRANCH  19  20
HETATM   20  C10 UNL     1      28.859  -1.135  53.268  1.00  0.00     0.283 C 
HETATM   21 CL1  UNL     1      27.786  -2.456  52.781  1.00  0.00    -0.102 Cl
ENDBRANCH  19  20
ENDBRANCH   4  19
TORSDOF 9
ENDMDL
