MODEL 1
REMARK VINA RESULT:      -8.6      0.000      0.000
REMARK  7 active torsions:
REMARK  status: ('A' for Active; 'I' for Inactive)
REMARK    1  A    between atoms: C2_2  and  N1_3 
REMARK    2  A    between atoms: C5_7  and  C11_14 
REMARK    3  A    between atoms: C6_8  and  C7_9 
REMARK    4  A    between atoms: C7_9  and  C8_10 
REMARK    5  A    between atoms: C8_10  and  O1_13 
REMARK    6  A    between atoms: C12_16  and  C13_17 
REMARK    7  A    between atoms: C14_21  and  N6_22 
ROOT
HETATM    1  N1  UNL     1      27.060   3.994  49.381  1.00  0.00    -0.069 N 
HETATM    2  C3  UNL     1      26.276   3.255  50.091  1.00  0.00     0.690 A 
HETATM    3  C4  UNL     1      25.077   2.588  50.632  1.00  0.00     0.312 A 
HETATM    4  N2  UNL     1      25.464   1.574  51.849  1.00  0.00     0.026 N 
HETATM    5  C5  UNL     1      25.910   2.408  50.983  1.00  0.00     0.300 A 
HETATM    6  C6  UNL     1      27.076   1.919  52.143  1.00  0.00     0.207 A 
HETATM    7  C11 UNL     1      25.809   3.267  50.003  1.00  0.00     0.292 A 
HETATM    8  N3  UNL     1      24.553   3.973  49.340  1.00  0.00    -0.244 NA
HETATM    9  C12 UNL     1      23.702   4.840  49.755  1.00  0.00     0.101 C 
HETATM   10  C15 UNL     1      22.727   3.756  50.143  1.00  0.00     0.114 C 
HETATM   11  C16 UNL     1      21.813   3.348  49.034  1.00  0.00     0.045 C 
HETATM   12  C17 UNL     1      20.395   3.724  49.107  1.00  0.00     0.003 C 
HETATM   13  C18 UNL     1      19.850   3.581  50.491  1.00  0.00     0.001 C 
HETATM   14  C19 UNL     1      20.663   4.513  51.371  1.00  0.00     0.007 C 
HETATM   15  C20 UNL     1      22.080   4.016  51.454  1.00  0.00     0.023 C 
HETATM   16  C21 UNL     1      21.994   2.698  52.232  1.00  0.00     0.013 C 
HETATM   17  O3  UNL     1      23.573   2.580  50.338  1.00  0.00    -0.332 OA
HETATM   18  H7  UNL     1      24.898   0.949  52.389  1.00  0.00     0.293 HD
ENDROOT
BRANCH   9  19
HETATM   19  C13 UNL     1      23.276   6.200  50.013  1.00  0.00     0.156 A 
HETATM   20  N4  UNL     1      22.469   6.543  48.995  1.00  0.00    -0.100 NA
HETATM   21  O2  UNL     1      22.157   7.786  49.280  1.00  0.00    -0.105 OA
HETATM   22  N5  UNL     1      22.722   8.162  50.362  1.00  0.00    -0.091 NA
HETATM   23  C14 UNL     1      23.472   7.234  50.936  1.00  0.00     0.164 A 
BRANCH  23  24
HETATM   24  N6  UNL     1      24.366   6.570  51.879  1.00  0.00    -0.283 NA
HETATM   25  H15 UNL     1      23.664   5.752  51.821  1.00  0.00     0.125 HD
HETATM   26  H16 UNL     1      23.933   5.601  52.083  1.00  0.00     0.125 HD
ENDBRANCH  23  24
ENDBRANCH   9  19
BRANCH   1  27
HETATM   27  C2  UNL     1      27.923   4.814  48.591  1.00  0.00     0.218 C 
HETATM   28  C1  UNL     1      27.295   6.184  48.510  1.00  0.00     0.033 C 
ENDBRANCH   1  27
BRANCH   6  29
HETATM   29  C7  UNL     1      27.875   1.595  52.957  1.00  0.00    -0.083 C 
BRANCH  29  30
HETATM   30  C8  UNL     1      28.786   1.201  53.907  1.00  0.00     0.108 C 
HETATM   31  C9  UNL     1      29.919   0.354  53.323  1.00  0.00     0.059 C 
HETATM   32  C10 UNL     1      28.203   0.430  55.073  1.00  0.00     0.059 C 
BRANCH  30  33
HETATM   33  O1  UNL     1      29.364   2.378  54.452  1.00  0.00    -0.379 OA
HETATM   34  H14 UNL     1      30.334   2.318  54.284  1.00  0.00     0.211 HD
ENDBRANCH  30  33
ENDBRANCH  29  30
ENDBRANCH   6  29
TORSDOF 7
ENDMDL
MODEL 2
REMARK VINA RESULT:      -8.3      2.587      4.522
REMARK  7 active torsions:
REMARK  status: ('A' for Active; 'I' for Inactive)
REMARK    1  A    between atoms: C2_2  and  N1_3 
REMARK    2  A    between atoms: C5_7  and  C11_14 
REMARK    3  A    between atoms: C6_8  and  C7_9 
REMARK    4  A    between atoms: C7_9  and  C8_10 
REMARK    5  A    between atoms: C8_10  and  O1_13 
REMARK    6  A    between atoms: C12_16  and  C13_17 
REMARK    7  A    between atoms: C14_21  and  N6_22 
ROOT
HETATM    1  N1  UNL     1      22.640   0.597  53.110  1.00  0.00    -0.069 N 
HETATM    2  C3  UNL     1      23.465   1.582  52.998  1.00  0.00     0.690 A 
HETATM    3  C4  UNL     1      24.041   2.913  52.730  1.00  0.00     0.312 A 
HETATM    4  N2  UNL     1      25.628   2.957  53.104  1.00  0.00     0.026 N 
HETATM    5  C5  UNL     1      24.567   2.237  53.067  1.00  0.00     0.300 A 
HETATM    6  C6  UNL     1      25.999   1.353  53.407  1.00  0.00     0.207 A 
HETATM    7  C11 UNL     1      23.306   1.996  52.826  1.00  0.00     0.292 A 
HETATM    8  N3  UNL     1      22.200   2.825  52.047  1.00  0.00    -0.244 NA
HETATM    9  C12 UNL     1      22.039   3.146  50.814  1.00  0.00     0.101 C 
HETATM   10  C15 UNL     1      22.703   4.483  51.035  1.00  0.00     0.114 C 
HETATM   11  C16 UNL     1      21.759   5.556  51.469  1.00  0.00     0.045 C 
HETATM   12  C17 UNL     1      21.421   6.630  50.525  1.00  0.00     0.003 C 
HETATM   13  C18 UNL     1      22.613   7.083  49.745  1.00  0.00     0.001 C 
HETATM   14  C19 UNL     1      23.106   5.872  48.973  1.00  0.00     0.007 C 
HETATM   15  C20 UNL     1      23.634   4.844  49.936  1.00  0.00     0.023 C 
HETATM   16  C21 UNL     1      24.892   5.477  50.542  1.00  0.00     0.013 C 
HETATM   17  O3  UNL     1      23.538   4.267  52.215  1.00  0.00    -0.332 OA
HETATM   18  H7  UNL     1      26.288   3.709  53.081  1.00  0.00     0.293 HD
ENDROOT
BRANCH   9  19
HETATM   19  C13 UNL     1      21.589   2.876  49.464  1.00  0.00     0.156 A 
HETATM   20  N4  UNL     1      22.614   2.270  48.839  1.00  0.00    -0.100 NA
HETATM   21  O2  UNL     1      22.146   2.093  47.625  1.00  0.00    -0.105 OA
HETATM   22  N5  UNL     1      20.957   2.549  47.523  1.00  0.00    -0.091 NA
HETATM   23  C14 UNL     1      20.479   3.080  48.637  1.00  0.00     0.164 A 
BRANCH  23  24
HETATM   24  N6  UNL     1      19.576   3.739  49.576  1.00  0.00    -0.283 NA
HETATM   25  H15 UNL     1      19.477   4.490  48.806  1.00  0.00     0.125 HD
HETATM   26  H16 UNL     1      19.236   4.644  49.092  1.00  0.00     0.125 HD
ENDBRANCH  23  24
ENDBRANCH   9  19
BRANCH   1  27
HETATM   27  C2  UNL     1      21.722  -0.490  53.231  1.00  0.00     0.218 C 
HETATM   28  C1  UNL     1      21.960  -1.135  54.575  1.00  0.00     0.033 C 
ENDBRANCH   1  27
BRANCH   6  29
HETATM   29  C7  UNL     1      26.991   0.740  53.623  1.00  0.00    -0.083 C 
BRANCH  29  30
HETATM   30  C8  UNL     1      28.142   0.042  53.895  1.00  0.00     0.108 C 
HETATM   31  C9  UNL     1      29.404   0.884  53.697  1.00  0.00     0.059 C 
HETATM   32  C10 UNL     1      28.321  -1.233  53.096  1.00  0.00     0.059 C 
BRANCH  30  33
HETATM   33  O1  UNL     1      28.090  -0.344  55.261  1.00  0.00    -0.379 OA
HETATM   34  H14 UNL     1      28.697   0.263  55.747  1.00  0.00     0.211 HD
ENDBRANCH  30  33
ENDBRANCH  29  30
ENDBRANCH   6  29
TORSDOF 7
ENDMDL
MODEL 3
REMARK VINA RESULT:      -7.9      2.495      3.382
REMARK  7 active torsions:
REMARK  status: ('A' for Active; 'I' for Inactive)
REMARK    1  A    between atoms: C2_2  and  N1_3 
REMARK    2  A    between atoms: C5_7  and  C11_14 
REMARK    3  A    between atoms: C6_8  and  C7_9 
REMARK    4  A    between atoms: C7_9  and  C8_10 
REMARK    5  A    between atoms: C8_10  and  O1_13 
REMARK    6  A    between atoms: C12_16  and  C13_17 
REMARK    7  A    between atoms: C14_21  and  N6_22 
ROOT
HETATM    1  N1  UNL     1      28.128   4.900  48.606  1.00  0.00    -0.069 N 
HETATM    2  C3  UNL     1      26.958   4.660  49.094  1.00  0.00     0.690 A 
HETATM    3  C4  UNL     1      25.506   4.691  49.351  1.00  0.00     0.312 A 
HETATM    4  N2  UNL     1      25.088   3.623  50.511  1.00  0.00     0.026 N 
HETATM    5  C5  UNL     1      26.050   4.116  49.821  1.00  0.00     0.300 A 
HETATM    6  C6  UNL     1      26.563   3.107  51.111  1.00  0.00     0.207 A 
HETATM    7  C11 UNL     1      26.585   4.906  48.928  1.00  0.00     0.292 A 
HETATM    8  N3  UNL     1      26.005   6.149  48.131  1.00  0.00    -0.244 NA
HETATM    9  C12 UNL     1      25.633   7.328  48.476  1.00  0.00     0.101 C 
HETATM   10  C15 UNL     1      24.194   6.886  48.581  1.00  0.00     0.114 C 
HETATM   11  C16 UNL     1      23.440   6.993  47.297  1.00  0.00     0.045 C 
HETATM   12  C17 UNL     1      22.413   8.034  47.160  1.00  0.00     0.003 C 
HETATM   13  C18 UNL     1      21.605   8.189  48.407  1.00  0.00     0.001 C 
HETATM   14  C19 UNL     1      22.580   8.584  49.503  1.00  0.00     0.007 C 
HETATM   15  C20 UNL     1      23.516   7.440  49.780  1.00  0.00     0.023 C 
HETATM   16  C21 UNL     1      22.635   6.348  50.397  1.00  0.00     0.013 C 
HETATM   17  O3  UNL     1      24.288   5.444  48.803  1.00  0.00    -0.332 OA
HETATM   18  H7  UNL     1      24.192   3.371  50.880  1.00  0.00     0.293 HD
ENDROOT
BRANCH   9  19
HETATM   19  C13 UNL     1      25.895   8.718  48.790  1.00  0.00     0.156 A 
HETATM   20  N4  UNL     1      25.517   9.425  47.712  1.00  0.00    -0.100 NA
HETATM   21  O2  UNL     1      25.817  10.657  48.056  1.00  0.00    -0.105 OA
HETATM   22  N5  UNL     1      26.329  10.691  49.226  1.00  0.00    -0.091 NA
HETATM   23  C14 UNL     1      26.436   9.509  49.811  1.00  0.00     0.164 A 
BRANCH  23  24
HETATM   24  N6  UNL     1      26.743   8.479  50.798  1.00  0.00    -0.283 NA
HETATM   25  H15 UNL     1      26.144   7.835  50.171  1.00  0.00     0.125 HD
HETATM   26  H16 UNL     1      26.248   7.577  50.465  1.00  0.00     0.125 HD
ENDBRANCH  23  24
ENDBRANCH   9  19
BRANCH   1  27
HETATM   27  C2  UNL     1      29.420   5.170  48.062  1.00  0.00     0.218 C 
HETATM   28  C1  UNL     1      29.597   6.669  48.038  1.00  0.00     0.033 C 
ENDBRANCH   1  27
BRANCH   6  29
HETATM   29  C7  UNL     1      26.917   2.426  52.015  1.00  0.00    -0.083 C 
BRANCH  29  30
HETATM   30  C8  UNL     1      27.349   1.641  53.056  1.00  0.00     0.108 C 
HETATM   31  C9  UNL     1      28.753   2.018  53.536  1.00  0.00     0.059 C 
HETATM   32  C10 UNL     1      27.354   0.152  52.776  1.00  0.00     0.059 C 
BRANCH  30  33
HETATM   33  O1  UNL     1      26.454   1.843  54.139  1.00  0.00    -0.379 OA
HETATM   34  H14 UNL     1      26.203   2.797  54.122  1.00  0.00     0.211 HD
ENDBRANCH  30  33
ENDBRANCH  29  30
ENDBRANCH   6  29
TORSDOF 7
ENDMDL
MODEL 4
REMARK VINA RESULT:      -7.6      2.591      4.127
REMARK  7 active torsions:
REMARK  status: ('A' for Active; 'I' for Inactive)
REMARK    1  A    between atoms: C2_2  and  N1_3 
REMARK    2  A    between atoms: C5_7  and  C11_14 
REMARK    3  A    between atoms: C6_8  and  C7_9 
REMARK    4  A    between atoms: C7_9  and  C8_10 
REMARK    5  A    between atoms: C8_10  and  O1_13 
REMARK    6  A    between atoms: C12_16  and  C13_17 
REMARK    7  A    between atoms: C14_21  and  N6_22 
ROOT
HETATM    1  N1  UNL     1      25.322   1.980  51.228  1.00  0.00    -0.069 N 
HETATM    2  C3  UNL     1      24.057   1.964  50.975  1.00  0.00     0.690 A 
HETATM    3  C4  UNL     1      22.737   2.233  50.373  1.00  0.00     0.312 A 
HETATM    4  N2  UNL     1      21.567   1.361  51.101  1.00  0.00     0.026 N 
HETATM    5  C5  UNL     1      22.819   1.636  51.069  1.00  0.00     0.300 A 
HETATM    6  C6  UNL     1      22.345   0.700  52.428  1.00  0.00     0.207 A 
HETATM    7  C11 UNL     1      23.889   2.244  50.628  1.00  0.00     0.292 A 
HETATM    8  N3  UNL     1      24.078   3.470  49.639  1.00  0.00    -0.244 NA
HETATM    9  C12 UNL     1      23.794   4.719  49.713  1.00  0.00     0.101 C 
HETATM   10  C15 UNL     1      22.485   4.505  48.993  1.00  0.00     0.114 C 
HETATM   11  C16 UNL     1      22.599   4.589  47.507  1.00  0.00     0.045 C 
HETATM   12  C17 UNL     1      22.023   5.749  46.814  1.00  0.00     0.003 C 
HETATM   13  C18 UNL     1      20.704   6.147  47.393  1.00  0.00     0.001 C 
HETATM   14  C19 UNL     1      20.963   6.506  48.845  1.00  0.00     0.007 C 
HETATM   15  C20 UNL     1      21.369   5.272  49.603  1.00  0.00     0.023 C 
HETATM   16  C21 UNL     1      20.116   4.389  49.623  1.00  0.00     0.013 C 
HETATM   17  O3  UNL     1      22.182   3.095  49.234  1.00  0.00    -0.332 OA
HETATM   18  H7  UNL     1      20.589   1.282  50.905  1.00  0.00     0.293 HD
ENDROOT
BRANCH   9  19
HETATM   19  C13 UNL     1      24.082   6.081  50.116  1.00  0.00     0.156 A 
HETATM   20  N4  UNL     1      24.452   6.734  49.001  1.00  0.00    -0.100 NA
HETATM   21  O2  UNL     1      24.728   7.937  49.450  1.00  0.00    -0.105 OA
HETATM   22  N5  UNL     1      24.547   8.005  50.713  1.00  0.00    -0.091 NA
HETATM   23  C14 UNL     1      24.130   6.877  51.267  1.00  0.00     0.164 A 
BRANCH  23  24
HETATM   24  N6  UNL     1      23.694   5.909  52.267  1.00  0.00    -0.283 NA
HETATM   25  H15 UNL     1      24.268   5.198  51.690  1.00  0.00     0.125 HD
HETATM   26  H16 UNL     1      24.126   4.959  51.984  1.00  0.00     0.125 HD
ENDBRANCH  23  24
ENDBRANCH   9  19
BRANCH   1  27
HETATM   27  C2  UNL     1      26.723   2.002  51.502  1.00  0.00     0.218 C 
HETATM   28  C1  UNL     1      26.973   1.056  52.651  1.00  0.00     0.033 C 
ENDBRANCH   1  27
BRANCH   6  29
HETATM   29  C7  UNL     1      22.013   0.070  53.376  1.00  0.00    -0.083 C 
BRANCH  29  30
HETATM   30  C8  UNL     1      21.645  -0.648  54.487  1.00  0.00     0.108 C 
HETATM   31  C9  UNL     1      22.848  -1.180  55.271  1.00  0.00     0.059 C 
HETATM   32  C10 UNL     1      20.728  -1.823  54.216  1.00  0.00     0.059 C 
BRANCH  30  33
HETATM   33  O1  UNL     1      20.929   0.232  55.341  1.00  0.00    -0.379 OA
HETATM   34  H14 UNL     1      21.168   1.148  55.065  1.00  0.00     0.211 HD
ENDBRANCH  30  33
ENDBRANCH  29  30
ENDBRANCH   6  29
TORSDOF 7
ENDMDL
MODEL 5
REMARK VINA RESULT:      -7.3      5.584      8.703
REMARK  7 active torsions:
REMARK  status: ('A' for Active; 'I' for Inactive)
REMARK    1  A    between atoms: C2_2  and  N1_3 
REMARK    2  A    between atoms: C5_7  and  C11_14 
REMARK    3  A    between atoms: C6_8  and  C7_9 
REMARK    4  A    between atoms: C7_9  and  C8_10 
REMARK    5  A    between atoms: C8_10  and  O1_13 
REMARK    6  A    between atoms: C12_16  and  C13_17 
REMARK    7  A    between atoms: C14_21  and  N6_22 
ROOT
HETATM    1  N1  UNL     1      28.941   5.536  48.552  1.00  0.00    -0.069 N 
HETATM    2  C3  UNL     1      30.043   6.208  48.569  1.00  0.00     0.690 A 
HETATM    3  C4  UNL     1      31.017   7.314  48.628  1.00  0.00     0.312 A 
HETATM    4  N2  UNL     1      32.548   6.757  48.556  1.00  0.00     0.026 N 
HETATM    5  C5  UNL     1      31.305   6.442  48.560  1.00  0.00     0.300 A 
HETATM    6  C6  UNL     1      32.354   5.137  48.182  1.00  0.00     0.207 A 
HETATM    7  C11 UNL     1      30.021   6.683  48.597  1.00  0.00     0.292 A 
HETATM    8  N3  UNL     1      29.193   8.030  48.474  1.00  0.00    -0.244 NA
HETATM    9  C12 UNL     1      28.991   8.861  47.516  1.00  0.00     0.101 C 
HETATM   10  C15 UNL     1      30.115   9.746  47.995  1.00  0.00     0.114 C 
HETATM   11  C16 UNL     1      29.690  10.761  49.004  1.00  0.00     0.045 C 
HETATM   12  C17 UNL     1      29.637  12.176  48.612  1.00  0.00     0.003 C 
HETATM   13  C18 UNL     1      30.792  12.559  47.746  1.00  0.00     0.001 C 
HETATM   14  C19 UNL     1      30.705  11.689  46.504  1.00  0.00     0.007 C 
HETATM   15  C20 UNL     1      30.954  10.253  46.879  1.00  0.00     0.023 C 
HETATM   16  C21 UNL     1      32.426  10.204  47.305  1.00  0.00     0.013 C 
HETATM   17  O3  UNL     1      30.970   8.840  48.761  1.00  0.00    -0.332 OA
HETATM   18  H7  UNL     1      33.425   7.236  48.616  1.00  0.00     0.293 HD
ENDROOT
BRANCH   9  19
HETATM   19  C13 UNL     1      28.294   9.307  46.327  1.00  0.00     0.156 A 
HETATM   20  N4  UNL     1      27.373  10.194  46.740  1.00  0.00    -0.100 NA
HETATM   21  O2  UNL     1      26.766  10.520  45.622  1.00  0.00    -0.105 OA
HETATM   22  N5  UNL     1      27.267   9.890  44.630  1.00  0.00    -0.091 NA
HETATM   23  C14 UNL     1      28.260   9.075  44.947  1.00  0.00     0.164 A 
BRANCH  23  24
HETATM   24  N6  UNL     1      29.336   8.097  44.825  1.00  0.00    -0.283 NA
HETATM   25  H15 UNL     1      29.797   8.646  45.633  1.00  0.00     0.125 HD
HETATM   26  H16 UNL     1      30.076   8.359  45.569  1.00  0.00     0.125 HD
ENDBRANCH  23  24
ENDBRANCH   9  19
BRANCH   1  27
HETATM   27  C2  UNL     1      27.720   4.798  48.535  1.00  0.00     0.218 C 
HETATM   28  C1  UNL     1      26.600   5.769  48.821  1.00  0.00     0.033 C 
ENDBRANCH   1  27
BRANCH   6  29
HETATM   29  C7  UNL     1      33.078   4.241  47.902  1.00  0.00    -0.083 C 
BRANCH  29  30
HETATM   30  C8  UNL     1      33.912   3.193  47.599  1.00  0.00     0.108 C 
HETATM   31  C9  UNL     1      34.587   3.350  46.234  1.00  0.00     0.059 C 
HETATM   32  C10 UNL     1      33.259   1.826  47.624  1.00  0.00     0.059 C 
BRANCH  30  33
HETATM   33  O1  UNL     1      34.934   3.167  48.585  1.00  0.00    -0.379 OA
HETATM   34  H14 UNL     1      35.645   2.578  48.238  1.00  0.00     0.211 HD
ENDBRANCH  30  33
ENDBRANCH  29  30
ENDBRANCH   6  29
TORSDOF 7
ENDMDL
MODEL 6
REMARK VINA RESULT:      -7.3      6.293     10.445
REMARK  7 active torsions:
REMARK  status: ('A' for Active; 'I' for Inactive)
REMARK    1  A    between atoms: C2_2  and  N1_3 
REMARK    2  A    between atoms: C5_7  and  C11_14 
REMARK    3  A    between atoms: C6_8  and  C7_9 
REMARK    4  A    between atoms: C7_9  and  C8_10 
REMARK    5  A    between atoms: C8_10  and  O1_13 
REMARK    6  A    between atoms: C12_16  and  C13_17 
REMARK    7  A    between atoms: C14_21  and  N6_22 
ROOT
HETATM    1  N1  UNL     1      30.471  10.382  48.926  1.00  0.00    -0.069 N 
HETATM    2  C3  UNL     1      30.285   9.106  48.894  1.00  0.00     0.690 A 
HETATM    3  C4  UNL     1      30.515   7.650  48.852  1.00  0.00     0.312 A 
HETATM    4  N2  UNL     1      29.108   6.827  48.888  1.00  0.00     0.026 N 
HETATM    5  C5  UNL     1      29.659   7.985  48.894  1.00  0.00     0.300 A 
HETATM    6  C6  UNL     1      27.954   8.025  48.701  1.00  0.00     0.207 A 
HETATM    7  C11 UNL     1      30.664   8.820  48.867  1.00  0.00     0.292 A 
HETATM    8  N3  UNL     1      32.207   8.609  48.563  1.00  0.00    -0.244 NA
HETATM    9  C12 UNL     1      32.866   8.287  47.510  1.00  0.00     0.101 C 
HETATM   10  C15 UNL     1      32.878   6.834  47.914  1.00  0.00     0.114 C 
HETATM   11  C16 UNL     1      34.033   6.464  48.785  1.00  0.00     0.045 C 
HETATM   12  C17 UNL     1      35.105   5.627  48.229  1.00  0.00     0.003 C 
HETATM   13  C18 UNL     1      34.568   4.539  47.357  1.00  0.00     0.001 C 
HETATM   14  C19 UNL     1      33.825   5.224  46.224  1.00  0.00     0.007 C 
HETATM   15  C20 UNL     1      32.611   5.925  46.770  1.00  0.00     0.023 C 
HETATM   16  C21 UNL     1      31.683   4.799  47.241  1.00  0.00     0.013 C 
HETATM   17  O3  UNL     1      31.725   6.710  48.804  1.00  0.00    -0.332 OA
HETATM   18  H7  UNL     1      28.922   5.844  48.917  1.00  0.00     0.293 HD
ENDROOT
BRANCH   9  19
HETATM   19  C13 UNL     1      33.522   8.605  46.258  1.00  0.00     0.156 A 
HETATM   20  N4  UNL     1      32.577   8.526  45.306  1.00  0.00    -0.100 NA
HETATM   21  O2  UNL     1      33.250   8.788  44.209  1.00  0.00    -0.105 OA
HETATM   22  N5  UNL     1      34.483   9.000  44.470  1.00  0.00    -0.091 NA
HETATM   23  C14 UNL     1      34.792   8.913  45.754  1.00  0.00     0.164 A 
BRANCH  23  24
HETATM   24  N6  UNL     1      35.565   8.917  46.992  1.00  0.00    -0.283 NA
HETATM   25  H15 UNL     1      34.803   9.592  47.353  1.00  0.00     0.125 HD
HETATM   26  H16 UNL     1      35.044   9.570  47.678  1.00  0.00     0.125 HD
ENDBRANCH  23  24
ENDBRANCH   9  19
BRANCH   1  27
HETATM   27  C2  UNL     1      30.683  11.794  48.960  1.00  0.00     0.218 C 
HETATM   28  C1  UNL     1      29.326  12.455  48.970  1.00  0.00     0.033 C 
ENDBRANCH   1  27
BRANCH   6  29
HETATM   29  C7  UNL     1      26.778   8.051  48.548  1.00  0.00    -0.083 C 
BRANCH  29  30
HETATM   30  C8  UNL     1      25.419   8.062  48.355  1.00  0.00     0.108 C 
HETATM   31  C9  UNL     1      24.807   6.659  48.383  1.00  0.00     0.059 C 
HETATM   32  C10 UNL     1      24.959   8.727  47.074  1.00  0.00     0.059 C 
BRANCH  30  33
HETATM   33  O1  UNL     1      24.846   8.804  49.422  1.00  0.00    -0.379 OA
HETATM   34  H14 UNL     1      25.060   9.752  49.251  1.00  0.00     0.211 HD
ENDBRANCH  30  33
ENDBRANCH  29  30
ENDBRANCH   6  29
TORSDOF 7
ENDMDL
MODEL 7
REMARK VINA RESULT:      -7.2      3.333      5.510
REMARK  7 active torsions:
REMARK  status: ('A' for Active; 'I' for Inactive)
REMARK    1  A    between atoms: C2_2  and  N1_3 
REMARK    2  A    between atoms: C5_7  and  C11_14 
REMARK    3  A    between atoms: C6_8  and  C7_9 
REMARK    4  A    between atoms: C7_9  and  C8_10 
REMARK    5  A    between atoms: C8_10  and  O1_13 
REMARK    6  A    between atoms: C12_16  and  C13_17 
REMARK    7  A    between atoms: C14_21  and  N6_22 
ROOT
HETATM    1  N1  UNL     1      22.253   3.597  47.492  1.00  0.00    -0.069 N 
HETATM    2  C3  UNL     1      23.046   3.358  48.481  1.00  0.00     0.690 A 
HETATM    3  C4  UNL     1      23.653   2.768  49.689  1.00  0.00     0.312 A 
HETATM    4  N2  UNL     1      25.049   3.517  50.075  1.00  0.00     0.026 N 
HETATM    5  C5  UNL     1      24.064   3.469  49.255  1.00  0.00     0.300 A 
HETATM    6  C6  UNL     1      25.074   4.841  49.051  1.00  0.00     0.207 A 
HETATM    7  C11 UNL     1      22.933   3.011  48.787  1.00  0.00     0.292 A 
HETATM    8  N3  UNL     1      21.864   2.008  49.393  1.00  0.00    -0.244 NA
HETATM    9  C12 UNL     1      21.052   2.073  50.385  1.00  0.00     0.101 C 
HETATM   10  C15 UNL     1      22.035   1.369  51.287  1.00  0.00     0.114 C 
HETATM   11  C16 UNL     1      21.920  -0.119  51.253  1.00  0.00     0.045 C 
HETATM   12  C17 UNL     1      21.368  -0.817  52.422  1.00  0.00     0.003 C 
HETATM   13  C18 UNL     1      21.856  -0.228  53.705  1.00  0.00     0.001 C 
HETATM   14  C19 UNL     1      21.393   1.218  53.718  1.00  0.00     0.007 C 
HETATM   15  C20 UNL     1      22.107   1.983  52.637  1.00  0.00     0.023 C 
HETATM   16  C21 UNL     1      23.573   2.025  53.083  1.00  0.00     0.013 C 
HETATM   17  O3  UNL     1      23.330   1.626  50.659  1.00  0.00    -0.332 OA
HETATM   18  H7  UNL     1      25.716   3.331  50.798  1.00  0.00     0.293 HD
ENDROOT
BRANCH   9  19
HETATM   19  C13 UNL     1      19.795   2.459  50.993  1.00  0.00     0.156 A 
HETATM   20  N4  UNL     1      19.954   3.725  51.416  1.00  0.00    -0.100 NA
HETATM   21  O2  UNL     1      18.798   3.987  51.981  1.00  0.00    -0.105 OA
HETATM   22  N5  UNL     1      18.017   2.978  51.912  1.00  0.00    -0.091 NA
HETATM   23  C14 UNL     1      18.537   1.927  51.298  1.00  0.00     0.164 A 
BRANCH  23  24
HETATM   24  N6  UNL     1      18.680   0.589  50.733  1.00  0.00    -0.283 NA
HETATM   25  H15 UNL     1      18.829   0.277  51.757  1.00  0.00     0.125 HD
HETATM   26  H16 UNL     1      18.865  -0.077  51.565  1.00  0.00     0.125 HD
ENDBRANCH  23  24
ENDBRANCH   9  19
BRANCH   1  27
HETATM   27  C2  UNL     1      21.371   3.857  46.399  1.00  0.00     0.218 C 
HETATM   28  C1  UNL     1      22.031   4.892  45.522  1.00  0.00     0.033 C 
ENDBRANCH   1  27
BRANCH   6  29
HETATM   29  C7  UNL     1      25.762   5.799  48.924  1.00  0.00    -0.083 C 
BRANCH  29  30
HETATM   30  C8  UNL     1      26.577   6.895  48.785  1.00  0.00     0.108 C 
HETATM   31  C9  UNL     1      25.947   7.996  47.928  1.00  0.00     0.059 C 
HETATM   32  C10 UNL     1      27.948   6.605  48.208  1.00  0.00     0.059 C 
BRANCH  30  33
HETATM   33  O1  UNL     1      26.793   7.429  50.083  1.00  0.00    -0.379 OA
HETATM   34  H14 UNL     1      26.111   8.129  50.216  1.00  0.00     0.211 HD
ENDBRANCH  30  33
ENDBRANCH  29  30
ENDBRANCH   6  29
TORSDOF 7
ENDMDL
MODEL 8
REMARK VINA RESULT:      -6.8      6.358      9.664
REMARK  7 active torsions:
REMARK  status: ('A' for Active; 'I' for Inactive)
REMARK    1  A    between atoms: C2_2  and  N1_3 
REMARK    2  A    between atoms: C5_7  and  C11_14 
REMARK    3  A    between atoms: C6_8  and  C7_9 
REMARK    4  A    between atoms: C7_9  and  C8_10 
REMARK    5  A    between atoms: C8_10  and  O1_13 
REMARK    6  A    between atoms: C12_16  and  C13_17 
REMARK    7  A    between atoms: C14_21  and  N6_22 
ROOT
HETATM    1  N1  UNL     1      31.847   6.837  48.100  1.00  0.00    -0.069 N 
HETATM    2  C3  UNL     1      31.686   7.809  47.268  1.00  0.00     0.690 A 
HETATM    3  C4  UNL     1      31.318   9.108  46.673  1.00  0.00     0.312 A 
HETATM    4  N2  UNL     1      31.782   9.196  45.112  1.00  0.00     0.026 N 
HETATM    5  C5  UNL     1      31.755   8.472  46.171  1.00  0.00     0.300 A 
HETATM    6  C6  UNL     1      32.271   7.634  44.765  1.00  0.00     0.207 A 
HETATM    7  C11 UNL     1      31.462   8.203  47.415  1.00  0.00     0.292 A 
HETATM    8  N3  UNL     1      30.535   8.942  48.469  1.00  0.00    -0.244 NA
HETATM    9  C12 UNL     1      29.269   9.134  48.553  1.00  0.00     0.101 C 
HETATM   10  C15 UNL     1      29.391  10.489  47.902  1.00  0.00     0.114 C 
HETATM   11  C16 UNL     1      29.653  11.597  48.868  1.00  0.00     0.045 C 
HETATM   12  C17 UNL     1      28.585  12.567  49.144  1.00  0.00     0.003 C 
HETATM   13  C18 UNL     1      27.837  12.942  47.906  1.00  0.00     0.001 C 
HETATM   14  C19 UNL     1      27.226  11.660  47.369  1.00  0.00     0.007 C 
HETATM   15  C20 UNL     1      28.320  10.738  46.904  1.00  0.00     0.023 C 
HETATM   16  C21 UNL     1      28.933  11.436  45.684  1.00  0.00     0.013 C 
HETATM   17  O3  UNL     1      30.636  10.399  47.140  1.00  0.00    -0.332 OA
HETATM   18  H7  UNL     1      31.722   9.945  44.451  1.00  0.00     0.293 HD
ENDROOT
BRANCH   9  19
HETATM   19  C13 UNL     1      27.928   8.724  48.920  1.00  0.00     0.156 A 
HETATM   20  N4  UNL     1      27.437   8.054  47.864  1.00  0.00    -0.100 NA
HETATM   21  O2  UNL     1      26.221   7.751  48.256  1.00  0.00    -0.105 OA
HETATM   22  N5  UNL     1      25.996   8.196  49.432  1.00  0.00    -0.091 NA
HETATM   23  C14 UNL     1      27.016   8.843  49.975  1.00  0.00     0.164 A 
BRANCH  23  24
HETATM   24  N6  UNL     1      27.822   9.598  50.928  1.00  0.00    -0.283 NA
HETATM   25  H15 UNL     1      27.050   9.340  51.639  1.00  0.00     0.125 HD
HETATM   26  H16 UNL     1      27.298   9.558  51.873  1.00  0.00     0.125 HD
ENDBRANCH  23  24
ENDBRANCH   9  19
BRANCH   1  27
HETATM   27  C2  UNL     1      32.024   5.764  49.026  1.00  0.00     0.218 C 
HETATM   28  C1  UNL     1      32.420   4.543  48.233  1.00  0.00     0.033 C 
ENDBRANCH   1  27
BRANCH   6  29
HETATM   29  C7  UNL     1      32.609   7.051  43.789  1.00  0.00    -0.083 C 
BRANCH  29  30
HETATM   30  C8  UNL     1      32.984   6.387  42.647  1.00  0.00     0.108 C 
HETATM   31  C9  UNL     1      33.264   4.902  42.891  1.00  0.00     0.059 C 
HETATM   32  C10 UNL     1      34.193   6.962  41.939  1.00  0.00     0.059 C 
BRANCH  30  33
HETATM   33  O1  UNL     1      31.902   6.477  41.731  1.00  0.00    -0.379 OA
HETATM   34  H14 UNL     1      31.075   6.408  42.265  1.00  0.00     0.211 HD
ENDBRANCH  30  33
ENDBRANCH  29  30
ENDBRANCH   6  29
TORSDOF 7
ENDMDL
MODEL 9
REMARK VINA RESULT:      -6.7      8.237     11.665
REMARK  7 active torsions:
REMARK  status: ('A' for Active; 'I' for Inactive)
REMARK    1  A    between atoms: C2_2  and  N1_3 
REMARK    2  A    between atoms: C5_7  and  C11_14 
REMARK    3  A    between atoms: C6_8  and  C7_9 
REMARK    4  A    between atoms: C7_9  and  C8_10 
REMARK    5  A    between atoms: C8_10  and  O1_13 
REMARK    6  A    between atoms: C12_16  and  C13_17 
REMARK    7  A    between atoms: C14_21  and  N6_22 
ROOT
HETATM    1  N1  UNL     1      33.702   4.037  45.819  1.00  0.00    -0.069 N 
HETATM    2  C3  UNL     1      33.767   5.006  44.970  1.00  0.00     0.690 A 
HETATM    3  C4  UNL     1      33.857   6.352  44.373  1.00  0.00     0.312 A 
HETATM    4  N2  UNL     1      33.888   6.275  42.744  1.00  0.00     0.026 N 
HETATM    5  C5  UNL     1      33.827   5.605  43.836  1.00  0.00     0.300 A 
HETATM    6  C6  UNL     1      33.542   4.669  42.426  1.00  0.00     0.207 A 
HETATM    7  C11 UNL     1      33.783   5.453  45.133  1.00  0.00     0.292 A 
HETATM    8  N3  UNL     1      33.579   6.492  46.314  1.00  0.00    -0.244 NA
HETATM    9  C12 UNL     1      32.592   7.221  46.692  1.00  0.00     0.101 C 
HETATM   10  C15 UNL     1      33.115   8.403  45.914  1.00  0.00     0.114 C 
HETATM   11  C16 UNL     1      34.073   9.251  46.683  1.00  0.00     0.045 C 
HETATM   12  C17 UNL     1      33.645  10.583  47.129  1.00  0.00     0.003 C 
HETATM   13  C18 UNL     1      32.839  11.288  46.087  1.00  0.00     0.001 C 
HETATM   14  C19 UNL     1      31.616  10.425  45.834  1.00  0.00     0.007 C 
HETATM   15  C20 UNL     1      32.038   9.130  45.195  1.00  0.00     0.023 C 
HETATM   16  C21 UNL     1      32.551   9.523  43.804  1.00  0.00     0.013 C 
HETATM   17  O3  UNL     1      33.950   7.796  44.879  1.00  0.00    -0.332 OA
HETATM   18  H7  UNL     1      33.988   6.994  42.054  1.00  0.00     0.293 HD
ENDROOT
BRANCH   9  19
HETATM   19  C13 UNL     1      31.354   7.433  47.414  1.00  0.00     0.156 A 
HETATM   20  N4  UNL     1      30.362   7.133  46.559  1.00  0.00    -0.100 NA
HETATM   21  O2  UNL     1      29.286   7.382  47.268  1.00  0.00    -0.105 OA
HETATM   22  N5  UNL     1      29.594   7.796  48.436  1.00  0.00    -0.091 NA
HETATM   23  C14 UNL     1      30.896   7.875  48.661  1.00  0.00     0.164 A 
BRANCH  23  24
HETATM   24  N6  UNL     1      32.170   8.117  49.332  1.00  0.00    -0.283 NA
HETATM   25  H15 UNL     1      31.731   9.063  49.615  1.00  0.00     0.125 HD
HETATM   26  H16 UNL     1      32.096   9.096  49.786  1.00  0.00     0.125 HD
ENDBRANCH  23  24
ENDBRANCH   9  19
BRANCH   1  27
HETATM   27  C2  UNL     1      33.631   2.968  46.763  1.00  0.00     0.218 C 
HETATM   28  C1  UNL     1      32.232   2.405  46.705  1.00  0.00     0.033 C 
ENDBRANCH   1  27
BRANCH   6  29
HETATM   29  C7  UNL     1      33.326   4.028  41.452  1.00  0.00    -0.083 C 
BRANCH  29  30
HETATM   30  C8  UNL     1      33.069   3.305  40.312  1.00  0.00     0.108 C 
HETATM   31  C9  UNL     1      34.232   2.391  39.918  1.00  0.00     0.059 C 
HETATM   32  C10 UNL     1      32.715   4.134  39.095  1.00  0.00     0.059 C 
BRANCH  30  33
HETATM   33  O1  UNL     1      31.944   2.481  40.579  1.00  0.00    -0.379 OA
HETATM   34  H14 UNL     1      31.286   2.665  39.867  1.00  0.00     0.211 HD
ENDBRANCH  30  33
ENDBRANCH  29  30
ENDBRANCH   6  29
TORSDOF 7
ENDMDL
