MODEL 1
REMARK VINA RESULT:      -8.1      0.000      0.000
REMARK  6 active torsions:
REMARK  status: ('A' for Active; 'I' for Inactive)
REMARK    1  A    between atoms: O1_2  and  C2_3 
REMARK    2  A    between atoms: C8_9  and  C9_10 
REMARK    3  A    between atoms: C9_10  and  C11_16 
REMARK    4  A    between atoms: N1_11  and  N2_12 
REMARK    5  A    between atoms: N2_12  and  C10_13 
REMARK    6  A    between atoms: C10_13  and  N3_14 
ROOT
HETATM    1  C9  UNL     1      24.290   0.754  52.726  1.00  0.00     0.087 C 
HETATM    2  N1  UNL     1      24.218   1.689  51.928  1.00  0.00    -0.172 NA
ENDROOT
BRANCH   1   3
HETATM    3  C8  UNL     1      25.664   0.416  53.076  1.00  0.00     0.044 C 
HETATM    4  C7  UNL     1      26.746  -0.329  53.143  1.00  0.00    -0.019 A 
HETATM    5  C2  UNL     1      27.982   0.149  53.799  1.00  0.00     0.074 A 
HETATM    6  C6  UNL     1      26.870  -1.692  52.594  1.00  0.00     0.068 A 
HETATM    7  C3  UNL     1      29.105  -0.500  53.923  1.00  0.00     0.037 A 
HETATM    8  C4  UNL     1      29.262  -1.840  53.396  1.00  0.00    -0.001 A 
HETATM    9  C5  UNL     1      28.185  -2.302  52.804  1.00  0.00    -0.022 A 
BRANCH   5  10
HETATM   10  O1  UNL     1      28.030   1.435  54.377  1.00  0.00    -0.355 OA
HETATM   11  C1  UNL     1      28.704   2.471  53.652  1.00  0.00     0.210 C 
ENDBRANCH   5  10
ENDBRANCH   1   3
BRANCH   1  12
HETATM   12  C11 UNL     1      23.065   0.133  53.197  1.00  0.00    -0.006 A 
HETATM   13  C12 UNL     1      21.744   0.342  52.874  1.00  0.00     0.014 A 
HETATM   14  C13 UNL     1      20.634  -0.292  53.369  1.00  0.00     0.001 A 
HETATM   15  C14 UNL     1      20.839  -1.270  54.313  1.00  0.00     0.000 A 
HETATM   16  C15 UNL     1      22.125  -1.563  54.710  1.00  0.00     0.001 A 
HETATM   17  C16 UNL     1      23.141  -0.856  54.140  1.00  0.00     0.014 A 
ENDBRANCH   1  12
BRANCH   2  18
HETATM   18  N2  UNL     1      23.541   2.525  51.187  1.00  0.00    -0.253 N 
HETATM   19  H10 UNL     1      23.133   2.533  50.216  1.00  0.00     0.191 HD
BRANCH  18  20
HETATM   20  C10 UNL     1      23.247   3.786  51.819  1.00  0.00     0.185 C 
HETATM   21  S1  UNL     1      22.157   5.000  51.859  1.00  0.00    -0.040 SA
BRANCH  20  22
HETATM   22  N3  UNL     1      24.112   4.367  52.815  1.00  0.00    -0.375 N 
HETATM   23  H11 UNL     1      24.852   5.083  52.933  1.00  0.00     0.158 HD
HETATM   24  H12 UNL     1      23.932   3.906  53.749  1.00  0.00     0.158 HD
ENDBRANCH  20  22
ENDBRANCH  18  20
ENDBRANCH   2  18
TORSDOF 6
ENDMDL
MODEL 2
REMARK VINA RESULT:      -8.0      2.252      5.623
REMARK  6 active torsions:
REMARK  status: ('A' for Active; 'I' for Inactive)
REMARK    1  A    between atoms: O1_2  and  C2_3 
REMARK    2  A    between atoms: C8_9  and  C9_10 
REMARK    3  A    between atoms: C9_10  and  C11_16 
REMARK    4  A    between atoms: N1_11  and  N2_12 
REMARK    5  A    between atoms: N2_12  and  C10_13 
REMARK    6  A    between atoms: C10_13  and  N3_14 
ROOT
HETATM    1  C9  UNL     1      25.944   1.276  52.391  1.00  0.00     0.087 C 
HETATM    2  N1  UNL     1      25.993   2.293  51.698  1.00  0.00    -0.172 NA
ENDROOT
BRANCH   1   3
HETATM    3  C8  UNL     1      24.579   0.852  52.674  1.00  0.00     0.044 C 
HETATM    4  C7  UNL     1      23.621   0.196  53.291  1.00  0.00    -0.019 A 
HETATM    5  C2  UNL     1      22.202   0.340  52.902  1.00  0.00     0.074 A 
HETATM    6  C6  UNL     1      23.823  -0.738  54.414  1.00  0.00     0.068 A 
HETATM    7  C3  UNL     1      21.177  -0.258  53.440  1.00  0.00     0.037 A 
HETATM    8  C4  UNL     1      21.338  -1.182  54.544  1.00  0.00    -0.001 A 
HETATM    9  C5  UNL     1      22.585  -1.338  54.921  1.00  0.00    -0.022 A 
BRANCH   5  10
HETATM   10  O1  UNL     1      21.837   1.197  51.843  1.00  0.00    -0.355 OA
HETATM   11  C1  UNL     1      21.394   0.598  50.618  1.00  0.00     0.210 C 
ENDBRANCH   5  10
ENDBRANCH   1   3
BRANCH   1  12
HETATM   12  C11 UNL     1      27.184   0.655  52.820  1.00  0.00    -0.006 A 
HETATM   13  C12 UNL     1      28.357   1.183  53.312  1.00  0.00     0.014 A 
HETATM   14  C13 UNL     1      29.494   0.523  53.698  1.00  0.00     0.001 A 
HETATM   15  C14 UNL     1      29.491  -0.848  53.590  1.00  0.00     0.000 A 
HETATM   16  C15 UNL     1      28.367  -1.482  53.109  1.00  0.00     0.001 A 
HETATM   17  C16 UNL     1      27.302  -0.707  52.759  1.00  0.00     0.014 A 
ENDBRANCH   1  12
BRANCH   2  18
HETATM   18  N2  UNL     1      26.649   3.228  51.065  1.00  0.00    -0.253 N 
HETATM   19  H10 UNL     1      27.652   3.536  50.975  1.00  0.00     0.191 HD
BRANCH  18  20
HETATM   20  C10 UNL     1      25.828   4.098  50.260  1.00  0.00     0.185 C 
HETATM   21  S1  UNL     1      24.444   4.150  49.397  1.00  0.00    -0.040 SA
BRANCH  20  22
HETATM   22  N3  UNL     1      26.187   5.469  49.997  1.00  0.00    -0.375 N 
HETATM   23  H11 UNL     1      26.478   6.102  49.230  1.00  0.00     0.158 HD
HETATM   24  H12 UNL     1      26.139   6.022  50.896  1.00  0.00     0.158 HD
ENDBRANCH  20  22
ENDBRANCH  18  20
ENDBRANCH   2  18
TORSDOF 6
ENDMDL
MODEL 3
REMARK VINA RESULT:      -7.6      3.434      5.343
REMARK  6 active torsions:
REMARK  status: ('A' for Active; 'I' for Inactive)
REMARK    1  A    between atoms: O1_2  and  C2_3 
REMARK    2  A    between atoms: C8_9  and  C9_10 
REMARK    3  A    between atoms: C9_10  and  C11_16 
REMARK    4  A    between atoms: N1_11  and  N2_12 
REMARK    5  A    between atoms: N2_12  and  C10_13 
REMARK    6  A    between atoms: C10_13  and  N3_14 
ROOT
HETATM    1  C9  UNL     1      24.906   0.730  52.365  1.00  0.00     0.087 C 
HETATM    2  N1  UNL     1      25.985   0.143  52.272  1.00  0.00    -0.172 NA
ENDROOT
BRANCH   1   3
HETATM    3  C8  UNL     1      24.912   2.029  51.706  1.00  0.00     0.044 C 
HETATM    4  C7  UNL     1      25.351   2.976  50.905  1.00  0.00    -0.019 A 
HETATM    5  C2  UNL     1      24.649   4.270  50.772  1.00  0.00     0.074 A 
HETATM    6  C6  UNL     1      26.556   2.880  50.062  1.00  0.00     0.068 A 
HETATM    7  C3  UNL     1      24.992   5.273  50.014  1.00  0.00     0.037 A 
HETATM    8  C4  UNL     1      26.170   5.214  49.172  1.00  0.00    -0.001 A 
HETATM    9  C5  UNL     1      26.822   4.078  49.262  1.00  0.00    -0.022 A 
BRANCH   5  10
HETATM   10  O1  UNL     1      23.476   4.525  51.512  1.00  0.00    -0.355 OA
HETATM   11  C1  UNL     1      22.231   4.562  50.803  1.00  0.00     0.210 C 
ENDBRANCH   5  10
ENDBRANCH   1   3
BRANCH   1  12
HETATM   12  C11 UNL     1      23.816   0.091  53.081  1.00  0.00    -0.006 A 
HETATM   13  C12 UNL     1      23.781  -0.623  54.256  1.00  0.00     0.014 A 
HETATM   14  C13 UNL     1      22.700  -1.200  54.872  1.00  0.00     0.001 A 
HETATM   15  C14 UNL     1      21.479  -1.062  54.255  1.00  0.00     0.000 A 
HETATM   16  C15 UNL     1      21.399  -0.364  53.071  1.00  0.00     0.001 A 
HETATM   17  C16 UNL     1      22.551   0.160  52.564  1.00  0.00     0.014 A 
ENDBRANCH   1  12
BRANCH   2  18
HETATM   18  N2  UNL     1      26.770  -0.875  52.504  1.00  0.00    -0.253 N 
HETATM   19  H10 UNL     1      26.853  -1.872  52.176  1.00  0.00     0.191 HD
BRANCH  18  20
HETATM   20  C10 UNL     1      27.820  -0.618  53.458  1.00  0.00     0.185 C 
HETATM   21  S1  UNL     1      29.442  -0.519  53.614  1.00  0.00    -0.040 SA
BRANCH  20  22
HETATM   22  N3  UNL     1      27.546  -0.316  54.841  1.00  0.00    -0.375 N 
HETATM   23  H11 UNL     1      26.762  -0.179  55.504  1.00  0.00     0.158 HD
HETATM   24  H12 UNL     1      28.458  -0.192  55.360  1.00  0.00     0.158 HD
ENDBRANCH  20  22
ENDBRANCH  18  20
ENDBRANCH   2  18
TORSDOF 6
ENDMDL
MODEL 4
REMARK VINA RESULT:      -7.6      1.086      2.097
REMARK  6 active torsions:
REMARK  status: ('A' for Active; 'I' for Inactive)
REMARK    1  A    between atoms: O1_2  and  C2_3 
REMARK    2  A    between atoms: C8_9  and  C9_10 
REMARK    3  A    between atoms: C9_10  and  C11_16 
REMARK    4  A    between atoms: N1_11  and  N2_12 
REMARK    5  A    between atoms: N2_12  and  C10_13 
REMARK    6  A    between atoms: C10_13  and  N3_14 
ROOT
HETATM    1  C9  UNL     1      23.809   0.973  52.886  1.00  0.00     0.087 C 
HETATM    2  N1  UNL     1      23.699   2.036  52.271  1.00  0.00    -0.172 NA
ENDROOT
BRANCH   1   3
HETATM    3  C8  UNL     1      25.195   0.629  53.172  1.00  0.00     0.044 C 
HETATM    4  C7  UNL     1      26.472   0.846  53.400  1.00  0.00    -0.019 A 
HETATM    5  C2  UNL     1      27.418  -0.262  53.652  1.00  0.00     0.074 A 
HETATM    6  C6  UNL     1      27.111   2.174  53.435  1.00  0.00     0.068 A 
HETATM    7  C3  UNL     1      28.696  -0.163  53.888  1.00  0.00     0.037 A 
HETATM    8  C4  UNL     1      29.357   1.125  53.930  1.00  0.00    -0.001 A 
HETATM    9  C5  UNL     1      28.550   2.137  53.710  1.00  0.00    -0.022 A 
BRANCH   5  10
HETATM   10  O1  UNL     1      26.967  -1.599  53.653  1.00  0.00    -0.355 OA
HETATM   11  C1  UNL     1      27.193  -2.383  52.474  1.00  0.00     0.210 C 
ENDBRANCH   5  10
ENDBRANCH   1   3
BRANCH   1  12
HETATM   12  C11 UNL     1      22.609   0.233  53.233  1.00  0.00    -0.006 A 
HETATM   13  C12 UNL     1      21.286   0.414  52.899  1.00  0.00     0.014 A 
HETATM   14  C13 UNL     1      20.202  -0.337  53.272  1.00  0.00     0.001 A 
HETATM   15  C14 UNL     1      20.439  -1.419  54.086  1.00  0.00     0.000 A 
HETATM   16  C15 UNL     1      21.729  -1.695  54.481  1.00  0.00     0.001 A 
HETATM   17  C16 UNL     1      22.718  -0.867  54.040  1.00  0.00     0.014 A 
ENDBRANCH   1  12
BRANCH   2  18
HETATM   18  N2  UNL     1      22.989   2.966  51.692  1.00  0.00    -0.253 N 
HETATM   19  H10 UNL     1      22.150   3.009  51.058  1.00  0.00     0.191 HD
BRANCH  18  20
HETATM   20  C10 UNL     1      23.428   4.313  51.963  1.00  0.00     0.185 C 
HETATM   21  S1  UNL     1      23.501   5.812  51.323  1.00  0.00    -0.040 SA
BRANCH  20  22
HETATM   22  N3  UNL     1      24.066   4.678  53.203  1.00  0.00    -0.375 N 
HETATM   23  H11 UNL     1      24.381   5.505  53.743  1.00  0.00     0.158 HD
HETATM   24  H12 UNL     1      24.291   3.805  53.752  1.00  0.00     0.158 HD
ENDBRANCH  20  22
ENDBRANCH  18  20
ENDBRANCH   2  18
TORSDOF 6
ENDMDL
MODEL 5
REMARK VINA RESULT:      -7.6      2.294      5.899
REMARK  6 active torsions:
REMARK  status: ('A' for Active; 'I' for Inactive)
REMARK    1  A    between atoms: O1_2  and  C2_3 
REMARK    2  A    between atoms: C8_9  and  C9_10 
REMARK    3  A    between atoms: C9_10  and  C11_16 
REMARK    4  A    between atoms: N1_11  and  N2_12 
REMARK    5  A    between atoms: N2_12  and  C10_13 
REMARK    6  A    between atoms: C10_13  and  N3_14 
ROOT
HETATM    1  C9  UNL     1      26.051   1.326  52.400  1.00  0.00     0.087 C 
HETATM    2  N1  UNL     1      26.170   2.337  51.705  1.00  0.00    -0.172 NA
ENDROOT
BRANCH   1   3
HETATM    3  C8  UNL     1      24.661   1.006  52.695  1.00  0.00     0.044 C 
HETATM    4  C7  UNL     1      23.360   1.197  52.743  1.00  0.00    -0.019 A 
HETATM    5  C2  UNL     1      22.444   0.185  53.310  1.00  0.00     0.074 A 
HETATM    6  C6  UNL     1      22.664   2.401  52.255  1.00  0.00     0.068 A 
HETATM    7  C3  UNL     1      21.148   0.268  53.408  1.00  0.00     0.037 A 
HETATM    8  C4  UNL     1      20.431   1.436  52.940  1.00  0.00    -0.001 A 
HETATM    9  C5  UNL     1      21.209   2.360  52.428  1.00  0.00    -0.022 A 
BRANCH   5  10
HETATM   10  O1  UNL     1      22.951  -1.029  53.822  1.00  0.00    -0.355 OA
HETATM   11  C1  UNL     1      22.742  -1.308  55.212  1.00  0.00     0.210 C 
ENDBRANCH   5  10
ENDBRANCH   1   3
BRANCH   1  12
HETATM   12  C11 UNL     1      27.245   0.615  52.819  1.00  0.00    -0.006 A 
HETATM   13  C12 UNL     1      28.442   1.050  53.340  1.00  0.00     0.014 A 
HETATM   14  C13 UNL     1      29.532   0.307  53.713  1.00  0.00     0.001 A 
HETATM   15  C14 UNL     1      29.444  -1.056  53.556  1.00  0.00     0.000 A 
HETATM   16  C15 UNL     1      28.289  -1.601  53.042  1.00  0.00     0.001 A 
HETATM   17  C16 UNL     1      27.278  -0.749  52.710  1.00  0.00     0.014 A 
ENDBRANCH   1  12
BRANCH   2  18
HETATM   18  N2  UNL     1      26.889   3.220  51.066  1.00  0.00    -0.253 N 
HETATM   19  H10 UNL     1      27.893   3.537  51.062  1.00  0.00     0.191 HD
BRANCH  18  20
HETATM   20  C10 UNL     1      26.161   3.994  50.091  1.00  0.00     0.185 C 
HETATM   21  S1  UNL     1      24.682   4.198  49.430  1.00  0.00    -0.040 SA
BRANCH  20  22
HETATM   22  N3  UNL     1      26.791   5.020  49.298  1.00  0.00    -0.375 N 
HETATM   23  H11 UNL     1      26.949   5.307  48.315  1.00  0.00     0.158 HD
HETATM   24  H12 UNL     1      27.251   5.724  49.938  1.00  0.00     0.158 HD
ENDBRANCH  20  22
ENDBRANCH  18  20
ENDBRANCH   2  18
TORSDOF 6
ENDMDL
MODEL 6
REMARK VINA RESULT:      -7.6      3.374      6.395
REMARK  6 active torsions:
REMARK  status: ('A' for Active; 'I' for Inactive)
REMARK    1  A    between atoms: O1_2  and  C2_3 
REMARK    2  A    between atoms: C8_9  and  C9_10 
REMARK    3  A    between atoms: C9_10  and  C11_16 
REMARK    4  A    between atoms: N1_11  and  N2_12 
REMARK    5  A    between atoms: N2_12  and  C10_13 
REMARK    6  A    between atoms: C10_13  and  N3_14 
ROOT
HETATM    1  C9  UNL     1      24.924   2.224  52.542  1.00  0.00     0.087 C 
HETATM    2  N1  UNL     1      25.678   2.165  53.514  1.00  0.00    -0.172 NA
ENDROOT
BRANCH   1   3
HETATM    3  C8  UNL     1      23.689   1.475  52.741  1.00  0.00     0.044 C 
HETATM    4  C7  UNL     1      22.910   0.539  53.237  1.00  0.00    -0.019 A 
HETATM    5  C2  UNL     1      21.484   0.433  52.864  1.00  0.00     0.074 A 
HETATM    6  C6  UNL     1      23.337  -0.496  54.197  1.00  0.00     0.068 A 
HETATM    7  C3  UNL     1      20.626  -0.450  53.291  1.00  0.00     0.037 A 
HETATM    8  C4  UNL     1      21.010  -1.480  54.233  1.00  0.00    -0.001 A 
HETATM    9  C5  UNL     1      22.271  -1.421  54.591  1.00  0.00    -0.022 A 
BRANCH   5  10
HETATM   10  O1  UNL     1      20.916   1.348  51.953  1.00  0.00    -0.355 OA
HETATM   11  C1  UNL     1      20.138   2.428  52.486  1.00  0.00     0.210 C 
ENDBRANCH   5  10
ENDBRANCH   1   3
BRANCH   1  12
HETATM   12  C11 UNL     1      25.332   2.989  51.378  1.00  0.00    -0.006 A 
HETATM   13  C12 UNL     1      26.409   2.871  50.530  1.00  0.00     0.014 A 
HETATM   14  C13 UNL     1      26.727   3.642  49.442  1.00  0.00     0.001 A 
HETATM   15  C14 UNL     1      25.875   4.676  49.135  1.00  0.00     0.000 A 
HETATM   16  C15 UNL     1      24.762   4.885  49.919  1.00  0.00     0.001 A 
HETATM   17  C16 UNL     1      24.561   4.046  50.974  1.00  0.00     0.014 A 
ENDBRANCH   1  12
BRANCH   2  18
HETATM   18  N2  UNL     1      26.790   2.461  54.131  1.00  0.00    -0.253 N 
HETATM   19  H10 UNL     1      27.110   3.172  54.840  1.00  0.00     0.191 HD
BRANCH  18  20
HETATM   20  C10 UNL     1      27.910   1.620  53.788  1.00  0.00     0.185 C 
HETATM   21  S1  UNL     1      28.315   0.093  53.381  1.00  0.00    -0.040 SA
BRANCH  20  22
HETATM   22  N3  UNL     1      29.260   2.124  53.726  1.00  0.00    -0.375 N 
HETATM   23  H11 UNL     1      29.801   3.007  53.762  1.00  0.00     0.158 HD
HETATM   24  H12 UNL     1      29.930   1.317  53.603  1.00  0.00     0.158 HD
ENDBRANCH  20  22
ENDBRANCH  18  20
ENDBRANCH   2  18
TORSDOF 6
ENDMDL
MODEL 7
REMARK VINA RESULT:      -7.5      2.961      6.042
REMARK  6 active torsions:
REMARK  status: ('A' for Active; 'I' for Inactive)
REMARK    1  A    between atoms: O1_2  and  C2_3 
REMARK    2  A    between atoms: C8_9  and  C9_10 
REMARK    3  A    between atoms: C9_10  and  C11_16 
REMARK    4  A    between atoms: N1_11  and  N2_12 
REMARK    5  A    between atoms: N2_12  and  C10_13 
REMARK    6  A    between atoms: C10_13  and  N3_14 
ROOT
HETATM    1  C9  UNL     1      25.608   0.807  52.688  1.00  0.00     0.087 C 
HETATM    2  N1  UNL     1      24.621   0.249  53.168  1.00  0.00    -0.172 NA
ENDROOT
BRANCH   1   3
HETATM    3  C8  UNL     1      25.261   1.974  51.887  1.00  0.00     0.044 C 
HETATM    4  C7  UNL     1      25.445   2.933  51.006  1.00  0.00    -0.019 A 
HETATM    5  C2  UNL     1      24.388   3.917  50.692  1.00  0.00     0.074 A 
HETATM    6  C6  UNL     1      26.685   3.150  50.238  1.00  0.00     0.068 A 
HETATM    7  C3  UNL     1      24.460   4.902  49.843  1.00  0.00     0.037 A 
HETATM    8  C4  UNL     1      25.662   5.145  49.072  1.00  0.00    -0.001 A 
HETATM    9  C5  UNL     1      26.628   4.292  49.321  1.00  0.00    -0.022 A 
BRANCH   5  10
HETATM   10  O1  UNL     1      23.136   3.849  51.342  1.00  0.00    -0.355 OA
HETATM   11  C1  UNL     1      22.890   4.764  52.417  1.00  0.00     0.210 C 
ENDBRANCH   5  10
ENDBRANCH   1   3
BRANCH   1  12
HETATM   12  C11 UNL     1      26.927   0.266  52.962  1.00  0.00    -0.006 A 
HETATM   13  C12 UNL     1      27.423  -1.017  52.924  1.00  0.00     0.014 A 
HETATM   14  C13 UNL     1      28.693  -1.450  53.200  1.00  0.00     0.001 A 
HETATM   15  C14 UNL     1      29.614  -0.498  53.567  1.00  0.00     0.000 A 
HETATM   16  C15 UNL     1      29.226   0.822  53.639  1.00  0.00     0.001 A 
HETATM   17  C16 UNL     1      27.930   1.119  53.338  1.00  0.00     0.014 A 
ENDBRANCH   1  12
BRANCH   2  18
HETATM   18  N2  UNL     1      24.059  -0.690  53.882  1.00  0.00    -0.253 N 
HETATM   19  H10 UNL     1      24.376  -1.524  54.440  1.00  0.00     0.191 HD
BRANCH  18  20
HETATM   20  C10 UNL     1      22.621  -0.605  53.959  1.00  0.00     0.185 C 
HETATM   21  S1  UNL     1      21.286  -1.462  54.341  1.00  0.00    -0.040 SA
BRANCH  20  22
HETATM   22  N3  UNL     1      21.902   0.595  53.613  1.00  0.00    -0.375 N 
HETATM   23  H11 UNL     1      22.009   1.625  53.574  1.00  0.00     0.158 HD
HETATM   24  H12 UNL     1      20.930   0.340  53.286  1.00  0.00     0.158 HD
ENDBRANCH  20  22
ENDBRANCH  18  20
ENDBRANCH   2  18
TORSDOF 6
ENDMDL
MODEL 8
REMARK VINA RESULT:      -7.5      2.347      4.391
REMARK  6 active torsions:
REMARK  status: ('A' for Active; 'I' for Inactive)
REMARK    1  A    between atoms: O1_2  and  C2_3 
REMARK    2  A    between atoms: C8_9  and  C9_10 
REMARK    3  A    between atoms: C9_10  and  C11_16 
REMARK    4  A    between atoms: N1_11  and  N2_12 
REMARK    5  A    between atoms: N2_12  and  C10_13 
REMARK    6  A    between atoms: C10_13  and  N3_14 
ROOT
HETATM    1  C9  UNL     1      23.909   2.296  51.340  1.00  0.00     0.087 C 
HETATM    2  N1  UNL     1      24.554   3.323  51.557  1.00  0.00    -0.172 NA
ENDROOT
BRANCH   1   3
HETATM    3  C8  UNL     1      24.072   1.296  52.388  1.00  0.00     0.044 C 
HETATM    4  C7  UNL     1      23.692   0.452  53.322  1.00  0.00    -0.019 A 
HETATM    5  C2  UNL     1      24.667  -0.355  54.086  1.00  0.00     0.074 A 
HETATM    6  C6  UNL     1      22.294   0.204  53.721  1.00  0.00     0.068 A 
HETATM    7  C3  UNL     1      24.404  -1.216  55.028  1.00  0.00     0.037 A 
HETATM    8  C4  UNL     1      23.044  -1.485  55.446  1.00  0.00    -0.001 A 
HETATM    9  C5  UNL     1      22.146  -0.787  54.790  1.00  0.00    -0.022 A 
BRANCH   5  10
HETATM   10  O1  UNL     1      26.049  -0.237  53.827  1.00  0.00    -0.355 OA
HETATM   11  C1  UNL     1      26.652  -1.200  52.954  1.00  0.00     0.210 C 
ENDBRANCH   5  10
ENDBRANCH   1   3
BRANCH   1  12
HETATM   12  C11 UNL     1      23.107   2.209  50.133  1.00  0.00    -0.006 A 
HETATM   13  C12 UNL     1      23.225   2.816  48.904  1.00  0.00     0.014 A 
HETATM   14  C13 UNL     1      22.419   2.681  47.804  1.00  0.00     0.001 A 
HETATM   15  C14 UNL     1      21.343   1.832  47.916  1.00  0.00     0.000 A 
HETATM   16  C15 UNL     1      21.129   1.170  49.104  1.00  0.00     0.001 A 
HETATM   17  C16 UNL     1      22.008   1.394  50.122  1.00  0.00     0.014 A 
ENDBRANCH   1  12
BRANCH   2  18
HETATM   18  N2  UNL     1      24.951   4.525  51.239  1.00  0.00    -0.253 N 
HETATM   19  H10 UNL     1      25.834   4.973  50.880  1.00  0.00     0.191 HD
BRANCH  18  20
HETATM   20  C10 UNL     1      23.951   5.551  51.403  1.00  0.00     0.185 C 
HETATM   21  S1  UNL     1      22.373   5.884  51.150  1.00  0.00    -0.040 SA
BRANCH  20  22
HETATM   22  N3  UNL     1      24.253   6.833  51.988  1.00  0.00    -0.375 N 
HETATM   23  H11 UNL     1      24.945   7.307  52.597  1.00  0.00     0.158 HD
HETATM   24  H12 UNL     1      23.518   7.534  51.698  1.00  0.00     0.158 HD
ENDBRANCH  20  22
ENDBRANCH  18  20
ENDBRANCH   2  18
TORSDOF 6
ENDMDL
MODEL 9
REMARK VINA RESULT:      -7.4      3.220      5.517
REMARK  6 active torsions:
REMARK  status: ('A' for Active; 'I' for Inactive)
REMARK    1  A    between atoms: O1_2  and  C2_3 
REMARK    2  A    between atoms: C8_9  and  C9_10 
REMARK    3  A    between atoms: C9_10  and  C11_16 
REMARK    4  A    between atoms: N1_11  and  N2_12 
REMARK    5  A    between atoms: N2_12  and  C10_13 
REMARK    6  A    between atoms: C10_13  and  N3_14 
ROOT
HETATM    1  C9  UNL     1      25.071   0.719  52.443  1.00  0.00     0.087 C 
HETATM    2  N1  UNL     1      26.095   0.074  52.210  1.00  0.00    -0.172 NA
ENDROOT
BRANCH   1   3
HETATM    3  C8  UNL     1      25.065   2.021  51.788  1.00  0.00     0.044 C 
HETATM    4  C7  UNL     1      24.695   3.265  51.576  1.00  0.00    -0.019 A 
HETATM    5  C2  UNL     1      25.286   4.080  50.494  1.00  0.00     0.074 A 
HETATM    6  C6  UNL     1      23.677   3.990  52.359  1.00  0.00     0.068 A 
HETATM    7  C3  UNL     1      24.996   5.314  50.194  1.00  0.00     0.037 A 
HETATM    8  C4  UNL     1      24.002   6.057  50.941  1.00  0.00    -0.001 A 
HETATM    9  C5  UNL     1      23.452   5.368  51.913  1.00  0.00    -0.022 A 
BRANCH   5  10
HETATM   10  O1  UNL     1      26.276   3.534  49.650  1.00  0.00    -0.355 OA
HETATM   11  C1  UNL     1      27.163   4.441  48.984  1.00  0.00     0.210 C 
ENDBRANCH   5  10
ENDBRANCH   1   3
BRANCH   1  12
HETATM   12  C11 UNL     1      24.049   0.137  53.294  1.00  0.00    -0.006 A 
HETATM   13  C12 UNL     1      24.125  -0.704  54.381  1.00  0.00     0.014 A 
HETATM   14  C13 UNL     1      23.103  -1.214  55.139  1.00  0.00     0.001 A 
HETATM   15  C14 UNL     1      21.823  -0.855  54.788  1.00  0.00     0.000 A 
HETATM   16  C15 UNL     1      21.630  -0.015  53.714  1.00  0.00     0.001 A 
HETATM   17  C16 UNL     1      22.734   0.421  53.044  1.00  0.00     0.014 A 
ENDBRANCH   1  12
BRANCH   2  18
HETATM   18  N2  UNL     1      26.844  -0.988  52.339  1.00  0.00    -0.253 N 
HETATM   19  H10 UNL     1      26.896  -1.948  51.910  1.00  0.00     0.191 HD
BRANCH  18  20
HETATM   20  C10 UNL     1      27.896  -0.865  53.317  1.00  0.00     0.185 C 
HETATM   21  S1  UNL     1      28.457   0.093  54.512  1.00  0.00    -0.040 SA
BRANCH  20  22
HETATM   22  N3  UNL     1      28.940  -1.850  53.451  1.00  0.00    -0.375 N 
HETATM   23  H11 UNL     1      29.881  -2.094  53.090  1.00  0.00     0.158 HD
HETATM   24  H12 UNL     1      28.649  -2.576  54.161  1.00  0.00     0.158 HD
ENDBRANCH  20  22
ENDBRANCH  18  20
ENDBRANCH   2  18
TORSDOF 6
ENDMDL
