MODEL 1
REMARK VINA RESULT:      -8.2      0.000      0.000
REMARK  6 active torsions:
REMARK  status: ('A' for Active; 'I' for Inactive)
REMARK    1  A    between atoms: O1_2  and  C2_3 
REMARK    2  A    between atoms: C5_6  and  O2_7 
REMARK    3  A    between atoms: C7_9  and  C8_10 
REMARK    4  A    between atoms: C8_10  and  C9_11 
REMARK    5  A    between atoms: N1_13  and  C11_14 
REMARK    6  A    between atoms: C18_23  and  N3_24 
ROOT
HETATM    1  C9  UNL     1      24.604   3.350  52.372  1.00  0.00     0.104 C 
HETATM    2  C10 UNL     1      25.456   3.057  51.211  1.00  0.00     0.150 C 
HETATM    3  N1  UNL     1      25.162   3.695  49.959  1.00  0.00    -0.359 N 
HETATM    4  C17 UNL     1      24.013   3.271  49.173  1.00  0.00     0.293 C 
HETATM    5  N2  UNL     1      22.831   3.155  49.871  1.00  0.00    -0.086 NA
HETATM    6  C18 UNL     1      21.730   3.742  49.956  1.00  0.00     0.718 C 
HETATM    7  N4  UNL     1      21.147   2.892  50.976  1.00  0.00    -0.059 NA
HETATM    8  C19 UNL     1      21.889   2.760  52.058  1.00  0.00     0.223 C 
HETATM    9  N5  UNL     1      23.177   3.407  52.214  1.00  0.00    -0.378 N 
HETATM   10  H23 UNL     1      22.692   4.362  52.193  1.00  0.00     0.160 HD
ENDROOT
BRANCH   1  11
HETATM   11  C8  UNL     1      24.930   2.547  53.622  1.00  0.00     0.068 C 
BRANCH  11  12
HETATM   12  C7  UNL     1      25.651   1.305  53.415  1.00  0.00    -0.020 A 
HETATM   13  C5  UNL     1      25.147   0.061  53.059  1.00  0.00     0.074 A 
HETATM   14  C4  UNL     1      25.972  -1.043  52.860  1.00  0.00     0.040 A 
HETATM   15  C3  UNL     1      27.337  -0.950  53.007  1.00  0.00     0.039 A 
HETATM   16  C2  UNL     1      27.907   0.252  53.360  1.00  0.00     0.068 A 
HETATM   17  C20 UNL     1      27.031   1.317  53.545  1.00  0.00     0.046 A 
BRANCH  13  18
HETATM   18  O2  UNL     1      23.772  -0.037  52.914  1.00  0.00    -0.355 OA
HETATM   19  C6  UNL     1      23.054  -0.736  53.906  1.00  0.00     0.210 C 
ENDBRANCH  13  18
BRANCH  16  20
HETATM   20  O1  UNL     1      29.273   0.427  53.530  1.00  0.00    -0.356 OA
HETATM   21  C1  UNL     1      30.063  -0.741  53.648  1.00  0.00     0.210 C 
ENDBRANCH  16  20
ENDBRANCH  11  12
ENDBRANCH   1  11
BRANCH   3  22
HETATM   22  C11 UNL     1      26.015   4.764  49.485  1.00  0.00     0.053 A 
HETATM   23  C12 UNL     1      27.202   4.455  48.855  1.00  0.00     0.031 A 
HETATM   24  C13 UNL     1      28.023   5.487  48.394  1.00  0.00     0.002 A 
HETATM   25  C14 UNL     1      27.679   6.819  48.553  1.00  0.00     0.002 A 
HETATM   26  C15 UNL     1      26.486   7.099  49.188  1.00  0.00     0.026 A 
HETATM   27  C16 UNL     1      25.634   6.098  49.664  1.00  0.00     0.060 A 
HETATM   28 CL1  UNL     1      24.147   6.484  50.455  1.00  0.00    -0.082 Cl
ENDBRANCH   3  22
BRANCH   6  29
HETATM   29  N3  UNL     1      21.060   4.867  49.381  1.00  0.00    -0.231 N 
HETATM   30  H20 UNL     1      20.232   4.231  49.392  1.00  0.00     0.174 HD
HETATM   31  H21 UNL     1      21.381   5.826  49.124  1.00  0.00     0.174 HD
ENDBRANCH   6  29
TORSDOF 6
ENDMDL
MODEL 2
REMARK VINA RESULT:      -8.2      3.134      5.725
REMARK  6 active torsions:
REMARK  status: ('A' for Active; 'I' for Inactive)
REMARK    1  A    between atoms: O1_2  and  C2_3 
REMARK    2  A    between atoms: C5_6  and  O2_7 
REMARK    3  A    between atoms: C7_9  and  C8_10 
REMARK    4  A    between atoms: C8_10  and  C9_11 
REMARK    5  A    between atoms: N1_13  and  C11_14 
REMARK    6  A    between atoms: C18_23  and  N3_24 
ROOT
HETATM    1  C9  UNL     1      23.603   0.400  52.807  1.00  0.00     0.104 C 
HETATM    2  C10 UNL     1      23.652   1.867  52.849  1.00  0.00     0.150 C 
HETATM    3  N1  UNL     1      24.927   2.520  52.745  1.00  0.00    -0.359 N 
HETATM    4  C17 UNL     1      25.856   2.497  53.864  1.00  0.00     0.293 C 
HETATM    5  N2  UNL     1      26.065   1.258  54.431  1.00  0.00    -0.086 NA
HETATM    6  C18 UNL     1      26.974   0.403  54.506  1.00  0.00     0.718 C 
HETATM    7  N4  UNL     1      26.244  -0.571  55.295  1.00  0.00    -0.059 NA
HETATM    8  C19 UNL     1      25.078  -0.916  54.784  1.00  0.00     0.223 C 
HETATM    9  N5  UNL     1      24.569  -0.368  53.542  1.00  0.00    -0.378 N 
HETATM   10  H23 UNL     1      25.376  -0.836  53.013  1.00  0.00     0.160 HD
ENDROOT
BRANCH   1  11
HETATM   11  C8  UNL     1      22.223  -0.199  53.031  1.00  0.00     0.068 C 
BRANCH  11  12
HETATM   12  C7  UNL     1      21.211   0.141  52.049  1.00  0.00    -0.020 A 
HETATM   13  C5  UNL     1      19.829   0.057  52.165  1.00  0.00     0.074 A 
HETATM   14  C4  UNL     1      18.975   0.457  51.141  1.00  0.00     0.040 A 
HETATM   15  C3  UNL     1      19.464   0.959  49.957  1.00  0.00     0.039 A 
HETATM   16  C2  UNL     1      20.823   1.071  49.771  1.00  0.00     0.068 A 
HETATM   17  C20 UNL     1      21.625   0.655  50.829  1.00  0.00     0.046 A 
BRANCH  13  18
HETATM   18  O2  UNL     1      19.334  -0.453  53.354  1.00  0.00    -0.355 OA
HETATM   19  C6  UNL     1      18.147  -1.213  53.300  1.00  0.00     0.210 C 
ENDBRANCH  13  18
BRANCH  16  20
HETATM   20  O1  UNL     1      21.395   1.565  48.607  1.00  0.00    -0.356 OA
HETATM   21  C1  UNL     1      22.567   2.347  48.748  1.00  0.00     0.210 C 
ENDBRANCH  16  20
ENDBRANCH  11  12
ENDBRANCH   1  11
BRANCH   3  22
HETATM   22  C11 UNL     1      25.282   3.200  51.517  1.00  0.00     0.053 A 
HETATM   23  C12 UNL     1      26.249   2.657  50.697  1.00  0.00     0.031 A 
HETATM   24  C13 UNL     1      26.588   3.311  49.510  1.00  0.00     0.002 A 
HETATM   25  C14 UNL     1      25.980   4.496  49.131  1.00  0.00     0.002 A 
HETATM   26  C15 UNL     1      25.016   5.017  49.971  1.00  0.00     0.026 A 
HETATM   27  C16 UNL     1      24.646   4.395  51.166  1.00  0.00     0.060 A 
HETATM   28 CL1  UNL     1      23.435   5.075  52.195  1.00  0.00    -0.082 Cl
ENDBRANCH   3  22
BRANCH   6  29
HETATM   29  N3  UNL     1      28.317   0.211  54.052  1.00  0.00    -0.231 N 
HETATM   30  H20 UNL     1      27.960  -0.727  53.762  1.00  0.00     0.174 HD
HETATM   31  H21 UNL     1      29.162   0.822  54.069  1.00  0.00     0.174 HD
ENDBRANCH   6  29
TORSDOF 6
ENDMDL
MODEL 3
REMARK VINA RESULT:      -8.0      2.957      5.707
REMARK  6 active torsions:
REMARK  status: ('A' for Active; 'I' for Inactive)
REMARK    1  A    between atoms: O1_2  and  C2_3 
REMARK    2  A    between atoms: C5_6  and  O2_7 
REMARK    3  A    between atoms: C7_9  and  C8_10 
REMARK    4  A    between atoms: C8_10  and  C9_11 
REMARK    5  A    between atoms: N1_13  and  C11_14 
REMARK    6  A    between atoms: C18_23  and  N3_24 
ROOT
HETATM    1  C9  UNL     1      24.344   3.491  52.147  1.00  0.00     0.104 C 
HETATM    2  C10 UNL     1      24.879   2.134  51.982  1.00  0.00     0.150 C 
HETATM    3  N1  UNL     1      26.237   1.974  51.543  1.00  0.00    -0.359 N 
HETATM    4  C17 UNL     1      26.597   2.242  50.159  1.00  0.00     0.293 C 
HETATM    5  N2  UNL     1      26.130   3.434  49.649  1.00  0.00    -0.086 NA
HETATM    6  C18 UNL     1      26.582   4.545  49.296  1.00  0.00     0.718 C 
HETATM    7  N4  UNL     1      25.318   5.146  48.919  1.00  0.00    -0.059 NA
HETATM    8  C19 UNL     1      24.395   5.098  49.861  1.00  0.00     0.223 C 
HETATM    9  N5  UNL     1      24.624   4.495  51.159  1.00  0.00    -0.378 N 
HETATM   10  H23 UNL     1      25.354   5.250  51.373  1.00  0.00     0.160 HD
ENDROOT
BRANCH   1  11
HETATM   11  C8  UNL     1      22.868   3.555  52.511  1.00  0.00     0.068 C 
BRANCH  11  12
HETATM   12  C7  UNL     1      22.059   2.422  52.105  1.00  0.00    -0.020 A 
HETATM   13  C5  UNL     1      21.650   2.063  50.828  1.00  0.00     0.074 A 
HETATM   14  C4  UNL     1      20.898   0.916  50.585  1.00  0.00     0.040 A 
HETATM   15  C3  UNL     1      20.523   0.079  51.610  1.00  0.00     0.039 A 
HETATM   16  C2  UNL     1      20.891   0.371  52.903  1.00  0.00     0.068 A 
HETATM   17  C20 UNL     1      21.641   1.530  53.081  1.00  0.00     0.046 A 
BRANCH  13  18
HETATM   18  O2  UNL     1      22.023   2.907  49.794  1.00  0.00    -0.355 OA
HETATM   19  C6  UNL     1      22.550   2.320  48.624  1.00  0.00     0.210 C 
ENDBRANCH  13  18
BRANCH  16  20
HETATM   20  O1  UNL     1      20.552  -0.421  53.991  1.00  0.00    -0.356 OA
HETATM   21  C1  UNL     1      21.532  -1.328  54.458  1.00  0.00     0.210 C 
ENDBRANCH  16  20
ENDBRANCH  11  12
ENDBRANCH   1  11
BRANCH   3  22
HETATM   22  C11 UNL     1      27.246   1.547  52.489  1.00  0.00     0.053 A 
HETATM   23  C12 UNL     1      28.024   2.492  53.125  1.00  0.00     0.031 A 
HETATM   24  C13 UNL     1      28.995   2.081  54.040  1.00  0.00     0.002 A 
HETATM   25  C14 UNL     1      29.202   0.742  54.330  1.00  0.00     0.002 A 
HETATM   26  C15 UNL     1      28.410  -0.182  53.680  1.00  0.00     0.026 A 
HETATM   27  C16 UNL     1      27.427   0.186  52.757  1.00  0.00     0.060 A 
HETATM   28 CL1  UNL     1      26.453  -0.998  51.960  1.00  0.00    -0.082 Cl
ENDBRANCH   3  22
BRANCH   6  29
HETATM   29  N3  UNL     1      27.839   5.222  49.217  1.00  0.00    -0.231 N 
HETATM   30  H20 UNL     1      27.642   5.457  50.215  1.00  0.00     0.174 HD
HETATM   31  H21 UNL     1      28.530   5.342  48.445  1.00  0.00     0.174 HD
ENDBRANCH   6  29
TORSDOF 6
ENDMDL
MODEL 4
REMARK VINA RESULT:      -7.9      1.291      2.807
REMARK  6 active torsions:
REMARK  status: ('A' for Active; 'I' for Inactive)
REMARK    1  A    between atoms: O1_2  and  C2_3 
REMARK    2  A    between atoms: C5_6  and  O2_7 
REMARK    3  A    between atoms: C7_9  and  C8_10 
REMARK    4  A    between atoms: C8_10  and  C9_11 
REMARK    5  A    between atoms: N1_13  and  C11_14 
REMARK    6  A    between atoms: C18_23  and  N3_24 
ROOT
HETATM    1  C9  UNL     1      24.168   4.006  51.991  1.00  0.00     0.104 C 
HETATM    2  C10 UNL     1      25.162   3.490  51.041  1.00  0.00     0.150 C 
HETATM    3  N1  UNL     1      25.093   3.913  49.670  1.00  0.00    -0.359 N 
HETATM    4  C17 UNL     1      24.048   3.401  48.797  1.00  0.00     0.293 C 
HETATM    5  N2  UNL     1      22.772   3.447  49.313  1.00  0.00    -0.086 NA
HETATM    6  C18 UNL     1      21.707   4.077  49.130  1.00  0.00     0.718 C 
HETATM    7  N4  UNL     1      20.932   3.435  50.173  1.00  0.00    -0.059 NA
HETATM    8  C19 UNL     1      21.499   3.466  51.364  1.00  0.00     0.223 C 
HETATM    9  N5  UNL     1      22.787   4.085  51.608  1.00  0.00    -0.378 N 
HETATM   10  H23 UNL     1      22.367   5.039  51.356  1.00  0.00     0.160 HD
ENDROOT
BRANCH   1  11
HETATM   11  C8  UNL     1      24.260   3.420  53.391  1.00  0.00     0.068 C 
BRANCH  11  12
HETATM   12  C7  UNL     1      24.667   2.029  53.478  1.00  0.00    -0.020 A 
HETATM   13  C5  UNL     1      25.912   1.511  53.809  1.00  0.00     0.074 A 
HETATM   14  C4  UNL     1      26.146   0.141  53.888  1.00  0.00     0.040 A 
HETATM   15  C3  UNL     1      25.146  -0.770  53.638  1.00  0.00     0.039 A 
HETATM   16  C2  UNL     1      23.887  -0.329  53.302  1.00  0.00     0.068 A 
HETATM   17  C20 UNL     1      23.714   1.050  53.240  1.00  0.00     0.046 A 
BRANCH  13  18
HETATM   18  O2  UNL     1      26.922   2.426  54.057  1.00  0.00    -0.355 OA
HETATM   19  C6  UNL     1      28.146   2.254  53.377  1.00  0.00     0.210 C 
ENDBRANCH  13  18
BRANCH  16  20
HETATM   20  O1  UNL     1      22.825  -1.183  53.035  1.00  0.00    -0.356 OA
HETATM   21  C1  UNL     1      21.534  -0.742  53.410  1.00  0.00     0.210 C 
ENDBRANCH  16  20
ENDBRANCH  11  12
ENDBRANCH   1  11
BRANCH   3  22
HETATM   22  C11 UNL     1      26.069   4.855  49.165  1.00  0.00     0.053 A 
HETATM   23  C12 UNL     1      27.336   4.414  48.847  1.00  0.00     0.031 A 
HETATM   24  C13 UNL     1      28.277   5.322  48.356  1.00  0.00     0.002 A 
HETATM   25  C14 UNL     1      27.973   6.662  48.178  1.00  0.00     0.002 A 
HETATM   26  C15 UNL     1      26.697   7.076  48.504  1.00  0.00     0.026 A 
HETATM   27  C16 UNL     1      25.726   6.201  48.998  1.00  0.00     0.060 A 
HETATM   28 CL1  UNL     1      24.138   6.753  49.397  1.00  0.00    -0.082 Cl
ENDBRANCH   3  22
BRANCH   6  29
HETATM   29  N3  UNL     1      21.198   5.110  48.282  1.00  0.00    -0.231 N 
HETATM   30  H20 UNL     1      21.366   5.716  49.116  1.00  0.00     0.174 HD
HETATM   31  H21 UNL     1      20.853   5.110  47.298  1.00  0.00     0.174 HD
ENDBRANCH   6  29
TORSDOF 6
ENDMDL
MODEL 5
REMARK VINA RESULT:      -7.8      2.761      5.938
REMARK  6 active torsions:
REMARK  status: ('A' for Active; 'I' for Inactive)
REMARK    1  A    between atoms: O1_2  and  C2_3 
REMARK    2  A    between atoms: C5_6  and  O2_7 
REMARK    3  A    between atoms: C7_9  and  C8_10 
REMARK    4  A    between atoms: C8_10  and  C9_11 
REMARK    5  A    between atoms: N1_13  and  C11_14 
REMARK    6  A    between atoms: C18_23  and  N3_24 
ROOT
HETATM    1  C9  UNL     1      24.301   3.325  52.260  1.00  0.00     0.104 C 
HETATM    2  C10 UNL     1      24.881   1.987  52.087  1.00  0.00     0.150 C 
HETATM    3  N1  UNL     1      26.236   1.874  51.627  1.00  0.00    -0.359 N 
HETATM    4  C17 UNL     1      26.564   2.153  50.237  1.00  0.00     0.293 C 
HETATM    5  N2  UNL     1      26.047   3.327  49.733  1.00  0.00    -0.086 NA
HETATM    6  C18 UNL     1      26.454   4.452  49.372  1.00  0.00     0.718 C 
HETATM    7  N4  UNL     1      25.164   5.009  49.016  1.00  0.00    -0.059 NA
HETATM    8  C19 UNL     1      24.258   4.930  49.972  1.00  0.00     0.223 C 
HETATM    9  N5  UNL     1      24.529   4.336  51.267  1.00  0.00    -0.378 N 
HETATM   10  H23 UNL     1      25.236   5.117  51.468  1.00  0.00     0.160 HD
ENDROOT
BRANCH   1  11
HETATM   11  C8  UNL     1      22.830   3.339  52.648  1.00  0.00     0.068 C 
BRANCH  11  12
HETATM   12  C7  UNL     1      21.985   2.360  51.990  1.00  0.00    -0.020 A 
HETATM   13  C5  UNL     1      21.576   1.117  52.454  1.00  0.00     0.074 A 
HETATM   14  C4  UNL     1      20.727   0.295  51.719  1.00  0.00     0.040 A 
HETATM   15  C3  UNL     1      20.250   0.680  50.487  1.00  0.00     0.039 A 
HETATM   16  C2  UNL     1      20.614   1.899  49.962  1.00  0.00     0.068 A 
HETATM   17  C20 UNL     1      21.464   2.675  50.744  1.00  0.00     0.046 A 
BRANCH  13  18
HETATM   18  O2  UNL     1      22.058   0.724  53.692  1.00  0.00    -0.355 OA
HETATM   19  C6  UNL     1      22.644  -0.555  53.794  1.00  0.00     0.210 C 
ENDBRANCH  13  18
BRANCH  16  20
HETATM   20  O1  UNL     1      20.177   2.359  48.728  1.00  0.00    -0.356 OA
HETATM   21  C1  UNL     1      20.192   3.759  48.521  1.00  0.00     0.210 C 
ENDBRANCH  16  20
ENDBRANCH  11  12
ENDBRANCH   1  11
BRANCH   3  22
HETATM   22  C11 UNL     1      27.275   1.484  52.557  1.00  0.00     0.053 A 
HETATM   23  C12 UNL     1      28.035   2.457  53.171  1.00  0.00     0.031 A 
HETATM   24  C13 UNL     1      29.035   2.080  54.071  1.00  0.00     0.002 A 
HETATM   25  C14 UNL     1      29.287   0.751  54.366  1.00  0.00     0.002 A 
HETATM   26  C15 UNL     1      28.511  -0.202  53.736  1.00  0.00     0.026 A 
HETATM   27  C16 UNL     1      27.501   0.131  52.830  1.00  0.00     0.060 A 
HETATM   28 CL1  UNL     1      26.548  -1.087  52.059  1.00  0.00    -0.082 Cl
ENDBRANCH   3  22
BRANCH   6  29
HETATM   29  N3  UNL     1      27.685   5.173  49.272  1.00  0.00    -0.231 N 
HETATM   30  H20 UNL     1      28.113   4.234  49.433  1.00  0.00     0.174 HD
HETATM   31  H21 UNL     1      27.904   6.180  49.108  1.00  0.00     0.174 HD
ENDBRANCH   6  29
TORSDOF 6
ENDMDL
MODEL 6
REMARK VINA RESULT:      -7.7      2.877      5.583
REMARK  6 active torsions:
REMARK  status: ('A' for Active; 'I' for Inactive)
REMARK    1  A    between atoms: O1_2  and  C2_3 
REMARK    2  A    between atoms: C5_6  and  O2_7 
REMARK    3  A    between atoms: C7_9  and  C8_10 
REMARK    4  A    between atoms: C8_10  and  C9_11 
REMARK    5  A    between atoms: N1_13  and  C11_14 
REMARK    6  A    between atoms: C18_23  and  N3_24 
ROOT
HETATM    1  C9  UNL     1      22.142   2.612  51.076  1.00  0.00     0.104 C 
HETATM    2  C10 UNL     1      23.384   2.030  50.551  1.00  0.00     0.150 C 
HETATM    3  N1  UNL     1      24.637   2.629  50.914  1.00  0.00    -0.359 N 
HETATM    4  C17 UNL     1      25.036   3.903  50.335  1.00  0.00     0.293 C 
HETATM    5  N2  UNL     1      24.075   4.891  50.365  1.00  0.00    -0.086 NA
HETATM    6  C18 UNL     1      23.859   5.972  50.955  1.00  0.00     0.718 C 
HETATM    7  N4  UNL     1      22.583   6.268  50.335  1.00  0.00    -0.059 NA
HETATM    8  C19 UNL     1      21.697   5.295  50.431  1.00  0.00     0.223 C 
HETATM    9  N5  UNL     1      21.975   4.038  51.098  1.00  0.00    -0.378 N 
HETATM   10  H23 UNL     1      22.075   4.562  52.028  1.00  0.00     0.160 HD
ENDROOT
BRANCH   1  11
HETATM   11  C8  UNL     1      20.866   1.974  50.551  1.00  0.00     0.068 C 
BRANCH  11  12
HETATM   12  C7  UNL     1      20.193   1.053  51.449  1.00  0.00    -0.020 A 
HETATM   13  C5  UNL     1      19.024   0.335  51.237  1.00  0.00     0.074 A 
HETATM   14  C4  UNL     1      18.514  -0.546  52.186  1.00  0.00     0.040 A 
HETATM   15  C3  UNL     1      19.149  -0.747  53.389  1.00  0.00     0.039 A 
HETATM   16  C2  UNL     1      20.313  -0.068  53.670  1.00  0.00     0.068 A 
HETATM   17  C20 UNL     1      20.773   0.798  52.683  1.00  0.00     0.046 A 
BRANCH  13  18
HETATM   18  O2  UNL     1      18.379   0.538  50.027  1.00  0.00    -0.355 OA
HETATM   19  C6  UNL     1      17.051   0.079  49.906  1.00  0.00     0.210 C 
ENDBRANCH  13  18
BRANCH  16  20
HETATM   20  O1  UNL     1      21.013  -0.213  54.860  1.00  0.00    -0.356 OA
HETATM   21  C1  UNL     1      22.070  -1.154  54.874  1.00  0.00     0.210 C 
ENDBRANCH  16  20
ENDBRANCH  11  12
ENDBRANCH   1  11
BRANCH   3  22
HETATM   22  C11 UNL     1      25.500   1.958  51.863  1.00  0.00     0.053 A 
HETATM   23  C12 UNL     1      26.362   0.976  51.420  1.00  0.00     0.031 A 
HETATM   24  C13 UNL     1      27.197   0.332  52.335  1.00  0.00     0.002 A 
HETATM   25  C14 UNL     1      27.186   0.650  53.683  1.00  0.00     0.002 A 
HETATM   26  C15 UNL     1      26.313   1.636  54.098  1.00  0.00     0.026 A 
HETATM   27  C16 UNL     1      25.461   2.306  53.217  1.00  0.00     0.060 A 
HETATM   28 CL1  UNL     1      24.381   3.536  53.772  1.00  0.00    -0.082 Cl
ENDBRANCH   3  22
BRANCH   6  29
HETATM   29  N3  UNL     1      24.478   6.808  51.936  1.00  0.00    -0.231 N 
HETATM   30  H20 UNL     1      23.524   6.816  52.361  1.00  0.00     0.174 HD
HETATM   31  H21 UNL     1      25.452   7.164  52.049  1.00  0.00     0.174 HD
ENDBRANCH   6  29
TORSDOF 6
ENDMDL
MODEL 7
REMARK VINA RESULT:      -7.6      1.712      2.085
REMARK  6 active torsions:
REMARK  status: ('A' for Active; 'I' for Inactive)
REMARK    1  A    between atoms: O1_2  and  C2_3 
REMARK    2  A    between atoms: C5_6  and  O2_7 
REMARK    3  A    between atoms: C7_9  and  C8_10 
REMARK    4  A    between atoms: C8_10  and  C9_11 
REMARK    5  A    between atoms: N1_13  and  C11_14 
REMARK    6  A    between atoms: C18_23  and  N3_24 
ROOT
HETATM    1  C9  UNL     1      23.923   2.967  51.114  1.00  0.00     0.104 C 
HETATM    2  C10 UNL     1      24.260   3.181  49.701  1.00  0.00     0.150 C 
HETATM    3  N1  UNL     1      24.255   4.521  49.184  1.00  0.00    -0.359 N 
HETATM    4  C17 UNL     1      22.996   5.211  48.948  1.00  0.00     0.293 C 
HETATM    5  N2  UNL     1      22.092   5.160  49.987  1.00  0.00    -0.086 NA
HETATM    6  C18 UNL     1      21.599   5.929  50.841  1.00  0.00     0.718 C 
HETATM    7  N4  UNL     1      20.759   4.952  51.505  1.00  0.00    -0.059 NA
HETATM    8  C19 UNL     1      21.400   3.871  51.908  1.00  0.00     0.223 C 
HETATM    9  N5  UNL     1      22.822   3.677  51.702  1.00  0.00    -0.378 N 
HETATM   10  H23 UNL     1      23.022   4.507  52.349  1.00  0.00     0.160 HD
ENDROOT
BRANCH   1  11
HETATM   11  C8  UNL     1      23.853   1.508  51.539  1.00  0.00     0.068 C 
BRANCH  11  12
HETATM   12  C7  UNL     1      24.717   1.118  52.638  1.00  0.00    -0.020 A 
HETATM   13  C5  UNL     1      24.566   0.060  53.525  1.00  0.00     0.074 A 
HETATM   14  C4  UNL     1      25.504  -0.215  54.516  1.00  0.00     0.040 A 
HETATM   15  C3  UNL     1      26.634   0.557  54.664  1.00  0.00     0.039 A 
HETATM   16  C2  UNL     1      26.849   1.623  53.821  1.00  0.00     0.068 A 
HETATM   17  C20 UNL     1      25.877   1.847  52.852  1.00  0.00     0.046 A 
BRANCH  13  18
HETATM   18  O2  UNL     1      23.427  -0.716  53.381  1.00  0.00    -0.355 OA
HETATM   19  C6  UNL     1      22.747  -1.109  54.553  1.00  0.00     0.210 C 
ENDBRANCH  13  18
BRANCH  16  20
HETATM   20  O1  UNL     1      27.962   2.450  53.905  1.00  0.00    -0.356 OA
HETATM   21  C1  UNL     1      29.187   1.844  54.271  1.00  0.00     0.210 C 
ENDBRANCH  16  20
ENDBRANCH  11  12
ENDBRANCH   1  11
BRANCH   3  22
HETATM   22  C11 UNL     1      25.512   5.181  48.902  1.00  0.00     0.053 A 
HETATM   23  C12 UNL     1      25.512   6.511  48.537  1.00  0.00     0.031 A 
HETATM   24  C13 UNL     1      26.725   7.149  48.269  1.00  0.00     0.002 A 
HETATM   25  C14 UNL     1      27.936   6.482  48.358  1.00  0.00     0.002 A 
HETATM   26  C15 UNL     1      27.906   5.152  48.726  1.00  0.00     0.026 A 
HETATM   27  C16 UNL     1      26.715   4.475  49.003  1.00  0.00     0.060 A 
HETATM   28 CL1  UNL     1      26.714   2.808  49.460  1.00  0.00    -0.082 Cl
ENDBRANCH   3  22
BRANCH   6  29
HETATM   29  N3  UNL     1      21.686   7.300  51.236  1.00  0.00    -0.231 N 
HETATM   30  H20 UNL     1      22.225   7.400  50.346  1.00  0.00     0.174 HD
HETATM   31  H21 UNL     1      21.326   7.822  52.064  1.00  0.00     0.174 HD
ENDBRANCH   6  29
TORSDOF 6
ENDMDL
MODEL 8
REMARK VINA RESULT:      -7.5      1.606      2.132
REMARK  6 active torsions:
REMARK  status: ('A' for Active; 'I' for Inactive)
REMARK    1  A    between atoms: O1_2  and  C2_3 
REMARK    2  A    between atoms: C5_6  and  O2_7 
REMARK    3  A    between atoms: C7_9  and  C8_10 
REMARK    4  A    between atoms: C8_10  and  C9_11 
REMARK    5  A    between atoms: N1_13  and  C11_14 
REMARK    6  A    between atoms: C18_23  and  N3_24 
ROOT
HETATM    1  C9  UNL     1      23.824   5.038  51.787  1.00  0.00     0.104 C 
HETATM    2  C10 UNL     1      24.721   4.407  50.811  1.00  0.00     0.150 C 
HETATM    3  N1  UNL     1      24.816   4.971  49.494  1.00  0.00    -0.359 N 
HETATM    4  C17 UNL     1      23.727   4.801  48.543  1.00  0.00     0.293 C 
HETATM    5  N2  UNL     1      22.470   5.085  49.031  1.00  0.00    -0.086 NA
HETATM    6  C18 UNL     1      21.584   5.957  48.890  1.00  0.00     0.718 C 
HETATM    7  N4  UNL     1      20.634   5.407  49.838  1.00  0.00    -0.059 NA
HETATM    8  C19 UNL     1      21.134   5.186  51.039  1.00  0.00     0.223 C 
HETATM    9  N5  UNL     1      22.515   5.467  51.381  1.00  0.00    -0.378 N 
HETATM   10  H23 UNL     1      22.333   6.512  51.225  1.00  0.00     0.160 HD
ENDROOT
BRANCH   1  11
HETATM   11  C8  UNL     1      23.712   4.307  53.117  1.00  0.00     0.068 C 
BRANCH  11  12
HETATM   12  C7  UNL     1      24.161   2.927  53.129  1.00  0.00    -0.020 A 
HETATM   13  C5  UNL     1      23.551   1.813  52.569  1.00  0.00     0.074 A 
HETATM   14  C4  UNL     1      24.124   0.546  52.630  1.00  0.00     0.040 A 
HETATM   15  C3  UNL     1      25.332   0.337  53.254  1.00  0.00     0.039 A 
HETATM   16  C2  UNL     1      25.995   1.395  53.833  1.00  0.00     0.068 A 
HETATM   17  C20 UNL     1      25.372   2.636  53.739  1.00  0.00     0.046 A 
BRANCH  13  18
HETATM   18  O2  UNL     1      22.332   2.019  51.943  1.00  0.00    -0.355 OA
HETATM   19  C6  UNL     1      22.016   1.204  50.836  1.00  0.00     0.210 C 
ENDBRANCH  13  18
BRANCH  16  20
HETATM   20  O1  UNL     1      27.215   1.269  54.482  1.00  0.00    -0.356 OA
HETATM   21  C1  UNL     1      27.854   0.008  54.412  1.00  0.00     0.210 C 
ENDBRANCH  16  20
ENDBRANCH  11  12
ENDBRANCH   1  11
BRANCH   3  22
HETATM   22  C11 UNL     1      26.002   5.712  49.119  1.00  0.00     0.053 A 
HETATM   23  C12 UNL     1      27.118   5.029  48.684  1.00  0.00     0.031 A 
HETATM   24  C13 UNL     1      28.261   5.744  48.318  1.00  0.00     0.002 A 
HETATM   25  C14 UNL     1      28.307   7.127  48.380  1.00  0.00     0.002 A 
HETATM   26  C15 UNL     1      27.175   7.784  48.819  1.00  0.00     0.026 A 
HETATM   27  C16 UNL     1      26.011   7.108  49.194  1.00  0.00     0.060 A 
HETATM   28 CL1  UNL     1      24.612   7.963  49.740  1.00  0.00    -0.082 Cl
ENDBRANCH   3  22
BRANCH   6  29
HETATM   29  N3  UNL     1      21.361   7.158  48.149  1.00  0.00    -0.231 N 
HETATM   30  H20 UNL     1      21.413   6.520  47.324  1.00  0.00     0.174 HD
HETATM   31  H21 UNL     1      21.226   8.152  48.436  1.00  0.00     0.174 HD
ENDBRANCH   6  29
TORSDOF 6
ENDMDL
MODEL 9
REMARK VINA RESULT:      -7.5      1.749      2.227
REMARK  6 active torsions:
REMARK  status: ('A' for Active; 'I' for Inactive)
REMARK    1  A    between atoms: O1_2  and  C2_3 
REMARK    2  A    between atoms: C5_6  and  O2_7 
REMARK    3  A    between atoms: C7_9  and  C8_10 
REMARK    4  A    between atoms: C8_10  and  C9_11 
REMARK    5  A    between atoms: N1_13  and  C11_14 
REMARK    6  A    between atoms: C18_23  and  N3_24 
ROOT
HETATM    1  C9  UNL     1      25.630   3.357  50.702  1.00  0.00     0.104 C 
HETATM    2  C10 UNL     1      25.780   3.717  49.286  1.00  0.00     0.150 C 
HETATM    3  N1  UNL     1      25.860   5.105  48.930  1.00  0.00    -0.359 N 
HETATM    4  C17 UNL     1      24.671   5.944  48.976  1.00  0.00     0.293 C 
HETATM    5  N2  UNL     1      23.928   5.850  50.133  1.00  0.00    -0.086 NA
HETATM    6  C18 UNL     1      23.661   6.549  51.136  1.00  0.00     0.718 C 
HETATM    7  N4  UNL     1      22.816   5.583  51.811  1.00  0.00    -0.059 NA
HETATM    8  C19 UNL     1      23.375   4.401  51.983  1.00  0.00     0.223 C 
HETATM    9  N5  UNL     1      24.719   4.092  51.533  1.00  0.00    -0.378 N 
HETATM   10  H23 UNL     1      25.108   4.808  52.230  1.00  0.00     0.160 HD
ENDROOT
BRANCH   1  11
HETATM   11  C8  UNL     1      25.448   1.870  50.967  1.00  0.00     0.068 C 
BRANCH  11  12
HETATM   12  C7  UNL     1      25.965   1.377  52.230  1.00  0.00    -0.020 A 
HETATM   13  C5  UNL     1      25.259   0.931  53.339  1.00  0.00     0.074 A 
HETATM   14  C4  UNL     1      25.897   0.447  54.478  1.00  0.00     0.040 A 
HETATM   15  C3  UNL     1      27.269   0.389  54.557  1.00  0.00     0.039 A 
HETATM   16  C2  UNL     1      28.035   0.815  53.496  1.00  0.00     0.068 A 
HETATM   17  C20 UNL     1      27.340   1.287  52.387  1.00  0.00     0.046 A 
BRANCH  13  18
HETATM   18  O2  UNL     1      23.876   0.992  53.264  1.00  0.00    -0.355 OA
HETATM   19  C6  UNL     1      23.148  -0.169  53.598  1.00  0.00     0.210 C 
ENDBRANCH  13  18
BRANCH  16  20
HETATM   20  O1  UNL     1      29.423   0.791  53.498  1.00  0.00    -0.356 OA
HETATM   21  C1  UNL     1      30.044  -0.479  53.566  1.00  0.00     0.210 C 
ENDBRANCH  16  20
ENDBRANCH  11  12
ENDBRANCH   1  11
BRANCH   3  22
HETATM   22  C11 UNL     1      27.132   5.667  48.527  1.00  0.00     0.053 A 
HETATM   23  C12 UNL     1      28.266   4.883  48.581  1.00  0.00     0.031 A 
HETATM   24  C13 UNL     1      29.492   5.424  48.188  1.00  0.00     0.002 A 
HETATM   25  C14 UNL     1      29.605   6.731  47.745  1.00  0.00     0.002 A 
HETATM   26  C15 UNL     1      28.454   7.492  47.702  1.00  0.00     0.026 A 
HETATM   27  C16 UNL     1      27.207   6.991  48.085  1.00  0.00     0.060 A 
HETATM   28 CL1  UNL     1      25.786   7.972  48.019  1.00  0.00    -0.082 Cl
ENDBRANCH   3  22
BRANCH   6  29
HETATM   29  N3  UNL     1      23.968   7.842  51.662  1.00  0.00    -0.231 N 
HETATM   30  H20 UNL     1      24.440   7.976  50.741  1.00  0.00     0.174 HD
HETATM   31  H21 UNL     1      23.751   8.304  52.572  1.00  0.00     0.174 HD
ENDBRANCH   6  29
TORSDOF 6
ENDMDL
