MODEL 1
REMARK VINA RESULT:      -9.2      0.000      0.000
REMARK  2 active torsions:
REMARK  status: ('A' for Active; 'I' for Inactive)
REMARK    1  A    between atoms: C2_2  and  C3_3 
REMARK    2  A    between atoms: C3_3  and  C4_5 
ROOT
HETATM    1  C4  UNL     1      26.308  -0.063  53.616  1.00  0.00     0.007 C 
HETATM    2  C5  UNL     1      25.334  -0.598  54.372  1.00  0.00    -0.007 C 
HETATM    3  C6  UNL     1      24.044  -0.971  54.934  1.00  0.00     0.069 C 
HETATM    4  C7  UNL     1      22.847  -0.597  54.178  1.00  0.00    -0.028 A 
HETATM    5  C8  UNL     1      21.760  -1.426  54.457  1.00  0.00     0.011 A 
HETATM    6  C9  UNL     1      20.504  -1.326  53.903  1.00  0.00     0.020 A 
HETATM    7  C10 UNL     1      20.211  -0.350  52.986  1.00  0.00     0.013 A 
HETATM    8 BR1  UNL     1      18.480  -0.203  52.216  1.00  0.00    -0.051 Br
HETATM    9  C11 UNL     1      21.296   0.489  52.701  1.00  0.00     0.049 A 
HETATM   10  C12 UNL     1      22.543   0.364  53.270  1.00  0.00     0.040 A 
HETATM   11  N1  UNL     1      23.372   1.373  52.736  1.00  0.00    -0.355 N 
HETATM   12  C13 UNL     1      24.313   1.909  51.839  1.00  0.00     0.042 A 
HETATM   13  C14 UNL     1      23.634   2.724  51.011  1.00  0.00     0.049 A 
HETATM   14  C15 UNL     1      24.304   3.463  49.949  1.00  0.00     0.113 A 
HETATM   15  N2  UNL     1      25.560   3.297  49.862  1.00  0.00    -0.297 NA
HETATM   16  C16 UNL     1      26.423   2.499  50.648  1.00  0.00     0.189 A 
HETATM   17  C17 UNL     1      25.744   1.704  51.700  1.00  0.00    -0.011 A 
HETATM   18  C18 UNL     1      26.358   0.888  52.518  1.00  0.00     0.026 C 
HETATM   19  H12 UNL     1      23.096   2.151  53.411  1.00  0.00     0.166 HD
ENDROOT
BRANCH   1  20
HETATM   20  C3  UNL     1      27.688  -0.425  53.999  1.00  0.00     0.159 C 
HETATM   21  O1  UNL     1      28.450  -0.315  54.958  1.00  0.00    -0.292 OA
BRANCH  20  22
HETATM   22  C2  UNL     1      28.787  -1.119  53.329  1.00  0.00     0.079 C 
HETATM   23  C1  UNL     1      30.086  -0.362  53.511  1.00  0.00     0.013 C 
ENDBRANCH  20  22
ENDBRANCH   1  20
TORSDOF 2
ENDMDL
MODEL 2
REMARK VINA RESULT:      -9.1      2.122      4.782
REMARK  2 active torsions:
REMARK  status: ('A' for Active; 'I' for Inactive)
REMARK    1  A    between atoms: C2_2  and  C3_3 
REMARK    2  A    between atoms: C3_3  and  C4_5 
ROOT
HETATM    1  C4  UNL     1      26.312  -0.211  52.762  1.00  0.00     0.007 C 
HETATM    2  C5  UNL     1      26.534   0.717  51.815  1.00  0.00    -0.007 C 
HETATM    3  C6  UNL     1      26.396   1.827  50.883  1.00  0.00     0.069 C 
HETATM    4  C7  UNL     1      25.205   2.668  51.011  1.00  0.00    -0.028 A 
HETATM    5  C8  UNL     1      25.404   3.955  50.509  1.00  0.00     0.011 A 
HETATM    6  C9  UNL     1      24.473   4.968  50.490  1.00  0.00     0.020 A 
HETATM    7  C10 UNL     1      23.211   4.778  50.989  1.00  0.00     0.013 A 
HETATM    8 BR1  UNL     1      21.918   6.171  50.967  1.00  0.00    -0.051 Br
HETATM    9  C11 UNL     1      23.000   3.489  51.494  1.00  0.00     0.049 A 
HETATM   10  C12 UNL     1      23.952   2.494  51.501  1.00  0.00     0.040 A 
HETATM   11  N1  UNL     1      23.383   1.347  52.093  1.00  0.00    -0.355 N 
HETATM   12  C13 UNL     1      23.086   0.471  53.152  1.00  0.00     0.042 A 
HETATM   13  C14 UNL     1      21.788   0.660  53.454  1.00  0.00     0.049 A 
HETATM   14  C15 UNL     1      21.133  -0.098  54.513  1.00  0.00     0.113 A 
HETATM   15  N2  UNL     1      21.858  -0.947  55.119  1.00  0.00    -0.297 NA
HETATM   16  C16 UNL     1      23.218  -1.279  54.923  1.00  0.00     0.189 A 
HETATM   17  C17 UNL     1      23.907  -0.478  53.882  1.00  0.00    -0.011 A 
HETATM   18  C18 UNL     1      25.168  -0.614  53.563  1.00  0.00     0.026 C 
HETATM   19  H12 UNL     1      22.919   0.955  51.215  1.00  0.00     0.166 HD
ENDROOT
BRANCH   1  20
HETATM   20  C3  UNL     1      27.437  -1.127  53.038  1.00  0.00     0.159 C 
HETATM   21  O1  UNL     1      27.683  -2.332  53.029  1.00  0.00    -0.292 OA
BRANCH  20  22
HETATM   22  C2  UNL     1      28.823  -0.945  53.468  1.00  0.00     0.079 C 
HETATM   23  C1  UNL     1      28.903   0.057  54.602  1.00  0.00     0.013 C 
ENDBRANCH  20  22
ENDBRANCH   1  20
TORSDOF 2
ENDMDL
MODEL 3
REMARK VINA RESULT:      -9.1      1.717      4.520
REMARK  2 active torsions:
REMARK  status: ('A' for Active; 'I' for Inactive)
REMARK    1  A    between atoms: C2_2  and  C3_3 
REMARK    2  A    between atoms: C3_3  and  C4_5 
ROOT
HETATM    1  C4  UNL     1      26.682   0.429  53.501  1.00  0.00     0.007 C 
HETATM    2  C5  UNL     1      26.765   1.206  52.408  1.00  0.00    -0.007 C 
HETATM    3  C6  UNL     1      26.451   2.017  51.240  1.00  0.00     0.069 C 
HETATM    4  C7  UNL     1      25.045   2.355  51.013  1.00  0.00    -0.028 A 
HETATM    5  C8  UNL     1      24.891   3.524  50.265  1.00  0.00     0.011 A 
HETATM    6  C9  UNL     1      23.695   4.093  49.893  1.00  0.00     0.020 A 
HETATM    7  C10 UNL     1      22.500   3.525  50.249  1.00  0.00     0.013 A 
HETATM    8 BR1  UNL     1      20.843   4.305  49.740  1.00  0.00    -0.051 Br
HETATM    9  C11 UNL     1      22.643   2.351  50.999  1.00  0.00     0.049 A 
HETATM   10  C12 UNL     1      23.854   1.804  51.358  1.00  0.00     0.040 A 
HETATM   11  N1  UNL     1      23.602   0.638  52.111  1.00  0.00    -0.355 N 
HETATM   12  C13 UNL     1      23.411  -0.102  53.291  1.00  0.00     0.042 A 
HETATM   13  C14 UNL     1      22.094  -0.371  53.366  1.00  0.00     0.049 A 
HETATM   14  C15 UNL     1      21.533  -1.139  54.471  1.00  0.00     0.113 A 
HETATM   15  N2  UNL     1      22.363  -1.542  55.345  1.00  0.00    -0.297 NA
HETATM   16  C16 UNL     1      23.764  -1.364  55.413  1.00  0.00     0.189 A 
HETATM   17  C17 UNL     1      24.337  -0.541  54.320  1.00  0.00    -0.011 A 
HETATM   18  C18 UNL     1      25.605  -0.241  54.212  1.00  0.00     0.026 C 
HETATM   19  H12 UNL     1      23.494  -0.036  51.291  1.00  0.00     0.166 HD
ENDROOT
BRANCH   1  20
HETATM   20  C3  UNL     1      27.969   0.062  54.125  1.00  0.00     0.159 C 
HETATM   21  O1  UNL     1      28.410  -0.282  55.220  1.00  0.00    -0.292 OA
BRANCH  20  22
HETATM   22  C2  UNL     1      29.345  -0.046  53.644  1.00  0.00     0.079 C 
HETATM   23  C1  UNL     1      29.720  -1.497  53.421  1.00  0.00     0.013 C 
ENDBRANCH  20  22
ENDBRANCH   1  20
TORSDOF 2
ENDMDL
MODEL 4
REMARK VINA RESULT:      -8.4      2.659      4.964
REMARK  2 active torsions:
REMARK  status: ('A' for Active; 'I' for Inactive)
REMARK    1  A    between atoms: C2_2  and  C3_3 
REMARK    2  A    between atoms: C3_3  and  C4_5 
ROOT
HETATM    1  C4  UNL     1      25.893   3.433  50.063  1.00  0.00     0.007 C 
HETATM    2  C5  UNL     1      24.694   3.155  49.523  1.00  0.00    -0.007 C 
HETATM    3  C6  UNL     1      23.363   2.623  49.269  1.00  0.00     0.069 C 
HETATM    4  C7  UNL     1      22.726   1.860  50.344  1.00  0.00    -0.028 A 
HETATM    5  C8  UNL     1      21.334   1.875  50.256  1.00  0.00     0.011 A 
HETATM    6  C9  UNL     1      20.463   1.251  51.120  1.00  0.00     0.020 A 
HETATM    7  C10 UNL     1      20.924   0.528  52.190  1.00  0.00     0.013 A 
HETATM    8 BR1  UNL     1      19.729  -0.337  53.388  1.00  0.00    -0.051 Br
HETATM    9  C11 UNL     1      22.321   0.507  52.286  1.00  0.00     0.049 A 
HETATM   10  C12 UNL     1      23.168   1.142  51.407  1.00  0.00     0.040 A 
HETATM   11  N1  UNL     1      24.494   0.905  51.827  1.00  0.00    -0.355 N 
HETATM   12  C13 UNL     1      25.688   1.198  52.511  1.00  0.00     0.042 A 
HETATM   13  C14 UNL     1      25.732   0.376  53.575  1.00  0.00     0.049 A 
HETATM   14  C15 UNL     1      26.849   0.399  54.511  1.00  0.00     0.113 A 
HETATM   15  N2  UNL     1      27.773   1.232  54.254  1.00  0.00    -0.297 NA
HETATM   16  C16 UNL     1      27.891   2.150  53.185  1.00  0.00     0.189 A 
HETATM   17  C17 UNL     1      26.736   2.169  52.255  1.00  0.00    -0.011 A 
HETATM   18  C18 UNL     1      26.640   2.959  51.217  1.00  0.00     0.026 C 
HETATM   19  H12 UNL     1      24.627  -0.035  51.341  1.00  0.00     0.166 HD
ENDROOT
BRANCH   1  20
HETATM   20  C3  UNL     1      26.735   4.376  49.301  1.00  0.00     0.159 C 
HETATM   21  O1  UNL     1      27.856   4.429  48.797  1.00  0.00    -0.292 OA
BRANCH  20  22
HETATM   22  C2  UNL     1      26.553   5.739  48.802  1.00  0.00     0.079 C 
HETATM   23  C1  UNL     1      27.851   6.278  48.236  1.00  0.00     0.013 C 
ENDBRANCH  20  22
ENDBRANCH   1  20
TORSDOF 2
ENDMDL
MODEL 5
REMARK VINA RESULT:      -8.3      2.984      4.982
REMARK  2 active torsions:
REMARK  status: ('A' for Active; 'I' for Inactive)
REMARK    1  A    between atoms: C2_2  and  C3_3 
REMARK    2  A    between atoms: C3_3  and  C4_5 
ROOT
HETATM    1  C4  UNL     1      25.909   3.891  50.033  1.00  0.00     0.007 C 
HETATM    2  C5  UNL     1      26.396   2.948  50.857  1.00  0.00    -0.007 C 
HETATM    3  C6  UNL     1      26.535   1.901  51.860  1.00  0.00     0.069 C 
HETATM    4  C7  UNL     1      25.306   1.329  52.410  1.00  0.00    -0.028 A 
HETATM    5  C8  UNL     1      25.492   0.034  52.897  1.00  0.00     0.011 A 
HETATM    6  C9  UNL     1      24.525  -0.760  53.470  1.00  0.00     0.020 A 
HETATM    7  C10 UNL     1      23.237  -0.315  53.614  1.00  0.00     0.013 A 
HETATM    8 BR1  UNL     1      21.896  -1.404  54.405  1.00  0.00    -0.051 Br
HETATM    9  C11 UNL     1      23.041   0.984  53.129  1.00  0.00     0.049 A 
HETATM   10  C12 UNL     1      24.027   1.756  52.559  1.00  0.00     0.040 A 
HETATM   11  N1  UNL     1      23.456   2.991  52.185  1.00  0.00    -0.355 N 
HETATM   12  C13 UNL     1      22.841   3.898  51.304  1.00  0.00     0.042 A 
HETATM   13  C14 UNL     1      21.552   3.983  51.679  1.00  0.00     0.049 A 
HETATM   14  C15 UNL     1      20.610   4.851  50.982  1.00  0.00     0.113 A 
HETATM   15  N2  UNL     1      21.084   5.521  50.013  1.00  0.00    -0.297 NA
HETATM   16  C16 UNL     1      22.401   5.562  49.500  1.00  0.00     0.189 A 
HETATM   17  C17 UNL     1      23.355   4.645  50.170  1.00  0.00    -0.011 A 
HETATM   18  C18 UNL     1      24.612   4.516  49.832  1.00  0.00     0.026 C 
HETATM   19  H12 UNL     1      23.559   3.482  53.127  1.00  0.00     0.166 HD
ENDROOT
BRANCH   1  20
HETATM   20  C3  UNL     1      26.898   4.546  49.154  1.00  0.00     0.159 C 
HETATM   21  O1  UNL     1      27.969   4.296  48.604  1.00  0.00    -0.292 OA
BRANCH  20  22
HETATM   22  C2  UNL     1      27.001   5.868  48.537  1.00  0.00     0.079 C 
HETATM   23  C1  UNL     1      28.440   6.179  48.179  1.00  0.00     0.013 C 
ENDBRANCH  20  22
ENDBRANCH   1  20
TORSDOF 2
ENDMDL
MODEL 6
REMARK VINA RESULT:      -8.0      3.276      6.631
REMARK  2 active torsions:
REMARK  status: ('A' for Active; 'I' for Inactive)
REMARK    1  A    between atoms: C2_2  and  C3_3 
REMARK    2  A    between atoms: C3_3  and  C4_5 
ROOT
HETATM    1  C4  UNL     1      21.748   0.536  52.639  1.00  0.00     0.007 C 
HETATM    2  C5  UNL     1      21.578   1.575  51.803  1.00  0.00    -0.007 C 
HETATM    3  C6  UNL     1      21.795   2.734  50.948  1.00  0.00     0.069 C 
HETATM    4  C7  UNL     1      23.180   3.112  50.666  1.00  0.00    -0.028 A 
HETATM    5  C8  UNL     1      23.307   3.819  49.469  1.00  0.00     0.011 A 
HETATM    6  C9  UNL     1      24.480   4.305  48.938  1.00  0.00     0.020 A 
HETATM    7  C10 UNL     1      25.677   4.122  49.580  1.00  0.00     0.013 A 
HETATM    8 BR1  UNL     1      27.301   4.791  48.854  1.00  0.00    -0.051 Br
HETATM    9  C11 UNL     1      25.560   3.415  50.783  1.00  0.00     0.049 A 
HETATM   10  C12 UNL     1      24.373   2.939  51.291  1.00  0.00     0.040 A 
HETATM   11  N1  UNL     1      24.649   2.275  52.505  1.00  0.00    -0.355 N 
HETATM   12  C13 UNL     1      24.938   1.162  53.313  1.00  0.00     0.042 A 
HETATM   13  C14 UNL     1      26.238   1.258  53.647  1.00  0.00     0.049 A 
HETATM   14  C15 UNL     1      26.884   0.265  54.497  1.00  0.00     0.113 A 
HETATM   15  N2  UNL     1      26.143  -0.682  54.906  1.00  0.00    -0.297 NA
HETATM   16  C16 UNL     1      24.771  -0.926  54.665  1.00  0.00     0.189 A 
HETATM   17  C17 UNL     1      24.118   0.051  53.760  1.00  0.00    -0.011 A 
HETATM   18  C18 UNL     1      22.864  -0.009  53.395  1.00  0.00     0.026 C 
HETATM   19  H12 UNL     1      24.624   3.133  53.139  1.00  0.00     0.166 HD
ENDROOT
BRANCH   1  20
HETATM   20  C3  UNL     1      20.526  -0.220  52.976  1.00  0.00     0.159 C 
HETATM   21  O1  UNL     1      20.167  -1.128  53.725  1.00  0.00    -0.292 OA
BRANCH  20  22
HETATM   22  C2  UNL     1      19.139  -0.185  52.512  1.00  0.00     0.079 C 
HETATM   23  C1  UNL     1      18.306  -1.220  53.241  1.00  0.00     0.013 C 
ENDBRANCH  20  22
ENDBRANCH   1  20
TORSDOF 2
ENDMDL
MODEL 7
REMARK VINA RESULT:      -7.9      3.334      5.909
REMARK  2 active torsions:
REMARK  status: ('A' for Active; 'I' for Inactive)
REMARK    1  A    between atoms: C2_2  and  C3_3 
REMARK    2  A    between atoms: C3_3  and  C4_5 
ROOT
HETATM    1  C4  UNL     1      24.404   1.195  52.481  1.00  0.00     0.007 C 
HETATM    2  C5  UNL     1      25.434   1.505  51.675  1.00  0.00    -0.007 C 
HETATM    3  C6  UNL     1      26.287   2.118  50.667  1.00  0.00     0.069 C 
HETATM    4  C7  UNL     1      25.803   3.344  50.032  1.00  0.00    -0.028 A 
HETATM    5  C8  UNL     1      26.842   4.135  49.537  1.00  0.00     0.011 A 
HETATM    6  C9  UNL     1      26.702   5.342  48.892  1.00  0.00     0.020 A 
HETATM    7  C10 UNL     1      25.464   5.888  48.673  1.00  0.00     0.013 A 
HETATM    8 BR1  UNL     1      25.261   7.554  47.783  1.00  0.00    -0.051 Br
HETATM    9  C11 UNL     1      24.415   5.101  49.165  1.00  0.00     0.049 A 
HETATM   10  C12 UNL     1      24.584   3.897  49.808  1.00  0.00     0.040 A 
HETATM   11  N1  UNL     1      23.310   3.406  50.164  1.00  0.00    -0.355 N 
HETATM   12  C13 UNL     1      22.210   3.212  51.018  1.00  0.00     0.042 A 
HETATM   13  C14 UNL     1      21.226   4.010  50.563  1.00  0.00     0.049 A 
HETATM   14  C15 UNL     1      19.922   4.058  51.212  1.00  0.00     0.113 A 
HETATM   15  N2  UNL     1      19.773   3.298  52.219  1.00  0.00    -0.297 NA
HETATM   16  C16 UNL     1      20.686   2.398  52.816  1.00  0.00     0.189 A 
HETATM   17  C17 UNL     1      22.033   2.379  52.194  1.00  0.00    -0.011 A 
HETATM   18  C18 UNL     1      23.024   1.634  52.608  1.00  0.00     0.026 C 
HETATM   19  H12 UNL     1      23.083   2.927  49.238  1.00  0.00     0.166 HD
ENDROOT
BRANCH   1  20
HETATM   20  C3  UNL     1      24.644   0.090  53.431  1.00  0.00     0.159 C 
HETATM   21  O1  UNL     1      24.006  -0.682  54.145  1.00  0.00    -0.292 OA
BRANCH  20  22
HETATM   22  C2  UNL     1      25.840  -0.579  53.942  1.00  0.00     0.079 C 
HETATM   23  C1  UNL     1      26.579   0.317  54.915  1.00  0.00     0.013 C 
ENDBRANCH  20  22
ENDBRANCH   1  20
TORSDOF 2
ENDMDL
MODEL 8
REMARK VINA RESULT:      -7.6      3.003      4.189
REMARK  2 active torsions:
REMARK  status: ('A' for Active; 'I' for Inactive)
REMARK    1  A    between atoms: C2_2  and  C3_3 
REMARK    2  A    between atoms: C3_3  and  C4_5 
ROOT
HETATM    1  C4  UNL     1      24.486   2.595  50.673  1.00  0.00     0.007 C 
HETATM    2  C5  UNL     1      24.243   2.115  51.905  1.00  0.00    -0.007 C 
HETATM    3  C6  UNL     1      23.608   1.546  53.085  1.00  0.00     0.069 C 
HETATM    4  C7  UNL     1      22.254   1.013  52.930  1.00  0.00    -0.028 A 
HETATM    5  C8  UNL     1      21.953   0.037  53.881  1.00  0.00     0.011 A 
HETATM    6  C9  UNL     1      20.763  -0.645  53.990  1.00  0.00     0.020 A 
HETATM    7  C10 UNL     1      19.727  -0.404  53.125  1.00  0.00     0.013 A 
HETATM    8 BR1  UNL     1      18.081  -1.341  53.267  1.00  0.00    -0.051 Br
HETATM    9  C11 UNL     1      20.020   0.575  52.167  1.00  0.00     0.049 A 
HETATM   10  C12 UNL     1      21.221   1.242  52.081  1.00  0.00     0.040 A 
HETATM   11  N1  UNL     1      21.148   2.139  50.995  1.00  0.00    -0.355 N 
HETATM   12  C13 UNL     1      21.325   2.543  49.660  1.00  0.00     0.042 A 
HETATM   13  C14 UNL     1      20.105   2.539  49.093  1.00  0.00     0.049 A 
HETATM   14  C15 UNL     1      19.909   2.919  47.699  1.00  0.00     0.113 A 
HETATM   15  N2  UNL     1      20.955   3.260  47.064  1.00  0.00    -0.297 NA
HETATM   16  C16 UNL     1      22.296   3.334  47.504  1.00  0.00     0.189 A 
HETATM   17  C17 UNL     1      22.513   2.901  48.906  1.00  0.00    -0.011 A 
HETATM   18  C18 UNL     1      23.679   2.874  49.496  1.00  0.00     0.026 C 
HETATM   19  H12 UNL     1      20.688   2.949  51.516  1.00  0.00     0.166 HD
ENDROOT
BRANCH   1  20
HETATM   20  C3  UNL     1      25.871   3.042  50.422  1.00  0.00     0.159 C 
HETATM   21  O1  UNL     1      26.980   2.988  50.951  1.00  0.00    -0.292 OA
BRANCH  20  22
HETATM   22  C2  UNL     1      26.525   3.794  49.351  1.00  0.00     0.079 C 
HETATM   23  C1  UNL     1      26.149   5.260  49.421  1.00  0.00     0.013 C 
ENDBRANCH  20  22
ENDBRANCH   1  20
TORSDOF 2
ENDMDL
MODEL 9
REMARK VINA RESULT:      -7.5      3.566      5.991
REMARK  2 active torsions:
REMARK  status: ('A' for Active; 'I' for Inactive)
REMARK    1  A    between atoms: C2_2  and  C3_3 
REMARK    2  A    between atoms: C3_3  and  C4_5 
ROOT
HETATM    1  C4  UNL     1      21.870   0.930  51.680  1.00  0.00     0.007 C 
HETATM    2  C5  UNL     1      22.552   0.078  52.465  1.00  0.00    -0.007 C 
HETATM    3  C6  UNL     1      23.600  -0.601  53.214  1.00  0.00     0.069 C 
HETATM    4  C7  UNL     1      24.901   0.062  53.304  1.00  0.00    -0.028 A 
HETATM    5  C8  UNL     1      25.624  -0.332  54.431  1.00  0.00     0.011 A 
HETATM    6  C9  UNL     1      26.876   0.116  54.785  1.00  0.00     0.020 A 
HETATM    7  C10 UNL     1      27.543   1.034  54.017  1.00  0.00     0.013 A 
HETATM    8 BR1  UNL     1      29.271   1.660  54.499  1.00  0.00    -0.051 Br
HETATM    9  C11 UNL     1      26.825   1.436  52.882  1.00  0.00     0.049 A 
HETATM   10  C12 UNL     1      25.573   0.970  52.552  1.00  0.00     0.040 A 
HETATM   11  N1  UNL     1      25.171   1.603  51.357  1.00  0.00    -0.355 N 
HETATM   12  C13 UNL     1      24.529   2.591  50.590  1.00  0.00     0.042 A 
HETATM   13  C14 UNL     1      25.499   3.383  50.097  1.00  0.00     0.049 A 
HETATM   14  C15 UNL     1      25.192   4.521  49.238  1.00  0.00     0.113 A 
HETATM   15  N2  UNL     1      23.962   4.708  48.981  1.00  0.00    -0.297 NA
HETATM   16  C16 UNL     1      22.829   3.973  49.400  1.00  0.00     0.189 A 
HETATM   17  C17 UNL     1      23.126   2.844  50.315  1.00  0.00    -0.011 A 
HETATM   18  C18 UNL     1      22.219   2.056  50.831  1.00  0.00     0.026 C 
HETATM   19  H12 UNL     1      25.646   0.930  50.678  1.00  0.00     0.166 HD
ENDROOT
BRANCH   1  20
HETATM   20  C3  UNL     1      20.426   0.654  51.540  1.00  0.00     0.159 C 
HETATM   21  O1  UNL     1      19.540   0.726  50.690  1.00  0.00    -0.292 OA
BRANCH  20  22
HETATM   22  C2  UNL     1      19.390   0.141  52.436  1.00  0.00     0.079 C 
HETATM   23  C1  UNL     1      18.210  -0.383  51.643  1.00  0.00     0.013 C 
ENDBRANCH  20  22
ENDBRANCH   1  20
TORSDOF 2
ENDMDL
