MODEL 1
REMARK VINA RESULT:      -6.3      0.000      0.000
REMARK  8 active torsions:
REMARK  status: ('A' for Active; 'I' for Inactive)
REMARK    1  A    between atoms: O1_2  and  C2_3 
REMARK    2  A    between atoms: C7_10  and  O2_11 
REMARK    3  A    between atoms: O2_11  and  C8_12 
REMARK    4  A    between atoms: C8_12  and  C9_13 
REMARK    5  A    between atoms: C9_13  and  N3_14 
REMARK    6  A    between atoms: N3_14  and  C10_15 
REMARK    7  A    between atoms: C10_15  and  C12_18 
REMARK    8  A    between atoms: C12_18  and  O3_19 
ROOT
HETATM    1  C2  UNL     1      23.205   0.868  53.018  1.00  0.00     0.105 C 
HETATM    2  C3  UNL     1      23.578  -0.408  53.347  1.00  0.00     0.067 C 
HETATM    3  C4  UNL     1      24.998  -0.572  53.637  1.00  0.00     0.044 C 
HETATM    4  N1  UNL     1      25.872  -0.966  54.551  1.00  0.00    -0.246 NA
HETATM    5  C5  UNL     1      26.785   0.225  54.941  1.00  0.00     0.233 C 
HETATM    6  N2  UNL     1      26.605   1.475  54.331  1.00  0.00    -0.243 NA
HETATM    7  C6  UNL     1      25.482   1.418  53.384  1.00  0.00     0.077 C 
HETATM    8  C7  UNL     1      24.294   1.918  53.049  1.00  0.00     0.127 C 
HETATM    9  C13 UNL     1      25.852   0.134  52.546  1.00  0.00     0.121 C 
ENDROOT
BRANCH   8  10
HETATM   10  O2  UNL     1      24.568   3.235  52.874  1.00  0.00    -0.345 OA
BRANCH  10  11
HETATM   11  C8  UNL     1      23.618   4.274  52.798  1.00  0.00     0.206 C 
BRANCH  11  12
HETATM   12  C9  UNL     1      23.604   4.769  51.378  1.00  0.00     0.300 C 
BRANCH  12  13
HETATM   13  N3  UNL     1      24.927   5.020  50.894  1.00  0.00     0.127 N 
HETATM   14  H10 UNL     1      25.661   4.938  51.614  1.00  0.00     0.320 HD
BRANCH  13  15
HETATM   15  C10 UNL     1      25.263   4.328  49.670  1.00  0.00     0.313 C 
HETATM   16  C11 UNL     1      24.267   3.284  49.291  1.00  0.00     0.089 C 
HETATM   17  F1  UNL     1      25.273   5.296  48.670  1.00  0.00    -0.207 F 
BRANCH  15  18
HETATM   18  C12 UNL     1      26.637   3.708  49.683  1.00  0.00     0.240 C 
BRANCH  18  19
HETATM   19  O3  UNL     1      26.996   3.398  50.995  1.00  0.00    -0.396 OA
HETATM   20  H16 UNL     1      27.156   4.191  51.558  1.00  0.00     0.209 HD
ENDBRANCH  18  19
ENDBRANCH  15  18
ENDBRANCH  13  15
ENDBRANCH  12  13
ENDBRANCH  11  12
ENDBRANCH  10  11
ENDBRANCH   8  10
BRANCH   1  21
HETATM   21  O1  UNL     1      21.979   1.308  52.669  1.00  0.00    -0.353 OA
HETATM   22  C1  UNL     1      20.839   0.448  52.632  1.00  0.00     0.210 C 
ENDBRANCH   1  21
TORSDOF 8
ENDMDL
MODEL 2
REMARK VINA RESULT:      -6.2      1.915      2.622
REMARK  8 active torsions:
REMARK  status: ('A' for Active; 'I' for Inactive)
REMARK    1  A    between atoms: O1_2  and  C2_3 
REMARK    2  A    between atoms: C7_10  and  O2_11 
REMARK    3  A    between atoms: O2_11  and  C8_12 
REMARK    4  A    between atoms: C8_12  and  C9_13 
REMARK    5  A    between atoms: C9_13  and  N3_14 
REMARK    6  A    between atoms: N3_14  and  C10_15 
REMARK    7  A    between atoms: C10_15  and  C12_18 
REMARK    8  A    between atoms: C12_18  and  O3_19 
ROOT
HETATM    1  C2  UNL     1      25.038   1.019  52.447  1.00  0.00     0.105 C 
HETATM    2  C3  UNL     1      25.090   0.051  53.416  1.00  0.00     0.067 C 
HETATM    3  C4  UNL     1      26.436  -0.315  53.839  1.00  0.00     0.044 C 
HETATM    4  N1  UNL     1      27.253  -0.398  54.879  1.00  0.00    -0.246 NA
HETATM    5  C5  UNL     1      28.479   0.525  54.650  1.00  0.00     0.233 C 
HETATM    6  N2  UNL     1      28.581   1.273  53.467  1.00  0.00    -0.243 NA
HETATM    7  C6  UNL     1      27.403   1.040  52.619  1.00  0.00     0.077 C 
HETATM    8  C7  UNL     1      26.363   1.593  51.996  1.00  0.00     0.127 C 
HETATM    9  C13 UNL     1      27.347  -0.537  52.598  1.00  0.00     0.121 C 
ENDROOT
BRANCH   8  10
HETATM   10  O2  UNL     1      26.957   2.498  51.180  1.00  0.00    -0.345 OA
BRANCH  10  11
HETATM   11  C8  UNL     1      26.555   2.816  49.866  1.00  0.00     0.206 C 
BRANCH  11  12
HETATM   12  C9  UNL     1      25.499   3.882  49.964  1.00  0.00     0.300 C 
BRANCH  12  13
HETATM   13  N3  UNL     1      26.061   5.153  50.301  1.00  0.00     0.127 N 
HETATM   14  H10 UNL     1      26.929   5.096  50.856  1.00  0.00     0.320 HD
BRANCH  13  15
HETATM   15  C10 UNL     1      26.163   6.081  49.198  1.00  0.00     0.313 C 
HETATM   16  C11 UNL     1      27.441   5.956  48.440  1.00  0.00     0.089 C 
HETATM   17  F1  UNL     1      25.118   5.769  48.333  1.00  0.00    -0.207 F 
BRANCH  15  18
HETATM   18  C12 UNL     1      25.975   7.522  49.599  1.00  0.00     0.240 C 
BRANCH  18  19
HETATM   19  O3  UNL     1      26.316   7.680  50.943  1.00  0.00    -0.396 OA
HETATM   20  H16 UNL     1      26.745   8.545  51.141  1.00  0.00     0.209 HD
ENDBRANCH  18  19
ENDBRANCH  15  18
ENDBRANCH  13  15
ENDBRANCH  12  13
ENDBRANCH  11  12
ENDBRANCH  10  11
ENDBRANCH   8  10
BRANCH   1  21
HETATM   21  O1  UNL     1      23.945   1.526  51.842  1.00  0.00    -0.353 OA
HETATM   22  C1  UNL     1      23.089   2.475  52.480  1.00  0.00     0.210 C 
ENDBRANCH   1  21
TORSDOF 8
ENDMDL
MODEL 3
REMARK VINA RESULT:      -6.0      3.336      5.757
REMARK  8 active torsions:
REMARK  status: ('A' for Active; 'I' for Inactive)
REMARK    1  A    between atoms: O1_2  and  C2_3 
REMARK    2  A    between atoms: C7_10  and  O2_11 
REMARK    3  A    between atoms: O2_11  and  C8_12 
REMARK    4  A    between atoms: C8_12  and  C9_13 
REMARK    5  A    between atoms: C9_13  and  N3_14 
REMARK    6  A    between atoms: N3_14  and  C10_15 
REMARK    7  A    between atoms: C10_15  and  C12_18 
REMARK    8  A    between atoms: C12_18  and  O3_19 
ROOT
HETATM    1  C2  UNL     1      26.905   1.683  53.114  1.00  0.00     0.105 C 
HETATM    2  C3  UNL     1      28.223   2.021  53.280  1.00  0.00     0.067 C 
HETATM    3  C4  UNL     1      29.073   0.939  53.764  1.00  0.00     0.044 C 
HETATM    4  N1  UNL     1      30.149   0.214  53.498  1.00  0.00    -0.246 NA
HETATM    5  C5  UNL     1      29.750  -1.279  53.371  1.00  0.00     0.233 C 
HETATM    6  N2  UNL     1      28.411  -1.664  53.544  1.00  0.00    -0.243 NA
HETATM    7  C6  UNL     1      27.577  -0.483  53.808  1.00  0.00     0.077 C 
HETATM    8  C7  UNL     1      26.536   0.246  53.407  1.00  0.00     0.127 C 
HETATM    9  C13 UNL     1      28.392   0.218  54.962  1.00  0.00     0.121 C 
ENDROOT
BRANCH   8  10
HETATM   10  O2  UNL     1      25.524  -0.657  53.420  1.00  0.00    -0.345 OA
BRANCH  10  11
HETATM   11  C8  UNL     1      24.314  -0.533  54.134  1.00  0.00     0.206 C 
BRANCH  11  12
HETATM   12  C9  UNL     1      23.194  -0.564  53.131  1.00  0.00     0.300 C 
BRANCH  12  13
HETATM   13  N3  UNL     1      22.151   0.352  53.475  1.00  0.00     0.127 N 
HETATM   14  H10 UNL     1      21.914   1.021  52.727  1.00  0.00     0.320 HD
BRANCH  13  15
HETATM   15  C10 UNL     1      20.984  -0.257  54.071  1.00  0.00     0.313 C 
HETATM   16  C11 UNL     1      21.184  -1.693  54.422  1.00  0.00     0.089 C 
HETATM   17  F1  UNL     1      20.741   0.443  55.249  1.00  0.00    -0.207 F 
BRANCH  15  18
HETATM   18  C12 UNL     1      19.739  -0.131  53.231  1.00  0.00     0.240 C 
BRANCH  18  19
HETATM   19  O3  UNL     1      18.742  -0.958  53.748  1.00  0.00    -0.396 OA
HETATM   20  H16 UNL     1      18.667  -0.919  54.730  1.00  0.00     0.209 HD
ENDBRANCH  18  19
ENDBRANCH  15  18
ENDBRANCH  13  15
ENDBRANCH  12  13
ENDBRANCH  11  12
ENDBRANCH  10  11
ENDBRANCH   8  10
BRANCH   1  21
HETATM   21  O1  UNL     1      25.891   2.479  52.719  1.00  0.00    -0.353 OA
HETATM   22  C1  UNL     1      25.152   2.238  51.521  1.00  0.00     0.210 C 
ENDBRANCH   1  21
TORSDOF 8
ENDMDL
MODEL 4
REMARK VINA RESULT:      -6.0      1.935      2.761
REMARK  8 active torsions:
REMARK  status: ('A' for Active; 'I' for Inactive)
REMARK    1  A    between atoms: O1_2  and  C2_3 
REMARK    2  A    between atoms: C7_10  and  O2_11 
REMARK    3  A    between atoms: O2_11  and  C8_12 
REMARK    4  A    between atoms: C8_12  and  C9_13 
REMARK    5  A    between atoms: C9_13  and  N3_14 
REMARK    6  A    between atoms: N3_14  and  C10_15 
REMARK    7  A    between atoms: C10_15  and  C12_18 
REMARK    8  A    between atoms: C12_18  and  O3_19 
ROOT
HETATM    1  C2  UNL     1      24.943   0.528  52.919  1.00  0.00     0.105 C 
HETATM    2  C3  UNL     1      25.342  -0.196  54.011  1.00  0.00     0.067 C 
HETATM    3  C4  UNL     1      26.787  -0.317  54.167  1.00  0.00     0.044 C 
HETATM    4  N1  UNL     1      27.805  -0.085  54.982  1.00  0.00    -0.246 NA
HETATM    5  C5  UNL     1      28.801   0.891  54.303  1.00  0.00     0.233 C 
HETATM    6  N2  UNL     1      28.539   1.372  53.011  1.00  0.00    -0.243 NA
HETATM    7  C6  UNL     1      27.260   0.837  52.522  1.00  0.00     0.077 C 
HETATM    8  C7  UNL     1      26.042   1.129  52.070  1.00  0.00     0.127 C 
HETATM    9  C13 UNL     1      27.442  -0.704  52.810  1.00  0.00     0.121 C 
ENDROOT
BRANCH   8  10
HETATM   10  O2  UNL     1      26.308   1.894  50.982  1.00  0.00    -0.345 OA
BRANCH  10  11
HETATM   11  C8  UNL     1      26.269   3.303  50.932  1.00  0.00     0.206 C 
BRANCH  11  12
HETATM   12  C9  UNL     1      25.002   3.693  50.222  1.00  0.00     0.300 C 
BRANCH  12  13
HETATM   13  N3  UNL     1      23.842   3.335  50.977  1.00  0.00     0.127 N 
HETATM   14  H10 UNL     1      23.896   2.402  51.415  1.00  0.00     0.320 HD
BRANCH  13  15
HETATM   15  C10 UNL     1      23.375   4.355  51.888  1.00  0.00     0.313 C 
HETATM   16  C11 UNL     1      21.911   4.273  52.164  1.00  0.00     0.089 C 
HETATM   17  F1  UNL     1      24.049   4.140  53.087  1.00  0.00    -0.207 F 
BRANCH  15  18
HETATM   18  C12 UNL     1      23.710   5.757  51.451  1.00  0.00     0.240 C 
BRANCH  18  19
HETATM   19  O3  UNL     1      24.362   6.426  52.488  1.00  0.00    -0.396 OA
HETATM   20  H16 UNL     1      24.459   7.394  52.333  1.00  0.00     0.209 HD
ENDBRANCH  18  19
ENDBRANCH  15  18
ENDBRANCH  13  15
ENDBRANCH  12  13
ENDBRANCH  11  12
ENDBRANCH  10  11
ENDBRANCH   8  10
BRANCH   1  21
HETATM   21  O1  UNL     1      23.684   0.774  52.504  1.00  0.00    -0.353 OA
HETATM   22  C1  UNL     1      22.554   0.641  53.367  1.00  0.00     0.210 C 
ENDBRANCH   1  21
TORSDOF 8
ENDMDL
MODEL 5
REMARK VINA RESULT:      -5.9      2.695      4.810
REMARK  8 active torsions:
REMARK  status: ('A' for Active; 'I' for Inactive)
REMARK    1  A    between atoms: O1_2  and  C2_3 
REMARK    2  A    between atoms: C7_10  and  O2_11 
REMARK    3  A    between atoms: O2_11  and  C8_12 
REMARK    4  A    between atoms: C8_12  and  C9_13 
REMARK    5  A    between atoms: C9_13  and  N3_14 
REMARK    6  A    between atoms: N3_14  and  C10_15 
REMARK    7  A    between atoms: C10_15  and  C12_18 
REMARK    8  A    between atoms: C12_18  and  O3_19 
ROOT
HETATM    1  C2  UNL     1      22.280  -0.208  52.627  1.00  0.00     0.105 C 
HETATM    2  C3  UNL     1      21.366   0.404  51.811  1.00  0.00     0.067 C 
HETATM    3  C4  UNL     1      21.813   1.666  51.232  1.00  0.00     0.044 C 
HETATM    4  N1  UNL     1      22.026   2.315  50.097  1.00  0.00    -0.246 NA
HETATM    5  C5  UNL     1      23.525   2.698  49.992  1.00  0.00     0.233 C 
HETATM    6  N2  UNL     1      24.411   2.351  51.024  1.00  0.00    -0.243 NA
HETATM    7  C6  UNL     1      23.697   1.612  52.075  1.00  0.00     0.077 C 
HETATM    8  C7  UNL     1      23.620   0.479  52.772  1.00  0.00     0.127 C 
HETATM    9  C13 UNL     1      22.460   2.558  52.330  1.00  0.00     0.121 C 
ENDROOT
BRANCH   8  10
HETATM   10  O2  UNL     1      24.847   0.404  53.345  1.00  0.00    -0.345 OA
BRANCH  10  11
HETATM   11  C8  UNL     1      25.237  -0.508  54.348  1.00  0.00     0.206 C 
BRANCH  11  12
HETATM   12  C9  UNL     1      26.384   0.111  55.098  1.00  0.00     0.300 C 
BRANCH  12  13
HETATM   13  N3  UNL     1      26.849   1.304  54.461  1.00  0.00     0.127 N 
HETATM   14  H10 UNL     1      26.820   2.141  55.063  1.00  0.00     0.320 HD
BRANCH  13  15
HETATM   15  C10 UNL     1      28.103   1.164  53.757  1.00  0.00     0.313 C 
HETATM   16  C11 UNL     1      28.944   0.043  54.270  1.00  0.00     0.089 C 
HETATM   17  F1  UNL     1      27.774   0.883  52.434  1.00  0.00    -0.207 F 
BRANCH  15  18
HETATM   18  C12 UNL     1      28.931   2.423  53.737  1.00  0.00     0.240 C 
BRANCH  18  19
HETATM   19  O3  UNL     1      29.784   2.438  54.840  1.00  0.00    -0.396 OA
HETATM   20  H16 UNL     1      29.319   2.315  55.700  1.00  0.00     0.209 HD
ENDBRANCH  18  19
ENDBRANCH  15  18
ENDBRANCH  13  15
ENDBRANCH  12  13
ENDBRANCH  11  12
ENDBRANCH  10  11
ENDBRANCH   8  10
BRANCH   1  21
HETATM   21  O1  UNL     1      22.133  -1.354  53.321  1.00  0.00    -0.353 OA
HETATM   22  C1  UNL     1      21.520  -1.394  54.611  1.00  0.00     0.210 C 
ENDBRANCH   1  21
TORSDOF 8
ENDMDL
MODEL 6
REMARK VINA RESULT:      -5.9      2.793      4.487
REMARK  8 active torsions:
REMARK  status: ('A' for Active; 'I' for Inactive)
REMARK    1  A    between atoms: O1_2  and  C2_3 
REMARK    2  A    between atoms: C7_10  and  O2_11 
REMARK    3  A    between atoms: O2_11  and  C8_12 
REMARK    4  A    between atoms: C8_12  and  C9_13 
REMARK    5  A    between atoms: C9_13  and  N3_14 
REMARK    6  A    between atoms: N3_14  and  C10_15 
REMARK    7  A    between atoms: C10_15  and  C12_18 
REMARK    8  A    between atoms: C12_18  and  O3_19 
ROOT
HETATM    1  C2  UNL     1      26.997   1.673  52.729  1.00  0.00     0.105 C 
HETATM    2  C3  UNL     1      28.301   1.952  53.041  1.00  0.00     0.067 C 
HETATM    3  C4  UNL     1      29.025   0.854  53.672  1.00  0.00     0.044 C 
HETATM    4  N1  UNL     1      30.083   0.064  53.572  1.00  0.00    -0.246 NA
HETATM    5  C5  UNL     1      29.619  -1.412  53.462  1.00  0.00     0.233 C 
HETATM    6  N2  UNL     1      28.250  -1.720  53.486  1.00  0.00    -0.243 NA
HETATM    7  C6  UNL     1      27.457  -0.487  53.593  1.00  0.00     0.077 C 
HETATM    8  C7  UNL     1      26.514   0.272  53.037  1.00  0.00     0.127 C 
HETATM    9  C13 UNL     1      28.166   0.229  54.808  1.00  0.00     0.121 C 
ENDROOT
BRANCH   8  10
HETATM   10  O2  UNL     1      25.459  -0.577  52.964  1.00  0.00    -0.345 OA
BRANCH  10  11
HETATM   11  C8  UNL     1      24.363  -0.611  53.851  1.00  0.00     0.206 C 
BRANCH  11  12
HETATM   12  C9  UNL     1      23.142  -0.207  53.073  1.00  0.00     0.300 C 
BRANCH  12  13
HETATM   13  N3  UNL     1      23.367   0.987  52.319  1.00  0.00     0.127 N 
HETATM   14  H10 UNL     1      24.041   0.877  51.546  1.00  0.00     0.320 HD
BRANCH  13  15
HETATM   15  C10 UNL     1      22.166   1.685  51.919  1.00  0.00     0.313 C 
HETATM   16  C11 UNL     1      21.488   1.063  50.745  1.00  0.00     0.089 C 
HETATM   17  F1  UNL     1      21.297   1.613  53.004  1.00  0.00    -0.207 F 
BRANCH  15  18
HETATM   18  C12 UNL     1      22.382   3.149  51.637  1.00  0.00     0.240 C 
BRANCH  18  19
HETATM   19  O3  UNL     1      23.269   3.679  52.575  1.00  0.00    -0.396 OA
HETATM   20  H16 UNL     1      22.835   4.259  53.244  1.00  0.00     0.209 HD
ENDBRANCH  18  19
ENDBRANCH  15  18
ENDBRANCH  13  15
ENDBRANCH  12  13
ENDBRANCH  11  12
ENDBRANCH  10  11
ENDBRANCH   8  10
BRANCH   1  21
HETATM   21  O1  UNL     1      26.083   2.498  52.178  1.00  0.00    -0.353 OA
HETATM   22  C1  UNL     1      26.187   2.966  50.833  1.00  0.00     0.210 C 
ENDBRANCH   1  21
TORSDOF 8
ENDMDL
MODEL 7
REMARK VINA RESULT:      -5.9      2.586      3.885
REMARK  8 active torsions:
REMARK  status: ('A' for Active; 'I' for Inactive)
REMARK    1  A    between atoms: O1_2  and  C2_3 
REMARK    2  A    between atoms: C7_10  and  O2_11 
REMARK    3  A    between atoms: O2_11  and  C8_12 
REMARK    4  A    between atoms: C8_12  and  C9_13 
REMARK    5  A    between atoms: C9_13  and  N3_14 
REMARK    6  A    between atoms: N3_14  and  C10_15 
REMARK    7  A    between atoms: C10_15  and  C12_18 
REMARK    8  A    between atoms: C12_18  and  O3_19 
ROOT
HETATM    1  C2  UNL     1      20.896   0.795  52.813  1.00  0.00     0.105 C 
HETATM    2  C3  UNL     1      20.396  -0.152  53.668  1.00  0.00     0.067 C 
HETATM    3  C4  UNL     1      21.390  -1.073  54.205  1.00  0.00     0.044 C 
HETATM    4  N1  UNL     1      21.930  -1.545  55.319  1.00  0.00    -0.246 NA
HETATM    5  C5  UNL     1      23.445  -1.215  55.342  1.00  0.00     0.233 C 
HETATM    6  N2  UNL     1      24.026  -0.521  54.270  1.00  0.00    -0.243 NA
HETATM    7  C6  UNL     1      23.004  -0.192  53.266  1.00  0.00     0.077 C 
HETATM    8  C7  UNL     1      22.392   0.779  52.590  1.00  0.00     0.127 C 
HETATM    9  C13 UNL     1      22.310  -1.595  53.064  1.00  0.00     0.121 C 
ENDROOT
BRANCH   8  10
HETATM   10  O2  UNL     1      23.423   1.389  51.955  1.00  0.00    -0.345 OA
BRANCH  10  11
HETATM   11  C8  UNL     1      24.007   2.620  52.319  1.00  0.00     0.206 C 
BRANCH  11  12
HETATM   12  C9  UNL     1      25.497   2.468  52.192  1.00  0.00     0.300 C 
BRANCH  12  13
HETATM   13  N3  UNL     1      26.080   1.955  53.393  1.00  0.00     0.127 N 
HETATM   14  H10 UNL     1      25.392   1.609  54.081  1.00  0.00     0.320 HD
BRANCH  13  15
HETATM   15  C10 UNL     1      27.177   1.037  53.189  1.00  0.00     0.313 C 
HETATM   16  C11 UNL     1      26.858  -0.057  52.227  1.00  0.00     0.089 C 
HETATM   17  F1  UNL     1      28.217   1.791  52.652  1.00  0.00    -0.207 F 
BRANCH  15  18
HETATM   18  C12 UNL     1      27.701   0.427  54.463  1.00  0.00     0.240 C 
BRANCH  18  19
HETATM   19  O3  UNL     1      26.926  -0.682  54.802  1.00  0.00    -0.396 OA
HETATM   20  H16 UNL     1      26.179  -0.846  54.181  1.00  0.00     0.209 HD
ENDBRANCH  18  19
ENDBRANCH  15  18
ENDBRANCH  13  15
ENDBRANCH  12  13
ENDBRANCH  11  12
ENDBRANCH  10  11
ENDBRANCH   8  10
BRANCH   1  21
HETATM   21  O1  UNL     1      20.215   1.745  52.142  1.00  0.00    -0.353 OA
HETATM   22  C1  UNL     1      20.348   3.136  52.440  1.00  0.00     0.210 C 
ENDBRANCH   1  21
TORSDOF 8
ENDMDL
MODEL 8
REMARK VINA RESULT:      -5.7      3.095      5.099
REMARK  8 active torsions:
REMARK  status: ('A' for Active; 'I' for Inactive)
REMARK    1  A    between atoms: O1_2  and  C2_3 
REMARK    2  A    between atoms: C7_10  and  O2_11 
REMARK    3  A    between atoms: O2_11  and  C8_12 
REMARK    4  A    between atoms: C8_12  and  C9_13 
REMARK    5  A    between atoms: C9_13  and  N3_14 
REMARK    6  A    between atoms: N3_14  and  C10_15 
REMARK    7  A    between atoms: C10_15  and  C12_18 
REMARK    8  A    between atoms: C12_18  and  O3_19 
ROOT
HETATM    1  C2  UNL     1      22.748   0.332  53.185  1.00  0.00     0.105 C 
HETATM    2  C3  UNL     1      21.438   0.627  52.919  1.00  0.00     0.067 C 
HETATM    3  C4  UNL     1      21.238   1.629  51.878  1.00  0.00     0.044 C 
HETATM    4  N1  UNL     1      20.667   1.865  50.706  1.00  0.00    -0.246 NA
HETATM    5  C5  UNL     1      21.759   2.207  49.658  1.00  0.00     0.233 C 
HETATM    6  N2  UNL     1      23.109   2.233  50.037  1.00  0.00    -0.243 NA
HETATM    7  C6  UNL     1      23.243   1.879  51.457  1.00  0.00     0.077 C 
HETATM    8  C7  UNL     1      23.784   1.042  52.341  1.00  0.00     0.127 C 
HETATM    9  C13 UNL     1      22.181   2.843  52.115  1.00  0.00     0.121 C 
ENDROOT
BRANCH   8  10
HETATM   10  O2  UNL     1      25.111   1.175  52.096  1.00  0.00    -0.345 OA
BRANCH  10  11
HETATM   11  C8  UNL     1      25.870   2.351  52.266  1.00  0.00     0.206 C 
BRANCH  11  12
HETATM   12  C9  UNL     1      27.303   1.940  52.455  1.00  0.00     0.300 C 
BRANCH  12  13
HETATM   13  N3  UNL     1      27.659   1.886  53.840  1.00  0.00     0.127 N 
HETATM   14  H10 UNL     1      27.075   2.482  54.447  1.00  0.00     0.320 HD
BRANCH  13  15
HETATM   15  C10 UNL     1      27.837   0.553  54.367  1.00  0.00     0.313 C 
HETATM   16  C11 UNL     1      28.289  -0.431  53.341  1.00  0.00     0.089 C 
HETATM   17  F1  UNL     1      28.831   0.650  55.336  1.00  0.00    -0.207 F 
BRANCH  15  18
HETATM   18  C12 UNL     1      26.614   0.007  55.058  1.00  0.00     0.240 C 
BRANCH  18  19
HETATM   19  O3  UNL     1      25.997  -0.937  54.237  1.00  0.00    -0.396 OA
HETATM   20  H16 UNL     1      25.018  -0.969  54.339  1.00  0.00     0.209 HD
ENDBRANCH  18  19
ENDBRANCH  15  18
ENDBRANCH  13  15
ENDBRANCH  12  13
ENDBRANCH  11  12
ENDBRANCH  10  11
ENDBRANCH   8  10
BRANCH   1  21
HETATM   21  O1  UNL     1      23.233  -0.519  54.112  1.00  0.00    -0.353 OA
HETATM   22  C1  UNL     1      22.385  -1.253  54.996  1.00  0.00     0.210 C 
ENDBRANCH   1  21
TORSDOF 8
ENDMDL
MODEL 9
REMARK VINA RESULT:      -5.7      2.955      4.871
REMARK  8 active torsions:
REMARK  status: ('A' for Active; 'I' for Inactive)
REMARK    1  A    between atoms: O1_2  and  C2_3 
REMARK    2  A    between atoms: C7_10  and  O2_11 
REMARK    3  A    between atoms: O2_11  and  C8_12 
REMARK    4  A    between atoms: C8_12  and  C9_13 
REMARK    5  A    between atoms: C9_13  and  N3_14 
REMARK    6  A    between atoms: N3_14  and  C10_15 
REMARK    7  A    between atoms: C10_15  and  C12_18 
REMARK    8  A    between atoms: C12_18  and  O3_19 
ROOT
HETATM    1  C2  UNL     1      22.348   0.115  52.812  1.00  0.00     0.105 C 
HETATM    2  C3  UNL     1      21.024   0.075  52.464  1.00  0.00     0.067 C 
HETATM    3  C4  UNL     1      20.668   0.916  51.327  1.00  0.00     0.044 C 
HETATM    4  N1  UNL     1      20.134   0.918  50.114  1.00  0.00    -0.246 NA
HETATM    5  C5  UNL     1      21.183   1.418  49.087  1.00  0.00     0.233 C 
HETATM    6  N2  UNL     1      22.465   1.788  49.519  1.00  0.00    -0.243 NA
HETATM    7  C6  UNL     1      22.586   1.590  50.971  1.00  0.00     0.077 C 
HETATM    8  C7  UNL     1      23.247   0.976  51.951  1.00  0.00     0.127 C 
HETATM    9  C13 UNL     1      21.293   2.331  51.490  1.00  0.00     0.121 C 
ENDROOT
BRANCH   8  10
HETATM   10  O2  UNL     1      24.522   1.393  51.752  1.00  0.00    -0.345 OA
BRANCH  10  11
HETATM   11  C8  UNL     1      25.079   2.602  52.218  1.00  0.00     0.206 C 
BRANCH  11  12
HETATM   12  C9  UNL     1      25.473   2.393  53.653  1.00  0.00     0.300 C 
BRANCH  12  13
HETATM   13  N3  UNL     1      26.893   2.424  53.821  1.00  0.00     0.127 N 
HETATM   14  H10 UNL     1      27.215   3.062  54.565  1.00  0.00     0.320 HD
BRANCH  13  15
HETATM   15  C10 UNL     1      27.522   1.125  53.886  1.00  0.00     0.313 C 
HETATM   16  C11 UNL     1      26.702   0.109  54.609  1.00  0.00     0.089 C 
HETATM   17  F1  UNL     1      27.669   0.699  52.569  1.00  0.00    -0.207 F 
BRANCH  15  18
HETATM   18  C12 UNL     1      28.904   1.151  54.487  1.00  0.00     0.240 C 
BRANCH  18  19
HETATM   19  O3  UNL     1      29.405   2.452  54.448  1.00  0.00    -0.396 OA
HETATM   20  H16 UNL     1      29.647   2.808  55.335  1.00  0.00     0.209 HD
ENDBRANCH  18  19
ENDBRANCH  15  18
ENDBRANCH  13  15
ENDBRANCH  12  13
ENDBRANCH  11  12
ENDBRANCH  10  11
ENDBRANCH   8  10
BRANCH   1  21
HETATM   21  O1  UNL     1      22.955  -0.522  53.834  1.00  0.00    -0.353 OA
HETATM   22  C1  UNL     1      22.235  -1.009  54.967  1.00  0.00     0.210 C 
ENDBRANCH   1  21
TORSDOF 8
ENDMDL
