MODEL 1
REMARK VINA RESULT:      -6.5      0.000      0.000
REMARK  6 active torsions:
REMARK  status: ('A' for Active; 'I' for Inactive)
REMARK    1  A    between atoms: C2_2  and  C3_3 
REMARK    2  A    between atoms: C4_4  and  C5_5 
REMARK    3  A    between atoms: C5_5  and  C6_6 
REMARK    4  A    between atoms: C6_6  and  N1_7 
REMARK    5  A    between atoms: C10_12  and  C11_13 
REMARK    6  A    between atoms: N3_15  and  C12_16 
ROOT
HETATM    1  N1  UNL     1      25.103   1.910  52.362  1.00  0.00    -0.357 N 
HETATM    2  C7  UNL     1      26.097   2.568  51.587  1.00  0.00     0.200 C 
HETATM    3  N2  UNL     1      26.896   3.175  50.789  1.00  0.00    -0.281 NA
HETATM    4  C8  UNL     1      26.455   3.655  49.449  1.00  0.00     0.186 C 
HETATM    5  C9  UNL     1      24.945   3.721  49.565  1.00  0.00    -0.034 C 
HETATM    6  C10 UNL     1      24.256   2.918  48.775  1.00  0.00     0.045 C 
HETATM    7  C14 UNL     1      24.660   4.605  50.753  1.00  0.00     0.210 C 
HETATM    8  O1  UNL     1      23.331   4.466  51.091  1.00  0.00    -0.356 OA
HETATM    9  C15 UNL     1      22.676   4.758  52.264  1.00  0.00     0.168 C 
HETATM   10  C16 UNL     1      21.975   3.638  52.436  1.00  0.00     0.105 C 
HETATM   11  N4  UNL     1      22.742   2.579  52.452  1.00  0.00    -0.266 NA
HETATM   12  C17 UNL     1      24.064   2.730  52.959  1.00  0.00     0.274 C 
ENDROOT
BRANCH   1  13
HETATM   13  C6  UNL     1      25.588   0.568  52.204  1.00  0.00     0.129 C 
BRANCH  13  14
HETATM   14  C5  UNL     1      25.438  -0.091  53.586  1.00  0.00     0.047 C 
BRANCH  14  15
HETATM   15  C4  UNL     1      26.523   0.441  54.431  1.00  0.00    -0.029 C 
HETATM   16  C3  UNL     1      27.803   0.107  54.346  1.00  0.00    -0.031 C 
BRANCH  16  17
HETATM   17  C2  UNL     1      28.462  -0.850  53.419  1.00  0.00     0.022 C 
HETATM   18  C1  UNL     1      29.947  -0.977  53.659  1.00  0.00     0.009 C 
ENDBRANCH  16  17
ENDBRANCH  14  15
ENDBRANCH  13  14
ENDBRANCH   1  13
BRANCH   6  19
HETATM   19  C11 UNL     1      22.807   2.678  48.577  1.00  0.00     0.097 C 
HETATM   20 BR1  UNL     1      21.752   3.741  47.402  1.00  0.00    -0.030 Br
HETATM   21  N3  UNL     1      22.126   1.757  49.159  1.00  0.00    -0.283 NA
BRANCH  21  22
HETATM   22  C12 UNL     1      20.739   1.474  49.013  1.00  0.00     0.145 C 
HETATM   23  C13 UNL     1      20.199   0.925  50.317  1.00  0.00     0.028 C 
ENDBRANCH  21  22
ENDBRANCH   6  19
TORSDOF 6
ENDMDL
MODEL 2
REMARK VINA RESULT:      -6.5      1.531      2.823
REMARK  6 active torsions:
REMARK  status: ('A' for Active; 'I' for Inactive)
REMARK    1  A    between atoms: C2_2  and  C3_3 
REMARK    2  A    between atoms: C4_4  and  C5_5 
REMARK    3  A    between atoms: C5_5  and  C6_6 
REMARK    4  A    between atoms: C6_6  and  N1_7 
REMARK    5  A    between atoms: C10_12  and  C11_13 
REMARK    6  A    between atoms: N3_15  and  C12_16 
ROOT
HETATM    1  N1  UNL     1      24.939   2.037  52.500  1.00  0.00    -0.357 N 
HETATM    2  C7  UNL     1      25.981   2.580  51.699  1.00  0.00     0.200 C 
HETATM    3  N2  UNL     1      26.825   3.079  50.874  1.00  0.00    -0.281 NA
HETATM    4  C8  UNL     1      26.438   3.462  49.486  1.00  0.00     0.186 C 
HETATM    5  C9  UNL     1      24.930   3.606  49.556  1.00  0.00    -0.034 C 
HETATM    6  C10 UNL     1      24.222   2.770  48.818  1.00  0.00     0.045 C 
HETATM    7  C14 UNL     1      24.661   4.601  50.656  1.00  0.00     0.210 C 
HETATM    8  O1  UNL     1      23.320   4.552  50.970  1.00  0.00    -0.356 OA
HETATM    9  C15 UNL     1      22.653   4.974  52.095  1.00  0.00     0.168 C 
HETATM   10  C16 UNL     1      21.896   3.905  52.343  1.00  0.00     0.105 C 
HETATM   11  N4  UNL     1      22.611   2.819  52.470  1.00  0.00    -0.266 NA
HETATM   12  C17 UNL     1      23.927   2.952  52.997  1.00  0.00     0.274 C 
ENDROOT
BRANCH   1  13
HETATM   13  C6  UNL     1      25.363   0.666  52.470  1.00  0.00     0.129 C 
BRANCH  13  14
HETATM   14  C5  UNL     1      24.589  -0.031  53.601  1.00  0.00     0.047 C 
BRANCH  14  15
HETATM   15  C4  UNL     1      23.539  -0.844  52.960  1.00  0.00    -0.029 C 
HETATM   16  C3  UNL     1      22.323  -1.057  53.443  1.00  0.00    -0.031 C 
BRANCH  16  17
HETATM   17  C2  UNL     1      21.716  -0.558  54.704  1.00  0.00     0.022 C 
HETATM   18  C1  UNL     1      20.630   0.465  54.472  1.00  0.00     0.009 C 
ENDBRANCH  16  17
ENDBRANCH  14  15
ENDBRANCH  13  14
ENDBRANCH   1  13
BRANCH   6  19
HETATM   19  C11 UNL     1      22.768   2.580  48.604  1.00  0.00     0.097 C 
HETATM   20 BR1  UNL     1      21.806   3.531  47.265  1.00  0.00    -0.030 Br
HETATM   21  N3  UNL     1      22.022   1.778  49.276  1.00  0.00    -0.283 NA
BRANCH  21  22
HETATM   22  C12 UNL     1      20.626   1.550  49.120  1.00  0.00     0.145 C 
HETATM   23  C13 UNL     1      20.075   0.930  50.386  1.00  0.00     0.028 C 
ENDBRANCH  21  22
ENDBRANCH   6  19
TORSDOF 6
ENDMDL
MODEL 3
REMARK VINA RESULT:      -6.3      2.950      5.327
REMARK  6 active torsions:
REMARK  status: ('A' for Active; 'I' for Inactive)
REMARK    1  A    between atoms: C2_2  and  C3_3 
REMARK    2  A    between atoms: C4_4  and  C5_5 
REMARK    3  A    between atoms: C5_5  and  C6_6 
REMARK    4  A    between atoms: C6_6  and  N1_7 
REMARK    5  A    between atoms: C10_12  and  C11_13 
REMARK    6  A    between atoms: N3_15  and  C12_16 
ROOT
HETATM    1  N1  UNL     1      20.204   1.344  50.472  1.00  0.00    -0.357 N 
HETATM    2  C7  UNL     1      19.875   2.495  51.239  1.00  0.00     0.200 C 
HETATM    3  N2  UNL     1      19.716   3.558  51.937  1.00  0.00    -0.281 NA
HETATM    4  C8  UNL     1      20.871   4.396  52.371  1.00  0.00     0.186 C 
HETATM    5  C9  UNL     1      21.982   4.004  51.417  1.00  0.00    -0.034 C 
HETATM    6  C10 UNL     1      23.045   3.429  51.952  1.00  0.00     0.045 C 
HETATM    7  C14 UNL     1      21.436   4.232  50.031  1.00  0.00     0.210 C 
HETATM    8  O1  UNL     1      22.276   3.621  49.126  1.00  0.00    -0.356 OA
HETATM    9  C15 UNL     1      22.055   3.237  47.824  1.00  0.00     0.168 C 
HETATM   10  C16 UNL     1      22.545   1.997  47.850  1.00  0.00     0.105 C 
HETATM   11  N4  UNL     1      21.975   1.266  48.772  1.00  0.00    -0.266 NA
HETATM   12  C17 UNL     1      20.618   1.550  49.095  1.00  0.00     0.274 C 
ENDROOT
BRANCH   1  13
HETATM   13  C6  UNL     1      19.976   0.359  51.490  1.00  0.00     0.129 C 
BRANCH  13  14
HETATM   14  C5  UNL     1      21.290   0.273  52.284  1.00  0.00     0.047 C 
BRANCH  14  15
HETATM   15  C4  UNL     1      20.953   0.536  53.695  1.00  0.00    -0.029 C 
HETATM   16  C3  UNL     1      21.328  -0.203  54.730  1.00  0.00    -0.031 C 
BRANCH  16  17
HETATM   17  C2  UNL     1      22.151  -1.440  54.747  1.00  0.00     0.022 C 
HETATM   18  C1  UNL     1      23.603  -1.178  55.067  1.00  0.00     0.009 C 
ENDBRANCH  16  17
ENDBRANCH  14  15
ENDBRANCH  13  14
ENDBRANCH   1  13
BRANCH   6  19
HETATM   19  C11 UNL     1      24.314   2.910  51.391  1.00  0.00     0.097 C 
HETATM   20 BR1  UNL     1      25.059   1.245  51.934  1.00  0.00    -0.030 Br
HETATM   21  N3  UNL     1      25.029   3.508  50.506  1.00  0.00    -0.283 NA
BRANCH  21  22
HETATM   22  C12 UNL     1      26.252   3.066  49.929  1.00  0.00     0.145 C 
HETATM   23  C13 UNL     1      26.910   4.220  49.204  1.00  0.00     0.028 C 
ENDBRANCH  21  22
ENDBRANCH   6  19
TORSDOF 6
ENDMDL
MODEL 4
REMARK VINA RESULT:      -6.1      2.015      2.814
REMARK  6 active torsions:
REMARK  status: ('A' for Active; 'I' for Inactive)
REMARK    1  A    between atoms: C2_2  and  C3_3 
REMARK    2  A    between atoms: C4_4  and  C5_5 
REMARK    3  A    between atoms: C5_5  and  C6_6 
REMARK    4  A    between atoms: C6_6  and  N1_7 
REMARK    5  A    between atoms: C10_12  and  C11_13 
REMARK    6  A    between atoms: N3_15  and  C12_16 
ROOT
HETATM    1  N1  UNL     1      23.442   1.467  52.373  1.00  0.00    -0.357 N 
HETATM    2  C7  UNL     1      23.636   2.827  52.740  1.00  0.00     0.200 C 
HETATM    3  N2  UNL     1      23.744   4.086  52.953  1.00  0.00    -0.281 NA
HETATM    4  C8  UNL     1      23.195   5.096  52.003  1.00  0.00     0.186 C 
HETATM    5  C9  UNL     1      22.168   4.320  51.202  1.00  0.00    -0.034 C 
HETATM    6  C10 UNL     1      22.398   4.195  49.908  1.00  0.00     0.045 C 
HETATM    7  C14 UNL     1      21.221   3.724  52.214  1.00  0.00     0.210 C 
HETATM    8  O1  UNL     1      20.450   2.774  51.580  1.00  0.00    -0.356 OA
HETATM    9  C15 UNL     1      19.717   1.732  52.099  1.00  0.00     0.168 C 
HETATM   10  C16 UNL     1      20.110   0.739  51.302  1.00  0.00     0.105 C 
HETATM   11  N4  UNL     1      21.409   0.591  51.309  1.00  0.00    -0.266 NA
HETATM   12  C17 UNL     1      22.104   0.919  52.508  1.00  0.00     0.274 C 
ENDROOT
BRANCH   1  13
HETATM   13  C6  UNL     1      24.789   1.180  51.970  1.00  0.00     0.129 C 
BRANCH  13  14
HETATM   14  C5  UNL     1      25.451   0.513  53.187  1.00  0.00     0.047 C 
BRANCH  14  15
HETATM   15  C4  UNL     1      26.125  -0.702  52.693  1.00  0.00    -0.029 C 
HETATM   16  C3  UNL     1      27.421  -0.962  52.796  1.00  0.00    -0.031 C 
BRANCH  16  17
HETATM   17  C2  UNL     1      28.496  -0.139  53.407  1.00  0.00     0.022 C 
HETATM   18  C1  UNL     1      29.788  -0.898  53.594  1.00  0.00     0.009 C 
ENDBRANCH  16  17
ENDBRANCH  14  15
ENDBRANCH  13  14
ENDBRANCH   1  13
BRANCH   6  19
HETATM   19  C11 UNL     1      21.667   3.536  48.801  1.00  0.00     0.097 C 
HETATM   20 BR1  UNL     1      22.387   2.055  47.847  1.00  0.00    -0.030 Br
HETATM   21  N3  UNL     1      20.505   3.882  48.376  1.00  0.00    -0.283 NA
BRANCH  21  22
HETATM   22  C12 UNL     1      19.751   3.293  47.321  1.00  0.00     0.145 C 
HETATM   23  C13 UNL     1      18.274   3.469  47.602  1.00  0.00     0.028 C 
ENDBRANCH  21  22
ENDBRANCH   6  19
TORSDOF 6
ENDMDL
MODEL 5
REMARK VINA RESULT:      -6.1      2.166      4.788
REMARK  6 active torsions:
REMARK  status: ('A' for Active; 'I' for Inactive)
REMARK    1  A    between atoms: C2_2  and  C3_3 
REMARK    2  A    between atoms: C4_4  and  C5_5 
REMARK    3  A    between atoms: C5_5  and  C6_6 
REMARK    4  A    between atoms: C6_6  and  N1_7 
REMARK    5  A    between atoms: C10_12  and  C11_13 
REMARK    6  A    between atoms: N3_15  and  C12_16 
ROOT
HETATM    1  N1  UNL     1      21.113   0.772  50.453  1.00  0.00    -0.357 N 
HETATM    2  C7  UNL     1      20.042   1.440  51.107  1.00  0.00     0.200 C 
HETATM    3  N2  UNL     1      19.155   2.157  51.692  1.00  0.00    -0.281 NA
HETATM    4  C8  UNL     1      19.366   3.609  51.957  1.00  0.00     0.186 C 
HETATM    5  C9  UNL     1      20.462   4.001  50.985  1.00  0.00    -0.034 C 
HETATM    6  C10 UNL     1      21.600   4.412  51.513  1.00  0.00     0.045 C 
HETATM    7  C14 UNL     1      19.961   3.606  49.619  1.00  0.00     0.210 C 
HETATM    8  O1  UNL     1      21.018   3.659  48.736  1.00  0.00    -0.356 OA
HETATM    9  C15 UNL     1      21.177   3.075  47.502  1.00  0.00     0.168 C 
HETATM   10  C16 UNL     1      22.398   2.556  47.634  1.00  0.00     0.105 C 
HETATM   11  N4  UNL     1      22.479   1.757  48.665  1.00  0.00    -0.266 NA
HETATM   12  C17 UNL     1      21.308   1.040  49.038  1.00  0.00     0.274 C 
ENDROOT
BRANCH   1  13
HETATM   13  C6  UNL     1      21.612   0.047  51.586  1.00  0.00     0.129 C 
BRANCH  13  14
HETATM   14  C5  UNL     1      22.668   0.961  52.229  1.00  0.00     0.047 C 
BRANCH  14  15
HETATM   15  C4  UNL     1      23.323   0.174  53.290  1.00  0.00    -0.029 C 
HETATM   16  C3  UNL     1      24.614  -0.125  53.345  1.00  0.00    -0.031 C 
BRANCH  16  17
HETATM   17  C2  UNL     1      25.699   0.235  52.396  1.00  0.00     0.022 C 
HETATM   18  C1  UNL     1      26.795  -0.802  52.332  1.00  0.00     0.009 C 
ENDBRANCH  16  17
ENDBRANCH  14  15
ENDBRANCH  13  14
ENDBRANCH   1  13
BRANCH   6  19
HETATM   19  C11 UNL     1      22.884   4.874  50.935  1.00  0.00     0.097 C 
HETATM   20 BR1  UNL     1      23.228   6.708  50.559  1.00  0.00    -0.030 Br
HETATM   21  N3  UNL     1      23.874   4.112  50.633  1.00  0.00    -0.283 NA
BRANCH  21  22
HETATM   22  C12 UNL     1      25.128   4.491  50.078  1.00  0.00     0.145 C 
HETATM   23  C13 UNL     1      25.968   3.253  49.845  1.00  0.00     0.028 C 
ENDBRANCH  21  22
ENDBRANCH   6  19
TORSDOF 6
ENDMDL
MODEL 6
REMARK VINA RESULT:      -6.0      2.090      3.968
REMARK  6 active torsions:
REMARK  status: ('A' for Active; 'I' for Inactive)
REMARK    1  A    between atoms: C2_2  and  C3_3 
REMARK    2  A    between atoms: C4_4  and  C5_5 
REMARK    3  A    between atoms: C5_5  and  C6_6 
REMARK    4  A    between atoms: C6_6  and  N1_7 
REMARK    5  A    between atoms: C10_12  and  C11_13 
REMARK    6  A    between atoms: N3_15  and  C12_16 
ROOT
HETATM    1  N1  UNL     1      24.537   2.269  52.169  1.00  0.00    -0.357 N 
HETATM    2  C7  UNL     1      23.534   1.375  52.635  1.00  0.00     0.200 C 
HETATM    3  N2  UNL     1      22.536   0.665  53.014  1.00  0.00    -0.281 NA
HETATM    4  C8  UNL     1      21.130   1.130  52.846  1.00  0.00     0.186 C 
HETATM    5  C9  UNL     1      21.225   2.196  51.772  1.00  0.00    -0.034 C 
HETATM    6  C10 UNL     1      20.894   3.424  52.127  1.00  0.00     0.045 C 
HETATM    7  C14 UNL     1      21.887   1.533  50.591  1.00  0.00     0.210 C 
HETATM    8  O1  UNL     1      22.270   2.513  49.701  1.00  0.00    -0.356 OA
HETATM    9  C15 UNL     1      23.192   2.477  48.681  1.00  0.00     0.168 C 
HETATM   10  C16 UNL     1      23.863   3.604  48.922  1.00  0.00     0.105 C 
HETATM   11  N4  UNL     1      24.347   3.634  50.137  1.00  0.00    -0.266 NA
HETATM   12  C17 UNL     1      24.711   2.394  50.733  1.00  0.00     0.274 C 
ENDROOT
BRANCH   1  13
HETATM   13  C6  UNL     1      24.996   2.730  53.448  1.00  0.00     0.129 C 
BRANCH  13  14
HETATM   14  C5  UNL     1      26.110   1.753  53.864  1.00  0.00     0.047 C 
BRANCH  14  15
HETATM   15  C4  UNL     1      27.385   2.349  53.423  1.00  0.00    -0.029 C 
HETATM   16  C3  UNL     1      28.594   1.880  53.699  1.00  0.00    -0.031 C 
BRANCH  16  17
HETATM   17  C2  UNL     1      28.974   0.682  54.491  1.00  0.00     0.022 C 
HETATM   18  C1  UNL     1      29.631  -0.392  53.658  1.00  0.00     0.009 C 
ENDBRANCH  16  17
ENDBRANCH  14  15
ENDBRANCH  13  14
ENDBRANCH   1  13
BRANCH   6  19
HETATM   19  C11 UNL     1      20.847   4.717  51.405  1.00  0.00     0.097 C 
HETATM   20 BR1  UNL     1      19.502   5.113  50.117  1.00  0.00    -0.030 Br
HETATM   21  N3  UNL     1      21.682   5.681  51.563  1.00  0.00    -0.283 NA
BRANCH  21  22
HETATM   22  C12 UNL     1      21.692   6.942  50.904  1.00  0.00     0.145 C 
HETATM   23  C13 UNL     1      23.114   7.297  50.523  1.00  0.00     0.028 C 
ENDBRANCH  21  22
ENDBRANCH   6  19
TORSDOF 6
ENDMDL
MODEL 7
REMARK VINA RESULT:      -6.0      2.750      3.969
REMARK  6 active torsions:
REMARK  status: ('A' for Active; 'I' for Inactive)
REMARK    1  A    between atoms: C2_2  and  C3_3 
REMARK    2  A    between atoms: C4_4  and  C5_5 
REMARK    3  A    between atoms: C5_5  and  C6_6 
REMARK    4  A    between atoms: C6_6  and  N1_7 
REMARK    5  A    between atoms: C10_12  and  C11_13 
REMARK    6  A    between atoms: N3_15  and  C12_16 
ROOT
HETATM    1  N1  UNL     1      22.292   3.088  52.431  1.00  0.00    -0.357 N 
HETATM    2  C7  UNL     1      22.985   4.329  52.416  1.00  0.00     0.200 C 
HETATM    3  N2  UNL     1      23.589   5.449  52.264  1.00  0.00    -0.281 NA
HETATM    4  C8  UNL     1      23.729   6.093  50.926  1.00  0.00     0.186 C 
HETATM    5  C9  UNL     1      22.640   5.443  50.095  1.00  0.00    -0.034 C 
HETATM    6  C10 UNL     1      23.037   4.726  49.059  1.00  0.00     0.045 C 
HETATM    7  C14 UNL     1      21.355   5.670  50.849  1.00  0.00     0.210 C 
HETATM    8  O1  UNL     1      20.383   4.857  50.306  1.00  0.00    -0.356 OA
HETATM    9  C15 UNL     1      19.186   4.430  50.830  1.00  0.00     0.168 C 
HETATM   10  C16 UNL     1      19.250   3.127  50.553  1.00  0.00     0.105 C 
HETATM   11  N4  UNL     1      20.327   2.576  51.050  1.00  0.00    -0.266 NA
HETATM   12  C17 UNL     1      20.850   3.120  52.256  1.00  0.00     0.274 C 
ENDROOT
BRANCH   1  13
HETATM   13  C6  UNL     1      23.428   2.232  52.621  1.00  0.00     0.129 C 
BRANCH  13  14
HETATM   14  C5  UNL     1      24.105   2.132  51.244  1.00  0.00     0.047 C 
BRANCH  14  15
HETATM   15  C4  UNL     1      25.560   2.140  51.483  1.00  0.00    -0.029 C 
HETATM   16  C3  UNL     1      26.477   2.624  50.657  1.00  0.00    -0.031 C 
BRANCH  16  17
HETATM   17  C2  UNL     1      26.294   3.261  49.326  1.00  0.00     0.022 C 
HETATM   18  C1  UNL     1      26.903   4.640  49.244  1.00  0.00     0.009 C 
ENDBRANCH  16  17
ENDBRANCH  14  15
ENDBRANCH  13  14
ENDBRANCH   1  13
BRANCH   6  19
HETATM   19  C11 UNL     1      22.319   3.950  48.021  1.00  0.00     0.097 C 
HETATM   20 BR1  UNL     1      22.460   2.056  47.888  1.00  0.00    -0.030 Br
HETATM   21  N3  UNL     1      21.548   4.454  47.125  1.00  0.00    -0.283 NA
BRANCH  21  22
HETATM   22  C12 UNL     1      20.832   3.767  46.105  1.00  0.00     0.145 C 
HETATM   23  C13 UNL     1      21.420   4.120  44.756  1.00  0.00     0.028 C 
ENDBRANCH  21  22
ENDBRANCH   6  19
TORSDOF 6
ENDMDL
MODEL 8
REMARK VINA RESULT:      -5.9      3.835      6.538
REMARK  6 active torsions:
REMARK  status: ('A' for Active; 'I' for Inactive)
REMARK    1  A    between atoms: C2_2  and  C3_3 
REMARK    2  A    between atoms: C4_4  and  C5_5 
REMARK    3  A    between atoms: C5_5  and  C6_6 
REMARK    4  A    between atoms: C6_6  and  N1_7 
REMARK    5  A    between atoms: C10_12  and  C11_13 
REMARK    6  A    between atoms: N3_15  and  C12_16 
ROOT
HETATM    1  N1  UNL     1      19.473   3.837  49.806  1.00  0.00    -0.357 N 
HETATM    2  C7  UNL     1      20.225   4.996  50.141  1.00  0.00     0.200 C 
HETATM    3  N2  UNL     1      20.988   5.956  50.514  1.00  0.00    -0.281 NA
HETATM    4  C8  UNL     1      22.193   5.721  51.360  1.00  0.00     0.186 C 
HETATM    5  C9  UNL     1      22.492   4.248  51.164  1.00  0.00    -0.034 C 
HETATM    6  C10 UNL     1      22.403   3.479  52.234  1.00  0.00     0.045 C 
HETATM    7  C14 UNL     1      22.633   4.050  49.676  1.00  0.00     0.210 C 
HETATM    8  O1  UNL     1      22.609   2.697  49.412  1.00  0.00    -0.356 OA
HETATM    9  C15 UNL     1      22.350   2.023  48.243  1.00  0.00     0.168 C 
HETATM   10  C16 UNL     1      21.484   1.107  48.677  1.00  0.00     0.105 C 
HETATM   11  N4  UNL     1      20.454   1.651  49.269  1.00  0.00    -0.266 NA
HETATM   12  C17 UNL     1      20.034   2.934  48.817  1.00  0.00     0.274 C 
ENDROOT
BRANCH   1  13
HETATM   13  C6  UNL     1      18.362   4.063  50.687  1.00  0.00     0.129 C 
BRANCH  13  14
HETATM   14  C5  UNL     1      18.370   2.883  51.673  1.00  0.00     0.047 C 
BRANCH  14  15
HETATM   15  C4  UNL     1      17.268   1.988  51.274  1.00  0.00    -0.029 C 
HETATM   16  C3  UNL     1      17.310   0.662  51.277  1.00  0.00    -0.031 C 
BRANCH  16  17
HETATM   17  C2  UNL     1      18.426  -0.238  51.665  1.00  0.00     0.022 C 
HETATM   18  C1  UNL     1      18.147  -1.011  52.932  1.00  0.00     0.009 C 
ENDBRANCH  16  17
ENDBRANCH  14  15
ENDBRANCH  13  14
ENDBRANCH   1  13
BRANCH   6  19
HETATM   19  C11 UNL     1      22.609   2.031  52.470  1.00  0.00     0.097 C 
HETATM   20 BR1  UNL     1      24.307   1.199  52.257  1.00  0.00    -0.030 Br
HETATM   21  N3  UNL     1      21.694   1.205  52.831  1.00  0.00    -0.283 NA
BRANCH  21  22
HETATM   22  C12 UNL     1      21.825  -0.191  53.073  1.00  0.00     0.145 C 
HETATM   23  C13 UNL     1      21.573  -0.472  54.539  1.00  0.00     0.028 C 
ENDBRANCH  21  22
ENDBRANCH   6  19
TORSDOF 6
ENDMDL
MODEL 9
REMARK VINA RESULT:      -5.8      2.964      5.218
REMARK  6 active torsions:
REMARK  status: ('A' for Active; 'I' for Inactive)
REMARK    1  A    between atoms: C2_2  and  C3_3 
REMARK    2  A    between atoms: C4_4  and  C5_5 
REMARK    3  A    between atoms: C5_5  and  C6_6 
REMARK    4  A    between atoms: C6_6  and  N1_7 
REMARK    5  A    between atoms: C10_12  and  C11_13 
REMARK    6  A    between atoms: N3_15  and  C12_16 
ROOT
HETATM    1  N1  UNL     1      24.127   3.622  49.481  1.00  0.00    -0.357 N 
HETATM    2  C7  UNL     1      24.503   3.060  50.732  1.00  0.00     0.200 C 
HETATM    3  N2  UNL     1      24.709   2.570  51.899  1.00  0.00    -0.281 NA
HETATM    4  C8  UNL     1      23.612   2.430  52.899  1.00  0.00     0.186 C 
HETATM    5  C9  UNL     1      22.349   2.476  52.062  1.00  0.00    -0.034 C 
HETATM    6  C10 UNL     1      21.530   3.489  52.283  1.00  0.00     0.045 C 
HETATM    7  C14 UNL     1      22.498   1.386  51.031  1.00  0.00     0.210 C 
HETATM    8  O1  UNL     1      21.532   1.568  50.064  1.00  0.00    -0.356 OA
HETATM    9  C15 UNL     1      21.461   1.089  48.777  1.00  0.00     0.168 C 
HETATM   10  C16 UNL     1      21.141   2.204  48.121  1.00  0.00     0.105 C 
HETATM   11  N4  UNL     1      22.005   3.162  48.333  1.00  0.00    -0.266 NA
HETATM   12  C17 UNL     1      23.357   2.788  48.574  1.00  0.00     0.274 C 
ENDROOT
BRANCH   1  13
HETATM   13  C6  UNL     1      24.717   4.917  49.663  1.00  0.00     0.129 C 
BRANCH  13  14
HETATM   14  C5  UNL     1      26.204   4.748  49.307  1.00  0.00     0.047 C 
BRANCH  14  15
HETATM   15  C4  UNL     1      26.641   6.014  48.691  1.00  0.00    -0.029 C 
HETATM   16  C3  UNL     1      27.856   6.269  48.226  1.00  0.00    -0.031 C 
BRANCH  16  17
HETATM   17  C2  UNL     1      29.053   5.388  48.203  1.00  0.00     0.022 C 
HETATM   18  C1  UNL     1      30.331   6.120  48.533  1.00  0.00     0.009 C 
ENDBRANCH  16  17
ENDBRANCH  14  15
ENDBRANCH  13  14
ENDBRANCH   1  13
BRANCH   6  19
HETATM   19  C11 UNL     1      20.229   3.894  51.701  1.00  0.00     0.097 C 
HETATM   20 BR1  UNL     1      20.091   5.228  50.351  1.00  0.00    -0.030 Br
HETATM   21  N3  UNL     1      19.088   3.405  52.033  1.00  0.00    -0.283 NA
BRANCH  21  22
HETATM   22  C12 UNL     1      17.808   3.749  51.516  1.00  0.00     0.145 C 
HETATM   23  C13 UNL     1      17.313   2.634  50.620  1.00  0.00     0.028 C 
ENDBRANCH  21  22
ENDBRANCH   6  19
TORSDOF 6
ENDMDL
