MODEL 1
REMARK VINA RESULT:      -8.1      0.000      0.000
REMARK  2 active torsions:
REMARK  status: ('A' for Active; 'I' for Inactive)
REMARK    1  A    between atoms: N1_7  and  C6_8 
REMARK    2  A    between atoms: N3_11  and  C9_13 
ROOT
HETATM    1  C6  UNL     1      26.658   0.389  52.353  1.00  0.00     0.131 A 
HETATM    2  N2  UNL     1      25.813   1.445  51.913  1.00  0.00     0.000 N 
HETATM    3  C7  UNL     1      26.268   2.243  51.042  1.00  0.00     0.000 A 
HETATM    4  N3  UNL     1      25.705   1.461  51.953  1.00  0.00     0.000 N 
HETATM    5  C8  UNL     1      24.567   1.424  52.533  1.00  0.00     0.183 A 
HETATM    6  C9  UNL     1      25.390   0.362  53.003  1.00  0.00     0.127 A 
HETATM    7  N4  UNL     1      25.255  -0.699  54.017  1.00  0.00    -0.405 N 
HETATM    8  C10 UNL     1      24.332  -0.835  55.182  1.00  0.00     0.121 C 
HETATM    9  C11 UNL     1      23.016  -1.278  54.794  1.00  0.00     0.033 A 
HETATM   10  C12 UNL     1      21.767  -1.824  54.507  1.00  0.00     0.023 A 
HETATM   11  C13 UNL     1      22.284  -0.570  53.972  1.00  0.00     0.070 A 
HETATM   12  C14 UNL     1      22.719   0.430  53.546  1.00  0.00    -0.013 C 
HETATM   13  O1  UNL     1      23.237   1.561  53.065  1.00  0.00    -0.293 OA
HETATM   14  H7  UNL     1      25.873  -1.573  53.993  1.00  0.00     0.154 HD
ENDROOT
BRANCH   1  15
HETATM   15  N1  UNL     1      27.651  -0.687  52.719  1.00  0.00    -0.316 N 
HETATM   16  C1  UNL     1      27.386  -2.034  52.395  1.00  0.00     0.187 A 
HETATM   17  F1  UNL     1      26.302  -2.445  51.701  1.00  0.00    -0.186 F 
HETATM   18  C2  UNL     1      28.372  -2.702  52.891  1.00  0.00     0.038 A 
HETATM   19  C3  UNL     1      29.524  -2.247  53.629  1.00  0.00     0.060 A 
HETATM   20  C4  UNL     1      29.645  -0.815  53.868  1.00  0.00    -0.006 A 
HETATM   21  C5  UNL     1      28.685  -0.064  53.397  1.00  0.00     0.091 A 
ENDBRANCH   1  15
TORSDOF 2
ENDMDL
MODEL 2
REMARK VINA RESULT:      -8.0      1.652      3.513
REMARK  2 active torsions:
REMARK  status: ('A' for Active; 'I' for Inactive)
REMARK    1  A    between atoms: N1_7  and  C6_8 
REMARK    2  A    between atoms: N3_11  and  C9_13 
ROOT
HETATM    1  C6  UNL     1      24.949  -0.518  53.936  1.00  0.00     0.131 A 
HETATM    2  N2  UNL     1      23.543  -0.570  54.144  1.00  0.00     0.000 N 
HETATM    3  C7  UNL     1      23.093  -1.451  54.934  1.00  0.00     0.000 A 
HETATM    4  N3  UNL     1      23.468  -0.498  54.091  1.00  0.00     0.000 N 
HETATM    5  C8  UNL     1      22.861   0.402  53.416  1.00  0.00     0.183 A 
HETATM    6  C9  UNL     1      24.262   0.475  53.179  1.00  0.00     0.127 A 
HETATM    7  N4  UNL     1      25.138   1.286  52.314  1.00  0.00    -0.405 N 
HETATM    8  C10 UNL     1      24.841   2.097  51.098  1.00  0.00     0.121 C 
HETATM    9  C11 UNL     1      24.261   3.378  51.417  1.00  0.00     0.033 A 
HETATM   10  C12 UNL     1      23.817   4.676  51.657  1.00  0.00     0.023 A 
HETATM   11  C13 UNL     1      23.124   3.459  52.059  1.00  0.00     0.070 A 
HETATM   12  C14 UNL     1      22.585   2.471  52.381  1.00  0.00    -0.013 C 
HETATM   13  O1  UNL     1      21.992   1.333  52.747  1.00  0.00    -0.293 OA
HETATM   14  H7  UNL     1      26.185   1.383  52.518  1.00  0.00     0.154 HD
ENDROOT
BRANCH   1  15
HETATM   15  N1  UNL     1      26.453  -0.567  53.820  1.00  0.00    -0.316 N 
HETATM   16  C1  UNL     1      27.062  -1.408  52.865  1.00  0.00     0.187 A 
HETATM   17  F1  UNL     1      26.377  -2.153  51.969  1.00  0.00    -0.186 F 
HETATM   18  C2  UNL     1      28.330  -1.278  53.059  1.00  0.00     0.038 A 
HETATM   19  C3  UNL     1      29.045  -0.475  54.021  1.00  0.00     0.060 A 
HETATM   20  C4  UNL     1      28.256   0.344  54.930  1.00  0.00    -0.006 A 
HETATM   21  C5  UNL     1      26.958   0.271  54.801  1.00  0.00     0.091 A 
ENDBRANCH   1  15
TORSDOF 2
ENDMDL
MODEL 3
REMARK VINA RESULT:      -7.9      2.626      5.568
REMARK  2 active torsions:
REMARK  status: ('A' for Active; 'I' for Inactive)
REMARK    1  A    between atoms: N1_7  and  C6_8 
REMARK    2  A    between atoms: N3_11  and  C9_13 
ROOT
HETATM    1  C6  UNL     1      24.865   2.403  51.262  1.00  0.00     0.131 A 
HETATM    2  N2  UNL     1      24.214   1.340  51.947  1.00  0.00     0.000 N 
HETATM    3  C7  UNL     1      23.019   1.073  51.628  1.00  0.00     0.000 A 
HETATM    4  N3  UNL     1      24.266   1.277  52.031  1.00  0.00     0.000 N 
HETATM    5  C8  UNL     1      25.037   0.735  52.895  1.00  0.00     0.183 A 
HETATM    6  C9  UNL     1      25.713   1.799  52.235  1.00  0.00     0.127 A 
HETATM    7  N4  UNL     1      27.036   2.438  52.360  1.00  0.00    -0.405 N 
HETATM    8  C10 UNL     1      28.031   2.431  53.471  1.00  0.00     0.121 C 
HETATM    9  C11 UNL     1      28.806   1.216  53.510  1.00  0.00     0.033 A 
HETATM   10  C12 UNL     1      29.675   0.127  53.529  1.00  0.00     0.023 A 
HETATM   11  C13 UNL     1      28.227   0.055  53.681  1.00  0.00     0.070 A 
HETATM   12  C14 UNL     1      27.062   0.016  53.794  1.00  0.00    -0.013 C 
HETATM   13  O1  UNL     1      25.734  -0.008  53.910  1.00  0.00    -0.293 OA
HETATM   14  H7  UNL     1      27.450   3.019  51.561  1.00  0.00     0.154 HD
ENDROOT
BRANCH   1  15
HETATM   15  N1  UNL     1      25.434   3.540  50.449  1.00  0.00    -0.316 N 
HETATM   16  C1  UNL     1      26.474   3.299  49.527  1.00  0.00     0.187 A 
HETATM   17  F1  UNL     1      26.976   2.073  49.258  1.00  0.00    -0.186 F 
HETATM   18  C2  UNL     1      26.781   4.458  49.053  1.00  0.00     0.038 A 
HETATM   19  C3  UNL     1      26.233   5.759  49.350  1.00  0.00     0.060 A 
HETATM   20  C4  UNL     1      25.153   5.824  50.325  1.00  0.00    -0.006 A 
HETATM   21  C5  UNL     1      24.780   4.690  50.857  1.00  0.00     0.091 A 
ENDBRANCH   1  15
TORSDOF 2
ENDMDL
MODEL 4
REMARK VINA RESULT:      -7.8      2.174      4.481
REMARK  2 active torsions:
REMARK  status: ('A' for Active; 'I' for Inactive)
REMARK    1  A    between atoms: N1_7  and  C6_8 
REMARK    2  A    between atoms: N3_11  and  C9_13 
ROOT
HETATM    1  C6  UNL     1      25.674   0.625  52.914  1.00  0.00     0.131 A 
HETATM    2  N2  UNL     1      24.272   0.693  52.688  1.00  0.00     0.000 N 
HETATM    3  C7  UNL     1      23.516   0.021  53.449  1.00  0.00     0.000 A 
HETATM    4  N3  UNL     1      24.224   0.757  52.603  1.00  0.00     0.000 N 
HETATM    5  C8  UNL     1      23.944   1.530  51.624  1.00  0.00     0.183 A 
HETATM    6  C9  UNL     1      25.353   1.476  51.817  1.00  0.00     0.127 A 
HETATM    7  N4  UNL     1      26.528   2.041  51.129  1.00  0.00    -0.405 N 
HETATM    8  C10 UNL     1      26.690   2.598  49.755  1.00  0.00     0.121 C 
HETATM    9  C11 UNL     1      26.192   3.947  49.645  1.00  0.00     0.033 A 
HETATM   10  C12 UNL     1      25.850   5.290  49.499  1.00  0.00     0.023 A 
HETATM   11  C13 UNL     1      24.935   4.222  49.883  1.00  0.00     0.070 A 
HETATM   12  C14 UNL     1      24.217   3.352  50.199  1.00  0.00    -0.013 C 
HETATM   13  O1  UNL     1      23.418   2.349  50.565  1.00  0.00    -0.293 OA
HETATM   14  H7  UNL     1      27.476   2.121  51.622  1.00  0.00     0.154 HD
ENDROOT
BRANCH   1  15
HETATM   15  N1  UNL     1      27.133   0.470  53.273  1.00  0.00    -0.316 N 
HETATM   16  C1  UNL     1      27.858   1.572  53.773  1.00  0.00     0.187 A 
HETATM   17  F1  UNL     1      27.314   2.783  54.026  1.00  0.00    -0.186 F 
HETATM   18  C2  UNL     1      29.066   1.144  53.916  1.00  0.00     0.038 A 
HETATM   19  C3  UNL     1      29.631  -0.154  53.643  1.00  0.00     0.060 A 
HETATM   20  C4  UNL     1      28.733  -1.183  53.136  1.00  0.00    -0.006 A 
HETATM   21  C5  UNL     1      27.486  -0.832  52.962  1.00  0.00     0.091 A 
ENDBRANCH   1  15
TORSDOF 2
ENDMDL
MODEL 5
REMARK VINA RESULT:      -7.7      2.656      5.621
REMARK  2 active torsions:
REMARK  status: ('A' for Active; 'I' for Inactive)
REMARK    1  A    between atoms: N1_7  and  C6_8 
REMARK    2  A    between atoms: N3_11  and  C9_13 
ROOT
HETATM    1  C6  UNL     1      24.805   1.956  52.218  1.00  0.00     0.131 A 
HETATM    2  N2  UNL     1      24.360   0.883  53.039  1.00  0.00     0.000 N 
HETATM    3  C7  UNL     1      23.141   0.550  52.969  1.00  0.00     0.000 A 
HETATM    4  N3  UNL     1      24.431   0.825  53.112  1.00  0.00     0.000 N 
HETATM    5  C8  UNL     1      25.384   0.347  53.815  1.00  0.00     0.183 A 
HETATM    6  C9  UNL     1      25.860   1.423  53.014  1.00  0.00     0.127 A 
HETATM    7  N4  UNL     1      27.145   2.128  52.860  1.00  0.00    -0.405 N 
HETATM    8  C10 UNL     1      28.339   2.201  53.752  1.00  0.00     0.121 C 
HETATM    9  C11 UNL     1      29.170   1.026  53.658  1.00  0.00     0.033 A 
HETATM   10  C12 UNL     1      30.082  -0.018  53.525  1.00  0.00     0.023 A 
HETATM   11  C13 UNL     1      28.699  -0.156  53.963  1.00  0.00     0.070 A 
HETATM   12  C14 UNL     1      27.583  -0.248  54.306  1.00  0.00    -0.013 C 
HETATM   13  O1  UNL     1      26.307  -0.332  54.685  1.00  0.00    -0.293 OA
HETATM   14  H7  UNL     1      27.361   2.705  51.985  1.00  0.00     0.154 HD
ENDROOT
BRANCH   1  15
HETATM   15  N1  UNL     1      25.141   3.095  51.286  1.00  0.00    -0.316 N 
HETATM   16  C1  UNL     1      24.455   4.323  51.394  1.00  0.00     0.187 A 
HETATM   17  F1  UNL     1      23.531   4.591  52.343  1.00  0.00    -0.186 F 
HETATM   18  C2  UNL     1      24.914   5.052  50.435  1.00  0.00     0.038 A 
HETATM   19  C3  UNL     1      25.903   4.750  49.430  1.00  0.00     0.060 A 
HETATM   20  C4  UNL     1      26.520   3.432  49.471  1.00  0.00    -0.006 A 
HETATM   21  C5  UNL     1      26.111   2.627  50.415  1.00  0.00     0.091 A 
ENDBRANCH   1  15
TORSDOF 2
ENDMDL
MODEL 6
REMARK VINA RESULT:      -7.5      1.909      4.905
REMARK  2 active torsions:
REMARK  status: ('A' for Active; 'I' for Inactive)
REMARK    1  A    between atoms: N1_7  and  C6_8 
REMARK    2  A    between atoms: N3_11  and  C9_13 
ROOT
HETATM    1  C6  UNL     1      24.078   1.223  53.216  1.00  0.00     0.131 A 
HETATM    2  N2  UNL     1      24.764   2.425  52.889  1.00  0.00     0.000 N 
HETATM    3  C7  UNL     1      24.095   3.500  52.862  1.00  0.00     0.000 A 
HETATM    4  N3  UNL     1      24.878   2.428  52.865  1.00  0.00     0.000 N 
HETATM    5  C8  UNL     1      26.119   2.216  52.649  1.00  0.00     0.183 A 
HETATM    6  C9  UNL     1      25.461   0.994  52.963  1.00  0.00     0.127 A 
HETATM    7  N4  UNL     1      25.860  -0.424  53.033  1.00  0.00    -0.405 N 
HETATM    8  C10 UNL     1      27.029  -1.147  52.453  1.00  0.00     0.121 C 
HETATM    9  C11 UNL     1      28.234  -0.949  53.220  1.00  0.00     0.033 A 
HETATM   10  C12 UNL     1      29.401  -0.906  53.979  1.00  0.00     0.023 A 
HETATM   11  C13 UNL     1      28.735   0.248  53.388  1.00  0.00     0.070 A 
HETATM   12  C14 UNL     1      28.181   1.164  52.912  1.00  0.00    -0.013 C 
HETATM   13  O1  UNL     1      27.531   2.194  52.370  1.00  0.00    -0.293 OA
HETATM   14  H7  UNL     1      25.281  -1.137  53.583  1.00  0.00     0.154 HD
ENDROOT
BRANCH   1  15
HETATM   15  N1  UNL     1      23.230   0.030  53.588  1.00  0.00    -0.316 N 
HETATM   16  C1  UNL     1      22.216  -0.417  52.715  1.00  0.00     0.187 A 
HETATM   17  F1  UNL     1      21.977   0.119  51.497  1.00  0.00    -0.186 F 
HETATM   18  C2  UNL     1      21.639  -1.388  53.336  1.00  0.00     0.038 A 
HETATM   19  C3  UNL     1      21.908  -1.949  54.637  1.00  0.00     0.060 A 
HETATM   20  C4  UNL     1      23.002  -1.370  55.404  1.00  0.00    -0.006 A 
HETATM   21  C5  UNL     1      23.642  -0.377  54.846  1.00  0.00     0.091 A 
ENDBRANCH   1  15
TORSDOF 2
ENDMDL
MODEL 7
REMARK VINA RESULT:      -7.4      2.111      5.296
REMARK  2 active torsions:
REMARK  status: ('A' for Active; 'I' for Inactive)
REMARK    1  A    between atoms: N1_7  and  C6_8 
REMARK    2  A    between atoms: N3_11  and  C9_13 
ROOT
HETATM    1  C6  UNL     1      24.806  -0.416  53.051  1.00  0.00     0.131 A 
HETATM    2  N2  UNL     1      26.146  -0.425  52.575  1.00  0.00     0.000 N 
HETATM    3  C7  UNL     1      26.801  -1.504  52.669  1.00  0.00     0.000 A 
HETATM    4  N3  UNL     1      26.198  -0.331  52.529  1.00  0.00     0.000 N 
HETATM    5  C8  UNL     1      26.534   0.807  52.054  1.00  0.00     0.183 A 
HETATM    6  C9  UNL     1      25.194   0.853  52.530  1.00  0.00     0.127 A 
HETATM    7  N4  UNL     1      24.160   1.896  52.653  1.00  0.00    -0.405 N 
HETATM    8  C10 UNL     1      24.258   3.384  52.646  1.00  0.00     0.121 C 
HETATM    9  C11 UNL     1      24.397   3.922  51.315  1.00  0.00     0.033 A 
HETATM   10  C12 UNL     1      24.405   4.515  50.055  1.00  0.00     0.023 A 
HETATM   11  C13 UNL     1      25.417   3.597  50.562  1.00  0.00     0.070 A 
HETATM   12  C14 UNL     1      26.215   2.851  50.984  1.00  0.00    -0.013 C 
HETATM   13  O1  UNL     1      27.109   1.994  51.479  1.00  0.00    -0.293 OA
HETATM   14  H7  UNL     1      23.124   1.643  52.756  1.00  0.00     0.154 HD
ENDROOT
BRANCH   1  15
HETATM   15  N1  UNL     1      23.399  -0.552  53.581  1.00  0.00    -0.316 N 
HETATM   16  C1  UNL     1      23.180  -0.989  54.904  1.00  0.00     0.187 A 
HETATM   17  F1  UNL     1      24.169  -1.244  55.789  1.00  0.00    -0.186 F 
HETATM   18  C2  UNL     1      21.899  -1.065  55.027  1.00  0.00     0.038 A 
HETATM   19  C3  UNL     1      20.855  -0.787  54.072  1.00  0.00     0.060 A 
HETATM   20  C4  UNL     1      21.260  -0.335  52.748  1.00  0.00    -0.006 A 
HETATM   21  C5  UNL     1      22.546  -0.230  52.538  1.00  0.00     0.091 A 
ENDBRANCH   1  15
TORSDOF 2
ENDMDL
MODEL 8
REMARK VINA RESULT:      -7.3      2.991      5.350
REMARK  2 active torsions:
REMARK  status: ('A' for Active; 'I' for Inactive)
REMARK    1  A    between atoms: N1_7  and  C6_8 
REMARK    2  A    between atoms: N3_11  and  C9_13 
ROOT
HETATM    1  C6  UNL     1      25.047   2.684  51.796  1.00  0.00     0.131 A 
HETATM    2  N2  UNL     1      26.015   1.765  52.289  1.00  0.00     0.000 N 
HETATM    3  C7  UNL     1      27.234   2.099  52.225  1.00  0.00     0.000 A 
HETATM    4  N3  UNL     1      25.986   1.662  52.334  1.00  0.00     0.000 N 
HETATM    5  C8  UNL     1      25.437   0.601  52.789  1.00  0.00     0.183 A 
HETATM    6  C9  UNL     1      24.444   1.493  52.296  1.00  0.00     0.127 A 
HETATM    7  N4  UNL     1      22.979   1.448  52.139  1.00  0.00    -0.405 N 
HETATM    8  C10 UNL     1      22.027   0.300  52.117  1.00  0.00     0.121 C 
HETATM    9  C11 UNL     1      21.727  -0.193  53.438  1.00  0.00     0.033 A 
HETATM   10  C12 UNL     1      21.295  -0.637  54.686  1.00  0.00     0.023 A 
HETATM   11  C13 UNL     1      22.673  -0.663  54.210  1.00  0.00     0.070 A 
HETATM   12  C14 UNL     1      23.775  -0.669  53.814  1.00  0.00    -0.013 C 
HETATM   13  O1  UNL     1      25.024  -0.659  53.348  1.00  0.00    -0.293 OA
HETATM   14  H7  UNL     1      22.404   2.345  52.027  1.00  0.00     0.154 HD
ENDROOT
BRANCH   1  15
HETATM   15  N1  UNL     1      24.131   3.754  51.251  1.00  0.00    -0.316 N 
HETATM   16  C1  UNL     1      23.524   4.678  52.127  1.00  0.00     0.187 A 
HETATM   17  F1  UNL     1      23.757   4.723  53.458  1.00  0.00    -0.186 F 
HETATM   18  C2  UNL     1      22.764   5.403  51.379  1.00  0.00     0.038 A 
HETATM   19  C3  UNL     1      22.528   5.343  49.958  1.00  0.00     0.060 A 
HETATM   20  C4  UNL     1      23.248   4.328  49.201  1.00  0.00    -0.006 A 
HETATM   21  C5  UNL     1      24.042   3.547  49.885  1.00  0.00     0.091 A 
ENDBRANCH   1  15
TORSDOF 2
ENDMDL
MODEL 9
REMARK VINA RESULT:      -7.2      2.973      5.356
REMARK  2 active torsions:
REMARK  status: ('A' for Active; 'I' for Inactive)
REMARK    1  A    between atoms: N1_7  and  C6_8 
REMARK    2  A    between atoms: N3_11  and  C9_13 
ROOT
HETATM    1  C6  UNL     1      24.784   2.738  51.447  1.00  0.00     0.131 A 
HETATM    2  N2  UNL     1      25.839   1.904  51.911  1.00  0.00     0.000 N 
HETATM    3  C7  UNL     1      27.028   2.308  51.751  1.00  0.00     0.000 A 
HETATM    4  N3  UNL     1      25.820   1.801  51.962  1.00  0.00     0.000 N 
HETATM    5  C8  UNL     1      25.370   0.730  52.497  1.00  0.00     0.183 A 
HETATM    6  C9  UNL     1      24.292   1.537  52.035  1.00  0.00     0.127 A 
HETATM    7  N4  UNL     1      22.826   1.395  51.979  1.00  0.00    -0.405 N 
HETATM    8  C10 UNL     1      21.950   0.191  52.068  1.00  0.00     0.121 C 
HETATM    9  C11 UNL     1      21.768  -0.259  53.426  1.00  0.00     0.033 A 
HETATM   10  C12 UNL     1      21.447  -0.672  54.717  1.00  0.00     0.023 A 
HETATM   11  C13 UNL     1      22.790  -0.636  54.151  1.00  0.00     0.070 A 
HETATM   12  C14 UNL     1      23.862  -0.592  53.682  1.00  0.00    -0.013 C 
HETATM   13  O1  UNL     1      25.076  -0.526  53.133  1.00  0.00    -0.293 OA
HETATM   14  H7  UNL     1      22.189   2.249  51.870  1.00  0.00     0.154 HD
ENDROOT
BRANCH   1  15
HETATM   15  N1  UNL     1      23.769   3.725  50.922  1.00  0.00    -0.316 N 
HETATM   16  C1  UNL     1      23.392   3.697  49.563  1.00  0.00     0.187 A 
HETATM   17  F1  UNL     1      23.838   2.781  48.675  1.00  0.00    -0.186 F 
HETATM   18  C2  UNL     1      22.580   4.686  49.417  1.00  0.00     0.038 A 
HETATM   19  C3  UNL     1      22.113   5.655  50.378  1.00  0.00     0.060 A 
HETATM   20  C4  UNL     1      22.598   5.531  51.746  1.00  0.00    -0.006 A 
HETATM   21  C5  UNL     1      23.430   4.551  51.981  1.00  0.00     0.091 A 
ENDBRANCH   1  15
TORSDOF 2
ENDMDL
