MODEL 1
REMARK VINA RESULT:      -9.1      0.000      0.000
REMARK  4 active torsions:
REMARK  status: ('A' for Active; 'I' for Inactive)
REMARK    1  A    between atoms: O1_1  and  C1_2 
REMARK    2  A    between atoms: C3_5  and  N1_6 
REMARK    3  A    between atoms: C4_8  and  C5_9 
REMARK    4  A    between atoms: C5_9  and  C6_10 
ROOT
HETATM    1  N1  UNL     1      24.767   2.076  52.195  1.00  0.00    -0.207 N 
HETATM    2  N2  UNL     1      24.953   3.396  51.694  1.00  0.00    -0.172 NA
HETATM    3  C4  UNL     1      24.241   3.929  50.710  1.00  0.00     0.055 C 
HETATM    4  C12 UNL     1      23.139   3.544  49.827  1.00  0.00     0.176 C 
HETATM    5  N3  UNL     1      22.613   2.218  49.992  1.00  0.00    -0.383 N 
HETATM    6  C13 UNL     1      22.606   1.369  51.146  1.00  0.00     0.057 A 
HETATM    7  C14 UNL     1      21.481   0.548  51.216  1.00  0.00     0.033 A 
HETATM    8  C15 UNL     1      21.383  -0.301  52.327  1.00  0.00     0.021 A 
HETATM    9  C16 UNL     1      22.375  -0.298  53.294  1.00  0.00     0.013 A 
HETATM   10 BR1  UNL     1      22.184  -1.471  54.778  1.00  0.00    -0.051 Br
HETATM   11  C17 UNL     1      23.488   0.513  53.227  1.00  0.00     0.053 A 
HETATM   12  C18 UNL     1      23.564   1.328  52.139  1.00  0.00     0.088 A 
HETATM   13  H11 UNL     1      22.142   1.759  49.154  1.00  0.00     0.160 HD
ENDROOT
BRANCH   3  14
HETATM   14  C5  UNL     1      24.656   5.321  50.396  1.00  0.00     0.096 C 
BRANCH  14  15
HETATM   15  C6  UNL     1      25.916   5.406  49.631  1.00  0.00    -0.052 A 
HETATM   16  C7  UNL     1      26.773   4.412  49.244  1.00  0.00     0.010 A 
HETATM   17  C8  UNL     1      27.889   4.728  48.532  1.00  0.00     0.043 A 
HETATM   18  C9  UNL     1      28.231   6.016  48.161  1.00  0.00     0.116 A 
HETATM   19  F1  UNL     1      29.349   6.304  47.449  1.00  0.00    -0.206 F 
HETATM   20  C10 UNL     1      27.375   7.042  48.544  1.00  0.00     0.043 A 
HETATM   21  C11 UNL     1      26.259   6.688  49.259  1.00  0.00     0.010 A 
ENDBRANCH  14  15
ENDBRANCH   3  14
BRANCH   1  22
HETATM   22  C3  UNL     1      25.941   1.472  52.806  1.00  0.00     0.196 A 
HETATM   23  S1  UNL     1      26.601   0.054  52.010  1.00  0.00    -0.058 SA
HETATM   24  C2  UNL     1      28.008  -0.297  53.214  1.00  0.00     0.111 A 
HETATM   25  C1  UNL     1      27.684   0.784  54.023  1.00  0.00     0.171 A 
HETATM   26  N4  UNL     1      26.721   1.700  53.933  1.00  0.00    -0.198 NA
BRANCH  25  27
HETATM   27  O1  UNL     1      28.387   1.136  55.197  1.00  0.00    -0.344 OA
HETATM   28  H1  UNL     1      28.380   0.438  55.926  1.00  0.00     0.219 HD
ENDBRANCH  25  27
ENDBRANCH   1  22
TORSDOF 4
ENDMDL
MODEL 2
REMARK VINA RESULT:      -9.0      3.895      5.672
REMARK  4 active torsions:
REMARK  status: ('A' for Active; 'I' for Inactive)
REMARK    1  A    between atoms: O1_1  and  C1_2 
REMARK    2  A    between atoms: C3_5  and  N1_6 
REMARK    3  A    between atoms: C4_8  and  C5_9 
REMARK    4  A    between atoms: C5_9  and  C6_10 
ROOT
HETATM    1  N1  UNL     1      23.116   1.379  51.990  1.00  0.00    -0.207 N 
HETATM    2  N2  UNL     1      24.466   0.953  51.836  1.00  0.00    -0.172 NA
HETATM    3  C4  UNL     1      25.053   0.041  52.599  1.00  0.00     0.055 C 
HETATM    4  C12 UNL     1      24.710  -0.820  53.732  1.00  0.00     0.176 C 
HETATM    5  N3  UNL     1      23.373  -0.711  54.243  1.00  0.00    -0.383 N 
HETATM    6  C13 UNL     1      22.168  -0.302  53.586  1.00  0.00     0.057 A 
HETATM    7  C14 UNL     1      21.032  -0.955  54.065  1.00  0.00     0.033 A 
HETATM    8  C15 UNL     1      19.810  -0.629  53.460  1.00  0.00     0.021 A 
HETATM    9  C16 UNL     1      19.768   0.303  52.435  1.00  0.00     0.013 A 
HETATM   10 BR1  UNL     1      18.081   0.701  51.655  1.00  0.00    -0.051 Br
HETATM   11  C17 UNL     1      20.889   0.949  51.961  1.00  0.00     0.053 A 
HETATM   12  C18 UNL     1      22.065   0.619  52.563  1.00  0.00     0.088 A 
HETATM   13  H11 UNL     1      23.205  -0.971  55.263  1.00  0.00     0.160 HD
ENDROOT
BRANCH   3  14
HETATM   14  C5  UNL     1      26.467  -0.204  52.209  1.00  0.00     0.096 C 
BRANCH  14  15
HETATM   15  C6  UNL     1      27.433   0.666  52.910  1.00  0.00    -0.052 A 
HETATM   16  C7  UNL     1      27.662   2.008  52.772  1.00  0.00     0.010 A 
HETATM   17  C8  UNL     1      28.615   2.607  53.537  1.00  0.00     0.043 A 
HETATM   18  C9  UNL     1      29.391   1.941  54.468  1.00  0.00     0.116 A 
HETATM   19  F1  UNL     1      30.335   2.564  55.219  1.00  0.00    -0.206 F 
HETATM   20  C10 UNL     1      29.176   0.577  54.625  1.00  0.00     0.043 A 
HETATM   21  C11 UNL     1      28.207   0.006  53.840  1.00  0.00     0.010 A 
ENDBRANCH  14  15
ENDBRANCH   3  14
BRANCH   1  22
HETATM   22  C3  UNL     1      22.830   2.723  51.512  1.00  0.00     0.196 A 
HETATM   23  S1  UNL     1      23.037   3.006  49.792  1.00  0.00    -0.058 SA
HETATM   24  C2  UNL     1      22.589   4.836  49.767  1.00  0.00     0.111 A 
HETATM   25  C1  UNL     1      22.359   4.874  51.137  1.00  0.00     0.171 A 
HETATM   26  N4  UNL     1      22.441   3.932  52.074  1.00  0.00    -0.198 NA
BRANCH  25  27
HETATM   27  O1  UNL     1      21.960   6.031  51.843  1.00  0.00    -0.344 OA
HETATM   28  H1  UNL     1      21.275   5.876  52.567  1.00  0.00     0.219 HD
ENDBRANCH  25  27
ENDBRANCH   1  22
TORSDOF 4
ENDMDL
MODEL 3
REMARK VINA RESULT:      -8.6      3.789      6.236
REMARK  4 active torsions:
REMARK  status: ('A' for Active; 'I' for Inactive)
REMARK    1  A    between atoms: O1_1  and  C1_2 
REMARK    2  A    between atoms: C3_5  and  N1_6 
REMARK    3  A    between atoms: C4_8  and  C5_9 
REMARK    4  A    between atoms: C5_9  and  C6_10 
ROOT
HETATM    1  N1  UNL     1      24.184   3.154  51.308  1.00  0.00    -0.207 N 
HETATM    2  N2  UNL     1      24.983   2.611  52.355  1.00  0.00    -0.172 NA
HETATM    3  C4  UNL     1      24.633   1.569  53.098  1.00  0.00     0.055 C 
HETATM    4  C12 UNL     1      23.513   0.635  53.209  1.00  0.00     0.176 C 
HETATM    5  N3  UNL     1      22.421   0.824  52.297  1.00  0.00    -0.383 N 
HETATM    6  C13 UNL     1      22.404   1.420  50.995  1.00  0.00     0.057 A 
HETATM    7  C14 UNL     1      21.470   0.840  50.137  1.00  0.00     0.033 A 
HETATM    8  C15 UNL     1      21.402   1.349  48.833  1.00  0.00     0.021 A 
HETATM    9  C16 UNL     1      22.241   2.382  48.446  1.00  0.00     0.013 A 
HETATM   10 BR1  UNL     1      22.102   3.029  46.663  1.00  0.00    -0.051 Br
HETATM   11  C17 UNL     1      23.165   2.957  49.292  1.00  0.00     0.053 A 
HETATM   12  C18 UNL     1      23.213   2.448  50.554  1.00  0.00     0.088 A 
HETATM   13  H11 UNL     1      21.457   0.478  52.592  1.00  0.00     0.160 HD
ENDROOT
BRANCH   3  14
HETATM   14  C5  UNL     1      25.662   1.225  54.115  1.00  0.00     0.096 C 
BRANCH  14  15
HETATM   15  C6  UNL     1      26.565   0.134  53.698  1.00  0.00    -0.052 A 
HETATM   16  C7  UNL     1      26.310  -0.965  52.924  1.00  0.00     0.010 A 
HETATM   17  C8  UNL     1      27.312  -1.849  52.664  1.00  0.00     0.043 A 
HETATM   18  C9  UNL     1      28.604  -1.715  53.138  1.00  0.00     0.116 A 
HETATM   19  F1  UNL     1      29.585  -2.611  52.863  1.00  0.00    -0.206 F 
HETATM   20  C10 UNL     1      28.885  -0.606  53.927  1.00  0.00     0.043 A 
HETATM   21  C11 UNL     1      27.854   0.265  54.167  1.00  0.00     0.010 A 
ENDBRANCH  14  15
ENDBRANCH   3  14
BRANCH   1  22
HETATM   22  C3  UNL     1      24.409   4.562  51.021  1.00  0.00     0.196 A 
HETATM   23  S1  UNL     1      25.658   4.935  49.846  1.00  0.00    -0.058 SA
HETATM   24  C2  UNL     1      25.534   6.814  49.914  1.00  0.00     0.111 A 
HETATM   25  C1  UNL     1      24.519   6.787  50.861  1.00  0.00     0.171 A 
HETATM   26  N4  UNL     1      23.899   5.776  51.466  1.00  0.00    -0.198 NA
BRANCH  25  27
HETATM   27  O1  UNL     1      23.907   7.940  51.402  1.00  0.00    -0.344 OA
HETATM   28  H1  UNL     1      22.968   8.120  51.078  1.00  0.00     0.219 HD
ENDBRANCH  25  27
ENDBRANCH   1  22
TORSDOF 4
ENDMDL
MODEL 4
REMARK VINA RESULT:      -8.5      3.726      6.672
REMARK  4 active torsions:
REMARK  status: ('A' for Active; 'I' for Inactive)
REMARK    1  A    between atoms: O1_1  and  C1_2 
REMARK    2  A    between atoms: C3_5  and  N1_6 
REMARK    3  A    between atoms: C4_8  and  C5_9 
REMARK    4  A    between atoms: C5_9  and  C6_10 
ROOT
HETATM    1  N1  UNL     1      25.020   2.662  50.849  1.00  0.00    -0.207 N 
HETATM    2  N2  UNL     1      23.827   1.887  50.906  1.00  0.00    -0.172 NA
HETATM    3  C4  UNL     1      22.610   2.372  50.690  1.00  0.00     0.055 C 
HETATM    4  C12 UNL     1      21.990   3.653  50.350  1.00  0.00     0.176 C 
HETATM    5  N3  UNL     1      22.871   4.774  50.191  1.00  0.00    -0.383 N 
HETATM    6  C13 UNL     1      24.254   4.812  49.818  1.00  0.00     0.057 A 
HETATM    7  C14 UNL     1      24.594   5.948  49.086  1.00  0.00     0.033 A 
HETATM    8  C15 UNL     1      25.926   6.054  48.660  1.00  0.00     0.021 A 
HETATM    9  C16 UNL     1      26.837   5.056  48.970  1.00  0.00     0.013 A 
HETATM   10 BR1  UNL     1      28.627   5.257  48.364  1.00  0.00    -0.051 Br
HETATM   11  C17 UNL     1      26.501   3.932  49.694  1.00  0.00     0.053 A 
HETATM   12  C18 UNL     1      25.204   3.850  50.098  1.00  0.00     0.088 A 
HETATM   13  H11 UNL     1      22.476   5.749  50.362  1.00  0.00     0.160 HD
ENDROOT
BRANCH   3  14
HETATM   14  C5  UNL     1      21.553   1.334  50.817  1.00  0.00     0.096 C 
BRANCH  14  15
HETATM   15  C6  UNL     1      21.527   0.674  52.138  1.00  0.00    -0.052 A 
HETATM   16  C7  UNL     1      20.874   1.037  53.284  1.00  0.00     0.010 A 
HETATM   17  C8  UNL     1      20.993   0.263  54.397  1.00  0.00     0.043 A 
HETATM   18  C9  UNL     1      21.748  -0.895  54.458  1.00  0.00     0.116 A 
HETATM   19  F1  UNL     1      21.850  -1.649  55.581  1.00  0.00    -0.206 F 
HETATM   20  C10 UNL     1      22.420  -1.282  53.305  1.00  0.00     0.043 A 
HETATM   21  C11 UNL     1      22.277  -0.481  52.201  1.00  0.00     0.010 A 
ENDBRANCH  14  15
ENDBRANCH   3  14
BRANCH   1  22
HETATM   22  C3  UNL     1      26.125   2.160  51.652  1.00  0.00     0.196 A 
HETATM   23  S1  UNL     1      25.957   0.535  52.292  1.00  0.00    -0.058 SA
HETATM   24  C2  UNL     1      27.587   0.451  53.235  1.00  0.00     0.111 A 
HETATM   25  C1  UNL     1      27.955   1.736  52.859  1.00  0.00     0.171 A 
HETATM   26  N4  UNL     1      27.343   2.648  52.107  1.00  0.00    -0.198 NA
BRANCH  25  27
HETATM   27  O1  UNL     1      29.162   2.361  53.246  1.00  0.00    -0.344 OA
HETATM   28  H1  UNL     1      29.128   2.849  54.128  1.00  0.00     0.219 HD
ENDBRANCH  25  27
ENDBRANCH   1  22
TORSDOF 4
ENDMDL
MODEL 5
REMARK VINA RESULT:      -8.5      2.088      2.564
REMARK  4 active torsions:
REMARK  status: ('A' for Active; 'I' for Inactive)
REMARK    1  A    between atoms: O1_1  and  C1_2 
REMARK    2  A    between atoms: C3_5  and  N1_6 
REMARK    3  A    between atoms: C4_8  and  C5_9 
REMARK    4  A    between atoms: C5_9  and  C6_10 
ROOT
HETATM    1  N1  UNL     1      25.224   1.586  51.761  1.00  0.00    -0.207 N 
HETATM    2  N2  UNL     1      25.766   2.745  51.137  1.00  0.00    -0.172 NA
HETATM    3  C4  UNL     1      25.186   3.396  50.136  1.00  0.00     0.055 C 
HETATM    4  C12 UNL     1      23.965   3.301  49.335  1.00  0.00     0.176 C 
HETATM    5  N3  UNL     1      23.077   2.215  49.638  1.00  0.00    -0.383 N 
HETATM    6  C13 UNL     1      22.887   1.497  50.862  1.00  0.00     0.057 A 
HETATM    7  C14 UNL     1      21.575   1.065  51.049  1.00  0.00     0.033 A 
HETATM    8  C15 UNL     1      21.297   0.371  52.235  1.00  0.00     0.021 A 
HETATM    9  C16 UNL     1      22.304   0.142  53.159  1.00  0.00     0.013 A 
HETATM   10 BR1  UNL     1      21.863  -0.804  54.748  1.00  0.00    -0.051 Br
HETATM   11  C17 UNL     1      23.602   0.568  52.976  1.00  0.00     0.053 A 
HETATM   12  C18 UNL     1      23.850   1.239  51.818  1.00  0.00     0.088 A 
HETATM   13  H11 UNL     1      22.437   1.861  48.863  1.00  0.00     0.160 HD
ENDROOT
BRANCH   3  14
HETATM   14  C5  UNL     1      25.980   4.568  49.684  1.00  0.00     0.096 C 
BRANCH  14  15
HETATM   15  C6  UNL     1      25.223   5.836  49.698  1.00  0.00    -0.052 A 
HETATM   16  C7  UNL     1      24.633   6.492  50.744  1.00  0.00     0.010 A 
HETATM   17  C8  UNL     1      23.983   7.666  50.518  1.00  0.00     0.043 A 
HETATM   18  C9  UNL     1      23.870   8.261  49.275  1.00  0.00     0.116 A 
HETATM   19  F1  UNL     1      23.216   9.434  49.078  1.00  0.00    -0.206 F 
HETATM   20  C10 UNL     1      24.461   7.612  48.198  1.00  0.00     0.043 A 
HETATM   21  C11 UNL     1      25.110   6.433  48.461  1.00  0.00     0.010 A 
ENDBRANCH  14  15
ENDBRANCH   3  14
BRANCH   1  22
HETATM   22  C3  UNL     1      26.198   0.700  52.378  1.00  0.00     0.196 A 
HETATM   23  S1  UNL     1      27.372   1.446  53.449  1.00  0.00    -0.058 SA
HETATM   24  C2  UNL     1      28.348  -0.104  53.894  1.00  0.00     0.111 A 
HETATM   25  C1  UNL     1      27.552  -0.922  53.103  1.00  0.00     0.171 A 
HETATM   26  N4  UNL     1      26.498  -0.656  52.335  1.00  0.00    -0.198 NA
BRANCH  25  27
HETATM   27  O1  UNL     1      27.739  -2.316  52.964  1.00  0.00    -0.344 OA
HETATM   28  H1  UNL     1      28.591  -2.677  53.367  1.00  0.00     0.219 HD
ENDBRANCH  25  27
ENDBRANCH   1  22
TORSDOF 4
ENDMDL
MODEL 6
REMARK VINA RESULT:      -8.4      2.766      4.327
REMARK  4 active torsions:
REMARK  status: ('A' for Active; 'I' for Inactive)
REMARK    1  A    between atoms: O1_1  and  C1_2 
REMARK    2  A    between atoms: C3_5  and  N1_6 
REMARK    3  A    between atoms: C4_8  and  C5_9 
REMARK    4  A    between atoms: C5_9  and  C6_10 
ROOT
HETATM    1  N1  UNL     1      23.641   1.927  51.354  1.00  0.00    -0.207 N 
HETATM    2  N2  UNL     1      24.535   2.432  50.367  1.00  0.00    -0.172 NA
HETATM    3  C4  UNL     1      25.835   2.615  50.560  1.00  0.00     0.055 C 
HETATM    4  C12 UNL     1      26.816   2.431  51.629  1.00  0.00     0.176 C 
HETATM    5  N3  UNL     1      26.325   1.915  52.875  1.00  0.00    -0.383 N 
HETATM    6  C13 UNL     1      25.183   1.092  53.142  1.00  0.00     0.057 A 
HETATM    7  C14 UNL     1      25.373   0.221  54.215  1.00  0.00     0.033 A 
HETATM    8  C15 UNL     1      24.311  -0.637  54.532  1.00  0.00     0.021 A 
HETATM    9  C16 UNL     1      23.139  -0.597  53.792  1.00  0.00     0.013 A 
HETATM   10 BR1  UNL     1      21.736  -1.786  54.270  1.00  0.00    -0.051 Br
HETATM   11  C17 UNL     1      22.950   0.264  52.732  1.00  0.00     0.053 A 
HETATM   12  C18 UNL     1      23.993   1.089  52.442  1.00  0.00     0.088 A 
HETATM   13  H11 UNL     1      26.865   2.151  53.762  1.00  0.00     0.160 HD
ENDROOT
BRANCH   3  14
HETATM   14  C5  UNL     1      26.518   3.155  49.355  1.00  0.00     0.096 C 
BRANCH  14  15
HETATM   15  C6  UNL     1      26.540   4.630  49.298  1.00  0.00    -0.052 A 
HETATM   16  C7  UNL     1      25.670   5.540  49.835  1.00  0.00     0.010 A 
HETATM   17  C8  UNL     1      25.895   6.870  49.656  1.00  0.00     0.043 A 
HETATM   18  C9  UNL     1      26.967   7.385  48.950  1.00  0.00     0.116 A 
HETATM   19  F1  UNL     1      27.169   8.717  48.787  1.00  0.00    -0.206 F 
HETATM   20  C10 UNL     1      27.864   6.480  48.395  1.00  0.00     0.043 A 
HETATM   21  C11 UNL     1      27.608   5.147  48.597  1.00  0.00     0.010 A 
ENDBRANCH  14  15
ENDBRANCH   3  14
BRANCH   1  22
HETATM   22  C3  UNL     1      22.253   2.335  51.202  1.00  0.00     0.196 A 
HETATM   23  S1  UNL     1      21.524   2.072  49.627  1.00  0.00    -0.058 SA
HETATM   24  C2  UNL     1      19.824   2.795  49.997  1.00  0.00     0.111 A 
HETATM   25  C1  UNL     1      20.161   3.109  51.307  1.00  0.00     0.171 A 
HETATM   26  N4  UNL     1      21.287   2.939  51.997  1.00  0.00    -0.198 NA
BRANCH  25  27
HETATM   27  O1  UNL     1      19.282   3.724  52.227  1.00  0.00    -0.344 OA
HETATM   28  H1  UNL     1      18.442   4.113  51.824  1.00  0.00     0.219 HD
ENDBRANCH  25  27
ENDBRANCH   1  22
TORSDOF 4
ENDMDL
MODEL 7
REMARK VINA RESULT:      -8.3      3.846      6.867
REMARK  4 active torsions:
REMARK  status: ('A' for Active; 'I' for Inactive)
REMARK    1  A    between atoms: O1_1  and  C1_2 
REMARK    2  A    between atoms: C3_5  and  N1_6 
REMARK    3  A    between atoms: C4_8  and  C5_9 
REMARK    4  A    between atoms: C5_9  and  C6_10 
ROOT
HETATM    1  N1  UNL     1      25.213   1.874  52.356  1.00  0.00    -0.207 N 
HETATM    2  N2  UNL     1      24.220   0.949  52.785  1.00  0.00    -0.172 NA
HETATM    3  C4  UNL     1      22.926   1.229  52.874  1.00  0.00     0.055 C 
HETATM    4  C12 UNL     1      22.036   2.364  52.627  1.00  0.00     0.176 C 
HETATM    5  N3  UNL     1      22.648   3.575  52.160  1.00  0.00    -0.383 N 
HETATM    6  C13 UNL     1      23.863   3.767  51.426  1.00  0.00     0.057 A 
HETATM    7  C14 UNL     1      23.812   4.853  50.553  1.00  0.00     0.033 A 
HETATM    8  C15 UNL     1      24.954   5.100  49.778  1.00  0.00     0.021 A 
HETATM    9  C16 UNL     1      26.065   4.282  49.898  1.00  0.00     0.013 A 
HETATM   10 BR1  UNL     1      27.582   4.667  48.819  1.00  0.00    -0.051 Br
HETATM   11  C17 UNL     1      26.118   3.207  50.760  1.00  0.00     0.053 A 
HETATM   12  C18 UNL     1      24.999   2.987  51.504  1.00  0.00     0.088 A 
HETATM   13  H11 UNL     1      22.154   4.497  52.364  1.00  0.00     0.160 HD
ENDROOT
BRANCH   3  14
HETATM   14  C5  UNL     1      22.124   0.072  53.351  1.00  0.00     0.096 C 
BRANCH  14  15
HETATM   15  C6  UNL     1      20.805  -0.043  52.699  1.00  0.00    -0.052 A 
HETATM   16  C7  UNL     1      20.412   0.339  51.445  1.00  0.00     0.010 A 
HETATM   17  C8  UNL     1      19.126   0.127  51.052  1.00  0.00     0.043 A 
HETATM   18  C9  UNL     1      18.160  -0.461  51.848  1.00  0.00     0.116 A 
HETATM   19  F1  UNL     1      16.884  -0.661  51.431  1.00  0.00    -0.206 F 
HETATM   20  C10 UNL     1      18.537  -0.856  53.126  1.00  0.00     0.043 A 
HETATM   21  C11 UNL     1      19.840  -0.630  53.489  1.00  0.00     0.010 A 
ENDBRANCH  14  15
ENDBRANCH   3  14
BRANCH   1  22
HETATM   22  C3  UNL     1      26.554   1.625  52.863  1.00  0.00     0.196 A 
HETATM   23  S1  UNL     1      27.205   0.015  52.608  1.00  0.00    -0.058 SA
HETATM   24  C2  UNL     1      28.863   0.260  53.470  1.00  0.00     0.111 A 
HETATM   25  C1  UNL     1      28.582   1.580  53.797  1.00  0.00     0.171 A 
HETATM   26  N4  UNL     1      27.516   2.342  53.563  1.00  0.00    -0.198 NA
BRANCH  25  27
HETATM   27  O1  UNL     1      29.465   2.427  54.504  1.00  0.00    -0.344 OA
HETATM   28  H1  UNL     1      29.660   2.147  55.454  1.00  0.00     0.219 HD
ENDBRANCH  25  27
ENDBRANCH   1  22
TORSDOF 4
ENDMDL
MODEL 8
REMARK VINA RESULT:      -8.3      4.016      5.915
REMARK  4 active torsions:
REMARK  status: ('A' for Active; 'I' for Inactive)
REMARK    1  A    between atoms: O1_1  and  C1_2 
REMARK    2  A    between atoms: C3_5  and  N1_6 
REMARK    3  A    between atoms: C4_8  and  C5_9 
REMARK    4  A    between atoms: C5_9  and  C6_10 
ROOT
HETATM    1  N1  UNL     1      21.763   0.800  52.397  1.00  0.00    -0.207 N 
HETATM    2  N2  UNL     1      22.996   0.285  52.888  1.00  0.00    -0.172 NA
HETATM    3  C4  UNL     1      23.100  -0.566  53.901  1.00  0.00     0.055 C 
HETATM    4  C12 UNL     1      22.216  -1.271  54.829  1.00  0.00     0.176 C 
HETATM    5  N3  UNL     1      20.808  -1.031  54.688  1.00  0.00    -0.383 N 
HETATM    6  C13 UNL     1      20.054  -0.633  53.537  1.00  0.00     0.057 A 
HETATM    7  C14 UNL     1      18.764  -1.162  53.516  1.00  0.00     0.033 A 
HETATM    8  C15 UNL     1      17.964  -0.840  52.411  1.00  0.00     0.021 A 
HETATM    9  C16 UNL     1      18.463  -0.030  51.403  1.00  0.00     0.013 A 
HETATM   10 BR1  UNL     1      17.329   0.370  49.930  1.00  0.00    -0.051 Br
HETATM   11  C17 UNL     1      19.738   0.494  51.423  1.00  0.00     0.053 A 
HETATM   12  C18 UNL     1      20.497   0.170  52.505  1.00  0.00     0.088 A 
HETATM   13  H11 UNL     1      20.190  -1.163  55.546  1.00  0.00     0.160 HD
ENDROOT
BRANCH   3  14
HETATM   14  C5  UNL     1      24.511  -0.931  54.194  1.00  0.00     0.096 C 
BRANCH  14  15
HETATM   15  C6  UNL     1      25.499  -0.026  53.574  1.00  0.00    -0.052 A 
HETATM   16  C7  UNL     1      25.880   0.087  52.264  1.00  0.00     0.010 A 
HETATM   17  C8  UNL     1      26.820   1.008  51.917  1.00  0.00     0.043 A 
HETATM   18  C9  UNL     1      27.436   1.861  52.815  1.00  0.00     0.116 A 
HETATM   19  F1  UNL     1      28.371   2.771  52.442  1.00  0.00    -0.206 F 
HETATM   20  C10 UNL     1      27.065   1.763  54.150  1.00  0.00     0.043 A 
HETATM   21  C11 UNL     1      26.114   0.826  54.465  1.00  0.00     0.010 A 
ENDBRANCH  14  15
ENDBRANCH   3  14
BRANCH   1  22
HETATM   22  C3  UNL     1      21.848   2.094  51.739  1.00  0.00     0.196 A 
HETATM   23  S1  UNL     1      22.796   2.164  50.263  1.00  0.00    -0.058 SA
HETATM   24  C2  UNL     1      22.593   4.003  49.903  1.00  0.00     0.111 A 
HETATM   25  C1  UNL     1      21.807   4.212  51.029  1.00  0.00     0.171 A 
HETATM   26  N4  UNL     1      21.384   3.381  51.980  1.00  0.00    -0.198 NA
BRANCH  25  27
HETATM   27  O1  UNL     1      21.266   5.464  51.399  1.00  0.00    -0.344 OA
HETATM   28  H1  UNL     1      20.277   5.570  51.232  1.00  0.00     0.219 HD
ENDBRANCH  25  27
ENDBRANCH   1  22
TORSDOF 4
ENDMDL
MODEL 9
REMARK VINA RESULT:      -7.9      3.863      5.586
REMARK  4 active torsions:
REMARK  status: ('A' for Active; 'I' for Inactive)
REMARK    1  A    between atoms: O1_1  and  C1_2 
REMARK    2  A    between atoms: C3_5  and  N1_6 
REMARK    3  A    between atoms: C4_8  and  C5_9 
REMARK    4  A    between atoms: C5_9  and  C6_10 
ROOT
HETATM    1  N1  UNL     1      20.746   1.966  51.357  1.00  0.00    -0.207 N 
HETATM    2  N2  UNL     1      21.768   2.459  50.497  1.00  0.00    -0.172 NA
HETATM    3  C4  UNL     1      23.066   2.398  50.768  1.00  0.00     0.055 C 
HETATM    4  C12 UNL     1      23.936   1.901  51.835  1.00  0.00     0.176 C 
HETATM    5  N3  UNL     1      23.291   1.295  52.964  1.00  0.00    -0.383 N 
HETATM    6  C13 UNL     1      22.021   0.638  53.055  1.00  0.00     0.057 A 
HETATM    7  C14 UNL     1      22.005  -0.400  53.985  1.00  0.00     0.033 A 
HETATM    8  C15 UNL     1      20.804  -1.112  54.122  1.00  0.00     0.021 A 
HETATM    9  C16 UNL     1      19.704  -0.773  53.351  1.00  0.00     0.013 A 
HETATM   10 BR1  UNL     1      18.105  -1.776  53.581  1.00  0.00    -0.051 Br
HETATM   11  C17 UNL     1      19.718   0.253  52.430  1.00  0.00     0.053 A 
HETATM   12  C18 UNL     1      20.893   0.931  52.315  1.00  0.00     0.088 A 
HETATM   13  H11 UNL     1      23.802   1.307  53.899  1.00  0.00     0.160 HD
ENDROOT
BRANCH   3  14
HETATM   14  C5  UNL     1      23.901   2.991  49.690  1.00  0.00     0.096 C 
BRANCH  14  15
HETATM   15  C6  UNL     1      24.349   4.367  49.979  1.00  0.00    -0.052 A 
HETATM   16  C7  UNL     1      23.817   5.302  50.826  1.00  0.00     0.010 A 
HETATM   17  C8  UNL     1      24.410   6.522  50.935  1.00  0.00     0.043 A 
HETATM   18  C9  UNL     1      25.540   6.899  50.232  1.00  0.00     0.116 A 
HETATM   19  F1  UNL     1      26.111   8.124  50.360  1.00  0.00    -0.206 F 
HETATM   20  C10 UNL     1      26.096   5.967  49.366  1.00  0.00     0.043 A 
HETATM   21  C11 UNL     1      25.476   4.746  49.282  1.00  0.00     0.010 A 
ENDBRANCH  14  15
ENDBRANCH   3  14
BRANCH   1  22
HETATM   22  C3  UNL     1      19.450   2.611  51.214  1.00  0.00     0.196 A 
HETATM   23  S1  UNL     1      18.739   2.602  49.609  1.00  0.00    -0.058 SA
HETATM   24  C2  UNL     1      17.171   3.568  50.007  1.00  0.00     0.111 A 
HETATM   25  C1  UNL     1      17.512   3.714  51.345  1.00  0.00     0.171 A 
HETATM   26  N4  UNL     1      18.571   3.303  52.038  1.00  0.00    -0.198 NA
BRANCH  25  27
HETATM   27  O1  UNL     1      16.717   4.392  52.297  1.00  0.00    -0.344 OA
HETATM   28  H1  UNL     1      16.675   5.394  52.185  1.00  0.00     0.219 HD
ENDBRANCH  25  27
ENDBRANCH   1  22
TORSDOF 4
ENDMDL
