MODEL 1
REMARK VINA RESULT:      -7.6      0.000      0.000
REMARK  2 active torsions:
REMARK  status: ('A' for Active; 'I' for Inactive)
REMARK    1  A    between atoms: C14_16  and  C15_17 
REMARK    2  A    between atoms: C15_17  and  S1_18 
ROOT
HETATM    1  C1  UNL     1      27.601   9.321  50.228  1.00  0.00     0.038 C 
HETATM    2  C2  UNL     1      27.093   8.592  49.217  1.00  0.00    -0.000 C 
HETATM    3  C3  UNL     1      28.051   7.619  48.580  1.00  0.00     0.083 C 
HETATM    4  C4  UNL     1      27.523   6.263  48.760  1.00  0.00    -0.021 C 
HETATM    5  C5  UNL     1      27.063   5.066  48.572  1.00  0.00    -0.004 C 
HETATM    6  C6  UNL     1      26.584   3.857  49.160  1.00  0.00     0.001 C 
HETATM    7  C7  UNL     1      26.351   3.307  50.307  1.00  0.00     0.013 C 
HETATM    8  C8  UNL     1      25.976   2.387  51.340  1.00  0.00    -0.009 A 
HETATM    9  C9  UNL     1      27.037   1.744  51.934  1.00  0.00     0.015 A 
HETATM   10  C10 UNL     1      26.826   0.804  52.954  1.00  0.00     0.020 A 
HETATM   11  C11 UNL     1      25.490   0.652  53.228  1.00  0.00     0.013 A 
HETATM   12 BR1  UNL     1      25.133  -0.630  54.621  1.00  0.00    -0.051 Br
HETATM   13  C12 UNL     1      24.389   1.265  52.669  1.00  0.00     0.049 A 
HETATM   14  C13 UNL     1      24.672   2.176  51.675  1.00  0.00     0.045 A 
HETATM   15  N1  UNL     1      23.557   2.831  51.089  1.00  0.00    -0.343 N 
HETATM   16  C14 UNL     1      23.551   3.733  49.989  1.00  0.00     0.114 C 
HETATM   17  N2  UNL     1      23.703   4.997  50.224  1.00  0.00    -0.228 NA
HETATM   18  C16 UNL     1      23.700   5.926  49.121  1.00  0.00     0.230 C 
HETATM   19  N3  UNL     1      24.515   6.909  49.385  1.00  0.00    -0.263 NA
HETATM   20  C17 UNL     1      24.690   7.983  48.417  1.00  0.00     0.271 C 
HETATM   21  N4  UNL     1      25.737   8.859  48.909  1.00  0.00    -0.376 N 
HETATM   22  H12 UNL     1      22.596   2.674  51.462  1.00  0.00     0.167 HD
HETATM   23  H19 UNL     1      25.451   9.868  49.063  1.00  0.00     0.161 HD
ENDROOT
BRANCH  16  24
HETATM   24  C15 UNL     1      23.343   2.838  48.795  1.00  0.00     0.149 C 
BRANCH  24  25
HETATM   25  S1  UNL     1      21.836   1.837  49.109  1.00  0.00    -0.175 SA
HETATM   26  H15 UNL     1      21.796   0.741  48.229  1.00  0.00     0.102 HD
ENDBRANCH  24  25
ENDBRANCH  16  24
TORSDOF 2
ENDMDL
MODEL 2
REMARK VINA RESULT:      -7.5      1.440      1.465
REMARK  2 active torsions:
REMARK  status: ('A' for Active; 'I' for Inactive)
REMARK    1  A    between atoms: C14_16  and  C15_17 
REMARK    2  A    between atoms: C15_17  and  S1_18 
ROOT
HETATM    1  C1  UNL     1      28.556   9.214  49.700  1.00  0.00     0.038 C 
HETATM    2  C2  UNL     1      27.411   8.843  49.099  1.00  0.00    -0.000 C 
HETATM    3  C3  UNL     1      27.557   7.799  48.022  1.00  0.00     0.083 C 
HETATM    4  C4  UNL     1      26.794   6.611  48.421  1.00  0.00    -0.021 C 
HETATM    5  C5  UNL     1      25.952   5.628  48.476  1.00  0.00    -0.004 C 
HETATM    6  C6  UNL     1      25.480   4.490  49.198  1.00  0.00     0.001 C 
HETATM    7  C7  UNL     1      25.692   3.810  50.276  1.00  0.00     0.013 C 
HETATM    8  C8  UNL     1      25.617   2.836  51.325  1.00  0.00    -0.009 A 
HETATM    9  C9  UNL     1      26.568   1.845  51.243  1.00  0.00     0.015 A 
HETATM   10  C10 UNL     1      26.612   0.813  52.191  1.00  0.00     0.020 A 
HETATM   11  C11 UNL     1      25.624   0.954  53.133  1.00  0.00     0.013 A 
HETATM   12 BR1  UNL     1      25.631  -0.436  54.467  1.00  0.00    -0.051 Br
HETATM   13  C12 UNL     1      24.650   1.920  53.267  1.00  0.00     0.049 A 
HETATM   14  C13 UNL     1      24.668   2.902  52.300  1.00  0.00     0.045 A 
HETATM   15  N1  UNL     1      23.681   3.917  52.418  1.00  0.00    -0.343 N 
HETATM   16  C14 UNL     1      23.410   4.983  51.517  1.00  0.00     0.114 C 
HETATM   17  N2  UNL     1      24.049   6.098  51.668  1.00  0.00    -0.228 NA
HETATM   18  C16 UNL     1      23.787   7.190  50.762  1.00  0.00     0.230 C 
HETATM   19  N3  UNL     1      24.885   7.867  50.575  1.00  0.00    -0.263 NA
HETATM   20  C17 UNL     1      24.880   9.025  49.692  1.00  0.00     0.271 C 
HETATM   21  N4  UNL     1      26.247   9.497  49.570  1.00  0.00    -0.376 N 
HETATM   22  H12 UNL     1      23.045   3.940  53.244  1.00  0.00     0.167 HD
HETATM   23  H19 UNL     1      26.412  10.498  49.881  1.00  0.00     0.161 HD
ENDROOT
BRANCH  16  24
HETATM   24  C15 UNL     1      22.363   4.412  50.596  1.00  0.00     0.149 C 
BRANCH  24  25
HETATM   25  S1  UNL     1      20.948   3.871  51.634  1.00  0.00    -0.175 SA
HETATM   26  H15 UNL     1      20.607   2.542  51.325  1.00  0.00     0.102 HD
ENDBRANCH  24  25
ENDBRANCH  16  24
TORSDOF 2
ENDMDL
MODEL 3
REMARK VINA RESULT:      -7.3      4.681      7.077
REMARK  2 active torsions:
REMARK  status: ('A' for Active; 'I' for Inactive)
REMARK    1  A    between atoms: C14_16  and  C15_17 
REMARK    2  A    between atoms: C15_17  and  S1_18 
ROOT
HETATM    1  C1  UNL     1      27.780  -0.522  53.116  1.00  0.00     0.038 C 
HETATM    2  C2  UNL     1      26.776   0.013  53.834  1.00  0.00    -0.000 C 
HETATM    3  C3  UNL     1      26.858   1.503  54.046  1.00  0.00     0.083 C 
HETATM    4  C4  UNL     1      25.680   2.124  53.432  1.00  0.00    -0.021 C 
HETATM    5  C5  UNL     1      24.584   2.781  53.216  1.00  0.00    -0.004 C 
HETATM    6  C6  UNL     1      23.602   3.200  52.268  1.00  0.00     0.001 C 
HETATM    7  C7  UNL     1      23.296   3.114  51.015  1.00  0.00     0.013 C 
HETATM    8  C8  UNL     1      22.643   3.248  49.747  1.00  0.00    -0.009 A 
HETATM    9  C9  UNL     1      23.214   4.183  48.915  1.00  0.00     0.015 A 
HETATM   10  C10 UNL     1      22.676   4.436  47.644  1.00  0.00     0.020 A 
HETATM   11  C11 UNL     1      21.575   3.654  47.400  1.00  0.00     0.013 A 
HETATM   12 BR1  UNL     1      20.788   3.955  45.667  1.00  0.00    -0.051 Br
HETATM   13  C12 UNL     1      20.961   2.705  48.190  1.00  0.00     0.049 A 
HETATM   14  C13 UNL     1      21.544   2.510  49.423  1.00  0.00     0.045 A 
HETATM   15  N1  UNL     1      20.938   1.531  50.255  1.00  0.00    -0.343 N 
HETATM   16  C14 UNL     1      21.267   1.198  51.598  1.00  0.00     0.114 C 
HETATM   17  N2  UNL     1      22.166   0.291  51.809  1.00  0.00    -0.228 NA
HETATM   18  C16 UNL     1      22.513  -0.057  53.165  1.00  0.00     0.230 C 
HETATM   19  N3  UNL     1      23.778  -0.366  53.220  1.00  0.00    -0.263 NA
HETATM   20  C17 UNL     1      24.374  -0.754  54.490  1.00  0.00     0.271 C 
HETATM   21  N4  UNL     1      25.802  -0.911  54.282  1.00  0.00    -0.376 N 
HETATM   22  H12 UNL     1      20.150   0.949  49.898  1.00  0.00     0.167 HD
HETATM   23  H19 UNL     1      26.190  -1.873  54.502  1.00  0.00     0.161 HD
ENDROOT
BRANCH  16  24
HETATM   24  C15 UNL     1      20.372   2.093  52.415  1.00  0.00     0.149 C 
BRANCH  24  25
HETATM   25  S1  UNL     1      18.692   2.020  51.678  1.00  0.00    -0.175 SA
HETATM   26  H15 UNL     1      17.897   3.059  52.191  1.00  0.00     0.102 HD
ENDBRANCH  24  25
ENDBRANCH  16  24
TORSDOF 2
ENDMDL
MODEL 4
REMARK VINA RESULT:      -7.3      6.128      8.690
REMARK  2 active torsions:
REMARK  status: ('A' for Active; 'I' for Inactive)
REMARK    1  A    between atoms: C14_16  and  C15_17 
REMARK    2  A    between atoms: C15_17  and  S1_18 
ROOT
HETATM    1  C1  UNL     1      34.194   2.981  47.842  1.00  0.00     0.038 C 
HETATM    2  C2  UNL     1      34.326   4.206  47.302  1.00  0.00    -0.000 C 
HETATM    3  C3  UNL     1      33.641   4.402  45.974  1.00  0.00     0.083 C 
HETATM    4  C4  UNL     1      32.631   5.455  46.125  1.00  0.00    -0.021 C 
HETATM    5  C5  UNL     1      31.930   6.539  46.012  1.00  0.00    -0.004 C 
HETATM    6  C6  UNL     1      30.796   7.287  46.450  1.00  0.00     0.001 C 
HETATM    7  C7  UNL     1      29.799   7.236  47.271  1.00  0.00     0.013 C 
HETATM    8  C8  UNL     1      28.617   7.544  48.020  1.00  0.00    -0.009 A 
HETATM    9  C9  UNL     1      27.481   6.917  47.562  1.00  0.00     0.015 A 
HETATM   10  C10 UNL     1      26.243   7.132  48.185  1.00  0.00     0.020 A 
HETATM   11  C11 UNL     1      26.356   8.003  49.240  1.00  0.00     0.013 A 
HETATM   12 BR1  UNL     1      24.685   8.341  50.139  1.00  0.00    -0.051 Br
HETATM   13  C12 UNL     1      27.460   8.657  49.743  1.00  0.00     0.049 A 
HETATM   14  C13 UNL     1      28.641   8.398  49.082  1.00  0.00     0.045 A 
HETATM   15  N1  UNL     1      29.797   9.051  49.584  1.00  0.00    -0.343 N 
HETATM   16  C14 UNL     1      31.112   9.043  49.042  1.00  0.00     0.114 C 
HETATM   17  N2  UNL     1      31.928   8.109  49.412  1.00  0.00    -0.228 NA
HETATM   18  C16 UNL     1      33.265   8.084  48.871  1.00  0.00     0.230 C 
HETATM   19  N3  UNL     1      33.656   6.847  48.746  1.00  0.00    -0.263 NA
HETATM   20  C17 UNL     1      34.981   6.557  48.216  1.00  0.00     0.271 C 
HETATM   21  N4  UNL     1      35.094   5.118  48.066  1.00  0.00    -0.376 N 
HETATM   22  H12 UNL     1      29.744   9.623  50.454  1.00  0.00     0.167 HD
HETATM   23  H19 UNL     1      35.882   4.664  48.613  1.00  0.00     0.161 HD
ENDROOT
BRANCH  16  24
HETATM   24  C15 UNL     1      31.129  10.243  48.132  1.00  0.00     0.149 C 
BRANCH  24  25
HETATM   25  S1  UNL     1      30.630  11.702  49.128  1.00  0.00    -0.175 SA
HETATM   26  H15 UNL     1      31.543  12.754  48.930  1.00  0.00     0.102 HD
ENDBRANCH  24  25
ENDBRANCH  16  24
TORSDOF 2
ENDMDL
MODEL 5
REMARK VINA RESULT:      -7.2      2.383      3.380
REMARK  2 active torsions:
REMARK  status: ('A' for Active; 'I' for Inactive)
REMARK    1  A    between atoms: C14_16  and  C15_17 
REMARK    2  A    between atoms: C15_17  and  S1_18 
ROOT
HETATM    1  C1  UNL     1      31.669   8.606  50.076  1.00  0.00     0.038 C 
HETATM    2  C2  UNL     1      30.666   8.805  49.201  1.00  0.00    -0.000 C 
HETATM    3  C3  UNL     1      30.615   7.836  48.049  1.00  0.00     0.083 C 
HETATM    4  C4  UNL     1      29.344   7.107  48.112  1.00  0.00    -0.021 C 
HETATM    5  C5  UNL     1      28.177   6.605  47.853  1.00  0.00    -0.004 C 
HETATM    6  C6  UNL     1      27.099   5.781  48.296  1.00  0.00     0.001 C 
HETATM    7  C7  UNL     1      26.722   5.049  49.292  1.00  0.00     0.013 C 
HETATM    8  C8  UNL     1      25.978   4.183  50.159  1.00  0.00    -0.009 A 
HETATM    9  C9  UNL     1      26.399   2.874  50.145  1.00  0.00     0.015 A 
HETATM   10  C10 UNL     1      25.757   1.906  50.933  1.00  0.00     0.020 A 
HETATM   11  C11 UNL     1      24.725   2.450  51.654  1.00  0.00     0.013 A 
HETATM   12 BR1  UNL     1      23.801   1.169  52.757  1.00  0.00    -0.051 Br
HETATM   13  C12 UNL     1      24.260   3.746  51.709  1.00  0.00     0.049 A 
HETATM   14  C13 UNL     1      24.938   4.642  50.911  1.00  0.00     0.045 A 
HETATM   15  N1  UNL     1      24.487   5.988  50.954  1.00  0.00    -0.343 N 
HETATM   16  C14 UNL     1      24.934   7.087  50.170  1.00  0.00     0.114 C 
HETATM   17  N2  UNL     1      25.929   7.792  50.602  1.00  0.00    -0.228 NA
HETATM   18  C16 UNL     1      26.396   8.910  49.819  1.00  0.00     0.230 C 
HETATM   19  N3  UNL     1      27.686   9.026  49.962  1.00  0.00    -0.263 NA
HETATM   20  C17 UNL     1      28.399  10.087  49.265  1.00  0.00     0.271 C 
HETATM   21  N4  UNL     1      29.818   9.899  49.500  1.00  0.00    -0.376 N 
HETATM   22  H12 UNL     1      23.738   6.272  51.621  1.00  0.00     0.167 HD
HETATM   23  H19 UNL     1      30.313  10.710  49.972  1.00  0.00     0.161 HD
ENDROOT
BRANCH  16  24
HETATM   24  C15 UNL     1      24.010   7.072  48.979  1.00  0.00     0.149 C 
BRANCH  24  25
HETATM   25  S1  UNL     1      22.556   8.115  49.393  1.00  0.00    -0.175 SA
HETATM   26  H15 UNL     1      22.963   9.444  49.603  1.00  0.00     0.102 HD
ENDBRANCH  24  25
ENDBRANCH  16  24
TORSDOF 2
ENDMDL
MODEL 6
REMARK VINA RESULT:      -7.0      3.041      3.556
REMARK  2 active torsions:
REMARK  status: ('A' for Active; 'I' for Inactive)
REMARK    1  A    between atoms: C14_16  and  C15_17 
REMARK    2  A    between atoms: C15_17  and  S1_18 
ROOT
HETATM    1  C1  UNL     1      22.488   8.681  49.303  1.00  0.00     0.038 C 
HETATM    2  C2  UNL     1      21.880   7.562  48.866  1.00  0.00    -0.000 C 
HETATM    3  C3  UNL     1      22.621   6.803  47.796  1.00  0.00     0.083 C 
HETATM    4  C4  UNL     1      22.939   5.468  48.311  1.00  0.00    -0.021 C 
HETATM    5  C5  UNL     1      23.030   4.187  48.493  1.00  0.00    -0.004 C 
HETATM    6  C6  UNL     1      23.548   3.121  49.289  1.00  0.00     0.001 C 
HETATM    7  C7  UNL     1      24.265   2.892  50.340  1.00  0.00     0.013 C 
HETATM    8  C8  UNL     1      24.979   2.251  51.404  1.00  0.00    -0.009 A 
HETATM    9  C9  UNL     1      26.340   2.188  51.211  1.00  0.00     0.015 A 
HETATM   10  C10 UNL     1      27.171   1.577  52.162  1.00  0.00     0.020 A 
HETATM   11  C11 UNL     1      26.449   1.095  53.224  1.00  0.00     0.013 A 
HETATM   12 BR1  UNL     1      27.536   0.242  54.567  1.00  0.00    -0.051 Br
HETATM   13  C12 UNL     1      25.094   1.130  53.472  1.00  0.00     0.049 A 
HETATM   14  C13 UNL     1      24.340   1.746  52.496  1.00  0.00     0.045 A 
HETATM   15  N1  UNL     1      22.940   1.805  52.729  1.00  0.00    -0.343 N 
HETATM   16  C14 UNL     1      21.927   2.289  51.855  1.00  0.00     0.114 C 
HETATM   17  N2  UNL     1      21.617   3.544  51.902  1.00  0.00    -0.228 NA
HETATM   18  C16 UNL     1      20.593   4.052  51.022  1.00  0.00     0.230 C 
HETATM   19  N3  UNL     1      20.888   5.275  50.680  1.00  0.00    -0.263 NA
HETATM   20  C17 UNL     1      20.002   6.010  49.788  1.00  0.00     0.271 C 
HETATM   21  N4  UNL     1      20.635   7.278  49.478  1.00  0.00    -0.376 N 
HETATM   22  H12 UNL     1      22.540   1.469  53.631  1.00  0.00     0.167 HD
HETATM   23  H19 UNL     1      20.081   8.142  49.748  1.00  0.00     0.161 HD
ENDROOT
BRANCH  16  24
HETATM   24  C15 UNL     1      21.501   1.062  51.091  1.00  0.00     0.149 C 
BRANCH  24  25
HETATM   25  S1  UNL     1      20.049   0.346  51.957  1.00  0.00    -0.175 SA
HETATM   26  H15 UNL     1      20.429  -0.118  53.229  1.00  0.00     0.102 HD
ENDBRANCH  24  25
ENDBRANCH  16  24
TORSDOF 2
ENDMDL
MODEL 7
REMARK VINA RESULT:      -7.0      2.313      2.939
REMARK  2 active torsions:
REMARK  status: ('A' for Active; 'I' for Inactive)
REMARK    1  A    between atoms: C14_16  and  C15_17 
REMARK    2  A    between atoms: C15_17  and  S1_18 
ROOT
HETATM    1  C1  UNL     1      26.122   8.209  50.397  1.00  0.00     0.038 C 
HETATM    2  C2  UNL     1      25.133   7.774  49.594  1.00  0.00    -0.000 C 
HETATM    3  C3  UNL     1      25.517   6.678  48.635  1.00  0.00     0.083 C 
HETATM    4  C4  UNL     1      24.706   5.494  48.937  1.00  0.00    -0.021 C 
HETATM    5  C5  UNL     1      23.886   4.492  48.875  1.00  0.00    -0.004 C 
HETATM    6  C6  UNL     1      23.292   3.382  49.549  1.00  0.00     0.001 C 
HETATM    7  C7  UNL     1      23.286   2.768  50.686  1.00  0.00     0.013 C 
HETATM    8  C8  UNL     1      23.010   1.851  51.753  1.00  0.00    -0.009 A 
HETATM    9  C9  UNL     1      23.973   0.883  51.927  1.00  0.00     0.015 A 
HETATM   10  C10 UNL     1      23.834  -0.094  52.924  1.00  0.00     0.020 A 
HETATM   11  C11 UNL     1      22.671   0.071  53.631  1.00  0.00     0.013 A 
HETATM   12 BR1  UNL     1      22.421  -1.244  55.017  1.00  0.00    -0.051 Br
HETATM   13  C12 UNL     1      21.675   1.016  53.503  1.00  0.00     0.049 A 
HETATM   14  C13 UNL     1      21.878   1.944  52.505  1.00  0.00     0.045 A 
HETATM   15  N1  UNL     1      20.873   2.936  52.357  1.00  0.00    -0.343 N 
HETATM   16  C14 UNL     1      20.778   3.944  51.358  1.00  0.00     0.114 C 
HETATM   17  N2  UNL     1      21.354   5.083  51.571  1.00  0.00    -0.228 NA
HETATM   18  C16 UNL     1      21.269   6.116  50.567  1.00  0.00     0.230 C 
HETATM   19  N3  UNL     1      22.372   6.811  50.572  1.00  0.00    -0.263 NA
HETATM   20  C17 UNL     1      22.532   7.919  49.640  1.00  0.00     0.271 C 
HETATM   21  N4  UNL     1      23.887   8.421  49.776  1.00  0.00    -0.376 N 
HETATM   22  H12 UNL     1      20.078   2.987  53.030  1.00  0.00     0.167 HD
HETATM   23  H19 UNL     1      23.968   9.442  50.054  1.00  0.00     0.161 HD
ENDROOT
BRANCH  16  24
HETATM   24  C15 UNL     1      19.954   3.295  50.276  1.00  0.00     0.149 C 
BRANCH  24  25
HETATM   25  S1  UNL     1      18.347   2.808  51.019  1.00  0.00    -0.175 SA
HETATM   26  H15 UNL     1      17.816   1.703  50.331  1.00  0.00     0.102 HD
ENDBRANCH  24  25
ENDBRANCH  16  24
TORSDOF 2
ENDMDL
MODEL 8
REMARK VINA RESULT:      -6.7      5.021      7.372
REMARK  2 active torsions:
REMARK  status: ('A' for Active; 'I' for Inactive)
REMARK    1  A    between atoms: C14_16  and  C15_17 
REMARK    2  A    between atoms: C15_17  and  S1_18 
ROOT
HETATM    1  C1  UNL     1      34.528   5.369  48.436  1.00  0.00     0.038 C 
HETATM    2  C2  UNL     1      34.038   6.354  47.662  1.00  0.00    -0.000 C 
HETATM    3  C3  UNL     1      33.271   5.898  46.448  1.00  0.00     0.083 C 
HETATM    4  C4  UNL     1      31.894   6.390  46.557  1.00  0.00    -0.021 C 
HETATM    5  C5  UNL     1      30.759   6.984  46.355  1.00  0.00    -0.004 C 
HETATM    6  C6  UNL     1      29.432   7.227  46.821  1.00  0.00     0.001 C 
HETATM    7  C7  UNL     1      28.623   6.936  47.786  1.00  0.00     0.013 C 
HETATM    8  C8  UNL     1      27.477   6.853  48.642  1.00  0.00    -0.009 A 
HETATM    9  C9  UNL     1      26.748   5.695  48.498  1.00  0.00     0.015 A 
HETATM   10  C10 UNL     1      25.590   5.477  49.259  1.00  0.00     0.020 A 
HETATM   11  C11 UNL     1      25.336   6.532  50.099  1.00  0.00     0.013 A 
HETATM   12 BR1  UNL     1      23.754   6.293  51.174  1.00  0.00    -0.051 Br
HETATM   13  C12 UNL     1      26.026   7.709  50.288  1.00  0.00     0.049 A 
HETATM   14  C13 UNL     1      27.152   7.855  49.507  1.00  0.00     0.045 A 
HETATM   15  N1  UNL     1      27.890   9.055  49.687  1.00  0.00    -0.343 N 
HETATM   16  C14 UNL     1      29.022   9.505  48.953  1.00  0.00     0.114 C 
HETATM   17  N2  UNL     1      30.201   9.153  49.357  1.00  0.00    -0.228 NA
HETATM   18  C16 UNL     1      31.360   9.600  48.624  1.00  0.00     0.230 C 
HETATM   19  N3  UNL     1      32.281   8.678  48.672  1.00  0.00    -0.263 NA
HETATM   20  C17 UNL     1      33.555   8.892  48.001  1.00  0.00     0.271 C 
HETATM   21  N4  UNL     1      34.325   7.666  48.108  1.00  0.00    -0.376 N 
HETATM   22  H12 UNL     1      27.620   9.734  50.431  1.00  0.00     0.167 HD
HETATM   23  H19 UNL     1      35.262   7.759  48.598  1.00  0.00     0.161 HD
ENDROOT
BRANCH  16  24
HETATM   24  C15 UNL     1      28.423  10.328  47.843  1.00  0.00     0.149 C 
BRANCH  24  25
HETATM   25  S1  UNL     1      28.220  12.041  48.469  1.00  0.00    -0.175 SA
HETATM   26  H15 UNL     1      29.387  12.785  48.220  1.00  0.00     0.102 HD
ENDBRANCH  24  25
ENDBRANCH  16  24
TORSDOF 2
ENDMDL
MODEL 9
REMARK VINA RESULT:      -6.7     24.171     25.972
REMARK  2 active torsions:
REMARK  status: ('A' for Active; 'I' for Inactive)
REMARK    1  A    between atoms: C14_16  and  C15_17 
REMARK    2  A    between atoms: C15_17  and  S1_18 
ROOT
HETATM    1  C1  UNL     1      39.889   0.608  68.268  1.00  0.00     0.038 C 
HETATM    2  C2  UNL     1      40.904   0.987  69.066  1.00  0.00    -0.000 C 
HETATM    3  C3  UNL     1      42.216   0.289  68.816  1.00  0.00     0.083 C 
HETATM    4  C4  UNL     1      43.208   1.295  68.423  1.00  0.00    -0.021 C 
HETATM    5  C5  UNL     1      44.249   2.065  68.358  1.00  0.00    -0.004 C 
HETATM    6  C6  UNL     1      44.931   3.107  67.660  1.00  0.00     0.001 C 
HETATM    7  C7  UNL     1      44.825   3.877  66.628  1.00  0.00     0.013 C 
HETATM    8  C8  UNL     1      45.066   4.868  65.620  1.00  0.00    -0.009 A 
HETATM    9  C9  UNL     1      45.531   4.359  64.430  1.00  0.00     0.015 A 
HETATM   10  C10 UNL     1      45.826   5.209  63.353  1.00  0.00     0.020 A 
HETATM   11  C11 UNL     1      45.589   6.522  63.671  1.00  0.00     0.013 A 
HETATM   12 BR1  UNL     1      45.977   7.743  62.231  1.00  0.00    -0.051 Br
HETATM   13  C12 UNL     1      45.126   7.088  64.839  1.00  0.00     0.049 A 
HETATM   14  C13 UNL     1      44.857   6.194  65.852  1.00  0.00     0.045 A 
HETATM   15  N1  UNL     1      44.368   6.748  67.065  1.00  0.00    -0.343 N 
HETATM   16  C14 UNL     1      44.105   6.077  68.291  1.00  0.00     0.114 C 
HETATM   17  N2  UNL     1      42.930   5.568  68.478  1.00  0.00    -0.228 NA
HETATM   18  C16 UNL     1      42.646   4.883  69.715  1.00  0.00     0.230 C 
HETATM   19  N3  UNL     1      41.818   3.902  69.484  1.00  0.00    -0.263 NA
HETATM   20  C17 UNL     1      41.377   3.053  70.582  1.00  0.00     0.271 C 
HETATM   21  N4  UNL     1      40.576   1.981  70.020  1.00  0.00    -0.376 N 
HETATM   22  H12 UNL     1      44.155   7.767  67.132  1.00  0.00     0.167 HD
HETATM   23  H19 UNL     1      39.580   1.921  70.380  1.00  0.00     0.161 HD
ENDROOT
BRANCH  16  24
HETATM   24  C15 UNL     1      45.403   6.194  69.046  1.00  0.00     0.149 C 
BRANCH  24  25
HETATM   25  S1  UNL     1      45.646   7.966  69.460  1.00  0.00    -0.175 SA
HETATM   26  H15 UNL     1      45.994   8.686  68.303  1.00  0.00     0.102 HD
ENDBRANCH  24  25
ENDBRANCH  16  24
TORSDOF 2
ENDMDL
