MODEL 1
REMARK VINA RESULT:      -8.5      0.000      0.000
REMARK  7 active torsions:
REMARK  status: ('A' for Active; 'I' for Inactive)
REMARK    1  A    between atoms: C2_2  and  O1_3 
REMARK    2  A    between atoms: C2_2  and  C4_5 
REMARK    3  A    between atoms: C4_5  and  O2_6 
REMARK    4  A    between atoms: C4_5  and  C6_8 
REMARK    5  A    between atoms: C8_10  and  C9_11 
REMARK    6  A    between atoms: C11_13  and  C12_14 
REMARK    7  A    between atoms: C20_24  and  N2_25 
ROOT
HETATM    1  C9  UNL     1      26.037  -0.429  52.902  1.00  0.00     0.110 A 
HETATM    2  C10 UNL     1      25.699   0.623  51.927  1.00  0.00     0.005 A 
HETATM    3  C11 UNL     1      26.579   1.604  52.055  1.00  0.00    -0.001 A 
HETATM    4  C19 UNL     1      27.564   1.327  53.092  1.00  0.00     0.039 A 
HETATM    5  C20 UNL     1      27.235   0.139  53.576  1.00  0.00     0.017 A 
ENDROOT
BRANCH   1   6
HETATM    6  C8  UNL     1      24.949  -0.722  53.845  1.00  0.00     0.051 A 
HETATM    7  C7  UNL     1      23.666  -0.425  53.429  1.00  0.00     0.058 A 
HETATM    8  C6  UNL     1      22.515  -0.638  54.194  1.00  0.00     0.073 A 
HETATM    9  N4  UNL     1      22.731  -1.173  55.416  1.00  0.00    -0.243 NA
HETATM   10  C21 UNL     1      23.971  -1.476  55.855  1.00  0.00     0.233 A 
HETATM   11  N3  UNL     1      25.067  -1.259  55.094  1.00  0.00    -0.245 NA
BRANCH   8  12
HETATM   12  C4  UNL     1      21.176  -0.287  53.662  1.00  0.00     0.228 C 
BRANCH  12  13
HETATM   13  C2  UNL     1      21.322   0.429  52.374  1.00  0.00     0.071 C 
HETATM   14  C1  UNL     1      21.452   0.261  51.049  1.00  0.00     0.049 C 
BRANCH  13  15
HETATM   15  O1  UNL     1      21.317   1.761  52.688  1.00  0.00    -0.358 OA
HETATM   16  C3  UNL     1      20.228   2.645  52.547  1.00  0.00     0.209 C 
ENDBRANCH  13  15
ENDBRANCH  12  13
BRANCH  12  17
HETATM   17  O2  UNL     1      20.287  -1.328  53.610  1.00  0.00    -0.378 OA
HETATM   18  C5  UNL     1      18.962  -0.937  53.480  1.00  0.00     0.203 C 
ENDBRANCH  12  17
ENDBRANCH   8  12
ENDBRANCH   1   6
BRANCH   5  19
HETATM   19  N2  UNL     1      27.991  -0.473  54.630  1.00  0.00    -0.401 N 
HETATM   20  H18 UNL     1      27.670  -0.869  55.525  1.00  0.00     0.156 HD
HETATM   21  H19 UNL     1      29.027  -0.583  54.586  1.00  0.00     0.156 HD
ENDBRANCH   5  19
BRANCH   3  22
HETATM   22  C12 UNL     1      26.406   2.724  51.178  1.00  0.00     0.109 A 
HETATM   23  N1  UNL     1      27.065   3.385  50.404  1.00  0.00    -0.240 NA
HETATM   24  C13 UNL     1      26.608   4.408  49.702  1.00  0.00     0.075 A 
HETATM   25  C14 UNL     1      27.302   5.196  48.811  1.00  0.00     0.033 A 
HETATM   26  C18 UNL     1      25.198   4.793  49.854  1.00  0.00     0.035 A 
HETATM   27  C15 UNL     1      26.655   6.220  48.172  1.00  0.00     0.002 A 
HETATM   28  C16 UNL     1      25.347   6.571  48.318  1.00  0.00     0.002 A 
HETATM   29  C17 UNL     1      24.567   5.845  49.187  1.00  0.00     0.021 A 
HETATM   30  S1  UNL     1      24.671   3.496  51.114  1.00  0.00    -0.068 SA
ENDBRANCH   3  22
TORSDOF 7
ENDMDL
MODEL 2
REMARK VINA RESULT:      -8.4      5.036     10.200
REMARK  7 active torsions:
REMARK  status: ('A' for Active; 'I' for Inactive)
REMARK    1  A    between atoms: C2_2  and  O1_3 
REMARK    2  A    between atoms: C2_2  and  C4_5 
REMARK    3  A    between atoms: C4_5  and  O2_6 
REMARK    4  A    between atoms: C4_5  and  C6_8 
REMARK    5  A    between atoms: C8_10  and  C9_11 
REMARK    6  A    between atoms: C11_13  and  C12_14 
REMARK    7  A    between atoms: C20_24  and  N2_25 
ROOT
HETATM    1  C9  UNL     1      27.543   5.824  48.147  1.00  0.00     0.110 A 
HETATM    2  C10 UNL     1      27.436   4.533  48.851  1.00  0.00     0.005 A 
HETATM    3  C11 UNL     1      26.424   4.609  49.702  1.00  0.00    -0.001 A 
HETATM    4  C19 UNL     1      25.770   5.910  49.663  1.00  0.00     0.039 A 
HETATM    5  C20 UNL     1      26.433   6.606  48.752  1.00  0.00     0.017 A 
ENDROOT
BRANCH   1   6
HETATM    6  C8  UNL     1      28.849   6.476  48.320  1.00  0.00     0.051 A 
HETATM    7  C7  UNL     1      29.967   5.674  48.202  1.00  0.00     0.058 A 
HETATM    8  C6  UNL     1      31.284   6.125  48.335  1.00  0.00     0.073 A 
HETATM    9  N4  UNL     1      31.413   7.444  48.598  1.00  0.00    -0.243 NA
HETATM   10  C21 UNL     1      30.343   8.257  48.719  1.00  0.00     0.233 A 
HETATM   11  N3  UNL     1      29.079   7.793  48.585  1.00  0.00    -0.245 NA
BRANCH   8  12
HETATM   12  C4  UNL     1      32.424   5.187  48.192  1.00  0.00     0.228 C 
BRANCH  12  13
HETATM   13  C2  UNL     1      32.225   4.337  46.996  1.00  0.00     0.071 C 
HETATM   14  C1  UNL     1      31.940   3.091  46.587  1.00  0.00     0.049 C 
BRANCH  13  15
HETATM   15  O1  UNL     1      32.405   5.163  45.920  1.00  0.00    -0.358 OA
HETATM   16  C3  UNL     1      33.154   4.871  44.762  1.00  0.00     0.209 C 
ENDBRANCH  13  15
ENDBRANCH  12  13
BRANCH  12  17
HETATM   17  O2  UNL     1      33.661   5.774  48.244  1.00  0.00    -0.378 OA
HETATM   18  C5  UNL     1      34.707   4.879  48.418  1.00  0.00     0.203 C 
ENDBRANCH  12  17
ENDBRANCH   8  12
ENDBRANCH   1   6
BRANCH   5  19
HETATM   19  N2  UNL     1      26.070   7.957  48.434  1.00  0.00    -0.401 N 
HETATM   20  H18 UNL     1      25.374   8.573  48.878  1.00  0.00     0.156 HD
HETATM   21  H19 UNL     1      26.515   8.487  47.654  1.00  0.00     0.156 HD
ENDBRANCH   5  19
BRANCH   3  22
HETATM   22  C12 UNL     1      26.167   3.434  50.481  1.00  0.00     0.109 A 
HETATM   23  N1  UNL     1      26.764   2.457  50.880  1.00  0.00    -0.240 NA
HETATM   24  C13 UNL     1      26.235   1.495  51.617  1.00  0.00     0.075 A 
HETATM   25  C14 UNL     1      26.856   0.365  52.099  1.00  0.00     0.033 A 
HETATM   26  C18 UNL     1      24.818   1.595  51.995  1.00  0.00     0.035 A 
HETATM   27  C15 UNL     1      26.141  -0.528  52.852  1.00  0.00     0.002 A 
HETATM   28  C16 UNL     1      24.827  -0.428  53.198  1.00  0.00     0.002 A 
HETATM   29  C17 UNL     1      24.116   0.666  52.766  1.00  0.00     0.021 A 
HETATM   30  S1  UNL     1      24.401   3.227  51.152  1.00  0.00    -0.068 SA
ENDBRANCH   3  22
TORSDOF 7
ENDMDL
MODEL 3
REMARK VINA RESULT:      -8.3      2.663      4.885
REMARK  7 active torsions:
REMARK  status: ('A' for Active; 'I' for Inactive)
REMARK    1  A    between atoms: C2_2  and  O1_3 
REMARK    2  A    between atoms: C2_2  and  C4_5 
REMARK    3  A    between atoms: C4_5  and  O2_6 
REMARK    4  A    between atoms: C4_5  and  C6_8 
REMARK    5  A    between atoms: C8_10  and  C9_11 
REMARK    6  A    between atoms: C11_13  and  C12_14 
REMARK    7  A    between atoms: C20_24  and  N2_25 
ROOT
HETATM    1  C9  UNL     1      22.522   2.086  52.075  1.00  0.00     0.110 A 
HETATM    2  C10 UNL     1      23.582   3.033  51.683  1.00  0.00     0.005 A 
HETATM    3  C11 UNL     1      23.667   3.035  50.362  1.00  0.00    -0.001 A 
HETATM    4  C19 UNL     1      22.710   2.124  49.749  1.00  0.00     0.039 A 
HETATM    5  C20 UNL     1      22.051   1.579  50.759  1.00  0.00     0.017 A 
ENDROOT
BRANCH   1   6
HETATM    6  C8  UNL     1      22.997   1.009  52.954  1.00  0.00     0.051 A 
HETATM    7  C7  UNL     1      24.337   1.022  53.287  1.00  0.00     0.058 A 
HETATM    8  C6  UNL     1      24.959   0.077  54.111  1.00  0.00     0.073 A 
HETATM    9  N4  UNL     1      24.145  -0.891  54.586  1.00  0.00    -0.243 NA
HETATM   10  C21 UNL     1      22.831  -0.933  54.282  1.00  0.00     0.233 A 
HETATM   11  N3  UNL     1      22.256  -0.006  53.482  1.00  0.00    -0.245 NA
BRANCH   8  12
HETATM   12  C4  UNL     1      26.408   0.172  54.412  1.00  0.00     0.228 C 
BRANCH  12  13
HETATM   13  C2  UNL     1      27.169  -0.699  53.488  1.00  0.00     0.071 C 
HETATM   14  C1  UNL     1      27.141  -1.289  52.283  1.00  0.00     0.049 C 
BRANCH  13  15
HETATM   15  O1  UNL     1      28.337  -0.994  54.137  1.00  0.00    -0.358 OA
HETATM   16  C3  UNL     1      29.639  -0.860  53.612  1.00  0.00     0.209 C 
ENDBRANCH  13  15
ENDBRANCH  12  13
BRANCH  12  17
HETATM   17  O2  UNL     1      26.897   1.450  54.486  1.00  0.00    -0.378 OA
HETATM   18  C5  UNL     1      27.297   1.976  53.266  1.00  0.00     0.203 C 
ENDBRANCH  12  17
ENDBRANCH   8  12
ENDBRANCH   1   6
BRANCH   5  19
HETATM   19  N2  UNL     1      21.012   0.615  50.540  1.00  0.00    -0.401 N 
HETATM   20  H18 UNL     1      20.009   0.759  50.349  1.00  0.00     0.156 HD
HETATM   21  H19 UNL     1      21.189  -0.413  50.556  1.00  0.00     0.156 HD
ENDBRANCH   5  19
BRANCH   3  22
HETATM   22  C12 UNL     1      24.654   3.906  49.796  1.00  0.00     0.109 A 
HETATM   23  N1  UNL     1      24.721   5.022  49.325  1.00  0.00    -0.240 NA
HETATM   24  C13 UNL     1      25.826   5.582  48.862  1.00  0.00     0.075 A 
HETATM   25  C14 UNL     1      25.968   6.839  48.316  1.00  0.00     0.033 A 
HETATM   26  C18 UNL     1      27.078   4.816  48.910  1.00  0.00     0.035 A 
HETATM   27  C15 UNL     1      27.201   7.250  47.887  1.00  0.00     0.002 A 
HETATM   28  C16 UNL     1      28.359   6.534  47.935  1.00  0.00     0.002 A 
HETATM   29  C17 UNL     1      28.323   5.265  48.463  1.00  0.00     0.021 A 
HETATM   30  S1  UNL     1      26.427   3.234  49.697  1.00  0.00    -0.068 SA
ENDBRANCH   3  22
TORSDOF 7
ENDMDL
MODEL 4
REMARK VINA RESULT:      -8.2      2.752      6.369
REMARK  7 active torsions:
REMARK  status: ('A' for Active; 'I' for Inactive)
REMARK    1  A    between atoms: C2_2  and  O1_3 
REMARK    2  A    between atoms: C2_2  and  C4_5 
REMARK    3  A    between atoms: C4_5  and  O2_6 
REMARK    4  A    between atoms: C4_5  and  C6_8 
REMARK    5  A    between atoms: C8_10  and  C9_11 
REMARK    6  A    between atoms: C11_13  and  C12_14 
REMARK    7  A    between atoms: C20_24  and  N2_25 
ROOT
HETATM    1  C9  UNL     1      21.806   0.235  52.463  1.00  0.00     0.110 A 
HETATM    2  C10 UNL     1      23.269   0.198  52.286  1.00  0.00     0.005 A 
HETATM    3  C11 UNL     1      23.815  -0.176  53.433  1.00  0.00    -0.001 A 
HETATM    4  C19 UNL     1      22.814  -0.419  54.463  1.00  0.00     0.039 A 
HETATM    5  C20 UNL     1      21.650  -0.176  53.883  1.00  0.00     0.017 A 
ENDROOT
BRANCH   1   6
HETATM    6  C8  UNL     1      21.219   1.555  52.192  1.00  0.00     0.051 A 
HETATM    7  C7  UNL     1      22.092   2.566  51.846  1.00  0.00     0.058 A 
HETATM    8  C6  UNL     1      21.709   3.880  51.555  1.00  0.00     0.073 A 
HETATM    9  N4  UNL     1      20.381   4.119  51.633  1.00  0.00    -0.243 NA
HETATM   10  C21 UNL     1      19.499   3.154  51.968  1.00  0.00     0.233 A 
HETATM   11  N3  UNL     1      19.898   1.891  52.244  1.00  0.00    -0.245 NA
BRANCH   8  12
HETATM   12  C4  UNL     1      22.721   4.902  51.193  1.00  0.00     0.228 C 
BRANCH  12  13
HETATM   13  C2  UNL     1      23.676   4.335  50.214  1.00  0.00     0.071 C 
HETATM   14  C1  UNL     1      23.808   3.915  48.946  1.00  0.00     0.049 C 
BRANCH  13  15
HETATM   15  O1  UNL     1      24.860   4.203  50.886  1.00  0.00    -0.358 OA
HETATM   16  C3  UNL     1      25.979   3.455  50.465  1.00  0.00     0.209 C 
ENDBRANCH  13  15
ENDBRANCH  12  13
BRANCH  12  17
HETATM   17  O2  UNL     1      22.204   6.113  50.813  1.00  0.00    -0.378 OA
HETATM   18  C5  UNL     1      23.121   7.154  50.838  1.00  0.00     0.203 C 
ENDBRANCH  12  17
ENDBRANCH   8  12
ENDBRANCH   1   6
BRANCH   5  19
HETATM   19  N2  UNL     1      20.415  -0.312  54.600  1.00  0.00    -0.401 N 
HETATM   20  H18 UNL     1      19.514  -0.704  54.289  1.00  0.00     0.156 HD
HETATM   21  H19 UNL     1      20.303   0.001  55.588  1.00  0.00     0.156 HD
ENDBRANCH   5  19
BRANCH   3  22
HETATM   22  C12 UNL     1      25.245  -0.268  53.450  1.00  0.00     0.109 A 
HETATM   23  N1  UNL     1      26.107  -1.083  53.198  1.00  0.00    -0.240 NA
HETATM   24  C13 UNL     1      27.407  -0.869  53.316  1.00  0.00     0.075 A 
HETATM   25  C14 UNL     1      28.432  -1.749  53.048  1.00  0.00     0.033 A 
HETATM   26  C18 UNL     1      27.866   0.446  53.783  1.00  0.00     0.035 A 
HETATM   27  C15 UNL     1      29.729  -1.346  53.230  1.00  0.00     0.002 A 
HETATM   28  C16 UNL     1      30.147  -0.125  53.664  1.00  0.00     0.002 A 
HETATM   29  C17 UNL     1      29.198   0.826  53.958  1.00  0.00     0.021 A 
HETATM   30  S1  UNL     1      26.192   1.279  54.012  1.00  0.00    -0.068 SA
ENDBRANCH   3  22
TORSDOF 7
ENDMDL
MODEL 5
REMARK VINA RESULT:      -7.6      3.676      8.520
REMARK  7 active torsions:
REMARK  status: ('A' for Active; 'I' for Inactive)
REMARK    1  A    between atoms: C2_2  and  O1_3 
REMARK    2  A    between atoms: C2_2  and  C4_5 
REMARK    3  A    between atoms: C4_5  and  O2_6 
REMARK    4  A    between atoms: C4_5  and  C6_8 
REMARK    5  A    between atoms: C8_10  and  C9_11 
REMARK    6  A    between atoms: C11_13  and  C12_14 
REMARK    7  A    between atoms: C20_24  and  N2_25 
ROOT
HETATM    1  C9  UNL     1      21.190   1.773  51.175  1.00  0.00     0.110 A 
HETATM    2  C10 UNL     1      20.482   0.508  51.442  1.00  0.00     0.005 A 
HETATM    3  C11 UNL     1      19.277   0.799  51.907  1.00  0.00    -0.001 A 
HETATM    4  C19 UNL     1      19.057   2.236  52.000  1.00  0.00     0.039 A 
HETATM    5  C20 UNL     1      20.179   2.790  51.570  1.00  0.00     0.017 A 
ENDROOT
BRANCH   1   6
HETATM    6  C8  UNL     1      22.446   1.909  51.927  1.00  0.00     0.051 A 
HETATM    7  C7  UNL     1      22.972   0.756  52.475  1.00  0.00     0.058 A 
HETATM    8  C6  UNL     1      24.155   0.699  53.219  1.00  0.00     0.073 A 
HETATM    9  N4  UNL     1      24.786   1.883  53.380  1.00  0.00    -0.243 NA
HETATM   10  C21 UNL     1      24.302   3.029  52.858  1.00  0.00     0.233 A 
HETATM   11  N3  UNL     1      23.153   3.055  52.142  1.00  0.00    -0.245 NA
BRANCH   8  12
HETATM   12  C4  UNL     1      24.643  -0.588  53.770  1.00  0.00     0.228 C 
BRANCH  12  13
HETATM   13  C2  UNL     1      26.077  -0.761  53.444  1.00  0.00     0.071 C 
HETATM   14  C1  UNL     1      26.937  -1.044  52.454  1.00  0.00     0.049 C 
BRANCH  13  15
HETATM   15  O1  UNL     1      26.751  -0.543  54.615  1.00  0.00    -0.358 OA
HETATM   16  C3  UNL     1      27.992   0.112  54.752  1.00  0.00     0.209 C 
ENDBRANCH  13  15
ENDBRANCH  12  13
BRANCH  12  17
HETATM   17  O2  UNL     1      24.355  -0.791  55.095  1.00  0.00    -0.378 OA
HETATM   18  C5  UNL     1      23.155  -1.449  55.321  1.00  0.00     0.203 C 
ENDBRANCH  12  17
ENDBRANCH   8  12
ENDBRANCH   1   6
BRANCH   5  19
HETATM   19  N2  UNL     1      20.337   4.214  51.517  1.00  0.00    -0.401 N 
HETATM   20  H18 UNL     1      21.153   4.795  51.758  1.00  0.00     0.156 HD
HETATM   21  H19 UNL     1      19.574   4.851  51.203  1.00  0.00     0.156 HD
ENDBRANCH   5  19
BRANCH   3  22
HETATM   22  C12 UNL     1      18.438  -0.319  52.224  1.00  0.00     0.109 A 
HETATM   23  N1  UNL     1      18.488  -1.337  52.880  1.00  0.00    -0.240 NA
HETATM   24  C13 UNL     1      17.506  -2.217  52.986  1.00  0.00     0.075 A 
HETATM   25  C14 UNL     1      17.500  -3.388  53.711  1.00  0.00     0.033 A 
HETATM   26  C18 UNL     1      16.251  -1.964  52.266  1.00  0.00     0.035 A 
HETATM   27  C15 UNL     1      16.382  -4.180  53.701  1.00  0.00     0.002 A 
HETATM   28  C16 UNL     1      15.222  -3.938  53.031  1.00  0.00     0.002 A 
HETATM   29  C17 UNL     1      15.127  -2.792  52.277  1.00  0.00     0.021 A 
HETATM   30  S1  UNL     1      16.702  -0.326  51.452  1.00  0.00    -0.068 SA
ENDBRANCH   3  22
TORSDOF 7
ENDMDL
MODEL 6
REMARK VINA RESULT:      -7.6      3.669      6.013
REMARK  7 active torsions:
REMARK  status: ('A' for Active; 'I' for Inactive)
REMARK    1  A    between atoms: C2_2  and  O1_3 
REMARK    2  A    between atoms: C2_2  and  C4_5 
REMARK    3  A    between atoms: C4_5  and  O2_6 
REMARK    4  A    between atoms: C4_5  and  C6_8 
REMARK    5  A    between atoms: C8_10  and  C9_11 
REMARK    6  A    between atoms: C11_13  and  C12_14 
REMARK    7  A    between atoms: C20_24  and  N2_25 
ROOT
HETATM    1  C9  UNL     1      21.699   0.096  52.319  1.00  0.00     0.110 A 
HETATM    2  C10 UNL     1      23.165   0.178  52.191  1.00  0.00     0.005 A 
HETATM    3  C11 UNL     1      23.705  -0.317  53.295  1.00  0.00    -0.001 A 
HETATM    4  C19 UNL     1      22.696  -0.765  54.246  1.00  0.00     0.039 A 
HETATM    5  C20 UNL     1      21.533  -0.518  53.663  1.00  0.00     0.017 A 
ENDROOT
BRANCH   1   6
HETATM    6  C8  UNL     1      21.030   1.401  52.212  1.00  0.00     0.051 A 
HETATM    7  C7  UNL     1      19.720   1.396  51.778  1.00  0.00     0.058 A 
HETATM    8  C6  UNL     1      18.933   2.541  51.617  1.00  0.00     0.073 A 
HETATM    9  N4  UNL     1      19.548   3.705  51.924  1.00  0.00    -0.243 NA
HETATM   10  C21 UNL     1      20.827   3.747  52.352  1.00  0.00     0.233 A 
HETATM   11  N3  UNL     1      21.565   2.623  52.498  1.00  0.00    -0.245 NA
BRANCH   8  12
HETATM   12  C4  UNL     1      17.532   2.437  51.144  1.00  0.00     0.228 C 
BRANCH  12  13
HETATM   13  C2  UNL     1      17.163   1.013  50.979  1.00  0.00     0.071 C 
HETATM   14  C1  UNL     1      17.225  -0.033  50.141  1.00  0.00     0.049 C 
BRANCH  13  15
HETATM   15  O1  UNL     1      16.520   0.661  52.135  1.00  0.00    -0.358 OA
HETATM   16  C3  UNL     1      15.326  -0.083  52.230  1.00  0.00     0.209 C 
ENDBRANCH  13  15
ENDBRANCH  12  13
BRANCH  12  17
HETATM   17  O2  UNL     1      16.623   3.155  51.876  1.00  0.00    -0.378 OA
HETATM   18  C5  UNL     1      15.891   4.070  51.133  1.00  0.00     0.203 C 
ENDBRANCH  12  17
ENDBRANCH   8  12
ENDBRANCH   1   6
BRANCH   5  19
HETATM   19  N2  UNL     1      20.292  -0.831  54.310  1.00  0.00    -0.401 N 
HETATM   20  H18 UNL     1      20.097  -1.493  55.075  1.00  0.00     0.156 HD
HETATM   21  H19 UNL     1      19.391  -0.380  54.042  1.00  0.00     0.156 HD
ENDBRANCH   5  19
BRANCH   3  22
HETATM   22  C12 UNL     1      25.136  -0.320  53.349  1.00  0.00     0.109 A 
HETATM   23  N1  UNL     1      26.051  -1.105  53.214  1.00  0.00    -0.240 NA
HETATM   24  C13 UNL     1      27.332  -0.800  53.329  1.00  0.00     0.075 A 
HETATM   25  C14 UNL     1      28.414  -1.642  53.189  1.00  0.00     0.033 A 
HETATM   26  C18 UNL     1      27.702   0.586  53.642  1.00  0.00     0.035 A 
HETATM   27  C15 UNL     1      29.680  -1.143  53.345  1.00  0.00     0.002 A 
HETATM   28  C16 UNL     1      30.015   0.145  53.636  1.00  0.00     0.002 A 
HETATM   29  C17 UNL     1      29.005   1.065  53.795  1.00  0.00     0.021 A 
HETATM   30  S1  UNL     1      25.978   1.338  53.738  1.00  0.00    -0.068 SA
ENDBRANCH   3  22
TORSDOF 7
ENDMDL
MODEL 7
REMARK VINA RESULT:      -7.6      3.343      5.732
REMARK  7 active torsions:
REMARK  status: ('A' for Active; 'I' for Inactive)
REMARK    1  A    between atoms: C2_2  and  O1_3 
REMARK    2  A    between atoms: C2_2  and  C4_5 
REMARK    3  A    between atoms: C4_5  and  O2_6 
REMARK    4  A    between atoms: C4_5  and  C6_8 
REMARK    5  A    between atoms: C8_10  and  C9_11 
REMARK    6  A    between atoms: C11_13  and  C12_14 
REMARK    7  A    between atoms: C20_24  and  N2_25 
ROOT
HETATM    1  C9  UNL     1      20.728   0.638  53.580  1.00  0.00     0.110 A 
HETATM    2  C10 UNL     1      21.035   1.409  52.361  1.00  0.00     0.005 A 
HETATM    3  C11 UNL     1      20.249   0.975  51.389  1.00  0.00    -0.001 A 
HETATM    4  C19 UNL     1      19.364  -0.094  51.833  1.00  0.00     0.039 A 
HETATM    5  C20 UNL     1      19.655  -0.278  53.111  1.00  0.00     0.017 A 
ENDROOT
BRANCH   1   6
HETATM    6  C8  UNL     1      21.887  -0.085  54.121  1.00  0.00     0.051 A 
HETATM    7  C7  UNL     1      23.085   0.067  53.451  1.00  0.00     0.058 A 
HETATM    8  C6  UNL     1      24.287  -0.545  53.824  1.00  0.00     0.073 A 
HETATM    9  N4  UNL     1      24.212  -1.327  54.924  1.00  0.00    -0.243 NA
HETATM   10  C21 UNL     1      23.059  -1.497  55.604  1.00  0.00     0.233 A 
HETATM   11  N3  UNL     1      21.911  -0.893  55.219  1.00  0.00    -0.245 NA
BRANCH   8  12
HETATM   12  C4  UNL     1      25.525  -0.323  53.041  1.00  0.00     0.228 C 
BRANCH  12  13
HETATM   13  C2  UNL     1      25.862   1.119  53.035  1.00  0.00     0.071 C 
HETATM   14  C1  UNL     1      25.832   2.242  53.769  1.00  0.00     0.049 C 
BRANCH  13  15
HETATM   15  O1  UNL     1      26.408   1.367  51.805  1.00  0.00    -0.358 OA
HETATM   16  C3  UNL     1      26.416   2.605  51.131  1.00  0.00     0.209 C 
ENDBRANCH  13  15
ENDBRANCH  12  13
BRANCH  12  17
HETATM   17  O2  UNL     1      26.578  -1.128  53.389  1.00  0.00    -0.378 OA
HETATM   18  C5  UNL     1      26.862  -2.122  52.464  1.00  0.00     0.203 C 
ENDBRANCH  12  17
ENDBRANCH   8  12
ENDBRANCH   1   6
BRANCH   5  19
HETATM   19  N2  UNL     1      18.975  -1.267  53.897  1.00  0.00    -0.401 N 
HETATM   20  H18 UNL     1      18.829  -2.270  53.711  1.00  0.00     0.156 HD
HETATM   21  H19 UNL     1      18.525  -1.043  54.811  1.00  0.00     0.156 HD
ENDBRANCH   5  19
BRANCH   3  22
HETATM   22  C12 UNL     1      20.408   1.616  50.117  1.00  0.00     0.109 A 
HETATM   23  N1  UNL     1      19.715   2.116  49.257  1.00  0.00    -0.240 NA
HETATM   24  C13 UNL     1      20.170   2.654  48.137  1.00  0.00     0.075 A 
HETATM   25  C14 UNL     1      19.439   3.235  47.125  1.00  0.00     0.033 A 
HETATM   26  C18 UNL     1      21.619   2.660  47.896  1.00  0.00     0.035 A 
HETATM   27  C15 UNL     1      20.088   3.744  46.032  1.00  0.00     0.002 A 
HETATM   28  C16 UNL     1      21.433   3.746  45.815  1.00  0.00     0.002 A 
HETATM   29  C17 UNL     1      22.252   3.189  46.769  1.00  0.00     0.021 A 
HETATM   30  S1  UNL     1      22.186   1.802  49.474  1.00  0.00    -0.068 SA
ENDBRANCH   3  22
TORSDOF 7
ENDMDL
MODEL 8
REMARK VINA RESULT:      -7.6      5.457     10.792
REMARK  7 active torsions:
REMARK  status: ('A' for Active; 'I' for Inactive)
REMARK    1  A    between atoms: C2_2  and  O1_3 
REMARK    2  A    between atoms: C2_2  and  C4_5 
REMARK    3  A    between atoms: C4_5  and  O2_6 
REMARK    4  A    between atoms: C4_5  and  C6_8 
REMARK    5  A    between atoms: C8_10  and  C9_11 
REMARK    6  A    between atoms: C11_13  and  C12_14 
REMARK    7  A    between atoms: C20_24  and  N2_25 
ROOT
HETATM    1  C9  UNL     1      27.827   6.413  47.853  1.00  0.00     0.110 A 
HETATM    2  C10 UNL     1      27.688   5.155  48.608  1.00  0.00     0.005 A 
HETATM    3  C11 UNL     1      26.553   5.204  49.288  1.00  0.00    -0.001 A 
HETATM    4  C19 UNL     1      25.837   6.453  49.070  1.00  0.00     0.039 A 
HETATM    5  C20 UNL     1      26.591   7.147  48.233  1.00  0.00     0.017 A 
ENDROOT
BRANCH   1   6
HETATM    6  C8  UNL     1      29.048   7.161  48.184  1.00  0.00     0.051 A 
HETATM    7  C7  UNL     1      30.224   6.719  47.612  1.00  0.00     0.058 A 
HETATM    8  C6  UNL     1      31.477   7.309  47.816  1.00  0.00     0.073 A 
HETATM    9  N4  UNL     1      31.476   8.382  48.638  1.00  0.00    -0.243 NA
HETATM   10  C21 UNL     1      30.345   8.841  49.214  1.00  0.00     0.233 A 
HETATM   11  N3  UNL     1      29.147   8.250  48.999  1.00  0.00    -0.245 NA
BRANCH   8  12
HETATM   12  C4  UNL     1      32.688   6.763  47.157  1.00  0.00     0.228 C 
BRANCH  12  13
HETATM   13  C2  UNL     1      33.896   7.416  47.710  1.00  0.00     0.071 C 
HETATM   14  C1  UNL     1      34.720   8.466  47.573  1.00  0.00     0.049 C 
BRANCH  13  15
HETATM   15  O1  UNL     1      34.298   6.627  48.753  1.00  0.00    -0.358 OA
HETATM   16  C3  UNL     1      35.588   6.087  48.939  1.00  0.00     0.209 C 
ENDBRANCH  13  15
ENDBRANCH  12  13
BRANCH  12  17
HETATM   17  O2  UNL     1      32.765   5.395  47.141  1.00  0.00    -0.378 OA
HETATM   18  C5  UNL     1      33.050   4.857  45.895  1.00  0.00     0.203 C 
ENDBRANCH  12  17
ENDBRANCH   8  12
ENDBRANCH   1   6
BRANCH   5  19
HETATM   19  N2  UNL     1      26.202   8.452  47.782  1.00  0.00    -0.401 N 
HETATM   20  H18 UNL     1      25.294   8.781  47.423  1.00  0.00     0.156 HD
HETATM   21  H19 UNL     1      26.860   9.261  47.775  1.00  0.00     0.156 HD
ENDBRANCH   5  19
BRANCH   3  22
HETATM   22  C12 UNL     1      26.248   4.054  50.087  1.00  0.00     0.109 A 
HETATM   23  N1  UNL     1      26.811   3.073  50.523  1.00  0.00    -0.240 NA
HETATM   24  C13 UNL     1      26.239   2.142  51.268  1.00  0.00     0.075 A 
HETATM   25  C14 UNL     1      26.820   1.008  51.791  1.00  0.00     0.033 A 
HETATM   26  C18 UNL     1      24.818   2.285  51.609  1.00  0.00     0.035 A 
HETATM   27  C15 UNL     1      26.065   0.151  52.547  1.00  0.00     0.002 A 
HETATM   28  C16 UNL     1      24.746   0.291  52.858  1.00  0.00     0.002 A 
HETATM   29  C17 UNL     1      24.074   1.393  52.384  1.00  0.00     0.021 A 
HETATM   30  S1  UNL     1      24.462   3.906  50.718  1.00  0.00    -0.068 SA
ENDBRANCH   3  22
TORSDOF 7
ENDMDL
MODEL 9
REMARK VINA RESULT:      -7.5      4.576      9.864
REMARK  7 active torsions:
REMARK  status: ('A' for Active; 'I' for Inactive)
REMARK    1  A    between atoms: C2_2  and  O1_3 
REMARK    2  A    between atoms: C2_2  and  C4_5 
REMARK    3  A    between atoms: C4_5  and  O2_6 
REMARK    4  A    between atoms: C4_5  and  C6_8 
REMARK    5  A    between atoms: C8_10  and  C9_11 
REMARK    6  A    between atoms: C11_13  and  C12_14 
REMARK    7  A    between atoms: C20_24  and  N2_25 
ROOT
HETATM    1  C9  UNL     1      26.003   5.903  48.637  1.00  0.00     0.110 A 
HETATM    2  C10 UNL     1      26.331   4.688  49.405  1.00  0.00     0.005 A 
HETATM    3  C11 UNL     1      25.237   4.287  50.033  1.00  0.00    -0.001 A 
HETATM    4  C19 UNL     1      24.100   5.159  49.766  1.00  0.00     0.039 A 
HETATM    5  C20 UNL     1      24.562   6.094  48.952  1.00  0.00     0.017 A 
ENDROOT
BRANCH   1   6
HETATM    6  C8  UNL     1      26.818   7.067  49.011  1.00  0.00     0.051 A 
HETATM    7  C7  UNL     1      28.044   7.194  48.389  1.00  0.00     0.058 A 
HETATM    8  C6  UNL     1      28.948   8.237  48.622  1.00  0.00     0.073 A 
HETATM    9  N4  UNL     1      28.541   9.154  49.527  1.00  0.00    -0.243 NA
HETATM   10  C21 UNL     1      27.349   9.061  50.154  1.00  0.00     0.233 A 
HETATM   11  N3  UNL     1      26.495   8.041  49.909  1.00  0.00    -0.245 NA
BRANCH   8  12
HETATM   12  C4  UNL     1      30.245   8.290  47.905  1.00  0.00     0.228 C 
BRANCH  12  13
HETATM   13  C2  UNL     1      31.183   7.308  48.495  1.00  0.00     0.071 C 
HETATM   14  C1  UNL     1      31.860   6.989  49.609  1.00  0.00     0.049 C 
BRANCH  13  15
HETATM   15  O1  UNL     1      31.433   6.395  47.506  1.00  0.00    -0.358 OA
HETATM   16  C3  UNL     1      31.360   4.992  47.631  1.00  0.00     0.209 C 
ENDBRANCH  13  15
ENDBRANCH  12  13
BRANCH  12  17
HETATM   17  O2  UNL     1      30.151   8.204  46.541  1.00  0.00    -0.378 OA
HETATM   18  C5  UNL     1      30.270   9.421  45.886  1.00  0.00     0.203 C 
ENDBRANCH  12  17
ENDBRANCH   8  12
ENDBRANCH   1   6
BRANCH   5  19
HETATM   19  N2  UNL     1      23.716   7.145  48.465  1.00  0.00    -0.401 N 
HETATM   20  H18 UNL     1      22.811   7.089  47.976  1.00  0.00     0.156 HD
HETATM   21  H19 UNL     1      23.960   8.154  48.570  1.00  0.00     0.156 HD
ENDBRANCH   5  19
BRANCH   3  22
HETATM   22  C12 UNL     1      25.367   3.107  50.836  1.00  0.00     0.109 A 
HETATM   23  N1  UNL     1      26.172   2.220  51.025  1.00  0.00    -0.240 NA
HETATM   24  C13 UNL     1      26.005   1.217  51.871  1.00  0.00     0.075 A 
HETATM   25  C14 UNL     1      26.876   0.181  52.131  1.00  0.00     0.033 A 
HETATM   26  C18 UNL     1      24.762   1.151  52.651  1.00  0.00     0.035 A 
HETATM   27  C15 UNL     1      26.530  -0.775  53.048  1.00  0.00     0.002 A 
HETATM   28  C16 UNL     1      25.375  -0.830  53.768  1.00  0.00     0.002 A 
HETATM   29  C17 UNL     1      24.438   0.160  53.581  1.00  0.00     0.021 A 
HETATM   30  S1  UNL     1      23.917   2.700  51.993  1.00  0.00    -0.068 SA
ENDBRANCH   3  22
TORSDOF 7
ENDMDL
