MODEL 1
REMARK VINA RESULT:      -9.2      0.000      0.000
REMARK  4 active torsions:
REMARK  status: ('A' for Active; 'I' for Inactive)
REMARK    1  A    between atoms: C3_3  and  C4_4 
REMARK    2  A    between atoms: C3_3  and  C7_9 
REMARK    3  A    between atoms: C5_6  and  C6_7 
REMARK    4  A    between atoms: C11_13  and  C12_14 
ROOT
HETATM    1  C7  UNL     1      25.153   3.247  50.308  1.00  0.00     0.090 A 
HETATM    2  C8  UNL     1      26.411   2.720  50.461  1.00  0.00     0.037 A 
HETATM    3  C9  UNL     1      26.744   1.733  51.365  1.00  0.00     0.035 A 
HETATM    4  C10 UNL     1      25.780   1.215  52.185  1.00  0.00     0.076 A 
HETATM    5  C11 UNL     1      26.027   0.241  53.099  1.00  0.00     0.076 A 
HETATM    6  C18 UNL     1      24.969  -0.212  53.883  1.00  0.00     0.281 A 
HETATM    7  O1  UNL     1      25.232  -1.113  54.720  1.00  0.00    -0.265 OA
HETATM    8  N1  UNL     1      23.748   0.344  53.691  1.00  0.00    -0.203 NA
HETATM    9  C19 UNL     1      23.538   1.304  52.776  1.00  0.00     0.239 A 
HETATM   10  N2  UNL     1      24.564   1.760  52.001  1.00  0.00    -0.226 N 
HETATM   11  N3  UNL     1      24.254   2.703  51.136  1.00  0.00    -0.166 NA
ENDROOT
BRANCH   1  12
HETATM   12  C3  UNL     1      24.747   4.284  49.376  1.00  0.00     0.029 C 
HETATM   13  C2  UNL     1      23.596   4.205  48.739  1.00  0.00    -0.014 C 
HETATM   14  C1  UNL     1      22.785   4.930  47.770  1.00  0.00     0.037 C 
BRANCH  12  15
HETATM   15  C4  UNL     1      25.648   5.422  49.161  1.00  0.00     0.127 C 
HETATM   16  F1  UNL     1      26.741   5.232  48.350  1.00  0.00    -0.205 F 
HETATM   17  C5  UNL     1      25.646   6.683  49.606  1.00  0.00     0.047 C 
BRANCH  17  18
HETATM   18  C6  UNL     1      26.646   7.725  49.290  1.00  0.00     0.252 C 
HETATM   19  F2  UNL     1      26.987   8.404  50.425  1.00  0.00    -0.251 F 
ENDBRANCH  17  18
ENDBRANCH  12  15
ENDBRANCH   1  12
BRANCH   5  20
HETATM   20  C12 UNL     1      27.377  -0.297  53.236  1.00  0.00     0.025 A 
HETATM   21  C13 UNL     1      28.213   0.610  53.877  1.00  0.00     0.047 A 
HETATM   22 CL1  UNL     1      27.743   2.199  54.457  1.00  0.00    -0.083 Cl
HETATM   23  C14 UNL     1      29.556   0.304  54.115  1.00  0.00     0.025 A 
HETATM   24  C15 UNL     1      30.017  -0.932  53.691  1.00  0.00     0.003 A 
HETATM   25  C16 UNL     1      29.189  -1.838  53.053  1.00  0.00     0.025 A 
HETATM   26  C17 UNL     1      27.872  -1.519  52.827  1.00  0.00     0.047 A 
HETATM   27 CL2  UNL     1      26.680  -2.529  52.040  1.00  0.00    -0.083 Cl
ENDBRANCH   5  20
TORSDOF 4
ENDMDL
MODEL 2
REMARK VINA RESULT:      -9.0      4.130      7.589
REMARK  4 active torsions:
REMARK  status: ('A' for Active; 'I' for Inactive)
REMARK    1  A    between atoms: C3_3  and  C4_4 
REMARK    2  A    between atoms: C3_3  and  C7_9 
REMARK    3  A    between atoms: C5_6  and  C6_7 
REMARK    4  A    between atoms: C11_13  and  C12_14 
ROOT
HETATM    1  C7  UNL     1      23.806   1.348  52.333  1.00  0.00     0.090 A 
HETATM    2  C8  UNL     1      24.396   2.569  52.551  1.00  0.00     0.037 A 
HETATM    3  C9  UNL     1      24.360   3.627  51.667  1.00  0.00     0.035 A 
HETATM    4  C10 UNL     1      23.699   3.492  50.477  1.00  0.00     0.076 A 
HETATM    5  C11 UNL     1      23.618   4.486  49.556  1.00  0.00     0.076 A 
HETATM    6  C18 UNL     1      22.918   4.237  48.377  1.00  0.00     0.281 A 
HETATM    7  O1  UNL     1      22.862   5.178  47.545  1.00  0.00    -0.265 OA
HETATM    8  N1  UNL     1      22.356   3.015  48.214  1.00  0.00    -0.203 NA
HETATM    9  C19 UNL     1      22.454   2.054  49.147  1.00  0.00     0.239 A 
HETATM   10  N2  UNL     1      23.136   2.281  50.307  1.00  0.00    -0.226 N 
HETATM   11  N3  UNL     1      23.175   1.276  51.155  1.00  0.00    -0.166 NA
ENDROOT
BRANCH   1  12
HETATM   12  C3  UNL     1      23.811   0.202  53.225  1.00  0.00     0.029 C 
HETATM   13  C2  UNL     1      22.708  -0.186  53.831  1.00  0.00    -0.014 C 
HETATM   14  C1  UNL     1      22.220  -1.200  54.756  1.00  0.00     0.037 C 
BRANCH  12  15
HETATM   15  C4  UNL     1      25.075  -0.512  53.435  1.00  0.00     0.127 C 
HETATM   16  F1  UNL     1      25.368  -0.938  54.709  1.00  0.00    -0.205 F 
HETATM   17  C5  UNL     1      26.071  -0.865  52.615  1.00  0.00     0.047 C 
BRANCH  17  18
HETATM   18  C6  UNL     1      27.299  -1.596  52.992  1.00  0.00     0.252 C 
HETATM   19  F2  UNL     1      27.310  -2.827  52.401  1.00  0.00    -0.251 F 
ENDBRANCH  17  18
ENDBRANCH  12  15
ENDBRANCH   1  12
BRANCH   5  20
HETATM   20  C12 UNL     1      24.257   5.771  49.820  1.00  0.00     0.025 A 
HETATM   21  C13 UNL     1      23.358   6.670  50.381  1.00  0.00     0.047 A 
HETATM   22 CL1  UNL     1      21.671   6.339  50.738  1.00  0.00    -0.083 Cl
HETATM   23  C14 UNL     1      23.755   7.967  50.718  1.00  0.00     0.025 A 
HETATM   24  C15 UNL     1      25.073   8.318  50.471  1.00  0.00     0.003 A 
HETATM   25  C16 UNL     1      25.971   7.427  49.913  1.00  0.00     0.025 A 
HETATM   26  C17 UNL     1      25.563   6.157  49.589  1.00  0.00     0.047 A 
HETATM   27 CL2  UNL     1      26.549   4.898  48.879  1.00  0.00    -0.083 Cl
ENDBRANCH   5  20
TORSDOF 4
ENDMDL
MODEL 3
REMARK VINA RESULT:      -8.8      1.830      2.644
REMARK  4 active torsions:
REMARK  status: ('A' for Active; 'I' for Inactive)
REMARK    1  A    between atoms: C3_3  and  C4_4 
REMARK    2  A    between atoms: C3_3  and  C7_9 
REMARK    3  A    between atoms: C5_6  and  C6_7 
REMARK    4  A    between atoms: C11_13  and  C12_14 
ROOT
HETATM    1  C7  UNL     1      24.844   3.053  50.206  1.00  0.00     0.090 A 
HETATM    2  C8  UNL     1      26.138   2.619  50.358  1.00  0.00     0.037 A 
HETATM    3  C9  UNL     1      26.551   1.698  51.298  1.00  0.00     0.035 A 
HETATM    4  C10 UNL     1      25.638   1.154  52.158  1.00  0.00     0.076 A 
HETATM    5  C11 UNL     1      25.965   0.241  53.110  1.00  0.00     0.076 A 
HETATM    6  C18 UNL     1      24.952  -0.247  53.932  1.00  0.00     0.281 A 
HETATM    7  O1  UNL     1      25.289  -1.090  54.802  1.00  0.00    -0.265 OA
HETATM    8  N1  UNL     1      23.694   0.216  53.738  1.00  0.00    -0.203 NA
HETATM    9  C19 UNL     1      23.404   1.118  52.787  1.00  0.00     0.239 A 
HETATM   10  N2  UNL     1      24.385   1.607  51.973  1.00  0.00    -0.226 N 
HETATM   11  N3  UNL     1      23.998   2.487  51.074  1.00  0.00    -0.166 NA
ENDROOT
BRANCH   1  12
HETATM   12  C3  UNL     1      24.354   4.018  49.238  1.00  0.00     0.029 C 
HETATM   13  C2  UNL     1      24.907   5.209  49.133  1.00  0.00    -0.014 C 
HETATM   14  C1  UNL     1      24.793   6.448  48.377  1.00  0.00     0.037 C 
BRANCH  12  15
HETATM   15  C4  UNL     1      23.228   3.634  48.379  1.00  0.00     0.127 C 
HETATM   16  F1  UNL     1      23.161   2.329  47.951  1.00  0.00    -0.205 F 
HETATM   17  C5  UNL     1      22.185   4.311  47.886  1.00  0.00     0.047 C 
BRANCH  17  18
HETATM   18  C6  UNL     1      21.119   3.767  47.019  1.00  0.00     0.252 C 
HETATM   19  F2  UNL     1      21.642   3.392  45.815  1.00  0.00    -0.251 F 
ENDBRANCH  17  18
ENDBRANCH  12  15
ENDBRANCH   1  12
BRANCH   5  20
HETATM   20  C12 UNL     1      27.350  -0.198  53.244  1.00  0.00     0.025 A 
HETATM   21  C13 UNL     1      28.130   0.787  53.839  1.00  0.00     0.047 A 
HETATM   22 CL1  UNL     1      27.560   2.361  54.368  1.00  0.00    -0.083 Cl
HETATM   23  C14 UNL     1      29.494   0.583  54.067  1.00  0.00     0.025 A 
HETATM   24  C15 UNL     1      30.033  -0.635  53.681  1.00  0.00     0.003 A 
HETATM   25  C16 UNL     1      29.261  -1.618  53.089  1.00  0.00     0.025 A 
HETATM   26  C17 UNL     1      27.923  -1.398  52.873  1.00  0.00     0.047 A 
HETATM   27 CL2  UNL     1      26.793  -2.516  52.142  1.00  0.00    -0.083 Cl
ENDBRANCH   5  20
TORSDOF 4
ENDMDL
MODEL 4
REMARK VINA RESULT:      -8.8      0.892      2.001
REMARK  4 active torsions:
REMARK  status: ('A' for Active; 'I' for Inactive)
REMARK    1  A    between atoms: C3_3  and  C4_4 
REMARK    2  A    between atoms: C3_3  and  C7_9 
REMARK    3  A    between atoms: C5_6  and  C6_7 
REMARK    4  A    between atoms: C11_13  and  C12_14 
ROOT
HETATM    1  C7  UNL     1      24.797   2.967  50.296  1.00  0.00     0.090 A 
HETATM    2  C8  UNL     1      26.120   2.648  50.483  1.00  0.00     0.037 A 
HETATM    3  C9  UNL     1      26.586   1.762  51.432  1.00  0.00     0.035 A 
HETATM    4  C10 UNL     1      25.701   1.135  52.265  1.00  0.00     0.076 A 
HETATM    5  C11 UNL     1      26.082   0.250  53.222  1.00  0.00     0.076 A 
HETATM    6  C18 UNL     1      25.093  -0.330  54.015  1.00  0.00     0.281 A 
HETATM    7  O1  UNL     1      25.479  -1.145  54.892  1.00  0.00    -0.265 OA
HETATM    8  N1  UNL     1      23.805   0.022  53.787  1.00  0.00    -0.203 NA
HETATM    9  C19 UNL     1      23.463   0.900  52.831  1.00  0.00     0.239 A 
HETATM   10  N2  UNL     1      24.418   1.477  52.046  1.00  0.00    -0.226 N 
HETATM   11  N3  UNL     1      23.981   2.324  51.139  1.00  0.00    -0.166 NA
ENDROOT
BRANCH   1  12
HETATM   12  C3  UNL     1      24.250   3.890  49.318  1.00  0.00     0.029 C 
HETATM   13  C2  UNL     1      23.195   3.563  48.599  1.00  0.00    -0.014 C 
HETATM   14  C1  UNL     1      22.324   4.095  47.560  1.00  0.00     0.037 C 
BRANCH  12  15
HETATM   15  C4  UNL     1      24.901   5.194  49.147  1.00  0.00     0.127 C 
HETATM   16  F1  UNL     1      24.211   6.313  49.548  1.00  0.00    -0.205 F 
HETATM   17  C5  UNL     1      26.090   5.562  48.658  1.00  0.00     0.047 C 
BRANCH  17  18
HETATM   18  C6  UNL     1      26.604   6.945  48.555  1.00  0.00     0.252 C 
HETATM   19  F2  UNL     1      27.666   6.985  47.697  1.00  0.00    -0.251 F 
ENDBRANCH  17  18
ENDBRANCH  12  15
ENDBRANCH   1  12
BRANCH   5  20
HETATM   20  C12 UNL     1      27.496  -0.066  53.394  1.00  0.00     0.025 A 
HETATM   21  C13 UNL     1      27.789  -1.329  52.893  1.00  0.00     0.047 A 
HETATM   22 CL1  UNL     1      26.639  -2.425  52.148  1.00  0.00    -0.083 Cl
HETATM   23  C14 UNL     1      29.089  -1.841  52.952  1.00  0.00     0.025 A 
HETATM   24  C15 UNL     1      30.067  -1.043  53.525  1.00  0.00     0.003 A 
HETATM   25  C16 UNL     1      29.779   0.215  54.024  1.00  0.00     0.025 A 
HETATM   26  C17 UNL     1      28.497   0.700  53.958  1.00  0.00     0.047 A 
HETATM   27 CL2  UNL     1      27.945   2.257  54.533  1.00  0.00    -0.083 Cl
ENDBRANCH   5  20
TORSDOF 4
ENDMDL
MODEL 5
REMARK VINA RESULT:      -8.4      4.502      7.898
REMARK  4 active torsions:
REMARK  status: ('A' for Active; 'I' for Inactive)
REMARK    1  A    between atoms: C3_3  and  C4_4 
REMARK    2  A    between atoms: C3_3  and  C7_9 
REMARK    3  A    between atoms: C5_6  and  C6_7 
REMARK    4  A    between atoms: C11_13  and  C12_14 
ROOT
HETATM    1  C7  UNL     1      23.851   1.603  52.224  1.00  0.00     0.090 A 
HETATM    2  C8  UNL     1      24.471   2.812  52.426  1.00  0.00     0.037 A 
HETATM    3  C9  UNL     1      24.459   3.859  51.529  1.00  0.00     0.035 A 
HETATM    4  C10 UNL     1      23.793   3.725  50.342  1.00  0.00     0.076 A 
HETATM    5  C11 UNL     1      23.734   4.710  49.408  1.00  0.00     0.076 A 
HETATM    6  C18 UNL     1      23.027   4.463  48.233  1.00  0.00     0.281 A 
HETATM    7  O1  UNL     1      22.992   5.395  47.389  1.00  0.00    -0.265 OA
HETATM    8  N1  UNL     1      22.436   3.253  48.086  1.00  0.00    -0.203 NA
HETATM    9  C19 UNL     1      22.513   2.302  49.030  1.00  0.00     0.239 A 
HETATM   10  N2  UNL     1      23.202   2.527  50.187  1.00  0.00    -0.226 N 
HETATM   11  N3  UNL     1      23.218   1.531  51.048  1.00  0.00    -0.166 NA
ENDROOT
BRANCH   1  12
HETATM   12  C3  UNL     1      23.831   0.469  53.130  1.00  0.00     0.029 C 
HETATM   13  C2  UNL     1      24.904   0.137  53.819  1.00  0.00    -0.014 C 
HETATM   14  C1  UNL     1      25.368  -0.844  54.791  1.00  0.00     0.037 C 
BRANCH  12  15
HETATM   15  C4  UNL     1      22.588  -0.300  53.259  1.00  0.00     0.127 C 
HETATM   16  F1  UNL     1      22.574  -1.586  52.776  1.00  0.00    -0.205 F 
HETATM   17  C5  UNL     1      21.388  -0.011  53.773  1.00  0.00     0.047 C 
BRANCH  17  18
HETATM   18  C6  UNL     1      20.218  -0.914  53.827  1.00  0.00     0.252 C 
HETATM   19  F2  UNL     1      20.497  -1.993  54.616  1.00  0.00    -0.251 F 
ENDBRANCH  17  18
ENDBRANCH  12  15
ENDBRANCH   1  12
BRANCH   5  20
HETATM   20  C12 UNL     1      24.405   5.982  49.655  1.00  0.00     0.025 A 
HETATM   21  C13 UNL     1      23.523   6.916  50.186  1.00  0.00     0.047 A 
HETATM   22 CL1  UNL     1      21.823   6.638  50.525  1.00  0.00    -0.083 Cl
HETATM   23  C14 UNL     1      23.951   8.209  50.502  1.00  0.00     0.025 A 
HETATM   24  C15 UNL     1      25.281   8.519  50.267  1.00  0.00     0.003 A 
HETATM   25  C16 UNL     1      26.162   7.593  49.739  1.00  0.00     0.025 A 
HETATM   26  C17 UNL     1      25.724   6.328  49.435  1.00  0.00     0.047 A 
HETATM   27 CL2  UNL     1      26.685   5.029  48.764  1.00  0.00    -0.083 Cl
ENDBRANCH   5  20
TORSDOF 4
ENDMDL
MODEL 6
REMARK VINA RESULT:      -8.4      4.250      7.976
REMARK  4 active torsions:
REMARK  status: ('A' for Active; 'I' for Inactive)
REMARK    1  A    between atoms: C3_3  and  C4_4 
REMARK    2  A    between atoms: C3_3  and  C7_9 
REMARK    3  A    between atoms: C5_6  and  C6_7 
REMARK    4  A    between atoms: C11_13  and  C12_14 
ROOT
HETATM    1  C7  UNL     1      25.108   1.305  51.891  1.00  0.00     0.090 A 
HETATM    2  C8  UNL     1      23.861   1.876  51.823  1.00  0.00     0.037 A 
HETATM    3  C9  UNL     1      23.557   3.011  51.101  1.00  0.00     0.035 A 
HETATM    4  C10 UNL     1      24.538   3.643  50.388  1.00  0.00     0.076 A 
HETATM    5  C11 UNL     1      24.319   4.763  49.653  1.00  0.00     0.076 A 
HETATM    6  C18 UNL     1      25.394   5.323  48.966  1.00  0.00     0.281 A 
HETATM    7  O1  UNL     1      25.157   6.360  48.295  1.00  0.00    -0.265 OA
HETATM    8  N1  UNL     1      26.602   4.718  49.069  1.00  0.00    -0.203 NA
HETATM    9  C19 UNL     1      26.784   3.609  49.804  1.00  0.00     0.239 A 
HETATM   10  N2  UNL     1      25.742   3.049  50.483  1.00  0.00    -0.226 N 
HETATM   11  N3  UNL     1      26.025   1.965  51.175  1.00  0.00    -0.166 NA
ENDROOT
BRANCH   1  12
HETATM   12  C3  UNL     1      25.484   0.115  52.632  1.00  0.00     0.029 C 
HETATM   13  C2  UNL     1      26.580  -0.551  52.327  1.00  0.00    -0.014 C 
HETATM   14  C1  UNL     1      27.345  -1.722  52.735  1.00  0.00     0.037 C 
BRANCH  12  15
HETATM   15  C4  UNL     1      24.616  -0.329  53.728  1.00  0.00     0.127 C 
HETATM   16  F1  UNL     1      25.174  -0.457  54.978  1.00  0.00    -0.205 F 
HETATM   17  C5  UNL     1      23.322  -0.659  53.789  1.00  0.00     0.047 C 
BRANCH  17  18
HETATM   18  C6  UNL     1      22.585  -1.094  54.995  1.00  0.00     0.252 C 
HETATM   19  F2  UNL     1      21.454  -0.343  55.147  1.00  0.00    -0.251 F 
ENDBRANCH  17  18
ENDBRANCH  12  15
ENDBRANCH   1  12
BRANCH   5  20
HETATM   20  C12 UNL     1      22.981   5.345  49.603  1.00  0.00     0.025 A 
HETATM   21  C13 UNL     1      22.827   6.326  50.575  1.00  0.00     0.047 A 
HETATM   22 CL1  UNL     1      24.054   6.824  51.727  1.00  0.00    -0.083 Cl
HETATM   23  C14 UNL     1      21.620   7.019  50.711  1.00  0.00     0.025 A 
HETATM   24  C15 UNL     1      20.592   6.692  49.841  1.00  0.00     0.003 A 
HETATM   25  C16 UNL     1      20.741   5.716  48.872  1.00  0.00     0.025 A 
HETATM   26  C17 UNL     1      21.934   5.046  48.754  1.00  0.00     0.047 A 
HETATM   27 CL2  UNL     1      22.307   3.789  47.596  1.00  0.00    -0.083 Cl
ENDBRANCH   5  20
TORSDOF 4
ENDMDL
MODEL 7
REMARK VINA RESULT:      -8.3      3.876      7.909
REMARK  4 active torsions:
REMARK  status: ('A' for Active; 'I' for Inactive)
REMARK    1  A    between atoms: C3_3  and  C4_4 
REMARK    2  A    between atoms: C3_3  and  C7_9 
REMARK    3  A    between atoms: C5_6  and  C6_7 
REMARK    4  A    between atoms: C11_13  and  C12_14 
ROOT
HETATM    1  C7  UNL     1      24.707   0.955  52.382  1.00  0.00     0.090 A 
HETATM    2  C8  UNL     1      23.383   1.155  52.077  1.00  0.00     0.037 A 
HETATM    3  C9  UNL     1      22.917   2.106  51.194  1.00  0.00     0.035 A 
HETATM    4  C10 UNL     1      23.803   2.928  50.554  1.00  0.00     0.076 A 
HETATM    5  C11 UNL     1      23.423   3.886  49.670  1.00  0.00     0.076 A 
HETATM    6  C18 UNL     1      24.413   4.667  49.077  1.00  0.00     0.281 A 
HETATM    7  O1  UNL     1      24.027   5.545  48.264  1.00  0.00    -0.265 OA
HETATM    8  N1  UNL     1      25.702   4.426  49.414  1.00  0.00    -0.203 NA
HETATM    9  C19 UNL     1      26.045   3.468  50.291  1.00  0.00     0.239 A 
HETATM   10  N2  UNL     1      25.087   2.696  50.881  1.00  0.00    -0.226 N 
HETATM   11  N3  UNL     1      25.525   1.786  51.726  1.00  0.00    -0.166 NA
ENDROOT
BRANCH   1  12
HETATM   12  C3  UNL     1      25.254  -0.027  53.301  1.00  0.00     0.029 C 
HETATM   13  C2  UNL     1      24.556  -0.442  54.338  1.00  0.00    -0.014 C 
HETATM   14  C1  UNL     1      24.646  -1.348  55.476  1.00  0.00     0.037 C 
BRANCH  12  15
HETATM   15  C4  UNL     1      26.603  -0.546  53.046  1.00  0.00     0.127 C 
HETATM   16  F1  UNL     1      26.796  -1.311  51.921  1.00  0.00    -0.205 F 
HETATM   17  C5  UNL     1      27.761  -0.436  53.706  1.00  0.00     0.047 C 
BRANCH  17  18
HETATM   18  C6  UNL     1      29.055  -1.031  53.309  1.00  0.00     0.252 C 
HETATM   19  F2  UNL     1      30.014  -0.061  53.242  1.00  0.00    -0.251 F 
ENDBRANCH  17  18
ENDBRANCH  12  15
ENDBRANCH   1  12
BRANCH   5  20
HETATM   20  C12 UNL     1      22.007   4.073  49.371  1.00  0.00     0.025 A 
HETATM   21  C13 UNL     1      21.599   3.230  48.343  1.00  0.00     0.047 A 
HETATM   22 CL1  UNL     1      22.623   2.084  47.496  1.00  0.00    -0.083 Cl
HETATM   23  C14 UNL     1      20.276   3.239  47.890  1.00  0.00     0.025 A 
HETATM   24  C15 UNL     1      19.394   4.115  48.503  1.00  0.00     0.003 A 
HETATM   25  C16 UNL     1      19.795   4.955  49.525  1.00  0.00     0.025 A 
HETATM   26  C17 UNL     1      21.099   4.932  49.958  1.00  0.00     0.047 A 
HETATM   27 CL2  UNL     1      21.787   5.915  51.231  1.00  0.00    -0.083 Cl
ENDBRANCH   5  20
TORSDOF 4
ENDMDL
MODEL 8
REMARK VINA RESULT:      -8.3      3.696      7.170
REMARK  4 active torsions:
REMARK  status: ('A' for Active; 'I' for Inactive)
REMARK    1  A    between atoms: C3_3  and  C4_4 
REMARK    2  A    between atoms: C3_3  and  C7_9 
REMARK    3  A    between atoms: C5_6  and  C6_7 
REMARK    4  A    between atoms: C11_13  and  C12_14 
ROOT
HETATM    1  C7  UNL     1      25.484   0.234  52.700  1.00  0.00     0.090 A 
HETATM    2  C8  UNL     1      25.373   1.202  51.732  1.00  0.00     0.037 A 
HETATM    3  C9  UNL     1      24.197   1.838  51.391  1.00  0.00     0.035 A 
HETATM    4  C10 UNL     1      23.039   1.512  52.040  1.00  0.00     0.076 A 
HETATM    5  C11 UNL     1      21.843   2.094  51.763  1.00  0.00     0.076 A 
HETATM    6  C18 UNL     1      20.726   1.684  52.488  1.00  0.00     0.281 A 
HETATM    7  O1  UNL     1      19.635   2.242  52.207  1.00  0.00    -0.265 OA
HETATM    8  N1  UNL     1      20.894   0.726  53.431  1.00  0.00    -0.203 NA
HETATM    9  C19 UNL     1      22.091   0.172  53.681  1.00  0.00     0.239 A 
HETATM   10  N2  UNL     1      23.195   0.562  52.979  1.00  0.00    -0.226 N 
HETATM   11  N3  UNL     1      24.320  -0.042  53.299  1.00  0.00    -0.166 NA
ENDROOT
BRANCH   1  12
HETATM   12  C3  UNL     1      26.691  -0.468  53.099  1.00  0.00     0.029 C 
HETATM   13  C2  UNL     1      26.937  -1.687  52.664  1.00  0.00    -0.014 C 
HETATM   14  C1  UNL     1      27.932  -2.746  52.764  1.00  0.00     0.037 C 
BRANCH  12  15
HETATM   15  C4  UNL     1      27.629   0.213  53.998  1.00  0.00     0.127 C 
HETATM   16  F1  UNL     1      27.657  -0.180  55.315  1.00  0.00    -0.205 F 
HETATM   17  C5  UNL     1      28.521   1.193  53.814  1.00  0.00     0.047 C 
BRANCH  17  18
HETATM   18  C6  UNL     1      29.406   1.776  54.844  1.00  0.00     0.252 C 
HETATM   19  F2  UNL     1      30.091   2.837  54.323  1.00  0.00    -0.251 F 
ENDBRANCH  17  18
ENDBRANCH  12  15
ENDBRANCH   1  12
BRANCH   5  20
HETATM   20  C12 UNL     1      21.760   3.119  50.727  1.00  0.00     0.025 A 
HETATM   21  C13 UNL     1      21.492   2.553  49.486  1.00  0.00     0.047 A 
HETATM   22 CL1  UNL     1      21.278   0.840  49.169  1.00  0.00    -0.083 Cl
HETATM   23  C14 UNL     1      21.370   3.351  48.345  1.00  0.00     0.025 A 
HETATM   24  C15 UNL     1      21.524   4.720  48.500  1.00  0.00     0.003 A 
HETATM   25  C16 UNL     1      21.790   5.287  49.733  1.00  0.00     0.025 A 
HETATM   26  C17 UNL     1      21.907   4.487  50.843  1.00  0.00     0.047 A 
HETATM   27 CL2  UNL     1      22.239   5.020  52.476  1.00  0.00    -0.083 Cl
ENDBRANCH   5  20
TORSDOF 4
ENDMDL
MODEL 9
REMARK VINA RESULT:      -8.2      4.581      6.232
REMARK  4 active torsions:
REMARK  status: ('A' for Active; 'I' for Inactive)
REMARK    1  A    between atoms: C3_3  and  C4_4 
REMARK    2  A    between atoms: C3_3  and  C7_9 
REMARK    3  A    between atoms: C5_6  and  C6_7 
REMARK    4  A    between atoms: C11_13  and  C12_14 
ROOT
HETATM    1  C7  UNL     1      27.219   6.069  48.629  1.00  0.00     0.090 A 
HETATM    2  C8  UNL     1      26.862   4.763  48.858  1.00  0.00     0.037 A 
HETATM    3  C9  UNL     1      25.721   4.367  49.525  1.00  0.00     0.035 A 
HETATM    4  C10 UNL     1      24.858   5.312  50.008  1.00  0.00     0.076 A 
HETATM    5  C11 UNL     1      23.716   5.003  50.674  1.00  0.00     0.076 A 
HETATM    6  C18 UNL     1      22.910   6.048  51.122  1.00  0.00     0.281 A 
HETATM    7  O1  UNL     1      21.860   5.727  51.735  1.00  0.00    -0.265 OA
HETATM    8  N1  UNL     1      23.311   7.317  50.869  1.00  0.00    -0.203 NA
HETATM    9  C19 UNL     1      24.447   7.588  50.206  1.00  0.00     0.239 A 
HETATM   10  N2  UNL     1      25.248   6.576  49.761  1.00  0.00    -0.226 N 
HETATM   11  N3  UNL     1      26.338   6.946  49.124  1.00  0.00    -0.166 NA
ENDROOT
BRANCH   1  12
HETATM   12  C3  UNL     1      28.404   6.542  47.936  1.00  0.00     0.029 C 
HETATM   13  C2  UNL     1      28.336   7.562  47.104  1.00  0.00    -0.014 C 
HETATM   14  C1  UNL     1      29.175   8.364  46.224  1.00  0.00     0.037 C 
BRANCH  12  15
HETATM   15  C4  UNL     1      29.678   5.858  48.182  1.00  0.00     0.127 C 
HETATM   16  F1  UNL     1      29.819   4.573  47.713  1.00  0.00    -0.205 F 
HETATM   17  C5  UNL     1      30.805   6.225  48.802  1.00  0.00     0.047 C 
BRANCH  17  18
HETATM   18  C6  UNL     1      32.021   5.401  48.967  1.00  0.00     0.252 C 
HETATM   19  F2  UNL     1      32.636   5.228  47.760  1.00  0.00    -0.251 F 
ENDBRANCH  17  18
ENDBRANCH  12  15
ENDBRANCH   1  12
BRANCH   5  20
HETATM   20  C12 UNL     1      23.366   3.604  50.901  1.00  0.00     0.025 A 
HETATM   21  C13 UNL     1      22.698   3.073  49.804  1.00  0.00     0.047 A 
HETATM   22 CL1  UNL     1      22.308   3.939  48.328  1.00  0.00    -0.083 Cl
HETATM   23  C14 UNL     1      22.267   1.743  49.801  1.00  0.00     0.025 A 
HETATM   24  C15 UNL     1      22.532   0.981  50.928  1.00  0.00     0.003 A 
HETATM   25  C16 UNL     1      23.197   1.505  52.021  1.00  0.00     0.025 A 
HETATM   26  C17 UNL     1      23.613   2.814  52.006  1.00  0.00     0.047 A 
HETATM   27 CL2  UNL     1      24.463   3.648  53.287  1.00  0.00    -0.083 Cl
ENDBRANCH   5  20
TORSDOF 4
ENDMDL
