MODEL 1
REMARK VINA RESULT:      -8.9      0.000      0.000
REMARK  3 active torsions:
REMARK  status: ('A' for Active; 'I' for Inactive)
REMARK       I    between atoms: N1_1  and  C1_2 
REMARK       I    between atoms: C1_2  and  N2_4 
REMARK    1  A    between atoms: N2_4  and  C2_5 
REMARK    2  A    between atoms: C7_12  and  N5_13 
REMARK    3  A    between atoms: N5_13  and  C8_14 
ROOT
HETATM    1  C2  UNL     1      20.505   0.601  51.553  1.00  0.00     0.037 A 
HETATM    2  C3  UNL     1      19.502   0.083  52.320  1.00  0.00     0.032 A 
HETATM    3  C4  UNL     1      19.851  -0.584  53.475  1.00  0.00     0.035 A 
HETATM    4  C5  UNL     1      21.172  -0.709  53.820  1.00  0.00     0.072 A 
HETATM    5  N3  UNL     1      21.437  -1.383  54.978  1.00  0.00    -0.241 NA
HETATM    6  C6  UNL     1      22.723  -1.538  55.369  1.00  0.00     0.236 A 
HETATM    7  N4  UNL     1      23.703  -1.030  54.618  1.00  0.00    -0.224 NA
HETATM    8  C7  UNL     1      23.538  -0.359  53.478  1.00  0.00     0.142 A 
HETATM    9  C14 UNL     1      22.226  -0.208  53.090  1.00  0.00     0.041 A 
HETATM   10  C15 UNL     1      21.812   0.444  51.953  1.00  0.00     0.047 A 
ENDROOT
BRANCH   8  11
HETATM   11  N5  UNL     1      24.558   0.185  52.668  1.00  0.00    -0.340 N 
HETATM   12  H7  UNL     1      24.358   0.714  51.799  1.00  0.00     0.167 HD
BRANCH  11  13
HETATM   13  C8  UNL     1      25.956   0.116  52.878  1.00  0.00     0.035 A 
HETATM   14  C9  UNL     1      26.670  -1.061  52.824  1.00  0.00     0.032 A 
HETATM   15  C10 UNL     1      28.027  -1.157  53.031  1.00  0.00     0.046 A 
HETATM   16  C11 UNL     1      28.762  -0.035  53.313  1.00  0.00     0.138 A 
HETATM   17  F1  UNL     1      30.097  -0.083  53.524  1.00  0.00    -0.204 F 
HETATM   18  C12 UNL     1      28.104   1.156  53.378  1.00  0.00     0.074 A 
HETATM   19 CL1  UNL     1      28.983   2.627  53.733  1.00  0.00    -0.081 Cl
HETATM   20  C13 UNL     1      26.760   1.196  53.164  1.00  0.00     0.056 A 
ENDBRANCH  11  13
ENDBRANCH   8  11
BRANCH   1  21
HETATM   21  N2  UNL     1      20.139   1.289  50.362  1.00  0.00    -0.309 N 
HETATM   22  C1  UNL     1      20.572   1.380  49.006  1.00  0.00     0.318 C 
HETATM   23  N1  UNL     1      19.809   2.269  48.195  1.00  0.00    -0.352 N 
HETATM   24  O1  UNL     1      21.547   0.737  48.541  1.00  0.00    -0.247 OA
HETATM   25  H1  UNL     1      20.383   2.824  47.502  1.00  0.00     0.160 HD
HETATM   26  H2  UNL     1      18.756   2.335  48.314  1.00  0.00     0.160 HD
HETATM   27  H3  UNL     1      19.317   1.840  50.728  1.00  0.00     0.170 HD
ENDBRANCH   1  21
TORSDOF 3
ENDMDL
MODEL 2
REMARK VINA RESULT:      -8.8      2.824      4.522
REMARK  3 active torsions:
REMARK  status: ('A' for Active; 'I' for Inactive)
REMARK       I    between atoms: N1_1  and  C1_2 
REMARK       I    between atoms: C1_2  and  N2_4 
REMARK    1  A    between atoms: N2_4  and  C2_5 
REMARK    2  A    between atoms: C7_12  and  N5_13 
REMARK    3  A    between atoms: N5_13  and  C8_14 
ROOT
HETATM    1  C2  UNL     1      22.226   0.785  51.900  1.00  0.00     0.037 A 
HETATM    2  C3  UNL     1      21.609   1.056  50.713  1.00  0.00     0.032 A 
HETATM    3  C4  UNL     1      22.254   1.887  49.825  1.00  0.00     0.035 A 
HETATM    4  C5  UNL     1      23.479   2.415  50.147  1.00  0.00     0.072 A 
HETATM    5  N3  UNL     1      24.054   3.230  49.215  1.00  0.00    -0.241 NA
HETATM    6  C6  UNL     1      25.262   3.780  49.479  1.00  0.00     0.236 A 
HETATM    7  N4  UNL     1      25.865   3.514  50.640  1.00  0.00    -0.224 NA
HETATM    8  C7  UNL     1      25.380   2.732  51.604  1.00  0.00     0.142 A 
HETATM    9  C14 UNL     1      24.151   2.179  51.325  1.00  0.00     0.041 A 
HETATM   10  C15 UNL     1      23.454   1.344  52.166  1.00  0.00     0.047 A 
ENDROOT
BRANCH   8  11
HETATM   11  N5  UNL     1      25.998   2.438  52.838  1.00  0.00    -0.340 N 
HETATM   12  H7  UNL     1      25.745   2.923  53.719  1.00  0.00     0.167 HD
BRANCH  11  13
HETATM   13  C8  UNL     1      27.014   1.485  53.090  1.00  0.00     0.035 A 
HETATM   14  C9  UNL     1      28.245   1.815  53.612  1.00  0.00     0.032 A 
HETATM   15  C10 UNL     1      29.253   0.910  53.859  1.00  0.00     0.046 A 
HETATM   16  C11 UNL     1      29.068  -0.419  53.584  1.00  0.00     0.138 A 
HETATM   17  F1  UNL     1      30.029  -1.342  53.810  1.00  0.00    -0.204 F 
HETATM   18  C12 UNL     1      27.866  -0.799  53.065  1.00  0.00     0.074 A 
HETATM   19 CL1  UNL     1      27.564  -2.482  52.691  1.00  0.00    -0.081 Cl
HETATM   20  C13 UNL     1      26.903   0.136  52.840  1.00  0.00     0.056 A 
ENDBRANCH  11  13
ENDBRANCH   8  11
BRANCH   1  21
HETATM   21  N2  UNL     1      21.554  -0.076  52.814  1.00  0.00    -0.309 N 
HETATM   22  C1  UNL     1      21.867  -0.880  53.950  1.00  0.00     0.318 C 
HETATM   23  N1  UNL     1      20.758  -1.573  54.513  1.00  0.00    -0.352 N 
HETATM   24  O1  UNL     1      23.024  -0.983  54.432  1.00  0.00    -0.247 OA
HETATM   25  H1  UNL     1      20.984  -2.551  54.850  1.00  0.00     0.160 HD
HETATM   26  H2  UNL     1      19.804  -1.109  54.567  1.00  0.00     0.160 HD
HETATM   27  H3  UNL     1      20.575  -0.005  52.428  1.00  0.00     0.170 HD
ENDBRANCH   1  21
TORSDOF 3
ENDMDL
MODEL 3
REMARK VINA RESULT:      -8.7      3.802      5.794
REMARK  3 active torsions:
REMARK  status: ('A' for Active; 'I' for Inactive)
REMARK       I    between atoms: N1_1  and  C1_2 
REMARK       I    between atoms: C1_2  and  N2_4 
REMARK    1  A    between atoms: N2_4  and  C2_5 
REMARK    2  A    between atoms: C7_12  and  N5_13 
REMARK    3  A    between atoms: N5_13  and  C8_14 
ROOT
HETATM    1  C2  UNL     1      24.485  -0.626  54.345  1.00  0.00     0.037 A 
HETATM    2  C3  UNL     1      23.680  -1.243  55.259  1.00  0.00     0.032 A 
HETATM    3  C4  UNL     1      22.320  -1.220  55.041  1.00  0.00     0.035 A 
HETATM    4  C5  UNL     1      21.815  -0.590  53.932  1.00  0.00     0.072 A 
HETATM    5  N3  UNL     1      20.458  -0.611  53.786  1.00  0.00    -0.241 NA
HETATM    6  C6  UNL     1      19.903  -0.006  52.710  1.00  0.00     0.236 A 
HETATM    7  N4  UNL     1      20.691   0.596  51.817  1.00  0.00    -0.224 NA
HETATM    8  C7  UNL     1      22.021   0.664  51.877  1.00  0.00     0.142 A 
HETATM    9  C14 UNL     1      22.574   0.046  52.976  1.00  0.00     0.041 A 
HETATM   10  C15 UNL     1      23.919  -0.012  53.252  1.00  0.00     0.047 A 
ENDROOT
BRANCH   8  11
HETATM   11  N5  UNL     1      22.874   1.295  50.946  1.00  0.00    -0.340 N 
HETATM   12  H7  UNL     1      23.244   0.808  50.109  1.00  0.00     0.167 HD
BRANCH  11  13
HETATM   13  C8  UNL     1      23.352   2.627  50.978  1.00  0.00     0.035 A 
HETATM   14  C9  UNL     1      22.840   3.593  51.817  1.00  0.00     0.032 A 
HETATM   15  C10 UNL     1      23.282   4.896  51.862  1.00  0.00     0.046 A 
HETATM   16  C11 UNL     1      24.296   5.309  51.038  1.00  0.00     0.138 A 
HETATM   17  F1  UNL     1      24.761   6.578  51.048  1.00  0.00    -0.204 F 
HETATM   18  C12 UNL     1      24.837   4.391  50.188  1.00  0.00     0.074 A 
HETATM   19 CL1  UNL     1      26.135   4.854  49.109  1.00  0.00    -0.081 Cl
HETATM   20  C13 UNL     1      24.364   3.115  50.183  1.00  0.00     0.056 A 
ENDBRANCH  11  13
ENDBRANCH   8  11
BRANCH   1  21
HETATM   21  N2  UNL     1      25.889  -0.654  54.575  1.00  0.00    -0.309 N 
HETATM   22  C1  UNL     1      26.963   0.271  54.734  1.00  0.00     0.318 C 
HETATM   23  N1  UNL     1      28.238  -0.326  54.953  1.00  0.00    -0.352 N 
HETATM   24  O1  UNL     1      26.820   1.519  54.687  1.00  0.00    -0.247 OA
HETATM   25  H1  UNL     1      29.037   0.168  54.467  1.00  0.00     0.160 HD
HETATM   26  H2  UNL     1      28.328  -1.194  55.558  1.00  0.00     0.160 HD
HETATM   27  H3  UNL     1      26.036  -1.698  54.619  1.00  0.00     0.170 HD
ENDBRANCH   1  21
TORSDOF 3
ENDMDL
MODEL 4
REMARK VINA RESULT:      -8.4      4.153      5.989
REMARK  3 active torsions:
REMARK  status: ('A' for Active; 'I' for Inactive)
REMARK       I    between atoms: N1_1  and  C1_2 
REMARK       I    between atoms: C1_2  and  N2_4 
REMARK    1  A    between atoms: N2_4  and  C2_5 
REMARK    2  A    between atoms: C7_12  and  N5_13 
REMARK    3  A    between atoms: N5_13  and  C8_14 
ROOT
HETATM    1  C2  UNL     1      24.019  -0.445  54.016  1.00  0.00     0.037 A 
HETATM    2  C3  UNL     1      24.775  -0.812  55.091  1.00  0.00     0.032 A 
HETATM    3  C4  UNL     1      26.050  -0.298  55.190  1.00  0.00     0.035 A 
HETATM    4  C5  UNL     1      26.521   0.553  54.223  1.00  0.00     0.072 A 
HETATM    5  N3  UNL     1      27.793   1.019  54.391  1.00  0.00    -0.241 NA
HETATM    6  C6  UNL     1      28.312   1.862  53.468  1.00  0.00     0.236 A 
HETATM    7  N4  UNL     1      27.571   2.220  52.417  1.00  0.00    -0.224 NA
HETATM    8  C7  UNL     1      26.324   1.817  52.173  1.00  0.00     0.142 A 
HETATM    9  C14 UNL     1      25.808   0.960  53.118  1.00  0.00     0.041 A 
HETATM   10  C15 UNL     1      24.547   0.413  53.079  1.00  0.00     0.047 A 
ENDROOT
BRANCH   8  11
HETATM   11  N5  UNL     1      25.523   2.182  51.070  1.00  0.00    -0.340 N 
HETATM   12  H7  UNL     1      24.763   1.576  50.708  1.00  0.00     0.167 HD
BRANCH  11  13
HETATM   13  C8  UNL     1      25.603   3.366  50.300  1.00  0.00     0.035 A 
HETATM   14  C9  UNL     1      24.523   4.190  50.068  1.00  0.00     0.032 A 
HETATM   15  C10 UNL     1      24.572   5.343  49.317  1.00  0.00     0.046 A 
HETATM   16  C11 UNL     1      25.749   5.740  48.741  1.00  0.00     0.138 A 
HETATM   17  F1  UNL     1      25.843   6.864  47.995  1.00  0.00    -0.204 F 
HETATM   18  C12 UNL     1      26.849   4.960  48.939  1.00  0.00     0.074 A 
HETATM   19 CL1  UNL     1      28.384   5.411  48.230  1.00  0.00    -0.081 Cl
HETATM   20  C13 UNL     1      26.747   3.830  49.691  1.00  0.00     0.056 A 
ENDBRANCH  11  13
ENDBRANCH   8  11
BRANCH   1  21
HETATM   21  N2  UNL     1      22.702  -0.978  53.920  1.00  0.00    -0.309 N 
HETATM   22  C1  UNL     1      21.393  -0.680  54.400  1.00  0.00     0.318 C 
HETATM   23  N1  UNL     1      20.382  -1.591  53.979  1.00  0.00    -0.352 N 
HETATM   24  O1  UNL     1      21.129   0.302  55.139  1.00  0.00    -0.247 OA
HETATM   25  H1  UNL     1      19.658  -1.808  54.720  1.00  0.00     0.160 HD
HETATM   26  H2  UNL     1      20.396  -1.994  52.997  1.00  0.00     0.160 HD
HETATM   27  H3  UNL     1      22.898  -1.810  53.300  1.00  0.00     0.170 HD
ENDBRANCH   1  21
TORSDOF 3
ENDMDL
MODEL 5
REMARK VINA RESULT:      -8.4      4.143      5.396
REMARK  3 active torsions:
REMARK  status: ('A' for Active; 'I' for Inactive)
REMARK       I    between atoms: N1_1  and  C1_2 
REMARK       I    between atoms: C1_2  and  N2_4 
REMARK    1  A    between atoms: N2_4  and  C2_5 
REMARK    2  A    between atoms: C7_12  and  N5_13 
REMARK    3  A    between atoms: N5_13  and  C8_14 
ROOT
HETATM    1  C2  UNL     1      25.530   4.763  49.606  1.00  0.00     0.037 A 
HETATM    2  C3  UNL     1      24.435   4.639  48.800  1.00  0.00     0.032 A 
HETATM    3  C4  UNL     1      23.491   3.692  49.133  1.00  0.00     0.035 A 
HETATM    4  C5  UNL     1      23.670   2.910  50.246  1.00  0.00     0.072 A 
HETATM    5  N3  UNL     1      22.692   1.995  50.510  1.00  0.00    -0.241 NA
HETATM    6  C6  UNL     1      22.815   1.195  51.594  1.00  0.00     0.236 A 
HETATM    7  N4  UNL     1      23.885   1.317  52.382  1.00  0.00    -0.224 NA
HETATM    8  C7  UNL     1      24.886   2.181  52.202  1.00  0.00     0.142 A 
HETATM    9  C14 UNL     1      24.750   2.988  51.096  1.00  0.00     0.041 A 
HETATM   10  C15 UNL     1      25.653   3.950  50.708  1.00  0.00     0.047 A 
ENDROOT
BRANCH   8  11
HETATM   11  N5  UNL     1      26.026   2.327  53.020  1.00  0.00    -0.340 N 
HETATM   12  H7  UNL     1      26.202   3.177  53.587  1.00  0.00     0.167 HD
BRANCH  11  13
HETATM   13  C8  UNL     1      27.079   1.399  53.208  1.00  0.00     0.035 A 
HETATM   14  C9  UNL     1      28.321   1.753  53.684  1.00  0.00     0.032 A 
HETATM   15  C10 UNL     1      29.363   0.872  53.869  1.00  0.00     0.046 A 
HETATM   16  C11 UNL     1      29.202  -0.456  53.574  1.00  0.00     0.138 A 
HETATM   17  F1  UNL     1      30.198  -1.357  53.739  1.00  0.00    -0.204 F 
HETATM   18  C12 UNL     1      27.991  -0.860  53.098  1.00  0.00     0.074 A 
HETATM   19 CL1  UNL     1      27.719  -2.543  52.701  1.00  0.00    -0.081 Cl
HETATM   20  C13 UNL     1      26.993   0.052  52.935  1.00  0.00     0.056 A 
ENDBRANCH  11  13
ENDBRANCH   8  11
BRANCH   1  21
HETATM   21  N2  UNL     1      26.501   5.743  49.256  1.00  0.00    -0.309 N 
HETATM   22  C1  UNL     1      27.812   5.795  48.697  1.00  0.00     0.318 C 
HETATM   23  N1  UNL     1      28.349   7.107  48.558  1.00  0.00    -0.352 N 
HETATM   24  O1  UNL     1      28.461   4.777  48.349  1.00  0.00    -0.247 OA
HETATM   25  H1  UNL     1      29.383   7.178  48.773  1.00  0.00     0.160 HD
HETATM   26  H2  UNL     1      27.726   7.915  48.263  1.00  0.00     0.160 HD
HETATM   27  H3  UNL     1      25.976   6.614  49.541  1.00  0.00     0.170 HD
ENDBRANCH   1  21
TORSDOF 3
ENDMDL
MODEL 6
REMARK VINA RESULT:      -8.3      5.719      7.332
REMARK  3 active torsions:
REMARK  status: ('A' for Active; 'I' for Inactive)
REMARK       I    between atoms: N1_1  and  C1_2 
REMARK       I    between atoms: C1_2  and  N2_4 
REMARK    1  A    between atoms: N2_4  and  C2_5 
REMARK    2  A    between atoms: C7_12  and  N5_13 
REMARK    3  A    between atoms: N5_13  and  C8_14 
ROOT
HETATM    1  C2  UNL     1      26.030   6.996  49.263  1.00  0.00     0.037 A 
HETATM    2  C3  UNL     1      25.285   7.378  48.185  1.00  0.00     0.032 A 
HETATM    3  C4  UNL     1      24.192   6.610  47.850  1.00  0.00     0.035 A 
HETATM    4  C5  UNL     1      23.882   5.500  48.594  1.00  0.00     0.072 A 
HETATM    5  N3  UNL     1      22.784   4.791  48.199  1.00  0.00    -0.241 NA
HETATM    6  C6  UNL     1      22.430   3.686  48.895  1.00  0.00     0.236 A 
HETATM    7  N4  UNL     1      23.158   3.314  49.950  1.00  0.00    -0.224 NA
HETATM    8  C7  UNL     1      24.241   3.944  50.407  1.00  0.00     0.142 A 
HETATM    9  C14 UNL     1      24.591   5.066  49.690  1.00  0.00     0.041 A 
HETATM   10  C15 UNL     1      25.668   5.873  49.971  1.00  0.00     0.047 A 
ENDROOT
BRANCH   8  11
HETATM   11  N5  UNL     1      25.026   3.569  51.518  1.00  0.00    -0.340 N 
HETATM   12  H7  UNL     1      25.457   4.262  52.157  1.00  0.00     0.167 HD
BRANCH  11  13
HETATM   13  C8  UNL     1      25.352   2.258  51.941  1.00  0.00     0.035 A 
HETATM   14  C9  UNL     1      26.523   1.621  51.594  1.00  0.00     0.032 A 
HETATM   15  C10 UNL     1      26.860   0.345  51.986  1.00  0.00     0.046 A 
HETATM   16  C11 UNL     1      26.007  -0.380  52.775  1.00  0.00     0.138 A 
HETATM   17  F1  UNL     1      26.297  -1.637  53.183  1.00  0.00    -0.204 F 
HETATM   18  C12 UNL     1      24.834   0.204  53.148  1.00  0.00     0.074 A 
HETATM   19 CL1  UNL     1      23.700  -0.669  54.156  1.00  0.00    -0.081 Cl
HETATM   20  C13 UNL     1      24.549   1.468  52.733  1.00  0.00     0.056 A 
ENDBRANCH  11  13
ENDBRANCH   8  11
BRANCH   1  21
HETATM   21  N2  UNL     1      27.158   7.794  49.604  1.00  0.00    -0.309 N 
HETATM   22  C1  UNL     1      27.431   9.119  50.057  1.00  0.00     0.318 C 
HETATM   23  N1  UNL     1      28.812   9.411  50.250  1.00  0.00    -0.352 N 
HETATM   24  O1  UNL     1      26.539   9.978  50.275  1.00  0.00    -0.247 OA
HETATM   25  H1  UNL     1      29.093  10.389  49.958  1.00  0.00     0.160 HD
HETATM   26  H2  UNL     1      29.465   8.678  50.653  1.00  0.00     0.160 HD
HETATM   27  H3  UNL     1      27.925   7.091  49.429  1.00  0.00     0.170 HD
ENDBRANCH   1  21
TORSDOF 3
ENDMDL
MODEL 7
REMARK VINA RESULT:      -8.3      3.796      5.317
REMARK  3 active torsions:
REMARK  status: ('A' for Active; 'I' for Inactive)
REMARK       I    between atoms: N1_1  and  C1_2 
REMARK       I    between atoms: C1_2  and  N2_4 
REMARK    1  A    between atoms: N2_4  and  C2_5 
REMARK    2  A    between atoms: C7_12  and  N5_13 
REMARK    3  A    between atoms: N5_13  and  C8_14 
ROOT
HETATM    1  C2  UNL     1      22.136  -0.984  54.382  1.00  0.00     0.037 A 
HETATM    2  C3  UNL     1      22.755  -1.597  55.433  1.00  0.00     0.032 A 
HETATM    3  C4  UNL     1      24.116  -1.431  55.565  1.00  0.00     0.035 A 
HETATM    4  C5  UNL     1      24.805  -0.671  54.655  1.00  0.00     0.072 A 
HETATM    5  N3  UNL     1      26.151  -0.555  54.854  1.00  0.00    -0.241 NA
HETATM    6  C6  UNL     1      26.883   0.184  53.987  1.00  0.00     0.236 A 
HETATM    7  N4  UNL     1      26.276   0.782  52.960  1.00  0.00    -0.224 NA
HETATM    8  C7  UNL     1      24.971   0.726  52.690  1.00  0.00     0.142 A 
HETATM    9  C14 UNL     1      24.238  -0.029  53.578  1.00  0.00     0.041 A 
HETATM   10  C15 UNL     1      22.880  -0.233  53.502  1.00  0.00     0.047 A 
ENDROOT
BRANCH   8  11
HETATM   11  N5  UNL     1      24.308   1.348  51.611  1.00  0.00    -0.340 N 
HETATM   12  H7  UNL     1      23.969   0.821  50.785  1.00  0.00     0.167 HD
BRANCH  11  13
HETATM   13  C8  UNL     1      24.002   2.722  51.463  1.00  0.00     0.035 A 
HETATM   14  C9  UNL     1      23.619   3.527  52.514  1.00  0.00     0.032 A 
HETATM   15  C10 UNL     1      23.308   4.863  52.396  1.00  0.00     0.046 A 
HETATM   16  C11 UNL     1      23.369   5.480  51.174  1.00  0.00     0.138 A 
HETATM   17  F1  UNL     1      23.073   6.789  51.011  1.00  0.00    -0.204 F 
HETATM   18  C12 UNL     1      23.743   4.727  50.100  1.00  0.00     0.074 A 
HETATM   19 CL1  UNL     1      23.841   5.453  48.511  1.00  0.00    -0.081 Cl
HETATM   20  C13 UNL     1      24.041   3.410  50.272  1.00  0.00     0.056 A 
ENDBRANCH  11  13
ENDBRANCH   8  11
BRANCH   1  21
HETATM   21  N2  UNL     1      20.729  -1.158  54.251  1.00  0.00    -0.309 N 
HETATM   22  C1  UNL     1      19.660  -0.648  53.456  1.00  0.00     0.318 C 
HETATM   23  N1  UNL     1      18.379  -1.194  53.758  1.00  0.00    -0.352 N 
HETATM   24  O1  UNL     1      19.812   0.215  52.555  1.00  0.00    -0.247 OA
HETATM   25  H1  UNL     1      17.588  -0.493  53.713  1.00  0.00     0.160 HD
HETATM   26  H2  UNL     1      18.277  -2.222  54.004  1.00  0.00     0.160 HD
HETATM   27  H3  UNL     1      20.575  -1.883  55.002  1.00  0.00     0.170 HD
ENDBRANCH   1  21
TORSDOF 3
ENDMDL
MODEL 8
REMARK VINA RESULT:      -8.0      3.837      4.659
REMARK  3 active torsions:
REMARK  status: ('A' for Active; 'I' for Inactive)
REMARK       I    between atoms: N1_1  and  C1_2 
REMARK       I    between atoms: C1_2  and  N2_4 
REMARK    1  A    between atoms: N2_4  and  C2_5 
REMARK    2  A    between atoms: C7_12  and  N5_13 
REMARK    3  A    between atoms: N5_13  and  C8_14 
ROOT
HETATM    1  C2  UNL     1      23.916   5.325  51.002  1.00  0.00     0.037 A 
HETATM    2  C3  UNL     1      22.795   6.070  51.229  1.00  0.00     0.032 A 
HETATM    3  C4  UNL     1      21.681   5.427  51.722  1.00  0.00     0.035 A 
HETATM    4  C5  UNL     1      21.722   4.078  51.968  1.00  0.00     0.072 A 
HETATM    5  N3  UNL     1      20.578   3.514  52.455  1.00  0.00    -0.241 NA
HETATM    6  C6  UNL     1      20.559   2.186  52.716  1.00  0.00     0.236 A 
HETATM    7  N4  UNL     1      21.656   1.458  52.494  1.00  0.00    -0.224 NA
HETATM    8  C7  UNL     1      22.813   1.924  52.023  1.00  0.00     0.142 A 
HETATM    9  C14 UNL     1      22.820   3.275  51.761  1.00  0.00     0.041 A 
HETATM   10  C15 UNL     1      23.896   3.975  51.269  1.00  0.00     0.047 A 
ENDROOT
BRANCH   8  11
HETATM   11  N5  UNL     1      23.983   1.174  51.780  1.00  0.00    -0.340 N 
HETATM   12  H7  UNL     1      24.180   0.727  50.865  1.00  0.00     0.167 HD
BRANCH  11  13
HETATM   13  C8  UNL     1      25.042   0.909  52.682  1.00  0.00     0.035 A 
HETATM   14  C9  UNL     1      25.029  -0.141  53.573  1.00  0.00     0.032 A 
HETATM   15  C10 UNL     1      26.041  -0.416  54.465  1.00  0.00     0.046 A 
HETATM   16  C11 UNL     1      27.157   0.377  54.506  1.00  0.00     0.138 A 
HETATM   17  F1  UNL     1      28.175   0.145  55.366  1.00  0.00    -0.204 F 
HETATM   18  C12 UNL     1      27.220   1.431  53.644  1.00  0.00     0.074 A 
HETATM   19 CL1  UNL     1      28.618   2.485  53.646  1.00  0.00    -0.081 Cl
HETATM   20  C13 UNL     1      26.192   1.659  52.782  1.00  0.00     0.056 A 
ENDBRANCH  11  13
ENDBRANCH   8  11
BRANCH   1  21
HETATM   21  N2  UNL     1      25.064   5.995  50.494  1.00  0.00    -0.309 N 
HETATM   22  C1  UNL     1      26.145   5.732  49.601  1.00  0.00     0.318 C 
HETATM   23  N1  UNL     1      27.065   6.809  49.446  1.00  0.00    -0.352 N 
HETATM   24  O1  UNL     1      26.294   4.645  48.989  1.00  0.00    -0.247 OA
HETATM   25  H1  UNL     1      28.076   6.507  49.370  1.00  0.00     0.160 HD
HETATM   26  H2  UNL     1      26.719   7.812  49.415  1.00  0.00     0.160 HD
HETATM   27  H3  UNL     1      24.961   6.917  50.996  1.00  0.00     0.170 HD
ENDBRANCH   1  21
TORSDOF 3
ENDMDL
MODEL 9
REMARK VINA RESULT:      -8.0      4.063      6.594
REMARK  3 active torsions:
REMARK  status: ('A' for Active; 'I' for Inactive)
REMARK       I    between atoms: N1_1  and  C1_2 
REMARK       I    between atoms: C1_2  and  N2_4 
REMARK    1  A    between atoms: N2_4  and  C2_5 
REMARK    2  A    between atoms: C7_12  and  N5_13 
REMARK    3  A    between atoms: N5_13  and  C8_14 
ROOT
HETATM    1  C2  UNL     1      24.281  -0.557  54.183  1.00  0.00     0.037 A 
HETATM    2  C3  UNL     1      23.398  -1.167  55.026  1.00  0.00     0.032 A 
HETATM    3  C4  UNL     1      22.059  -1.112  54.708  1.00  0.00     0.035 A 
HETATM    4  C5  UNL     1      21.651  -0.456  53.575  1.00  0.00     0.072 A 
HETATM    5  N3  UNL     1      20.308  -0.444  53.329  1.00  0.00    -0.241 NA
HETATM    6  C6  UNL     1      19.847   0.189  52.225  1.00  0.00     0.236 A 
HETATM    7  N4  UNL     1      20.711   0.785  51.401  1.00  0.00    -0.224 NA
HETATM    8  C7  UNL     1      22.035   0.823  51.561  1.00  0.00     0.142 A 
HETATM    9  C14 UNL     1      22.491   0.177  52.687  1.00  0.00     0.041 A 
HETATM   10  C15 UNL     1      23.811   0.085  53.061  1.00  0.00     0.047 A 
ENDROOT
BRANCH   8  11
HETATM   11  N5  UNL     1      22.967   1.447  50.705  1.00  0.00    -0.340 N 
HETATM   12  H7  UNL     1      23.989   1.302  50.793  1.00  0.00     0.167 HD
BRANCH  11  13
HETATM   13  C8  UNL     1      22.697   2.332  49.634  1.00  0.00     0.035 A 
HETATM   14  C9  UNL     1      22.299   1.906  48.385  1.00  0.00     0.032 A 
HETATM   15  C10 UNL     1      22.038   2.745  47.325  1.00  0.00     0.046 A 
HETATM   16  C11 UNL     1      22.167   4.101  47.471  1.00  0.00     0.138 A 
HETATM   17  F1  UNL     1      21.922   4.961  46.457  1.00  0.00    -0.204 F 
HETATM   18  C12 UNL     1      22.559   4.575  48.687  1.00  0.00     0.074 A 
HETATM   19 CL1  UNL     1      22.744   6.296  48.940  1.00  0.00    -0.081 Cl
HETATM   20  C13 UNL     1      22.804   3.703  49.703  1.00  0.00     0.056 A 
ENDBRANCH  11  13
ENDBRANCH   8  11
BRANCH   1  21
HETATM   21  N2  UNL     1      25.664  -0.619  54.515  1.00  0.00    -0.309 N 
HETATM   22  C1  UNL     1      26.748   0.280  54.746  1.00  0.00     0.318 C 
HETATM   23  N1  UNL     1      27.986  -0.349  55.061  1.00  0.00    -0.352 N 
HETATM   24  O1  UNL     1      26.641   1.530  54.680  1.00  0.00    -0.247 OA
HETATM   25  H1  UNL     1      28.832   0.120  54.632  1.00  0.00     0.160 HD
HETATM   26  H2  UNL     1      28.010  -1.214  55.677  1.00  0.00     0.160 HD
HETATM   27  H3  UNL     1      25.779  -1.666  54.577  1.00  0.00     0.170 HD
ENDBRANCH   1  21
TORSDOF 3
ENDMDL
