MODEL 1
REMARK VINA RESULT:      -8.4      0.000      0.000
REMARK  8 active torsions:
REMARK  status: ('A' for Active; 'I' for Inactive)
REMARK    1  A    between atoms: O1_2  and  C2_3 
REMARK    2  A    between atoms: C6_9  and  N3_10 
REMARK    3  A    between atoms: N3_10  and  C7_11 
REMARK    4  A    between atoms: C15_20  and  O2_21 
REMARK    5  A    between atoms: O2_21  and  C16_22 
REMARK    6  A    between atoms: C16_22  and  C17_23 
REMARK    7  A    between atoms: C17_23  and  C18_24 
REMARK    8  A    between atoms: C18_24  and  N4_25 
ROOT
HETATM    1  C2  UNL     1      20.171  -0.103  52.582  1.00  0.00     0.103 A 
HETATM    2  C3  UNL     1      20.579  -0.700  53.744  1.00  0.00     0.072 A 
HETATM    3  C4  UNL     1      21.911  -0.740  54.047  1.00  0.00     0.075 A 
HETATM    4  N1  UNL     1      22.223  -1.351  55.218  1.00  0.00    -0.241 NA
HETATM    5  C5  UNL     1      23.512  -1.432  55.589  1.00  0.00     0.236 A 
HETATM    6  N2  UNL     1      24.420  -0.909  54.789  1.00  0.00    -0.224 NA
HETATM    7  C6  UNL     1      24.237  -0.289  53.621  1.00  0.00     0.142 A 
HETATM    8  C13 UNL     1      22.928  -0.217  53.264  1.00  0.00     0.042 A 
HETATM    9  C14 UNL     1      22.458   0.365  52.120  1.00  0.00     0.057 A 
HETATM   10  C15 UNL     1      21.136   0.443  51.749  1.00  0.00     0.103 A 
ENDROOT
BRANCH  10  11
HETATM   11  O2  UNL     1      20.671   1.036  50.585  1.00  0.00    -0.348 OA
BRANCH  11  12
HETATM   12  C16 UNL     1      21.185   0.787  49.305  1.00  0.00     0.177 C 
BRANCH  12  13
HETATM   13  C17 UNL     1      21.038   1.923  48.361  1.00  0.00     0.046 C 
BRANCH  13  14
HETATM   14  C18 UNL     1      22.252   2.666  47.973  1.00  0.00     0.119 C 
BRANCH  14  15
HETATM   15  N4  UNL     1      22.876   3.523  48.871  1.00  0.00    -0.409 N 
HETATM   16  C19 UNL     1      24.180   3.354  49.313  1.00  0.00     0.147 C 
HETATM   17  C20 UNL     1      24.389   3.230  50.787  1.00  0.00     0.291 C 
HETATM   18  N5  UNL     1      23.254   3.630  51.585  1.00  0.00     0.087 N 
HETATM   19  C21 UNL     1      23.775   4.062  52.890  1.00  0.00     0.310 C 
HETATM   20  C22 UNL     1      22.636   4.759  50.959  1.00  0.00     0.291 C 
HETATM   21  C23 UNL     1      22.027   4.386  49.630  1.00  0.00     0.147 C 
ENDBRANCH  14  15
ENDBRANCH  13  14
ENDBRANCH  12  13
ENDBRANCH  11  12
ENDBRANCH  10  11
BRANCH   1  22
HETATM   22  O1  UNL     1      18.830  -0.046  52.246  1.00  0.00    -0.353 OA
HETATM   23  C1  UNL     1      17.938  -0.957  52.816  1.00  0.00     0.210 C 
ENDBRANCH   1  22
BRANCH   7  24
HETATM   24  N3  UNL     1      25.223   0.267  52.778  1.00  0.00    -0.340 N 
HETATM   25  H6  UNL     1      25.036   0.470  51.789  1.00  0.00     0.167 HD
BRANCH  24  26
HETATM   26  C7  UNL     1      26.554   0.619  53.112  1.00  0.00     0.035 A 
HETATM   27  C8  UNL     1      26.938   1.927  53.302  1.00  0.00     0.029 A 
HETATM   28  C9  UNL     1      28.229   2.286  53.631  1.00  0.00     0.004 A 
HETATM   29  C10 UNL     1      29.214   1.336  53.789  1.00  0.00     0.024 A 
HETATM   30  C11 UNL     1      28.864   0.029  53.605  1.00  0.00     0.036 A 
HETATM   31 CL1  UNL     1      30.056  -1.239  53.785  1.00  0.00    -0.084 Cl
HETATM   32  C12 UNL     1      27.580  -0.278  53.282  1.00  0.00     0.053 A 
ENDBRANCH  24  26
ENDBRANCH   7  24
TORSDOF 8
ENDMDL
MODEL 2
REMARK VINA RESULT:      -8.3      1.342      2.063
REMARK  8 active torsions:
REMARK  status: ('A' for Active; 'I' for Inactive)
REMARK    1  A    between atoms: O1_2  and  C2_3 
REMARK    2  A    between atoms: C6_9  and  N3_10 
REMARK    3  A    between atoms: N3_10  and  C7_11 
REMARK    4  A    between atoms: C15_20  and  O2_21 
REMARK    5  A    between atoms: O2_21  and  C16_22 
REMARK    6  A    between atoms: C16_22  and  C17_23 
REMARK    7  A    between atoms: C17_23  and  C18_24 
REMARK    8  A    between atoms: C18_24  and  N4_25 
ROOT
HETATM    1  C2  UNL     1      20.315   0.228  52.590  1.00  0.00     0.103 A 
HETATM    2  C3  UNL     1      20.613  -0.412  53.763  1.00  0.00     0.072 A 
HETATM    3  C4  UNL     1      21.921  -0.626  54.098  1.00  0.00     0.075 A 
HETATM    4  N1  UNL     1      22.122  -1.266  55.278  1.00  0.00    -0.241 NA
HETATM    5  C5  UNL     1      23.380  -1.516  55.680  1.00  0.00     0.236 A 
HETATM    6  N2  UNL     1      24.367  -1.122  54.901  1.00  0.00    -0.224 NA
HETATM    7  C6  UNL     1      24.295  -0.490  53.727  1.00  0.00     0.142 A 
HETATM    8  C13 UNL     1      23.017  -0.247  53.339  1.00  0.00     0.042 A 
HETATM    9  C14 UNL     1      22.654   0.385  52.182  1.00  0.00     0.057 A 
HETATM   10  C15 UNL     1      21.364   0.635  51.780  1.00  0.00     0.103 A 
ENDROOT
BRANCH  10  11
HETATM   11  O2  UNL     1      21.008   1.278  50.603  1.00  0.00    -0.348 OA
BRANCH  11  12
HETATM   12  C16 UNL     1      21.319   2.610  50.299  1.00  0.00     0.177 C 
BRANCH  12  13
HETATM   13  C17 UNL     1      20.759   3.597  51.257  1.00  0.00     0.046 C 
BRANCH  13  14
HETATM   14  C18 UNL     1      21.517   4.839  51.498  1.00  0.00     0.119 C 
BRANCH  14  15
HETATM   15  N4  UNL     1      22.897   4.808  51.658  1.00  0.00    -0.409 N 
HETATM   16  C19 UNL     1      23.789   5.318  50.726  1.00  0.00     0.147 C 
HETATM   17  C20 UNL     1      24.808   4.376  50.173  1.00  0.00     0.291 C 
HETATM   18  N5  UNL     1      24.949   3.147  50.917  1.00  0.00     0.087 N 
HETATM   19  C21 UNL     1      26.318   2.660  50.691  1.00  0.00     0.310 C 
HETATM   20  C22 UNL     1      24.809   3.443  52.310  1.00  0.00     0.291 C 
HETATM   21  C23 UNL     1      23.410   3.902  52.637  1.00  0.00     0.147 C 
ENDBRANCH  14  15
ENDBRANCH  13  14
ENDBRANCH  12  13
ENDBRANCH  11  12
ENDBRANCH  10  11
BRANCH   1  22
HETATM   22  O1  UNL     1      19.002   0.460  52.223  1.00  0.00    -0.353 OA
HETATM   23  C1  UNL     1      18.074  -0.582  52.285  1.00  0.00     0.210 C 
ENDBRANCH   1  22
BRANCH   7  24
HETATM   24  N3  UNL     1      25.366  -0.076  52.906  1.00  0.00    -0.340 N 
HETATM   25  H6  UNL     1      25.207   0.349  51.984  1.00  0.00     0.167 HD
BRANCH  24  26
HETATM   26  C7  UNL     1      26.754  -0.162  53.178  1.00  0.00     0.035 A 
HETATM   27  C8  UNL     1      27.482  -1.297  52.908  1.00  0.00     0.029 A 
HETATM   28  C9  UNL     1      28.835  -1.395  53.163  1.00  0.00     0.004 A 
HETATM   29  C10 UNL     1      29.535  -0.342  53.709  1.00  0.00     0.024 A 
HETATM   30  C11 UNL     1      28.839   0.800  53.988  1.00  0.00     0.036 A 
HETATM   31 CL1  UNL     1      29.652   2.183  54.683  1.00  0.00    -0.084 Cl
HETATM   32  C12 UNL     1      27.507   0.851  53.720  1.00  0.00     0.053 A 
ENDBRANCH  24  26
ENDBRANCH   7  24
TORSDOF 8
ENDMDL
MODEL 3
REMARK VINA RESULT:      -8.3      1.147      1.651
REMARK  8 active torsions:
REMARK  status: ('A' for Active; 'I' for Inactive)
REMARK    1  A    between atoms: O1_2  and  C2_3 
REMARK    2  A    between atoms: C6_9  and  N3_10 
REMARK    3  A    between atoms: N3_10  and  C7_11 
REMARK    4  A    between atoms: C15_20  and  O2_21 
REMARK    5  A    between atoms: O2_21  and  C16_22 
REMARK    6  A    between atoms: C16_22  and  C17_23 
REMARK    7  A    between atoms: C17_23  and  C18_24 
REMARK    8  A    between atoms: C18_24  and  N4_25 
ROOT
HETATM    1  C2  UNL     1      19.979   0.179  52.381  1.00  0.00     0.103 A 
HETATM    2  C3  UNL     1      20.337  -0.463  53.536  1.00  0.00     0.072 A 
HETATM    3  C4  UNL     1      21.660  -0.579  53.857  1.00  0.00     0.075 A 
HETATM    4  N1  UNL     1      21.921  -1.230  55.019  1.00  0.00    -0.241 NA
HETATM    5  C5  UNL     1      23.198  -1.386  55.407  1.00  0.00     0.236 A 
HETATM    6  N2  UNL     1      24.144  -0.895  54.633  1.00  0.00    -0.224 NA
HETATM    7  C6  UNL     1      24.012  -0.242  53.476  1.00  0.00     0.142 A 
HETATM    8  C13 UNL     1      22.715  -0.094  53.101  1.00  0.00     0.042 A 
HETATM    9  C14 UNL     1      22.294   0.536  51.963  1.00  0.00     0.057 A 
HETATM   10  C15 UNL     1      20.984   0.690  51.575  1.00  0.00     0.103 A 
ENDROOT
BRANCH  10  11
HETATM   11  O2  UNL     1      20.568   1.331  50.417  1.00  0.00    -0.348 OA
BRANCH  11  12
HETATM   12  C16 UNL     1      21.109   1.104  49.144  1.00  0.00     0.177 C 
BRANCH  12  13
HETATM   13  C17 UNL     1      22.264   1.976  48.811  1.00  0.00     0.046 C 
BRANCH  13  14
HETATM   14  C18 UNL     1      22.254   3.364  49.312  1.00  0.00     0.119 C 
BRANCH  14  15
HETATM   15  N4  UNL     1      23.408   3.939  49.830  1.00  0.00    -0.409 N 
HETATM   16  C19 UNL     1      23.759   5.266  49.631  1.00  0.00     0.147 C 
HETATM   17  C20 UNL     1      25.082   5.532  48.990  1.00  0.00     0.291 C 
HETATM   18  N5  UNL     1      25.969   4.392  48.960  1.00  0.00     0.087 N 
HETATM   19  C21 UNL     1      27.342   4.915  48.926  1.00  0.00     0.310 C 
HETATM   20  C22 UNL     1      25.804   3.659  50.178  1.00  0.00     0.291 C 
HETATM   21  C23 UNL     1      24.430   3.043  50.269  1.00  0.00     0.147 C 
ENDBRANCH  14  15
ENDBRANCH  13  14
ENDBRANCH  12  13
ENDBRANCH  11  12
ENDBRANCH  10  11
BRANCH   1  22
HETATM   22  O1  UNL     1      18.648   0.313  52.027  1.00  0.00    -0.353 OA
HETATM   23  C1  UNL     1      17.735  -0.681  52.389  1.00  0.00     0.210 C 
ENDBRANCH   1  22
BRANCH   7  24
HETATM   24  N3  UNL     1      25.040   0.279  52.660  1.00  0.00    -0.340 N 
HETATM   25  H6  UNL     1      24.889   0.478  51.663  1.00  0.00     0.167 HD
BRANCH  24  26
HETATM   26  C7  UNL     1      26.368   0.599  53.032  1.00  0.00     0.035 A 
HETATM   27  C8  UNL     1      26.762   1.890  53.299  1.00  0.00     0.029 A 
HETATM   28  C9  UNL     1      28.051   2.217  53.667  1.00  0.00     0.004 A 
HETATM   29  C10 UNL     1      29.025   1.249  53.787  1.00  0.00     0.024 A 
HETATM   30  C11 UNL     1      28.665  -0.042  53.528  1.00  0.00     0.036 A 
HETATM   31 CL1  UNL     1      29.841  -1.331  53.656  1.00  0.00    -0.084 Cl
HETATM   32  C12 UNL     1      27.383  -0.317  53.169  1.00  0.00     0.053 A 
ENDBRANCH  24  26
ENDBRANCH   7  24
TORSDOF 8
ENDMDL
MODEL 4
REMARK VINA RESULT:      -7.9      3.306      6.202
REMARK  8 active torsions:
REMARK  status: ('A' for Active; 'I' for Inactive)
REMARK    1  A    between atoms: O1_2  and  C2_3 
REMARK    2  A    between atoms: C6_9  and  N3_10 
REMARK    3  A    between atoms: N3_10  and  C7_11 
REMARK    4  A    between atoms: C15_20  and  O2_21 
REMARK    5  A    between atoms: O2_21  and  C16_22 
REMARK    6  A    between atoms: C16_22  and  C17_23 
REMARK    7  A    between atoms: C17_23  and  C18_24 
REMARK    8  A    between atoms: C18_24  and  N4_25 
ROOT
HETATM    1  C2  UNL     1      26.642   0.030  53.100  1.00  0.00     0.103 A 
HETATM    2  C3  UNL     1      25.969  -0.633  54.091  1.00  0.00     0.072 A 
HETATM    3  C4  UNL     1      24.605  -0.552  54.147  1.00  0.00     0.075 A 
HETATM    4  N1  UNL     1      24.023  -1.240  55.161  1.00  0.00    -0.241 NA
HETATM    5  C5  UNL     1      22.685  -1.212  55.286  1.00  0.00     0.236 A 
HETATM    6  N2  UNL     1      21.997  -0.510  54.409  1.00  0.00    -0.224 NA
HETATM    7  C6  UNL     1      22.454   0.203  53.378  1.00  0.00     0.142 A 
HETATM    8  C13 UNL     1      23.807   0.162  53.268  1.00  0.00     0.042 A 
HETATM    9  C14 UNL     1      24.536   0.801  52.303  1.00  0.00     0.057 A 
HETATM   10  C15 UNL     1      25.905   0.765  52.185  1.00  0.00     0.103 A 
ENDROOT
BRANCH  10  11
HETATM   11  O2  UNL     1      26.635   1.418  51.201  1.00  0.00    -0.348 OA
BRANCH  11  12
HETATM   12  C16 UNL     1      26.692   2.810  51.045  1.00  0.00     0.177 C 
BRANCH  12  13
HETATM   13  C17 UNL     1      26.540   3.269  49.641  1.00  0.00     0.046 C 
BRANCH  13  14
HETATM   14  C18 UNL     1      26.183   4.681  49.407  1.00  0.00     0.119 C 
BRANCH  14  15
HETATM   15  N4  UNL     1      24.871   5.115  49.556  1.00  0.00    -0.409 N 
HETATM   16  C19 UNL     1      24.479   6.063  50.490  1.00  0.00     0.147 C 
HETATM   17  C20 UNL     1      23.428   5.657  51.472  1.00  0.00     0.291 C 
HETATM   18  N5  UNL     1      22.720   4.449  51.121  1.00  0.00     0.087 N 
HETATM   19  C21 UNL     1      21.394   4.528  51.750  1.00  0.00     0.310 C 
HETATM   20  C22 UNL     1      22.537   4.428  49.702  1.00  0.00     0.291 C 
HETATM   21  C23 UNL     1      23.854   4.295  48.978  1.00  0.00     0.147 C 
ENDBRANCH  14  15
ENDBRANCH  13  14
ENDBRANCH  12  13
ENDBRANCH  11  12
ENDBRANCH  10  11
BRANCH   1  22
HETATM   22  O1  UNL     1      28.021  -0.032  53.016  1.00  0.00    -0.353 OA
HETATM   23  C1  UNL     1      28.800   0.577  54.003  1.00  0.00     0.210 C 
ENDBRANCH   1  22
BRANCH   7  24
HETATM   24  N3  UNL     1      21.699   0.950  52.446  1.00  0.00    -0.340 N 
HETATM   25  H6  UNL     1      22.041   1.840  52.064  1.00  0.00     0.167 HD
BRANCH  24  26
HETATM   26  C7  UNL     1      20.427   0.636  51.907  1.00  0.00     0.035 A 
HETATM   27  C8  UNL     1      20.037   1.064  50.659  1.00  0.00     0.029 A 
HETATM   28  C9  UNL     1      18.804   0.763  50.118  1.00  0.00     0.004 A 
HETATM   29  C10 UNL     1      17.887   0.006  50.813  1.00  0.00     0.024 A 
HETATM   30  C11 UNL     1      18.245  -0.433  52.056  1.00  0.00     0.036 A 
HETATM   31 CL1  UNL     1      17.138  -1.399  53.005  1.00  0.00    -0.084 Cl
HETATM   32  C12 UNL     1      19.471  -0.113  52.548  1.00  0.00     0.053 A 
ENDBRANCH  24  26
ENDBRANCH   7  24
TORSDOF 8
ENDMDL
MODEL 5
REMARK VINA RESULT:      -7.9      2.679      3.454
REMARK  8 active torsions:
REMARK  status: ('A' for Active; 'I' for Inactive)
REMARK    1  A    between atoms: O1_2  and  C2_3 
REMARK    2  A    between atoms: C6_9  and  N3_10 
REMARK    3  A    between atoms: N3_10  and  C7_11 
REMARK    4  A    between atoms: C15_20  and  O2_21 
REMARK    5  A    between atoms: O2_21  and  C16_22 
REMARK    6  A    between atoms: C16_22  and  C17_23 
REMARK    7  A    between atoms: C17_23  and  C18_24 
REMARK    8  A    between atoms: C18_24  and  N4_25 
ROOT
HETATM    1  C2  UNL     1      20.652   2.863  52.394  1.00  0.00     0.103 A 
HETATM    2  C3  UNL     1      20.667   1.639  53.007  1.00  0.00     0.072 A 
HETATM    3  C4  UNL     1      21.848   0.959  53.121  1.00  0.00     0.075 A 
HETATM    4  N1  UNL     1      21.767  -0.245  53.742  1.00  0.00    -0.241 NA
HETATM    5  C5  UNL     1      22.884  -0.977  53.894  1.00  0.00     0.236 A 
HETATM    6  N2  UNL     1      24.014  -0.485  53.429  1.00  0.00    -0.224 NA
HETATM    7  C6  UNL     1      24.216   0.677  52.803  1.00  0.00     0.142 A 
HETATM    8  C13 UNL     1      23.077   1.402  52.659  1.00  0.00     0.042 A 
HETATM    9  C14 UNL     1      22.997   2.628  52.058  1.00  0.00     0.057 A 
HETATM   10  C15 UNL     1      21.848   3.368  51.908  1.00  0.00     0.103 A 
ENDROOT
BRANCH  10  11
HETATM   11  O2  UNL     1      21.779   4.611  51.296  1.00  0.00    -0.348 OA
BRANCH  11  12
HETATM   12  C16 UNL     1      22.695   5.652  51.503  1.00  0.00     0.177 C 
BRANCH  12  13
HETATM   13  C17 UNL     1      22.752   6.639  50.395  1.00  0.00     0.046 C 
BRANCH  13  14
HETATM   14  C18 UNL     1      23.710   6.400  49.299  1.00  0.00     0.119 C 
BRANCH  14  15
HETATM   15  N4  UNL     1      25.067   6.252  49.564  1.00  0.00    -0.409 N 
HETATM   16  C19 UNL     1      25.899   7.306  49.915  1.00  0.00     0.147 C 
HETATM   17  C20 UNL     1      27.089   7.552  49.046  1.00  0.00     0.291 C 
HETATM   18  N5  UNL     1      27.405   6.467  48.147  1.00  0.00     0.087 N 
HETATM   19  C21 UNL     1      28.846   6.546  47.866  1.00  0.00     0.310 C 
HETATM   20  C22 UNL     1      27.153   5.231  48.824  1.00  0.00     0.291 C 
HETATM   21  C23 UNL     1      25.683   5.047  49.105  1.00  0.00     0.147 C 
ENDBRANCH  14  15
ENDBRANCH  13  14
ENDBRANCH  12  13
ENDBRANCH  11  12
ENDBRANCH  10  11
BRANCH   1  22
HETATM   22  O1  UNL     1      19.475   3.576  52.263  1.00  0.00    -0.353 OA
HETATM   23  C1  UNL     1      18.416   3.031  51.532  1.00  0.00     0.210 C 
ENDBRANCH   1  22
BRANCH   7  24
HETATM   24  N3  UNL     1      25.437   1.189  52.311  1.00  0.00    -0.340 N 
HETATM   25  H6  UNL     1      25.475   1.788  51.478  1.00  0.00     0.167 HD
BRANCH  24  26
HETATM   26  C7  UNL     1      26.738   0.985  52.833  1.00  0.00     0.035 A 
HETATM   27  C8  UNL     1      27.477   2.012  53.374  1.00  0.00     0.029 A 
HETATM   28  C9  UNL     1      28.744   1.830  53.889  1.00  0.00     0.004 A 
HETATM   29  C10 UNL     1      29.342   0.589  53.888  1.00  0.00     0.024 A 
HETATM   30  C11 UNL     1      28.633  -0.451  53.357  1.00  0.00     0.036 A 
HETATM   31 CL1  UNL     1      29.319  -2.060  53.317  1.00  0.00    -0.084 Cl
HETATM   32  C12 UNL     1      27.388  -0.224  52.861  1.00  0.00     0.053 A 
ENDBRANCH  24  26
ENDBRANCH   7  24
TORSDOF 8
ENDMDL
MODEL 6
REMARK VINA RESULT:      -7.7      3.353      6.008
REMARK  8 active torsions:
REMARK  status: ('A' for Active; 'I' for Inactive)
REMARK    1  A    between atoms: O1_2  and  C2_3 
REMARK    2  A    between atoms: C6_9  and  N3_10 
REMARK    3  A    between atoms: N3_10  and  C7_11 
REMARK    4  A    between atoms: C15_20  and  O2_21 
REMARK    5  A    between atoms: O2_21  and  C16_22 
REMARK    6  A    between atoms: C16_22  and  C17_23 
REMARK    7  A    between atoms: C17_23  and  C18_24 
REMARK    8  A    between atoms: C18_24  and  N4_25 
ROOT
HETATM    1  C2  UNL     1      27.078   0.567  53.553  1.00  0.00     0.103 A 
HETATM    2  C3  UNL     1      26.523  -0.079  54.625  1.00  0.00     0.072 A 
HETATM    3  C4  UNL     1      25.217  -0.480  54.566  1.00  0.00     0.075 A 
HETATM    4  N1  UNL     1      24.752  -1.112  55.673  1.00  0.00    -0.241 NA
HETATM    5  C5  UNL     1      23.478  -1.537  55.695  1.00  0.00     0.236 A 
HETATM    6  N2  UNL     1      22.734  -1.318  54.630  1.00  0.00    -0.224 NA
HETATM    7  C6  UNL     1      23.076  -0.711  53.491  1.00  0.00     0.142 A 
HETATM    8  C13 UNL     1      24.367  -0.288  53.488  1.00  0.00     0.042 A 
HETATM    9  C14 UNL     1      24.978   0.360  52.451  1.00  0.00     0.057 A 
HETATM   10  C15 UNL     1      26.284   0.792  52.439  1.00  0.00     0.103 A 
ENDROOT
BRANCH  10  11
HETATM   11  O2  UNL     1      26.893   1.450  51.381  1.00  0.00    -0.348 OA
BRANCH  11  12
HETATM   12  C16 UNL     1      26.786   2.825  51.131  1.00  0.00     0.177 C 
BRANCH  12  13
HETATM   13  C17 UNL     1      26.340   3.159  49.755  1.00  0.00     0.046 C 
BRANCH  13  14
HETATM   14  C18 UNL     1      25.364   4.252  49.586  1.00  0.00     0.119 C 
BRANCH  14  15
HETATM   15  N4  UNL     1      24.116   4.188  50.193  1.00  0.00    -0.409 N 
HETATM   16  C19 UNL     1      23.145   3.257  49.852  1.00  0.00     0.147 C 
HETATM   17  C20 UNL     1      21.821   3.787  49.406  1.00  0.00     0.291 C 
HETATM   18  N5  UNL     1      21.610   5.186  49.699  1.00  0.00     0.087 N 
HETATM   19  C21 UNL     1      20.158   5.388  49.812  1.00  0.00     0.310 C 
HETATM   20  C22 UNL     1      22.197   5.474  50.972  1.00  0.00     0.291 C 
HETATM   21  C23 UNL     1      23.699   5.340  50.928  1.00  0.00     0.147 C 
ENDBRANCH  14  15
ENDBRANCH  13  14
ENDBRANCH  12  13
ENDBRANCH  11  12
ENDBRANCH  10  11
BRANCH   1  22
HETATM   22  O1  UNL     1      28.396   0.984  53.581  1.00  0.00    -0.353 OA
HETATM   23  C1  UNL     1      29.410   0.052  53.814  1.00  0.00     0.210 C 
ENDBRANCH   1  22
BRANCH   7  24
HETATM   24  N3  UNL     1      22.264  -0.485  52.359  1.00  0.00    -0.340 N 
HETATM   25  H6  UNL     1      22.361  -1.046  51.504  1.00  0.00     0.167 HD
BRANCH  24  26
HETATM   26  C7  UNL     1      21.243   0.483  52.200  1.00  0.00     0.035 A 
HETATM   27  C8  UNL     1      21.332   1.738  52.758  1.00  0.00     0.029 A 
HETATM   28  C9  UNL     1      20.348   2.694  52.609  1.00  0.00     0.004 A 
HETATM   29  C10 UNL     1      19.207   2.434  51.881  1.00  0.00     0.024 A 
HETATM   30  C11 UNL     1      19.089   1.197  51.315  1.00  0.00     0.036 A 
HETATM   31 CL1  UNL     1      17.672   0.786  50.376  1.00  0.00    -0.084 Cl
HETATM   32  C12 UNL     1      20.084   0.287  51.488  1.00  0.00     0.053 A 
ENDBRANCH  24  26
ENDBRANCH   7  24
TORSDOF 8
ENDMDL
MODEL 7
REMARK VINA RESULT:      -7.6      3.167      5.095
REMARK  8 active torsions:
REMARK  status: ('A' for Active; 'I' for Inactive)
REMARK    1  A    between atoms: O1_2  and  C2_3 
REMARK    2  A    between atoms: C6_9  and  N3_10 
REMARK    3  A    between atoms: N3_10  and  C7_11 
REMARK    4  A    between atoms: C15_20  and  O2_21 
REMARK    5  A    between atoms: O2_21  and  C16_22 
REMARK    6  A    between atoms: C16_22  and  C17_23 
REMARK    7  A    between atoms: C17_23  and  C18_24 
REMARK    8  A    between atoms: C18_24  and  N4_25 
ROOT
HETATM    1  C2  UNL     1      23.540  -0.120  53.401  1.00  0.00     0.103 A 
HETATM    2  C3  UNL     1      24.836   0.053  53.805  1.00  0.00     0.072 A 
HETATM    3  C4  UNL     1      25.657   0.882  53.093  1.00  0.00     0.075 A 
HETATM    4  N1  UNL     1      26.924   0.992  53.566  1.00  0.00    -0.241 NA
HETATM    5  C5  UNL     1      27.795   1.788  52.922  1.00  0.00     0.236 A 
HETATM    6  N2  UNL     1      27.371   2.429  51.852  1.00  0.00    -0.224 NA
HETATM    7  C6  UNL     1      26.159   2.400  51.294  1.00  0.00     0.142 A 
HETATM    8  C13 UNL     1      25.294   1.590  51.959  1.00  0.00     0.042 A 
HETATM    9  C14 UNL     1      23.990   1.377  51.607  1.00  0.00     0.057 A 
HETATM   10  C15 UNL     1      23.108   0.560  52.273  1.00  0.00     0.103 A 
ENDROOT
BRANCH  10  11
HETATM   11  O2  UNL     1      21.786   0.351  51.906  1.00  0.00    -0.348 OA
BRANCH  11  12
HETATM   12  C16 UNL     1      21.013   1.257  51.168  1.00  0.00     0.177 C 
BRANCH  12  13
HETATM   13  C17 UNL     1      20.232   2.207  52.002  1.00  0.00     0.046 C 
BRANCH  13  14
HETATM   14  C18 UNL     1      20.827   3.524  52.296  1.00  0.00     0.119 C 
BRANCH  14  15
HETATM   15  N4  UNL     1      20.661   4.589  51.419  1.00  0.00    -0.409 N 
HETATM   16  C19 UNL     1      19.694   4.619  50.424  1.00  0.00     0.147 C 
HETATM   17  C20 UNL     1      20.169   4.802  49.019  1.00  0.00     0.291 C 
HETATM   18  N5  UNL     1      21.536   5.252  48.906  1.00  0.00     0.087 N 
HETATM   19  C21 UNL     1      21.649   5.972  47.629  1.00  0.00     0.310 C 
HETATM   20  C22 UNL     1      21.795   6.182  49.963  1.00  0.00     0.291 C 
HETATM   21  C23 UNL     1      21.749   5.509  51.312  1.00  0.00     0.147 C 
ENDBRANCH  14  15
ENDBRANCH  13  14
ENDBRANCH  12  13
ENDBRANCH  11  12
ENDBRANCH  10  11
BRANCH   1  22
HETATM   22  O1  UNL     1      22.684  -0.951  54.101  1.00  0.00    -0.353 OA
HETATM   23  C1  UNL     1      23.013  -1.344  55.400  1.00  0.00     0.210 C 
ENDBRANCH   1  22
BRANCH   7  24
HETATM   24  N3  UNL     1      25.723   3.095  50.145  1.00  0.00    -0.340 N 
HETATM   25  H6  UNL     1      25.043   2.687  49.492  1.00  0.00     0.167 HD
BRANCH  24  26
HETATM   26  C7  UNL     1      26.112   4.386  49.710  1.00  0.00     0.035 A 
HETATM   27  C8  UNL     1      27.189   4.582  48.877  1.00  0.00     0.029 A 
HETATM   28  C9  UNL     1      27.578   5.833  48.441  1.00  0.00     0.004 A 
HETATM   29  C10 UNL     1      26.895   6.965  48.826  1.00  0.00     0.024 A 
HETATM   30  C11 UNL     1      25.821   6.803  49.654  1.00  0.00     0.036 A 
HETATM   31 CL1  UNL     1      24.899   8.190  50.190  1.00  0.00    -0.084 Cl
HETATM   32  C12 UNL     1      25.474   5.552  50.057  1.00  0.00     0.053 A 
ENDBRANCH  24  26
ENDBRANCH   7  24
TORSDOF 8
ENDMDL
MODEL 8
REMARK VINA RESULT:      -7.6      3.026      5.481
REMARK  8 active torsions:
REMARK  status: ('A' for Active; 'I' for Inactive)
REMARK    1  A    between atoms: O1_2  and  C2_3 
REMARK    2  A    between atoms: C6_9  and  N3_10 
REMARK    3  A    between atoms: N3_10  and  C7_11 
REMARK    4  A    between atoms: C15_20  and  O2_21 
REMARK    5  A    between atoms: O2_21  and  C16_22 
REMARK    6  A    between atoms: C16_22  and  C17_23 
REMARK    7  A    between atoms: C17_23  and  C18_24 
REMARK    8  A    between atoms: C18_24  and  N4_25 
ROOT
HETATM    1  C2  UNL     1      25.255  -0.554  54.685  1.00  0.00     0.103 A 
HETATM    2  C3  UNL     1      26.455   0.067  54.907  1.00  0.00     0.072 A 
HETATM    3  C4  UNL     1      26.939   0.943  53.976  1.00  0.00     0.075 A 
HETATM    4  N1  UNL     1      28.133   1.511  54.279  1.00  0.00    -0.241 NA
HETATM    5  C5  UNL     1      28.679   2.385  53.415  1.00  0.00     0.236 A 
HETATM    6  N2  UNL     1      28.021   2.649  52.305  1.00  0.00    -0.224 NA
HETATM    7  C6  UNL     1      26.849   2.156  51.900  1.00  0.00     0.142 A 
HETATM    8  C13 UNL     1      26.314   1.276  52.785  1.00  0.00     0.042 A 
HETATM    9  C14 UNL     1      25.122   0.624  52.622  1.00  0.00     0.057 A 
HETATM   10  C15 UNL     1      24.573  -0.268  53.513  1.00  0.00     0.103 A 
ENDROOT
BRANCH  10  11
HETATM   11  O2  UNL     1      23.364  -0.923  53.336  1.00  0.00    -0.348 OA
BRANCH  11  12
HETATM   12  C16 UNL     1      22.209  -0.678  54.092  1.00  0.00     0.177 C 
BRANCH  12  13
HETATM   13  C17 UNL     1      21.002  -0.386  53.277  1.00  0.00     0.046 C 
BRANCH  13  14
HETATM   14  C18 UNL     1      20.569   1.019  53.156  1.00  0.00     0.119 C 
BRANCH  14  15
HETATM   15  N4  UNL     1      20.473   1.627  51.909  1.00  0.00    -0.409 N 
HETATM   16  C19 UNL     1      20.038   0.969  50.768  1.00  0.00     0.147 C 
HETATM   17  C20 UNL     1      20.970   0.941  49.601  1.00  0.00     0.291 C 
HETATM   18  N5  UNL     1      22.065   1.878  49.691  1.00  0.00     0.087 N 
HETATM   19  C21 UNL     1      22.475   2.196  48.315  1.00  0.00     0.310 C 
HETATM   20  C22 UNL     1      21.582   3.081  50.298  1.00  0.00     0.291 C 
HETATM   21  C23 UNL     1      21.187   2.852  51.736  1.00  0.00     0.147 C 
ENDBRANCH  14  15
ENDBRANCH  13  14
ENDBRANCH  12  13
ENDBRANCH  11  12
ENDBRANCH  10  11
BRANCH   1  22
HETATM   22  O1  UNL     1      24.737  -1.446  55.607  1.00  0.00    -0.353 OA
HETATM   23  C1  UNL     1      24.876  -1.184  56.972  1.00  0.00     0.210 C 
ENDBRANCH   1  22
BRANCH   7  24
HETATM   24  N3  UNL     1      26.158   2.452  50.705  1.00  0.00    -0.340 N 
HETATM   25  H6  UNL     1      25.593   1.746  50.217  1.00  0.00     0.167 HD
BRANCH  24  26
HETATM   26  C7  UNL     1      26.117   3.684  50.006  1.00  0.00     0.035 A 
HETATM   27  C8  UNL     1      24.968   4.436  49.917  1.00  0.00     0.029 A 
HETATM   28  C9  UNL     1      24.913   5.640  49.244  1.00  0.00     0.004 A 
HETATM   29  C10 UNL     1      26.026   6.157  48.618  1.00  0.00     0.024 A 
HETATM   30  C11 UNL     1      27.182   5.434  48.689  1.00  0.00     0.036 A 
HETATM   31 CL1  UNL     1      28.640   6.020  47.921  1.00  0.00    -0.084 Cl
HETATM   32  C12 UNL     1      27.189   4.253  49.364  1.00  0.00     0.053 A 
ENDBRANCH  24  26
ENDBRANCH   7  24
TORSDOF 8
ENDMDL
MODEL 9
REMARK VINA RESULT:      -7.6      5.784      8.935
REMARK  8 active torsions:
REMARK  status: ('A' for Active; 'I' for Inactive)
REMARK    1  A    between atoms: O1_2  and  C2_3 
REMARK    2  A    between atoms: C6_9  and  N3_10 
REMARK    3  A    between atoms: N3_10  and  C7_11 
REMARK    4  A    between atoms: C15_20  and  O2_21 
REMARK    5  A    between atoms: O2_21  and  C16_22 
REMARK    6  A    between atoms: C16_22  and  C17_23 
REMARK    7  A    between atoms: C17_23  and  C18_24 
REMARK    8  A    between atoms: C18_24  and  N4_25 
ROOT
HETATM    1  C2  UNL     1      25.835   5.784  49.062  1.00  0.00     0.103 A 
HETATM    2  C3  UNL     1      26.320   6.989  48.629  1.00  0.00     0.072 A 
HETATM    3  C4  UNL     1      27.617   7.079  48.208  1.00  0.00     0.075 A 
HETATM    4  N1  UNL     1      28.011   8.310  47.796  1.00  0.00    -0.241 NA
HETATM    5  C5  UNL     1      29.272   8.484  47.367  1.00  0.00     0.236 A 
HETATM    6  N2  UNL     1      30.074   7.438  47.366  1.00  0.00    -0.224 NA
HETATM    7  C6  UNL     1      29.804   6.187  47.745  1.00  0.00     0.142 A 
HETATM    8  C13 UNL     1      28.525   6.032  48.176  1.00  0.00     0.042 A 
HETATM    9  C14 UNL     1      27.982   4.858  48.619  1.00  0.00     0.057 A 
HETATM   10  C15 UNL     1      26.690   4.692  49.056  1.00  0.00     0.103 A 
ENDROOT
BRANCH  10  11
HETATM   11  O2  UNL     1      26.150   3.495  49.504  1.00  0.00    -0.348 OA
BRANCH  11  12
HETATM   12  C16 UNL     1      26.524   2.849  50.690  1.00  0.00     0.177 C 
BRANCH  12  13
HETATM   13  C17 UNL     1      25.409   2.652  51.651  1.00  0.00     0.046 C 
BRANCH  13  14
HETATM   14  C18 UNL     1      25.028   1.270  52.000  1.00  0.00     0.119 C 
BRANCH  14  15
HETATM   15  N4  UNL     1      25.811   0.516  52.866  1.00  0.00    -0.409 N 
HETATM   16  C19 UNL     1      26.393   1.028  54.016  1.00  0.00     0.147 C 
HETATM   17  C20 UNL     1      27.879   0.918  54.134  1.00  0.00     0.291 C 
HETATM   18  N5  UNL     1      28.484   0.003  53.195  1.00  0.00     0.087 N 
HETATM   19  C21 UNL     1      29.732  -0.477  53.805  1.00  0.00     0.310 C 
HETATM   20  C22 UNL     1      27.612  -1.119  53.029  1.00  0.00     0.291 C 
HETATM   21  C23 UNL     1      26.321  -0.719  52.358  1.00  0.00     0.147 C 
ENDBRANCH  14  15
ENDBRANCH  13  14
ENDBRANCH  12  13
ENDBRANCH  11  12
ENDBRANCH  10  11
BRANCH   1  22
HETATM   22  O1  UNL     1      24.527   5.659  49.494  1.00  0.00    -0.353 OA
HETATM   23  C1  UNL     1      23.492   5.615  48.557  1.00  0.00     0.210 C 
ENDBRANCH   1  22
BRANCH   7  24
HETATM   24  N3  UNL     1      30.677   5.077  47.736  1.00  0.00    -0.340 N 
HETATM   25  H6  UNL     1      30.325   4.113  47.715  1.00  0.00     0.167 HD
BRANCH  24  26
HETATM   26  C7  UNL     1      32.094   5.086  47.755  1.00  0.00     0.035 A 
HETATM   27  C8  UNL     1      32.807   5.713  48.750  1.00  0.00     0.029 A 
HETATM   28  C9  UNL     1      34.187   5.727  48.785  1.00  0.00     0.004 A 
HETATM   29  C10 UNL     1      34.930   5.101  47.809  1.00  0.00     0.024 A 
HETATM   30  C11 UNL     1      34.250   4.470  46.807  1.00  0.00     0.036 A 
HETATM   31 CL1  UNL     1      35.118   3.653  45.527  1.00  0.00    -0.084 Cl
HETATM   32  C12 UNL     1      32.891   4.482  46.813  1.00  0.00     0.053 A 
ENDBRANCH  24  26
ENDBRANCH   7  24
TORSDOF 8
ENDMDL
