MODEL 1
REMARK VINA RESULT:      -7.1      0.000      0.000
REMARK  4 active torsions:
REMARK  status: ('A' for Active; 'I' for Inactive)
REMARK    1  A    between atoms: C2_2  and  O1_3 
REMARK    2  A    between atoms: O1_3  and  C3_4 
REMARK    3  A    between atoms: N2_11  and  C9_12 
REMARK    4  A    between atoms: C15_19  and  O2_20 
ROOT
HETATM    1  C3  UNL     1      20.694   0.134  52.306  1.00  0.00     0.100 C 
HETATM    2  C4  UNL     1      22.015   0.184  52.253  1.00  0.00     0.044 C 
HETATM    3  C5  UNL     1      22.717  -0.696  53.147  1.00  0.00     0.167 A 
HETATM    4  C6  UNL     1      21.840  -1.282  54.163  1.00  0.00     0.064 A 
HETATM    5  N1  UNL     1      22.256  -1.672  55.329  1.00  0.00    -0.262 NA
HETATM    6  C7  UNL     1      23.617  -1.521  55.714  1.00  0.00     0.134 A 
HETATM    7  C8  UNL     1      24.459  -0.943  54.869  1.00  0.00     0.111 A 
HETATM    8  N2  UNL     1      24.019  -0.464  53.603  1.00  0.00    -0.343 N 
HETATM    9  C14 UNL     1      20.373  -1.363  54.119  1.00  0.00     0.069 C 
HETATM   10  C15 UNL     1      19.784  -0.609  53.166  1.00  0.00     0.103 C 
ENDROOT
BRANCH   8  11
HETATM   11  C9  UNL     1      24.966   0.259  52.833  1.00  0.00     0.030 A 
HETATM   12  C10 UNL     1      26.203  -0.256  52.831  1.00  0.00     0.026 A 
HETATM   13  C11 UNL     1      27.053   0.596  52.001  1.00  0.00    -0.001 A 
HETATM   14  C12 UNL     1      26.319   1.592  51.527  1.00  0.00    -0.005 A 
HETATM   15  C13 UNL     1      24.905   1.492  52.002  1.00  0.00     0.130 A 
HETATM   16 BR1  UNL     1      24.401   3.054  53.017  1.00  0.00    -0.080 Br
ENDBRANCH   8  11
BRANCH   1  17
HETATM   17  O1  UNL     1      20.027   0.977  51.397  1.00  0.00    -0.349 OA
BRANCH  17  18
HETATM   18  C2  UNL     1      20.541   2.219  51.002  1.00  0.00     0.171 C 
HETATM   19  C1  UNL     1      20.087   3.231  52.059  1.00  0.00     0.034 C 
ENDBRANCH  17  18
ENDBRANCH   1  17
BRANCH  10  20
HETATM   20  O2  UNL     1      18.404  -0.550  53.021  1.00  0.00    -0.353 OA
HETATM   21  C16 UNL     1      17.702  -1.743  53.358  1.00  0.00     0.210 C 
ENDBRANCH  10  20
TORSDOF 4
ENDMDL
MODEL 2
REMARK VINA RESULT:      -7.0      2.658      5.314
REMARK  4 active torsions:
REMARK  status: ('A' for Active; 'I' for Inactive)
REMARK    1  A    between atoms: C2_2  and  O1_3 
REMARK    2  A    between atoms: O1_3  and  C3_4 
REMARK    3  A    between atoms: N2_11  and  C9_12 
REMARK    4  A    between atoms: C15_19  and  O2_20 
ROOT
HETATM    1  C3  UNL     1      25.333   0.437  52.654  1.00  0.00     0.100 C 
HETATM    2  C4  UNL     1      24.113   0.829  52.324  1.00  0.00     0.044 C 
HETATM    3  C5  UNL     1      23.064   0.464  53.238  1.00  0.00     0.167 A 
HETATM    4  C6  UNL     1      23.497  -0.528  54.224  1.00  0.00     0.064 A 
HETATM    5  N1  UNL     1      22.689  -1.366  54.799  1.00  0.00    -0.262 NA
HETATM    6  C7  UNL     1      21.304  -1.394  54.474  1.00  0.00     0.134 A 
HETATM    7  C8  UNL     1      20.850  -0.566  53.546  1.00  0.00     0.111 A 
HETATM    8  N2  UNL     1      21.723   0.330  52.866  1.00  0.00    -0.343 N 
HETATM    9  C14 UNL     1      24.881  -0.861  54.588  1.00  0.00     0.069 C 
HETATM   10  C15 UNL     1      25.828  -0.375  53.757  1.00  0.00     0.103 C 
ENDROOT
BRANCH   8  11
HETATM   11  C9  UNL     1      21.162   1.076  51.797  1.00  0.00     0.030 A 
HETATM   12  C10 UNL     1      21.140   0.443  50.616  1.00  0.00     0.026 A 
HETATM   13  C11 UNL     1      20.538   1.337  49.628  1.00  0.00    -0.001 A 
HETATM   14  C12 UNL     1      20.215   2.473  50.227  1.00  0.00    -0.005 A 
HETATM   15  C13 UNL     1      20.575   2.439  51.678  1.00  0.00     0.130 A 
HETATM   16 BR1  UNL     1      21.831   3.836  52.116  1.00  0.00    -0.080 Br
ENDBRANCH   8  11
BRANCH   1  17
HETATM   17  O1  UNL     1      26.349   0.836  51.765  1.00  0.00    -0.349 OA
BRANCH  17  18
HETATM   18  C2  UNL     1      26.893   2.127  51.769  1.00  0.00     0.171 C 
HETATM   19  C1  UNL     1      26.485   2.771  50.439  1.00  0.00     0.034 C 
ENDBRANCH  17  18
ENDBRANCH   1  17
BRANCH  10  20
HETATM   20  O2  UNL     1      27.179  -0.634  53.946  1.00  0.00    -0.353 OA
HETATM   21  C16 UNL     1      27.842   0.224  54.870  1.00  0.00     0.210 C 
ENDBRANCH  10  20
TORSDOF 4
ENDMDL
MODEL 3
REMARK VINA RESULT:      -7.0      2.597      4.433
REMARK  4 active torsions:
REMARK  status: ('A' for Active; 'I' for Inactive)
REMARK    1  A    between atoms: C2_2  and  O1_3 
REMARK    2  A    between atoms: O1_3  and  C3_4 
REMARK    3  A    between atoms: N2_11  and  C9_12 
REMARK    4  A    between atoms: C15_19  and  O2_20 
ROOT
HETATM    1  C3  UNL     1      23.007   0.341  52.452  1.00  0.00     0.100 C 
HETATM    2  C4  UNL     1      24.230   0.645  52.855  1.00  0.00     0.044 C 
HETATM    3  C5  UNL     1      24.818   1.815  52.260  1.00  0.00     0.167 A 
HETATM    4  C6  UNL     1      24.065   2.295  51.099  1.00  0.00     0.064 A 
HETATM    5  N1  UNL     1      24.602   2.965  50.125  1.00  0.00    -0.262 NA
HETATM    6  C7  UNL     1      25.994   3.255  50.110  1.00  0.00     0.134 A 
HETATM    7  C8  UNL     1      26.751   2.801  51.098  1.00  0.00     0.111 A 
HETATM    8  N2  UNL     1      26.197   2.023  52.154  1.00  0.00    -0.343 N 
HETATM    9  C14 UNL     1      22.676   1.965  50.753  1.00  0.00     0.069 C 
HETATM   10  C15 UNL     1      22.140   0.936  51.444  1.00  0.00     0.103 C 
ENDROOT
BRANCH   8  11
HETATM   11  C9  UNL     1      27.113   1.473  53.086  1.00  0.00     0.030 A 
HETATM   12  C10 UNL     1      28.180   2.240  53.351  1.00  0.00     0.026 A 
HETATM   13  C11 UNL     1      29.019   1.538  54.320  1.00  0.00    -0.001 A 
HETATM   14  C12 UNL     1      28.449   0.379  54.614  1.00  0.00    -0.005 A 
HETATM   15  C13 UNL     1      27.169   0.203  53.862  1.00  0.00     0.130 A 
HETATM   16 BR1  UNL     1      27.235  -1.361  52.734  1.00  0.00    -0.080 Br
ENDBRANCH   8  11
BRANCH   1  17
HETATM   17  O1  UNL     1      22.437  -0.787  53.073  1.00  0.00    -0.349 OA
BRANCH  17  18
HETATM   18  C2  UNL     1      22.368  -0.928  54.465  1.00  0.00     0.171 C 
HETATM   19  C1  UNL     1      21.150  -0.116  54.922  1.00  0.00     0.034 C 
ENDBRANCH  17  18
ENDBRANCH   1  17
BRANCH  10  20
HETATM   20  O2  UNL     1      20.849   0.480  51.207  1.00  0.00    -0.353 OA
HETATM   21  C16 UNL     1      19.808   1.274  51.769  1.00  0.00     0.210 C 
ENDBRANCH  10  20
TORSDOF 4
ENDMDL
MODEL 4
REMARK VINA RESULT:      -6.8      2.965      5.591
REMARK  4 active torsions:
REMARK  status: ('A' for Active; 'I' for Inactive)
REMARK    1  A    between atoms: C2_2  and  O1_3 
REMARK    2  A    between atoms: O1_3  and  C3_4 
REMARK    3  A    between atoms: N2_11  and  C9_12 
REMARK    4  A    between atoms: C15_19  and  O2_20 
ROOT
HETATM    1  C3  UNL     1      25.519   0.967  52.159  1.00  0.00     0.100 C 
HETATM    2  C4  UNL     1      24.311   1.498  52.062  1.00  0.00     0.044 C 
HETATM    3  C5  UNL     1      23.333   1.019  53.002  1.00  0.00     0.167 A 
HETATM    4  C6  UNL     1      23.776  -0.184  53.710  1.00  0.00     0.064 A 
HETATM    5  N1  UNL     1      22.960  -1.069  54.197  1.00  0.00    -0.262 NA
HETATM    6  C7  UNL     1      21.552  -0.937  54.040  1.00  0.00     0.134 A 
HETATM    7  C8  UNL     1      21.080   0.096  53.358  1.00  0.00     0.111 A 
HETATM    8  N2  UNL     1      21.954   1.055  52.773  1.00  0.00    -0.343 N 
HETATM    9  C14 UNL     1      25.155  -0.676  53.833  1.00  0.00     0.069 C 
HETATM   10  C15 UNL     1      26.050  -0.089  53.010  1.00  0.00     0.103 C 
ENDROOT
BRANCH   8  11
HETATM   11  C9  UNL     1      21.354   2.043  51.951  1.00  0.00     0.030 A 
HETATM   12  C10 UNL     1      20.365   2.736  52.530  1.00  0.00     0.026 A 
HETATM   13  C11 UNL     1      19.856   3.705  51.561  1.00  0.00    -0.001 A 
HETATM   14  C12 UNL     1      20.540   3.576  50.434  1.00  0.00    -0.005 A 
HETATM   15  C13 UNL     1      21.574   2.503  50.552  1.00  0.00     0.130 A 
HETATM   16 BR1  UNL     1      21.280   1.109  49.251  1.00  0.00    -0.080 Br
ENDBRANCH   8  11
BRANCH   1  17
HETATM   17  O1  UNL     1      26.470   1.476  51.254  1.00  0.00    -0.349 OA
BRANCH  17  18
HETATM   18  C2  UNL     1      26.702   2.848  51.095  1.00  0.00     0.171 C 
HETATM   19  C1  UNL     1      26.476   3.155  49.610  1.00  0.00     0.034 C 
ENDBRANCH  17  18
ENDBRANCH   1  17
BRANCH  10  20
HETATM   20  O2  UNL     1      27.386  -0.469  52.981  1.00  0.00    -0.353 OA
HETATM   21  C16 UNL     1      28.154  -0.092  54.120  1.00  0.00     0.210 C 
ENDBRANCH  10  20
TORSDOF 4
ENDMDL
MODEL 5
REMARK VINA RESULT:      -6.8      3.245      6.392
REMARK  4 active torsions:
REMARK  status: ('A' for Active; 'I' for Inactive)
REMARK    1  A    between atoms: C2_2  and  O1_3 
REMARK    2  A    between atoms: O1_3  and  C3_4 
REMARK    3  A    between atoms: N2_11  and  C9_12 
REMARK    4  A    between atoms: C15_19  and  O2_20 
ROOT
HETATM    1  C3  UNL     1      25.854  -0.330  53.597  1.00  0.00     0.100 C 
HETATM    2  C4  UNL     1      24.839   0.177  52.917  1.00  0.00     0.044 C 
HETATM    3  C5  UNL     1      25.182   1.047  51.824  1.00  0.00     0.167 A 
HETATM    4  C6  UNL     1      26.591   1.444  51.842  1.00  0.00     0.064 A 
HETATM    5  N1  UNL     1      27.029   2.551  51.325  1.00  0.00    -0.262 NA
HETATM    6  C7  UNL     1      26.141   3.484  50.721  1.00  0.00     0.134 A 
HETATM    7  C8  UNL     1      24.842   3.220  50.720  1.00  0.00     0.111 A 
HETATM    8  N2  UNL     1      24.330   2.037  51.323  1.00  0.00    -0.343 N 
HETATM    9  C14 UNL     1      27.682   0.785  52.573  1.00  0.00     0.069 C 
HETATM   10  C15 UNL     1      27.292  -0.119  53.497  1.00  0.00     0.103 C 
ENDROOT
BRANCH   8  11
HETATM   11  C9  UNL     1      22.918   1.916  51.388  1.00  0.00     0.030 A 
HETATM   12  C10 UNL     1      22.374   1.127  50.452  1.00  0.00     0.026 A 
HETATM   13  C11 UNL     1      20.927   1.108  50.653  1.00  0.00    -0.001 A 
HETATM   14  C12 UNL     1      20.634   1.877  51.691  1.00  0.00    -0.005 A 
HETATM   15  C13 UNL     1      21.868   2.480  52.280  1.00  0.00     0.130 A 
HETATM   16 BR1  UNL     1      21.794   4.408  52.223  1.00  0.00    -0.080 Br
ENDBRANCH   8  11
BRANCH   1  17
HETATM   17  O1  UNL     1      25.497  -1.206  54.639  1.00  0.00    -0.349 OA
BRANCH  17  18
HETATM   18  C2  UNL     1      24.718  -0.803  55.731  1.00  0.00     0.171 C 
HETATM   19  C1  UNL     1      23.357  -1.489  55.568  1.00  0.00     0.034 C 
ENDBRANCH  17  18
ENDBRANCH   1  17
BRANCH  10  20
HETATM   20  O2  UNL     1      28.203  -0.800  54.294  1.00  0.00    -0.353 OA
HETATM   21  C16 UNL     1      29.449  -1.104  53.675  1.00  0.00     0.210 C 
ENDBRANCH  10  20
TORSDOF 4
ENDMDL
MODEL 6
REMARK VINA RESULT:      -6.7      3.350      4.963
REMARK  4 active torsions:
REMARK  status: ('A' for Active; 'I' for Inactive)
REMARK    1  A    between atoms: C2_2  and  O1_3 
REMARK    2  A    between atoms: O1_3  and  C3_4 
REMARK    3  A    between atoms: N2_11  and  C9_12 
REMARK    4  A    between atoms: C15_19  and  O2_20 
ROOT
HETATM    1  C3  UNL     1      25.399   2.888  51.010  1.00  0.00     0.100 C 
HETATM    2  C4  UNL     1      26.206   1.954  51.484  1.00  0.00     0.044 C 
HETATM    3  C5  UNL     1      25.568   0.813  52.083  1.00  0.00     0.167 A 
HETATM    4  C6  UNL     1      24.139   1.027  52.320  1.00  0.00     0.064 A 
HETATM    5  N1  UNL     1      23.469   0.420  53.252  1.00  0.00    -0.262 NA
HETATM    6  C7  UNL     1      24.103  -0.490  54.142  1.00  0.00     0.134 A 
HETATM    7  C8  UNL     1      25.409  -0.690  54.027  1.00  0.00     0.111 A 
HETATM    8  N2  UNL     1      26.176  -0.001  53.045  1.00  0.00    -0.343 N 
HETATM    9  C14 UNL     1      23.288   2.051  51.699  1.00  0.00     0.069 C 
HETATM   10  C15 UNL     1      23.949   3.026  51.038  1.00  0.00     0.103 C 
ENDROOT
BRANCH   8  11
HETATM   11  C9  UNL     1      27.582  -0.183  53.095  1.00  0.00     0.030 A 
HETATM   12  C10 UNL     1      27.982  -1.447  53.284  1.00  0.00     0.026 A 
HETATM   13  C11 UNL     1      29.443  -1.466  53.312  1.00  0.00    -0.001 A 
HETATM   14  C12 UNL     1      29.886  -0.230  53.142  1.00  0.00    -0.005 A 
HETATM   15  C13 UNL     1      28.752   0.731  52.984  1.00  0.00     0.130 A 
HETATM   16 BR1  UNL     1      28.784   2.077  54.367  1.00  0.00    -0.080 Br
ENDBRANCH   8  11
BRANCH   1  17
HETATM   17  O1  UNL     1      26.043   3.979  50.396  1.00  0.00    -0.349 OA
BRANCH  17  18
HETATM   18  C2  UNL     1      26.864   3.834  49.270  1.00  0.00     0.171 C 
HETATM   19  C1  UNL     1      27.168   5.252  48.772  1.00  0.00     0.034 C 
ENDBRANCH  17  18
ENDBRANCH   1  17
BRANCH  10  20
HETATM   20  O2  UNL     1      23.288   4.084  50.429  1.00  0.00    -0.353 OA
HETATM   21  C16 UNL     1      22.303   4.731  51.229  1.00  0.00     0.210 C 
ENDBRANCH  10  20
TORSDOF 4
ENDMDL
MODEL 7
REMARK VINA RESULT:      -6.7      3.202      6.232
REMARK  4 active torsions:
REMARK  status: ('A' for Active; 'I' for Inactive)
REMARK    1  A    between atoms: C2_2  and  O1_3 
REMARK    2  A    between atoms: O1_3  and  C3_4 
REMARK    3  A    between atoms: N2_11  and  C9_12 
REMARK    4  A    between atoms: C15_19  and  O2_20 
ROOT
HETATM    1  C3  UNL     1      24.706   0.481  52.980  1.00  0.00     0.100 C 
HETATM    2  C4  UNL     1      23.941   1.220  52.194  1.00  0.00     0.044 C 
HETATM    3  C5  UNL     1      24.616   1.932  51.142  1.00  0.00     0.167 A 
HETATM    4  C6  UNL     1      26.071   1.936  51.311  1.00  0.00     0.064 A 
HETATM    5  N1  UNL     1      26.843   2.869  50.840  1.00  0.00    -0.262 NA
HETATM    6  C7  UNL     1      26.307   3.986  50.143  1.00  0.00     0.134 A 
HETATM    7  C8  UNL     1      24.992   4.081  50.004  1.00  0.00     0.111 A 
HETATM    8  N2  UNL     1      24.120   3.098  50.551  1.00  0.00    -0.343 N 
HETATM    9  C14 UNL     1      26.862   1.031  52.155  1.00  0.00     0.069 C 
HETATM   10  C15 UNL     1      26.149   0.294  53.034  1.00  0.00     0.103 C 
ENDROOT
BRANCH   8  11
HETATM   11  C9  UNL     1      22.730   3.363  50.464  1.00  0.00     0.030 A 
HETATM   12  C10 UNL     1      22.228   4.085  51.476  1.00  0.00     0.026 A 
HETATM   13  C11 UNL     1      20.797   4.270  51.241  1.00  0.00    -0.001 A 
HETATM   14  C12 UNL     1      20.472   3.663  50.109  1.00  0.00    -0.005 A 
HETATM   15  C13 UNL     1      21.665   3.016  49.484  1.00  0.00     0.130 A 
HETATM   16 BR1  UNL     1      21.407   1.112  49.302  1.00  0.00    -0.080 Br
ENDBRANCH   8  11
BRANCH   1  17
HETATM   17  O1  UNL     1      24.020  -0.235  53.980  1.00  0.00    -0.349 OA
BRANCH  17  18
HETATM   18  C2  UNL     1      22.865  -0.982  53.716  1.00  0.00     0.171 C 
HETATM   19  C1  UNL     1      21.954  -0.814  54.938  1.00  0.00     0.034 C 
ENDBRANCH  17  18
ENDBRANCH   1  17
BRANCH  10  20
HETATM   20  O2  UNL     1      26.756  -0.581  53.926  1.00  0.00    -0.353 OA
HETATM   21  C16 UNL     1      27.796  -0.020  54.721  1.00  0.00     0.210 C 
ENDBRANCH  10  20
TORSDOF 4
ENDMDL
MODEL 8
REMARK VINA RESULT:      -6.6      2.871      5.729
REMARK  4 active torsions:
REMARK  status: ('A' for Active; 'I' for Inactive)
REMARK    1  A    between atoms: C2_2  and  O1_3 
REMARK    2  A    between atoms: O1_3  and  C3_4 
REMARK    3  A    between atoms: N2_11  and  C9_12 
REMARK    4  A    between atoms: C15_19  and  O2_20 
ROOT
HETATM    1  C3  UNL     1      24.142   3.330  50.802  1.00  0.00     0.100 C 
HETATM    2  C4  UNL     1      23.653   2.485  51.695  1.00  0.00     0.044 C 
HETATM    3  C5  UNL     1      24.613   1.648  52.363  1.00  0.00     0.167 A 
HETATM    4  C6  UNL     1      25.929   1.680  51.723  1.00  0.00     0.064 A 
HETATM    5  N1  UNL     1      26.781   0.702  51.787  1.00  0.00    -0.262 NA
HETATM    6  C7  UNL     1      26.467  -0.504  52.474  1.00  0.00     0.134 A 
HETATM    7  C8  UNL     1      25.270  -0.630  53.028  1.00  0.00     0.111 A 
HETATM    8  N2  UNL     1      24.300   0.409  52.931  1.00  0.00    -0.343 N 
HETATM    9  C14 UNL     1      26.429   2.697  50.787  1.00  0.00     0.069 C 
HETATM   10  C15 UNL     1      25.492   3.537  50.297  1.00  0.00     0.103 C 
ENDROOT
BRANCH   8  11
HETATM   11  C9  UNL     1      23.008   0.120  53.439  1.00  0.00     0.030 A 
HETATM   12  C10 UNL     1      22.974  -0.811  54.402  1.00  0.00     0.026 A 
HETATM   13  C11 UNL     1      21.583  -0.993  54.815  1.00  0.00    -0.001 A 
HETATM   14  C12 UNL     1      20.820  -0.179  54.101  1.00  0.00    -0.005 A 
HETATM   15  C13 UNL     1      21.639   0.624  53.142  1.00  0.00     0.130 A 
HETATM   16 BR1  UNL     1      21.098   0.292  51.320  1.00  0.00    -0.080 Br
ENDBRANCH   8  11
BRANCH   1  17
HETATM   17  O1  UNL     1      23.189   4.164  50.186  1.00  0.00    -0.349 OA
BRANCH  17  18
HETATM   18  C2  UNL     1      22.290   3.698  49.219  1.00  0.00     0.171 C 
HETATM   19  C1  UNL     1      22.613   4.459  47.927  1.00  0.00     0.034 C 
ENDBRANCH  17  18
ENDBRANCH   1  17
BRANCH  10  20
HETATM   20  O2  UNL     1      25.799   4.528  49.374  1.00  0.00    -0.353 OA
HETATM   21  C16 UNL     1      27.156   4.561  48.942  1.00  0.00     0.210 C 
ENDBRANCH  10  20
TORSDOF 4
ENDMDL
MODEL 9
REMARK VINA RESULT:      -6.3      3.500      5.224
REMARK  4 active torsions:
REMARK  status: ('A' for Active; 'I' for Inactive)
REMARK    1  A    between atoms: C2_2  and  O1_3 
REMARK    2  A    between atoms: O1_3  and  C3_4 
REMARK    3  A    between atoms: N2_11  and  C9_12 
REMARK    4  A    between atoms: C15_19  and  O2_20 
ROOT
HETATM    1  C3  UNL     1      25.120   3.204  50.362  1.00  0.00     0.100 C 
HETATM    2  C4  UNL     1      25.898   2.562  51.218  1.00  0.00     0.044 C 
HETATM    3  C5  UNL     1      25.336   1.384  51.821  1.00  0.00     0.167 A 
HETATM    4  C6  UNL     1      23.894   1.270  51.597  1.00  0.00     0.064 A 
HETATM    5  N1  UNL     1      23.092   0.639  52.399  1.00  0.00    -0.262 NA
HETATM    6  C7  UNL     1      23.572   0.031  53.592  1.00  0.00     0.134 A 
HETATM    7  C8  UNL     1      24.857   0.144  53.893  1.00  0.00     0.111 A 
HETATM    8  N2  UNL     1      25.749   0.871  53.055  1.00  0.00    -0.343 N 
HETATM    9  C14 UNL     1      23.105   1.969  50.572  1.00  0.00     0.069 C 
HETATM   10  C15 UNL     1      23.740   2.985  49.950  1.00  0.00     0.103 C 
ENDROOT
BRANCH   8  11
HETATM   11  C9  UNL     1      27.072   1.046  53.536  1.00  0.00     0.030 A 
HETATM   12  C10 UNL     1      27.582   2.272  53.354  1.00  0.00     0.026 A 
HETATM   13  C11 UNL     1      28.939   2.289  53.898  1.00  0.00    -0.001 A 
HETATM   14  C12 UNL     1      29.213   1.090  54.389  1.00  0.00    -0.005 A 
HETATM   15  C13 UNL     1      28.056   0.160  54.216  1.00  0.00     0.130 A 
HETATM   16 BR1  UNL     1      28.548  -1.370  53.148  1.00  0.00    -0.080 Br
ENDBRANCH   8  11
BRANCH   1  17
HETATM   17  O1  UNL     1      25.703   4.334  49.756  1.00  0.00    -0.349 OA
BRANCH  17  18
HETATM   18  C2  UNL     1      26.969   4.301  49.159  1.00  0.00     0.171 C 
HETATM   19  C1  UNL     1      27.216   5.704  48.592  1.00  0.00     0.034 C 
ENDBRANCH  17  18
ENDBRANCH   1  17
BRANCH  10  20
HETATM   20  O2  UNL     1      23.117   3.765  48.985  1.00  0.00    -0.353 OA
HETATM   21  C16 UNL     1      22.027   4.556  49.448  1.00  0.00     0.210 C 
ENDBRANCH  10  20
TORSDOF 4
ENDMDL
