MODEL 1
REMARK VINA RESULT:      -7.6      0.000      0.000
REMARK  6 active torsions:
REMARK  status: ('A' for Active; 'I' for Inactive)
REMARK    1  A    between atoms: N1_1  and  C1_2 
REMARK    2  A    between atoms: C1_2  and  N2_3 
REMARK    3  A    between atoms: N3_7  and  C5_8 
REMARK    4  A    between atoms: C11_15  and  N4_16 
REMARK    5  A    between atoms: C13_18  and  C14_19 
REMARK    6  A    between atoms: C14_19  and  O2_21 
ROOT
HETATM    1  N2  UNL     1      20.800  -0.373  53.262  1.00  0.00    -0.218 NA
HETATM    2  C2  UNL     1      21.393   0.721  52.928  1.00  0.00     0.171 C 
HETATM    3  C3  UNL     1      20.495   1.832  52.720  1.00  0.00     0.076 C 
HETATM    4  C4  UNL     1      21.129   2.949  52.413  1.00  0.00     0.103 C 
HETATM    5  N3  UNL     1      22.497   3.092  52.300  1.00  0.00    -0.309 N 
HETATM    6  C11 UNL     1      23.773   3.183  52.823  1.00  0.00     0.106 C 
HETATM    7  C12 UNL     1      24.964   2.938  53.314  1.00  0.00     0.066 C 
HETATM    8  C13 UNL     1      25.434   1.514  53.530  1.00  0.00     0.041 C 
HETATM    9  C15 UNL     1      25.638   0.305  53.647  1.00  0.00     0.020 C 
HETATM   10  C16 UNL     1      24.652  -0.776  53.372  1.00  0.00     0.026 C 
HETATM   11  C17 UNL     1      23.390  -0.642  53.004  1.00  0.00     0.144 C 
HETATM   12  O3  UNL     1      22.777   0.620  52.825  1.00  0.00    -0.304 OA
ENDROOT
BRANCH   5  13
HETATM   13  C5  UNL     1      22.467   3.190  50.854  1.00  0.00     0.041 A 
HETATM   14  C6  UNL     1      23.194   2.500  49.923  1.00  0.00     0.030 A 
HETATM   15  C7  UNL     1      23.128   2.627  48.570  1.00  0.00     0.004 A 
HETATM   16  C8  UNL     1      22.239   3.545  48.060  1.00  0.00     0.019 A 
HETATM   17  C9  UNL     1      21.432   4.320  48.887  1.00  0.00     0.013 A 
HETATM   18 BR1  UNL     1      20.195   5.595  48.219  1.00  0.00    -0.051 Br
HETATM   19  C10 UNL     1      21.598   4.092  50.231  1.00  0.00     0.049 A 
ENDBRANCH   5  13
BRANCH   6  20
HETATM   20  N4  UNL     1      23.576   4.621  52.837  1.00  0.00    -0.385 N 
HETATM   21  H9  UNL     1      22.665   5.144  53.002  1.00  0.00     0.157 HD
HETATM   22  H10 UNL     1      23.456   5.635  52.842  1.00  0.00     0.157 HD
ENDBRANCH   6  20
BRANCH   8  23
HETATM   23  C14 UNL     1      26.870   1.856  54.007  1.00  0.00     0.176 C 
HETATM   24  O1  UNL     1      27.847   1.263  54.608  1.00  0.00    -0.646 OA
BRANCH  23  25
HETATM   25  O2  UNL     1      27.792   2.874  54.045  1.00  0.00    -0.773 OA
HETATM   26  H12 UNL     1      28.717   2.858  53.596  1.00  0.00     0.167 HD
ENDBRANCH  23  25
ENDBRANCH   8  23
BRANCH   1  27
HETATM   27  C1  UNL     1      19.426  -0.517  53.419  1.00  0.00     0.226 C 
BRANCH  27  28
HETATM   28  N1  UNL     1      18.235  -0.878  53.713  1.00  0.00    -0.293 NA
HETATM   29  H1  UNL     1      17.536  -0.926  52.945  1.00  0.00     0.187 HD
ENDBRANCH  27  28
ENDBRANCH   1  27
TORSDOF 6
ENDMDL
MODEL 2
REMARK VINA RESULT:      -7.5      3.978      5.948
REMARK  6 active torsions:
REMARK  status: ('A' for Active; 'I' for Inactive)
REMARK    1  A    between atoms: N1_1  and  C1_2 
REMARK    2  A    between atoms: C1_2  and  N2_3 
REMARK    3  A    between atoms: N3_7  and  C5_8 
REMARK    4  A    between atoms: C11_15  and  N4_16 
REMARK    5  A    between atoms: C13_18  and  C14_19 
REMARK    6  A    between atoms: C14_19  and  O2_21 
ROOT
HETATM    1  N2  UNL     1      27.542   2.041  52.097  1.00  0.00    -0.218 NA
HETATM    2  C2  UNL     1      26.334   2.483  52.150  1.00  0.00     0.171 C 
HETATM    3  C3  UNL     1      25.627   2.109  53.352  1.00  0.00     0.076 C 
HETATM    4  C4  UNL     1      24.403   2.603  53.397  1.00  0.00     0.103 C 
HETATM    5  N3  UNL     1      23.821   3.400  52.433  1.00  0.00    -0.309 N 
HETATM    6  C11 UNL     1      23.663   4.592  51.751  1.00  0.00     0.106 C 
HETATM    7  C12 UNL     1      23.772   5.608  50.930  1.00  0.00     0.066 C 
HETATM    8  C13 UNL     1      24.852   5.633  49.868  1.00  0.00     0.041 C 
HETATM    9  C15 UNL     1      25.791   5.485  49.084  1.00  0.00     0.020 C 
HETATM   10  C16 UNL     1      26.766   4.361  49.092  1.00  0.00     0.026 C 
HETATM   11  C17 UNL     1      26.832   3.358  49.950  1.00  0.00     0.144 C 
HETATM   12  O3  UNL     1      25.941   3.225  51.040  1.00  0.00    -0.304 OA
ENDROOT
BRANCH   5  13
HETATM   13  C5  UNL     1      22.943   2.350  51.954  1.00  0.00     0.041 A 
HETATM   14  C6  UNL     1      22.554   2.061  50.674  1.00  0.00     0.030 A 
HETATM   15  C7  UNL     1      21.726   1.059  50.274  1.00  0.00     0.004 A 
HETATM   16  C8  UNL     1      21.210   0.232  51.247  1.00  0.00     0.019 A 
HETATM   17  C9  UNL     1      21.519   0.406  52.592  1.00  0.00     0.013 A 
HETATM   18 BR1  UNL     1      20.827  -0.715  53.960  1.00  0.00    -0.051 Br
HETATM   19  C10 UNL     1      22.365   1.453  52.860  1.00  0.00     0.049 A 
ENDBRANCH   5  13
BRANCH   6  20
HETATM   20  N4  UNL     1      22.619   4.906  52.708  1.00  0.00    -0.385 N 
HETATM   21  H9  UNL     1      21.820   5.599  52.585  1.00  0.00     0.157 HD
HETATM   22  H10 UNL     1      21.892   5.116  53.394  1.00  0.00     0.157 HD
ENDBRANCH   6  20
BRANCH   8  23
HETATM   23  C14 UNL     1      24.427   6.962  49.192  1.00  0.00     0.176 C 
HETATM   24  O1  UNL     1      24.413   7.473  48.006  1.00  0.00    -0.646 OA
BRANCH  23  25
HETATM   25  O2  UNL     1      23.888   8.198  49.460  1.00  0.00    -0.773 OA
HETATM   26  H12 UNL     1      22.997   8.552  49.091  1.00  0.00     0.167 HD
ENDBRANCH  23  25
ENDBRANCH   8  23
BRANCH   1  27
HETATM   27  C1  UNL     1      28.152   1.272  53.082  1.00  0.00     0.226 C 
BRANCH  27  28
HETATM   28  N1  UNL     1      28.951   0.662  53.872  1.00  0.00    -0.293 NA
HETATM   29  H1  UNL     1      29.972   0.758  53.703  1.00  0.00     0.187 HD
ENDBRANCH  27  28
ENDBRANCH   1  27
TORSDOF 6
ENDMDL
MODEL 3
REMARK VINA RESULT:      -7.0      3.249      4.668
REMARK  6 active torsions:
REMARK  status: ('A' for Active; 'I' for Inactive)
REMARK    1  A    between atoms: N1_1  and  C1_2 
REMARK    2  A    between atoms: C1_2  and  N2_3 
REMARK    3  A    between atoms: N3_7  and  C5_8 
REMARK    4  A    between atoms: C11_15  and  N4_16 
REMARK    5  A    between atoms: C13_18  and  C14_19 
REMARK    6  A    between atoms: C14_19  and  O2_21 
ROOT
HETATM    1  N2  UNL     1      20.254   4.526  49.753  1.00  0.00    -0.218 NA
HETATM    2  C2  UNL     1      21.360   4.360  50.391  1.00  0.00     0.171 C 
HETATM    3  C3  UNL     1      22.008   5.594  50.768  1.00  0.00     0.076 C 
HETATM    4  C4  UNL     1      23.122   5.396  51.449  1.00  0.00     0.103 C 
HETATM    5  N3  UNL     1      23.646   4.168  51.797  1.00  0.00    -0.309 N 
HETATM    6  C11 UNL     1      23.661   2.999  52.535  1.00  0.00     0.106 C 
HETATM    7  C12 UNL     1      23.455   1.792  53.006  1.00  0.00     0.066 C 
HETATM    8  C13 UNL     1      22.487   0.850  52.322  1.00  0.00     0.041 C 
HETATM    9  C15 UNL     1      21.661   0.232  51.647  1.00  0.00     0.020 C 
HETATM   10  C16 UNL     1      20.894   0.778  50.494  1.00  0.00     0.026 C 
HETATM   11  C17 UNL     1      20.921   2.010  50.019  1.00  0.00     0.144 C 
HETATM   12  O3  UNL     1      21.720   3.030  50.585  1.00  0.00    -0.304 OA
ENDROOT
BRANCH   5  13
HETATM   13  C5  UNL     1      24.728   4.247  50.835  1.00  0.00     0.041 A 
HETATM   14  C6  UNL     1      25.499   3.244  50.313  1.00  0.00     0.030 A 
HETATM   15  C7  UNL     1      26.507   3.370  49.407  1.00  0.00     0.004 A 
HETATM   16  C8  UNL     1      26.800   4.635  48.953  1.00  0.00     0.019 A 
HETATM   17  C9  UNL     1      26.098   5.752  49.396  1.00  0.00     0.013 A 
HETATM   18 BR1  UNL     1      26.475   7.512  48.791  1.00  0.00    -0.051 Br
HETATM   19  C10 UNL     1      25.108   5.486  50.308  1.00  0.00     0.049 A 
ENDBRANCH   5  13
BRANCH   6  20
HETATM   20  N4  UNL     1      24.545   3.689  53.455  1.00  0.00    -0.385 N 
HETATM   21  H9  UNL     1      25.603   3.784  53.381  1.00  0.00     0.157 HD
HETATM   22  H10 UNL     1      25.154   4.178  54.113  1.00  0.00     0.157 HD
ENDBRANCH   6  20
BRANCH   8  23
HETATM   23  C14 UNL     1      22.740  -0.380  53.233  1.00  0.00     0.176 C 
HETATM   24  O1  UNL     1      22.231  -1.551  53.426  1.00  0.00    -0.646 OA
BRANCH  23  25
HETATM   25  O2  UNL     1      23.562  -0.846  54.231  1.00  0.00    -0.773 OA
HETATM   26  H12 UNL     1      24.529  -1.169  54.104  1.00  0.00     0.167 HD
ENDBRANCH  23  25
ENDBRANCH   8  23
BRANCH   1  27
HETATM   27  C1  UNL     1      19.696   5.760  49.435  1.00  0.00     0.226 C 
BRANCH  27  28
HETATM   28  N1  UNL     1      18.943   6.770  49.219  1.00  0.00    -0.293 NA
HETATM   29  H1  UNL     1      19.001   7.233  48.290  1.00  0.00     0.187 HD
ENDBRANCH  27  28
ENDBRANCH   1  27
TORSDOF 6
ENDMDL
MODEL 4
REMARK VINA RESULT:      -7.0      3.028      5.525
REMARK  6 active torsions:
REMARK  status: ('A' for Active; 'I' for Inactive)
REMARK    1  A    between atoms: N1_1  and  C1_2 
REMARK    2  A    between atoms: C1_2  and  N2_3 
REMARK    3  A    between atoms: N3_7  and  C5_8 
REMARK    4  A    between atoms: C11_15  and  N4_16 
REMARK    5  A    between atoms: C13_18  and  C14_19 
REMARK    6  A    between atoms: C14_19  and  O2_21 
ROOT
HETATM    1  N2  UNL     1      24.277  -0.170  54.115  1.00  0.00    -0.218 NA
HETATM    2  C2  UNL     1      23.862   0.477  53.082  1.00  0.00     0.171 C 
HETATM    3  C3  UNL     1      24.921   0.924  52.208  1.00  0.00     0.076 C 
HETATM    4  C4  UNL     1      24.466   1.554  51.140  1.00  0.00     0.103 C 
HETATM    5  N3  UNL     1      23.138   1.778  50.842  1.00  0.00    -0.309 N 
HETATM    6  C11 UNL     1      21.882   1.372  50.433  1.00  0.00     0.106 C 
HETATM    7  C12 UNL     1      20.660   0.901  50.364  1.00  0.00     0.066 C 
HETATM    8  C13 UNL     1      19.978   0.338  51.594  1.00  0.00     0.041 C 
HETATM    9  C15 UNL     1      19.592  -0.086  52.684  1.00  0.00     0.020 C 
HETATM   10  C16 UNL     1      20.407  -0.167  53.927  1.00  0.00     0.026 C 
HETATM   11  C17 UNL     1      21.681   0.152  54.077  1.00  0.00     0.144 C 
HETATM   12  O3  UNL     1      22.480   0.627  53.012  1.00  0.00    -0.304 OA
ENDROOT
BRANCH   5  13
HETATM   13  C5  UNL     1      23.206   3.194  51.148  1.00  0.00     0.041 A 
HETATM   14  C6  UNL     1      22.461   3.926  52.032  1.00  0.00     0.030 A 
HETATM   15  C7  UNL     1      22.565   5.259  52.287  1.00  0.00     0.004 A 
HETATM   16  C8  UNL     1      23.515   5.968  51.588  1.00  0.00     0.019 A 
HETATM   17  C9  UNL     1      24.346   5.356  50.655  1.00  0.00     0.013 A 
HETATM   18 BR1  UNL     1      25.668   6.302  49.674  1.00  0.00    -0.051 Br
HETATM   19  C10 UNL     1      24.138   4.008  50.495  1.00  0.00     0.049 A 
ENDBRANCH   5  13
BRANCH   6  20
HETATM   20  N4  UNL     1      22.293   1.733  49.089  1.00  0.00    -0.385 N 
HETATM   21  H9  UNL     1      21.672   1.830  48.230  1.00  0.00     0.157 HD
HETATM   22  H10 UNL     1      22.600   1.988  48.149  1.00  0.00     0.157 HD
ENDBRANCH   6  20
BRANCH   8  23
HETATM   23  C14 UNL     1      18.602   0.053  50.937  1.00  0.00     0.176 C 
HETATM   24  O1  UNL     1      17.488  -0.518  51.254  1.00  0.00    -0.646 OA
BRANCH  23  25
HETATM   25  O2  UNL     1      17.891   0.232  49.774  1.00  0.00    -0.773 OA
HETATM   26  H12 UNL     1      17.375   1.083  49.517  1.00  0.00     0.167 HD
ENDBRANCH  23  25
ENDBRANCH   8  23
BRANCH   1  27
HETATM   27  C1  UNL     1      25.612  -0.437  54.404  1.00  0.00     0.226 C 
BRANCH  27  28
HETATM   28  N1  UNL     1      26.790  -0.517  54.891  1.00  0.00    -0.293 NA
HETATM   29  H1  UNL     1      27.183   0.324  55.359  1.00  0.00     0.187 HD
ENDBRANCH  27  28
ENDBRANCH   1  27
TORSDOF 6
ENDMDL
MODEL 5
REMARK VINA RESULT:      -6.7      4.383      6.406
REMARK  6 active torsions:
REMARK  status: ('A' for Active; 'I' for Inactive)
REMARK    1  A    between atoms: N1_1  and  C1_2 
REMARK    2  A    between atoms: C1_2  and  N2_3 
REMARK    3  A    between atoms: N3_7  and  C5_8 
REMARK    4  A    between atoms: C11_15  and  N4_16 
REMARK    5  A    between atoms: C13_18  and  C14_19 
REMARK    6  A    between atoms: C14_19  and  O2_21 
ROOT
HETATM    1  N2  UNL     1      21.096   4.423  48.944  1.00  0.00    -0.218 NA
HETATM    2  C2  UNL     1      22.335   4.288  49.266  1.00  0.00     0.171 C 
HETATM    3  C3  UNL     1      22.901   3.013  48.891  1.00  0.00     0.076 C 
HETATM    4  C4  UNL     1      24.181   2.914  49.201  1.00  0.00     0.103 C 
HETATM    5  N3  UNL     1      24.941   3.893  49.808  1.00  0.00    -0.309 N 
HETATM    6  C11 UNL     1      25.619   5.097  49.817  1.00  0.00     0.106 C 
HETATM    7  C12 UNL     1      25.960   6.361  49.886  1.00  0.00     0.066 C 
HETATM    8  C13 UNL     1      24.918   7.430  50.147  1.00  0.00     0.041 C 
HETATM    9  C15 UNL     1      23.943   8.153  50.352  1.00  0.00     0.020 C 
HETATM   10  C16 UNL     1      22.525   7.707  50.422  1.00  0.00     0.026 C 
HETATM   11  C17 UNL     1      22.054   6.486  50.237  1.00  0.00     0.144 C 
HETATM   12  O3  UNL     1      22.886   5.388  49.917  1.00  0.00    -0.304 OA
ENDROOT
BRANCH   5  13
HETATM   13  C5  UNL     1      24.995   3.200  51.081  1.00  0.00     0.041 A 
HETATM   14  C6  UNL     1      24.461   3.561  52.288  1.00  0.00     0.030 A 
HETATM   15  C7  UNL     1      24.539   2.872  53.459  1.00  0.00     0.004 A 
HETATM   16  C8  UNL     1      25.226   1.679  53.452  1.00  0.00     0.019 A 
HETATM   17  C9  UNL     1      25.822   1.185  52.295  1.00  0.00     0.013 A 
HETATM   18 BR1  UNL     1      26.776  -0.455  52.248  1.00  0.00    -0.051 Br
HETATM   19  C10 UNL     1      25.668   1.978  51.185  1.00  0.00     0.049 A 
ENDBRANCH   5  13
BRANCH   6  20
HETATM   20  N4  UNL     1      26.802   4.339  49.454  1.00  0.00    -0.385 N 
HETATM   21  H9  UNL     1      26.973   3.300  49.608  1.00  0.00     0.157 HD
HETATM   22  H10 UNL     1      27.641   3.821  49.191  1.00  0.00     0.157 HD
ENDBRANCH   6  20
BRANCH   8  23
HETATM   23  C14 UNL     1      25.892   8.636  50.212  1.00  0.00     0.176 C 
HETATM   24  O1  UNL     1      26.007   9.805  49.678  1.00  0.00    -0.646 OA
BRANCH  23  25
HETATM   25  O2  UNL     1      27.049   9.070  50.814  1.00  0.00    -0.773 OA
HETATM   26  H12 UNL     1      27.452   8.687  51.678  1.00  0.00     0.167 HD
ENDBRANCH  23  25
ENDBRANCH   8  23
BRANCH   1  27
HETATM   27  C1  UNL     1      20.333   3.458  48.294  1.00  0.00     0.226 C 
BRANCH  27  28
HETATM   28  N1  UNL     1      19.529   2.524  47.955  1.00  0.00    -0.293 NA
HETATM   29  H1  UNL     1      19.736   1.559  48.281  1.00  0.00     0.187 HD
ENDBRANCH  27  28
ENDBRANCH   1  27
TORSDOF 6
ENDMDL
MODEL 6
REMARK VINA RESULT:      -6.7      3.849      5.264
REMARK  6 active torsions:
REMARK  status: ('A' for Active; 'I' for Inactive)
REMARK    1  A    between atoms: N1_1  and  C1_2 
REMARK    2  A    between atoms: C1_2  and  N2_3 
REMARK    3  A    between atoms: N3_7  and  C5_8 
REMARK    4  A    between atoms: C11_15  and  N4_16 
REMARK    5  A    between atoms: C13_18  and  C14_19 
REMARK    6  A    between atoms: C14_19  and  O2_21 
ROOT
HETATM    1  N2  UNL     1      25.630   2.049  51.895  1.00  0.00    -0.218 NA
HETATM    2  C2  UNL     1      25.029   3.170  51.693  1.00  0.00     0.171 C 
HETATM    3  C3  UNL     1      24.021   3.478  52.680  1.00  0.00     0.076 C 
HETATM    4  C4  UNL     1      23.444   4.648  52.470  1.00  0.00     0.103 C 
HETATM    5  N3  UNL     1      23.741   5.519  51.442  1.00  0.00    -0.309 N 
HETATM    6  C11 UNL     1      24.547   6.444  50.806  1.00  0.00     0.106 C 
HETATM    7  C12 UNL     1      25.461   7.050  50.087  1.00  0.00     0.066 C 
HETATM    8  C13 UNL     1      26.483   6.252  49.305  1.00  0.00     0.041 C 
HETATM    9  C15 UNL     1      27.232   5.447  48.749  1.00  0.00     0.020 C 
HETATM   10  C16 UNL     1      27.205   3.968  48.921  1.00  0.00     0.026 C 
HETATM   11  C17 UNL     1      26.420   3.264  49.716  1.00  0.00     0.144 C 
HETATM   12  O3  UNL     1      25.458   3.861  50.564  1.00  0.00    -0.304 OA
ENDROOT
BRANCH   5  13
HETATM   13  C5  UNL     1      22.515   5.240  50.719  1.00  0.00     0.041 A 
HETATM   14  C6  UNL     1      21.222   5.253  51.167  1.00  0.00     0.030 A 
HETATM   15  C7  UNL     1      20.100   4.984  50.446  1.00  0.00     0.004 A 
HETATM   16  C8  UNL     1      20.260   4.661  49.117  1.00  0.00     0.019 A 
HETATM   17  C9  UNL     1      21.517   4.609  48.523  1.00  0.00     0.013 A 
HETATM   18 BR1  UNL     1      21.775   4.168  46.695  1.00  0.00    -0.051 Br
HETATM   19  C10 UNL     1      22.564   4.902  49.362  1.00  0.00     0.049 A 
ENDBRANCH   5  13
BRANCH   6  20
HETATM   20  N4  UNL     1      23.794   7.463  51.514  1.00  0.00    -0.385 N 
HETATM   21  H9  UNL     1      23.987   8.510  51.532  1.00  0.00     0.157 HD
HETATM   22  H10 UNL     1      23.254   8.167  52.019  1.00  0.00     0.157 HD
ENDBRANCH   6  20
BRANCH   8  23
HETATM   23  C14 UNL     1      27.183   7.455  48.620  1.00  0.00     0.176 C 
HETATM   24  O1  UNL     1      27.622   7.769  47.447  1.00  0.00    -0.646 OA
BRANCH  23  25
HETATM   25  O2  UNL     1      27.670   8.717  48.867  1.00  0.00    -0.773 OA
HETATM   26  H12 UNL     1      27.626   9.207  49.769  1.00  0.00     0.167 HD
ENDBRANCH  23  25
ENDBRANCH   8  23
BRANCH   1  27
HETATM   27  C1  UNL     1      25.367   1.184  52.952  1.00  0.00     0.226 C 
BRANCH  27  28
HETATM   28  N1  UNL     1      25.273   0.205  53.769  1.00  0.00    -0.293 NA
HETATM   29  H1  UNL     1      25.754   0.288  54.687  1.00  0.00     0.187 HD
ENDBRANCH  27  28
ENDBRANCH   1  27
TORSDOF 6
ENDMDL
MODEL 7
REMARK VINA RESULT:      -6.7      3.912      5.908
REMARK  6 active torsions:
REMARK  status: ('A' for Active; 'I' for Inactive)
REMARK    1  A    between atoms: N1_1  and  C1_2 
REMARK    2  A    between atoms: C1_2  and  N2_3 
REMARK    3  A    between atoms: N3_7  and  C5_8 
REMARK    4  A    between atoms: C11_15  and  N4_16 
REMARK    5  A    between atoms: C13_18  and  C14_19 
REMARK    6  A    between atoms: C14_19  and  O2_21 
ROOT
HETATM    1  N2  UNL     1      21.557   3.487  46.265  1.00  0.00    -0.218 NA
HETATM    2  C2  UNL     1      22.144   3.914  47.329  1.00  0.00     0.171 C 
HETATM    3  C3  UNL     1      22.561   5.295  47.252  1.00  0.00     0.076 C 
HETATM    4  C4  UNL     1      23.129   5.717  48.366  1.00  0.00     0.103 C 
HETATM    5  N3  UNL     1      23.319   4.966  49.508  1.00  0.00    -0.309 N 
HETATM    6  C11 UNL     1      22.875   4.328  50.651  1.00  0.00     0.106 C 
HETATM    7  C12 UNL     1      22.384   3.478  51.521  1.00  0.00     0.066 C 
HETATM    8  C13 UNL     1      21.876   2.122  51.075  1.00  0.00     0.041 C 
HETATM    9  C15 UNL     1      21.503   1.081  50.533  1.00  0.00     0.020 C 
HETATM   10  C16 UNL     1      21.497   0.813  49.069  1.00  0.00     0.026 C 
HETATM   11  C17 UNL     1      21.840   1.640  48.098  1.00  0.00     0.144 C 
HETATM   12  O3  UNL     1      22.271   2.965  48.339  1.00  0.00    -0.304 OA
ENDROOT
BRANCH   5  13
HETATM   13  C5  UNL     1      24.749   4.840  49.306  1.00  0.00     0.041 A 
HETATM   14  C6  UNL     1      25.564   3.762  49.523  1.00  0.00     0.030 A 
HETATM   15  C7  UNL     1      26.907   3.692  49.315  1.00  0.00     0.004 A 
HETATM   16  C8  UNL     1      27.536   4.818  48.834  1.00  0.00     0.019 A 
HETATM   17  C9  UNL     1      26.834   5.990  48.566  1.00  0.00     0.013 A 
HETATM   18 BR1  UNL     1      27.668   7.561  47.902  1.00  0.00    -0.051 Br
HETATM   19  C10 UNL     1      25.486   5.925  48.819  1.00  0.00     0.049 A 
ENDBRANCH   5  13
BRANCH   6  20
HETATM   20  N4  UNL     1      23.172   5.561  51.356  1.00  0.00    -0.385 N 
HETATM   21  H9  UNL     1      22.666   5.955  52.205  1.00  0.00     0.157 HD
HETATM   22  H10 UNL     1      23.395   6.431  51.840  1.00  0.00     0.157 HD
ENDBRANCH   6  20
BRANCH   8  23
HETATM   23  C14 UNL     1      21.538   1.571  52.486  1.00  0.00     0.176 C 
HETATM   24  O1  UNL     1      22.157   1.003  53.466  1.00  0.00    -0.646 OA
BRANCH  23  25
HETATM   25  O2  UNL     1      20.500   1.403  53.370  1.00  0.00    -0.773 OA
HETATM   26  H12 UNL     1      20.142   2.122  54.012  1.00  0.00     0.167 HD
ENDBRANCH  23  25
ENDBRANCH   8  23
BRANCH   1  27
HETATM   27  C1  UNL     1      21.323   4.248  45.125  1.00  0.00     0.226 C 
BRANCH  27  28
HETATM   28  N1  UNL     1      20.924   4.743  44.016  1.00  0.00    -0.293 NA
HETATM   29  H1  UNL     1      19.961   5.134  43.974  1.00  0.00     0.187 HD
ENDBRANCH  27  28
ENDBRANCH   1  27
TORSDOF 6
ENDMDL
MODEL 8
REMARK VINA RESULT:      -6.6      4.639      6.231
REMARK  6 active torsions:
REMARK  status: ('A' for Active; 'I' for Inactive)
REMARK    1  A    between atoms: N1_1  and  C1_2 
REMARK    2  A    between atoms: C1_2  and  N2_3 
REMARK    3  A    between atoms: N3_7  and  C5_8 
REMARK    4  A    between atoms: C11_15  and  N4_16 
REMARK    5  A    between atoms: C13_18  and  C14_19 
REMARK    6  A    between atoms: C14_19  and  O2_21 
ROOT
HETATM    1  N2  UNL     1      26.733   2.788  50.464  1.00  0.00    -0.218 NA
HETATM    2  C2  UNL     1      25.917   3.784  50.493  1.00  0.00     0.171 C 
HETATM    3  C3  UNL     1      24.794   3.593  51.380  1.00  0.00     0.076 C 
HETATM    4  C4  UNL     1      23.992   4.641  51.417  1.00  0.00     0.103 C 
HETATM    5  N3  UNL     1      24.167   5.815  50.713  1.00  0.00    -0.309 N 
HETATM    6  C11 UNL     1      24.795   7.021  50.466  1.00  0.00     0.106 C 
HETATM    7  C12 UNL     1      25.606   7.972  50.067  1.00  0.00     0.066 C 
HETATM    8  C13 UNL     1      26.835   7.646  49.244  1.00  0.00     0.041 C 
HETATM    9  C15 UNL     1      27.783   7.195  48.599  1.00  0.00     0.020 C 
HETATM   10  C16 UNL     1      28.068   5.754  48.360  1.00  0.00     0.026 C 
HETATM   11  C17 UNL     1      27.399   4.713  48.822  1.00  0.00     0.144 C 
HETATM   12  O3  UNL     1      26.269   4.842  49.661  1.00  0.00    -0.304 OA
ENDROOT
BRANCH   5  13
HETATM   13  C5  UNL     1      23.091   5.533  49.782  1.00  0.00     0.041 A 
HETATM   14  C6  UNL     1      23.096   5.568  48.415  1.00  0.00     0.030 A 
HETATM   15  C7  UNL     1      22.055   5.292  47.582  1.00  0.00     0.004 A 
HETATM   16  C8  UNL     1      20.856   4.937  48.158  1.00  0.00     0.019 A 
HETATM   17  C9  UNL     1      20.703   4.858  49.539  1.00  0.00     0.013 A 
HETATM   18 BR1  UNL     1      19.066   4.372  50.368  1.00  0.00    -0.051 Br
HETATM   19  C10 UNL     1      21.830   5.162  50.262  1.00  0.00     0.049 A 
ENDBRANCH   5  13
BRANCH   6  20
HETATM   20  N4  UNL     1      23.785   7.626  51.313  1.00  0.00    -0.385 N 
HETATM   21  H9  UNL     1      22.906   7.165  51.698  1.00  0.00     0.157 HD
HETATM   22  H10 UNL     1      23.084   8.068  51.910  1.00  0.00     0.157 HD
ENDBRANCH   6  20
BRANCH   8  23
HETATM   23  C14 UNL     1      27.303   9.107  49.012  1.00  0.00     0.176 C 
HETATM   24  O1  UNL     1      27.537  10.162  49.717  1.00  0.00    -0.646 OA
BRANCH  23  25
HETATM   25  O2  UNL     1      27.683   9.985  48.025  1.00  0.00    -0.773 OA
HETATM   26  H12 UNL     1      27.285  10.920  47.874  1.00  0.00     0.167 HD
ENDBRANCH  23  25
ENDBRANCH   8  23
BRANCH   1  27
HETATM   27  C1  UNL     1      26.588   1.618  51.202  1.00  0.00     0.226 C 
BRANCH  27  28
HETATM   28  N1  UNL     1      26.727   0.583  51.939  1.00  0.00    -0.293 NA
HETATM   29  H1  UNL     1      27.683   0.345  52.271  1.00  0.00     0.187 HD
ENDBRANCH  27  28
ENDBRANCH   1  27
TORSDOF 6
ENDMDL
MODEL 9
REMARK VINA RESULT:      -6.6      8.157      9.555
REMARK  6 active torsions:
REMARK  status: ('A' for Active; 'I' for Inactive)
REMARK    1  A    between atoms: N1_1  and  C1_2 
REMARK    2  A    between atoms: C1_2  and  N2_3 
REMARK    3  A    between atoms: N3_7  and  C5_8 
REMARK    4  A    between atoms: C11_15  and  N4_16 
REMARK    5  A    between atoms: C13_18  and  C14_19 
REMARK    6  A    between atoms: C14_19  and  O2_21 
ROOT
HETATM    1  N2  UNL     1      25.798   6.974  49.849  1.00  0.00    -0.218 NA
HETATM    2  C2  UNL     1      26.778   7.788  49.658  1.00  0.00     0.171 C 
HETATM    3  C3  UNL     1      26.565   9.100  50.224  1.00  0.00     0.076 C 
HETATM    4  C4  UNL     1      27.597   9.904  50.044  1.00  0.00     0.103 C 
HETATM    5  N3  UNL     1      28.774   9.573  49.403  1.00  0.00    -0.309 N 
HETATM    6  C11 UNL     1      29.992   8.926  49.321  1.00  0.00     0.106 C 
HETATM    7  C12 UNL     1      30.959   8.058  49.143  1.00  0.00     0.066 C 
HETATM    8  C13 UNL     1      30.657   6.650  48.671  1.00  0.00     0.041 C 
HETATM    9  C15 UNL     1      30.225   5.559  48.298  1.00  0.00     0.020 C 
HETATM   10  C16 UNL     1      28.790   5.193  48.149  1.00  0.00     0.026 C 
HETATM   11  C17 UNL     1      27.735   5.939  48.427  1.00  0.00     0.144 C 
HETATM   12  O3  UNL     1      27.843   7.252  48.941  1.00  0.00    -0.304 OA
ENDROOT
BRANCH   5  13
HETATM   13  C5  UNL     1      28.470  10.364  48.226  1.00  0.00     0.041 A 
HETATM   14  C6  UNL     1      28.605  10.038  46.904  1.00  0.00     0.030 A 
HETATM   15  C7  UNL     1      28.303  10.818  45.830  1.00  0.00     0.004 A 
HETATM   16  C8  UNL     1      27.806  12.077  46.078  1.00  0.00     0.019 A 
HETATM   17  C9  UNL     1      27.614  12.546  47.375  1.00  0.00     0.013 A 
HETATM   18 BR1  UNL     1      26.931  14.276  47.754  1.00  0.00    -0.051 Br
HETATM   19  C10 UNL     1      27.959  11.659  48.365  1.00  0.00     0.049 A 
ENDBRANCH   5  13
BRANCH   6  20
HETATM   20  N4  UNL     1      30.577  10.133  49.873  1.00  0.00    -0.385 N 
HETATM   21  H9  UNL     1      30.385  10.564  50.827  1.00  0.00     0.157 HD
HETATM   22  H10 UNL     1      30.999  10.985  50.246  1.00  0.00     0.157 HD
ENDBRANCH   6  20
BRANCH   8  23
HETATM   23  C14 UNL     1      32.127   6.166  48.560  1.00  0.00     0.176 C 
HETATM   24  O1  UNL     1      33.266   6.640  48.179  1.00  0.00    -0.646 OA
BRANCH  23  25
HETATM   25  O2  UNL     1      32.935   5.077  48.783  1.00  0.00    -0.773 OA
HETATM   26  H12 UNL     1      33.094   4.307  48.121  1.00  0.00     0.167 HD
ENDBRANCH  23  25
ENDBRANCH   8  23
BRANCH   1  27
HETATM   27  C1  UNL     1      24.626   7.284  50.531  1.00  0.00     0.226 C 
BRANCH  27  28
HETATM   28  N1  UNL     1      23.717   7.570  51.383  1.00  0.00    -0.293 NA
HETATM   29  H1  UNL     1      22.827   7.034  51.345  1.00  0.00     0.187 HD
ENDBRANCH  27  28
ENDBRANCH   1  27
TORSDOF 6
ENDMDL
