MODEL 1
REMARK VINA RESULT:      -6.6      0.000      0.000
REMARK  9 active torsions:
REMARK  status: ('A' for Active; 'I' for Inactive)
REMARK    1  A    between atoms: C3_3  and  N1_4 
REMARK    2  A    between atoms: C4_5  and  C5_6 
REMARK    3  A    between atoms: C6_7  and  C7_8 
REMARK    4  A    between atoms: C7_8  and  N2_9 
REMARK       I    between atoms: N2_9  and  C8_10 
REMARK    5  A    between atoms: C8_10  and  C9_12 
REMARK    6  A    between atoms: C9_12  and  N3_13 
REMARK    7  A    between atoms: C10_14  and  O2_15 
REMARK    8  A    between atoms: O2_15  and  C11_16 
REMARK    9  A    between atoms: C11_16  and  C12_17 
ROOT
HETATM    1  N2  UNL     1      26.582   3.290  51.183  1.00  0.00    -0.356 N 
HETATM    2  C8  UNL     1      26.507   2.131  52.000  1.00  0.00     0.237 C 
HETATM    3  O1  UNL     1      26.446   0.964  51.564  1.00  0.00    -0.272 OA
HETATM    4  H11 UNL     1      26.627   4.180  51.719  1.00  0.00     0.162 HD
ENDROOT
BRANCH   2   5
HETATM    5  C9  UNL     1      26.494   2.192  53.511  1.00  0.00     0.253 C 
BRANCH   5   6
HETATM    6  N3  UNL     1      27.591   1.370  53.960  1.00  0.00    -0.269 NA
HETATM    7  C10 UNL     1      27.427   0.316  54.669  1.00  0.00     0.246 C 
BRANCH   7   8
HETATM    8  O2  UNL     1      26.054   0.325  54.780  1.00  0.00    -0.341 OA
BRANCH   8   9
HETATM    9  C11 UNL     1      25.352  -0.826  54.397  1.00  0.00     0.212 C 
BRANCH   9  10
HETATM   10  C12 UNL     1      23.894  -0.584  54.281  1.00  0.00    -0.032 A 
HETATM   11  C13 UNL     1      23.396   0.212  53.347  1.00  0.00     0.009 A 
HETATM   12  C14 UNL     1      21.942   0.315  53.405  1.00  0.00     0.024 A 
HETATM   13  C15 UNL     1      21.246  -0.343  54.318  1.00  0.00     0.135 A 
HETATM   14  O3  UNL     1      21.814  -1.168  55.277  1.00  0.00    -0.359 OA
HETATM   15  C16 UNL     1      23.212  -1.364  55.343  1.00  0.00     0.210 A 
ENDBRANCH   9  10
ENDBRANCH   8   9
ENDBRANCH   7   8
ENDBRANCH   5   6
ENDBRANCH   2   5
BRANCH   1  16
HETATM   16  C7  UNL     1      26.594   3.184  49.730  1.00  0.00     0.149 C 
BRANCH  16  17
HETATM   17  C6  UNL     1      27.016   4.463  49.118  1.00  0.00    -0.006 C 
HETATM   18  C5  UNL     1      26.248   5.513  48.881  1.00  0.00     0.017 C 
BRANCH  18  19
HETATM   19  C4  UNL     1      24.829   5.558  49.198  1.00  0.00     0.116 C 
HETATM   20  N1  UNL     1      24.432   5.606  50.439  1.00  0.00    -0.273 NA
BRANCH  20  21
HETATM   21  C3  UNL     1      23.068   5.650  50.808  1.00  0.00     0.112 C 
HETATM   22  C2  UNL     1      22.603   5.073  51.904  1.00  0.00    -0.012 C 
HETATM   23  C1  UNL     1      23.513   4.335  52.817  1.00  0.00     0.037 C 
ENDBRANCH  20  21
ENDBRANCH  18  19
ENDBRANCH  16  17
ENDBRANCH   1  16
TORSDOF 9
ENDMDL
MODEL 2
REMARK VINA RESULT:      -6.3      2.760      5.058
REMARK  9 active torsions:
REMARK  status: ('A' for Active; 'I' for Inactive)
REMARK    1  A    between atoms: C3_3  and  N1_4 
REMARK    2  A    between atoms: C4_5  and  C5_6 
REMARK    3  A    between atoms: C6_7  and  C7_8 
REMARK    4  A    between atoms: C7_8  and  N2_9 
REMARK       I    between atoms: N2_9  and  C8_10 
REMARK    5  A    between atoms: C8_10  and  C9_12 
REMARK    6  A    between atoms: C9_12  and  N3_13 
REMARK    7  A    between atoms: C10_14  and  O2_15 
REMARK    8  A    between atoms: O2_15  and  C11_16 
REMARK    9  A    between atoms: C11_16  and  C12_17 
ROOT
HETATM    1  N2  UNL     1      26.024   3.359  51.008  1.00  0.00    -0.356 N 
HETATM    2  C8  UNL     1      24.721   2.879  51.310  1.00  0.00     0.237 C 
HETATM    3  O1  UNL     1      23.866   2.575  50.454  1.00  0.00    -0.272 OA
HETATM    4  H11 UNL     1      26.603   3.561  51.847  1.00  0.00     0.162 HD
ENDROOT
BRANCH   2   5
HETATM    5  C9  UNL     1      24.228   2.683  52.726  1.00  0.00     0.253 C 
BRANCH   5   6
HETATM    6  N3  UNL     1      23.054   1.850  52.634  1.00  0.00    -0.269 NA
HETATM    7  C10 UNL     1      23.011   0.653  53.086  1.00  0.00     0.246 C 
BRANCH   7   8
HETATM    8  O2  UNL     1      24.293   0.550  53.582  1.00  0.00    -0.341 OA
BRANCH   8   9
HETATM    9  C11 UNL     1      24.984  -0.652  53.380  1.00  0.00     0.212 C 
BRANCH   9  10
HETATM   10  C12 UNL     1      26.436  -0.518  53.649  1.00  0.00    -0.032 A 
HETATM   11  C13 UNL     1      27.338  -1.147  52.910  1.00  0.00     0.009 A 
HETATM   12  C14 UNL     1      28.707  -0.883  53.339  1.00  0.00     0.024 A 
HETATM   13  C15 UNL     1      28.961  -0.088  54.366  1.00  0.00     0.135 A 
HETATM   14  O3  UNL     1      27.980   0.552  55.110  1.00  0.00    -0.359 OA
HETATM   15  C16 UNL     1      26.608   0.389  54.810  1.00  0.00     0.210 A 
ENDBRANCH   9  10
ENDBRANCH   8   9
ENDBRANCH   7   8
ENDBRANCH   5   6
ENDBRANCH   2   5
BRANCH   1  16
HETATM   16  C7  UNL     1      26.458   3.531  49.628  1.00  0.00     0.149 C 
BRANCH  16  17
HETATM   17  C6  UNL     1      26.280   4.936  49.198  1.00  0.00    -0.006 C 
HETATM   18  C5  UNL     1      27.193   5.707  48.633  1.00  0.00     0.017 C 
BRANCH  18  19
HETATM   19  C4  UNL     1      28.551   5.269  48.347  1.00  0.00     0.116 C 
HETATM   20  N1  UNL     1      29.503   6.143  48.174  1.00  0.00    -0.273 NA
BRANCH  20  21
HETATM   21  C3  UNL     1      30.839   5.777  47.892  1.00  0.00     0.112 C 
HETATM   22  C2  UNL     1      31.878   6.365  48.463  1.00  0.00    -0.012 C 
HETATM   23  C1  UNL     1      31.684   7.462  49.445  1.00  0.00     0.037 C 
ENDBRANCH  20  21
ENDBRANCH  18  19
ENDBRANCH  16  17
ENDBRANCH   1  16
TORSDOF 9
ENDMDL
MODEL 3
REMARK VINA RESULT:      -6.2      2.451      4.945
REMARK  9 active torsions:
REMARK  status: ('A' for Active; 'I' for Inactive)
REMARK    1  A    between atoms: C3_3  and  N1_4 
REMARK    2  A    between atoms: C4_5  and  C5_6 
REMARK    3  A    between atoms: C6_7  and  C7_8 
REMARK    4  A    between atoms: C7_8  and  N2_9 
REMARK       I    between atoms: N2_9  and  C8_10 
REMARK    5  A    between atoms: C8_10  and  C9_12 
REMARK    6  A    between atoms: C9_12  and  N3_13 
REMARK    7  A    between atoms: C10_14  and  O2_15 
REMARK    8  A    between atoms: O2_15  and  C11_16 
REMARK    9  A    between atoms: C11_16  and  C12_17 
ROOT
HETATM    1  N2  UNL     1      23.321   3.053  51.577  1.00  0.00    -0.356 N 
HETATM    2  C8  UNL     1      22.105   3.642  52.016  1.00  0.00     0.237 C 
HETATM    3  O1  UNL     1      21.913   4.871  52.113  1.00  0.00    -0.272 OA
HETATM    4  H11 UNL     1      23.302   2.013  51.558  1.00  0.00     0.162 HD
ENDROOT
BRANCH   2   5
HETATM    5  C9  UNL     1      20.897   2.826  52.418  1.00  0.00     0.253 C 
BRANCH   5   6
HETATM    6  N3  UNL     1      20.650   1.907  51.333  1.00  0.00    -0.269 NA
HETATM    7  C10 UNL     1      20.623   0.637  51.488  1.00  0.00     0.246 C 
BRANCH   7   8
HETATM    8  O2  UNL     1      20.877   0.566  52.841  1.00  0.00    -0.341 OA
BRANCH   8   9
HETATM    9  C11 UNL     1      21.274  -0.668  53.375  1.00  0.00     0.212 C 
BRANCH   9  10
HETATM   10  C12 UNL     1      22.686  -0.657  53.828  1.00  0.00    -0.032 A 
HETATM   11  C13 UNL     1      23.645  -0.116  53.092  1.00  0.00     0.009 A 
HETATM   12  C14 UNL     1      24.960  -0.209  53.717  1.00  0.00     0.024 A 
HETATM   13  C15 UNL     1      25.118  -0.784  54.898  1.00  0.00     0.135 A 
HETATM   14  O3  UNL     1      24.079  -1.337  55.634  1.00  0.00    -0.359 OA
HETATM   15  C16 UNL     1      22.750  -1.321  55.154  1.00  0.00     0.210 A 
ENDBRANCH   9  10
ENDBRANCH   8   9
ENDBRANCH   7   8
ENDBRANCH   5   6
ENDBRANCH   2   5
BRANCH   1  16
HETATM   16  C7  UNL     1      24.461   3.878  51.199  1.00  0.00     0.149 C 
BRANCH  16  17
HETATM   17  C6  UNL     1      25.402   3.110  50.355  1.00  0.00    -0.006 C 
HETATM   18  C5  UNL     1      26.464   2.440  50.770  1.00  0.00     0.017 C 
BRANCH  18  19
HETATM   19  C4  UNL     1      26.872   2.364  52.165  1.00  0.00     0.116 C 
HETATM   20  N1  UNL     1      28.137   2.328  52.480  1.00  0.00    -0.273 NA
BRANCH  20  21
HETATM   21  C3  UNL     1      28.592   2.252  53.817  1.00  0.00     0.112 C 
HETATM   22  C2  UNL     1      29.042   1.131  54.358  1.00  0.00    -0.012 C 
HETATM   23  C1  UNL     1      29.089  -0.126  53.569  1.00  0.00     0.037 C 
ENDBRANCH  20  21
ENDBRANCH  18  19
ENDBRANCH  16  17
ENDBRANCH   1  16
TORSDOF 9
ENDMDL
MODEL 4
REMARK VINA RESULT:      -6.1      3.273      5.311
REMARK  9 active torsions:
REMARK  status: ('A' for Active; 'I' for Inactive)
REMARK    1  A    between atoms: C3_3  and  N1_4 
REMARK    2  A    between atoms: C4_5  and  C5_6 
REMARK    3  A    between atoms: C6_7  and  C7_8 
REMARK    4  A    between atoms: C7_8  and  N2_9 
REMARK       I    between atoms: N2_9  and  C8_10 
REMARK    5  A    between atoms: C8_10  and  C9_12 
REMARK    6  A    between atoms: C9_12  and  N3_13 
REMARK    7  A    between atoms: C10_14  and  O2_15 
REMARK    8  A    between atoms: O2_15  and  C11_16 
REMARK    9  A    between atoms: C11_16  and  C12_17 
ROOT
HETATM    1  N2  UNL     1      26.281   4.560  50.216  1.00  0.00    -0.356 N 
HETATM    2  C8  UNL     1      24.972   4.096  50.510  1.00  0.00     0.237 C 
HETATM    3  O1  UNL     1      23.967   4.329  49.808  1.00  0.00    -0.272 OA
HETATM    4  H11 UNL     1      26.997   4.269  50.912  1.00  0.00     0.162 HD
ENDROOT
BRANCH   2   5
HETATM    5  C9  UNL     1      24.654   3.255  51.725  1.00  0.00     0.253 C 
BRANCH   5   6
HETATM    6  N3  UNL     1      23.531   2.425  51.362  1.00  0.00    -0.269 NA
HETATM    7  C10 UNL     1      23.397   1.217  51.766  1.00  0.00     0.246 C 
BRANCH   7   8
HETATM    8  O2  UNL     1      24.541   1.101  52.525  1.00  0.00    -0.341 OA
BRANCH   8   9
HETATM    9  C11 UNL     1      24.878  -0.165  53.022  1.00  0.00     0.212 C 
BRANCH   9  10
HETATM   10  C12 UNL     1      26.300  -0.248  53.434  1.00  0.00    -0.032 A 
HETATM   11  C13 UNL     1      27.157  -1.039  52.807  1.00  0.00     0.009 A 
HETATM   12  C14 UNL     1      28.503  -0.974  53.366  1.00  0.00     0.024 A 
HETATM   13  C15 UNL     1      28.780  -0.187  54.393  1.00  0.00     0.135 A 
HETATM   14  O3  UNL     1      27.845   0.628  55.017  1.00  0.00    -0.359 OA
HETATM   15  C16 UNL     1      26.501   0.668  54.583  1.00  0.00     0.210 A 
ENDBRANCH   9  10
ENDBRANCH   8   9
ENDBRANCH   7   8
ENDBRANCH   5   6
ENDBRANCH   2   5
BRANCH   1  16
HETATM   16  C7  UNL     1      26.543   5.368  49.032  1.00  0.00     0.149 C 
BRANCH  16  17
HETATM   17  C6  UNL     1      27.883   5.068  48.482  1.00  0.00    -0.006 C 
HETATM   18  C5  UNL     1      28.819   5.947  48.166  1.00  0.00     0.017 C 
BRANCH  18  19
HETATM   19  C4  UNL     1      28.655   7.385  48.318  1.00  0.00     0.116 C 
HETATM   20  N1  UNL     1      29.544   8.083  48.970  1.00  0.00    -0.273 NA
BRANCH  20  21
HETATM   21  C3  UNL     1      29.438   9.481  49.151  1.00  0.00     0.112 C 
HETATM   22  C2  UNL     1      30.347  10.332  48.702  1.00  0.00    -0.012 C 
HETATM   23  C1  UNL     1      31.546   9.847  47.973  1.00  0.00     0.037 C 
ENDBRANCH  20  21
ENDBRANCH  18  19
ENDBRANCH  16  17
ENDBRANCH   1  16
TORSDOF 9
ENDMDL
MODEL 5
REMARK VINA RESULT:      -6.1      2.497      7.663
REMARK  9 active torsions:
REMARK  status: ('A' for Active; 'I' for Inactive)
REMARK    1  A    between atoms: C3_3  and  N1_4 
REMARK    2  A    between atoms: C4_5  and  C5_6 
REMARK    3  A    between atoms: C6_7  and  C7_8 
REMARK    4  A    between atoms: C7_8  and  N2_9 
REMARK       I    between atoms: N2_9  and  C8_10 
REMARK    5  A    between atoms: C8_10  and  C9_12 
REMARK    6  A    between atoms: C9_12  and  N3_13 
REMARK    7  A    between atoms: C10_14  and  O2_15 
REMARK    8  A    between atoms: O2_15  and  C11_16 
REMARK    9  A    between atoms: C11_16  and  C12_17 
ROOT
HETATM    1  N2  UNL     1      23.426   1.567  52.935  1.00  0.00    -0.356 N 
HETATM    2  C8  UNL     1      24.279   2.678  52.701  1.00  0.00     0.237 C 
HETATM    3  O1  UNL     1      25.456   2.591  52.296  1.00  0.00    -0.272 OA
HETATM    4  H11 UNL     1      22.477   1.828  53.271  1.00  0.00     0.162 HD
ENDROOT
BRANCH   2   5
HETATM    5  C9  UNL     1      23.841   4.108  52.923  1.00  0.00     0.253 C 
BRANCH   5   6
HETATM    6  N3  UNL     1      22.543   4.235  52.305  1.00  0.00    -0.269 NA
HETATM    7  C10 UNL     1      22.381   4.640  51.101  1.00  0.00     0.246 C 
BRANCH   7   8
HETATM    8  O2  UNL     1      23.697   4.849  50.750  1.00  0.00    -0.341 OA
BRANCH   8   9
HETATM    9  C11 UNL     1      24.129   4.387  49.500  1.00  0.00     0.212 C 
BRANCH   9  10
HETATM   10  C12 UNL     1      25.426   4.981  49.097  1.00  0.00    -0.032 A 
HETATM   11  C13 UNL     1      26.555   4.291  49.164  1.00  0.00     0.009 A 
HETATM   12  C14 UNL     1      27.715   5.057  48.723  1.00  0.00     0.024 A 
HETATM   13  C15 UNL     1      27.592   6.307  48.308  1.00  0.00     0.135 A 
HETATM   14  O3  UNL     1      26.385   6.989  48.254  1.00  0.00    -0.359 OA
HETATM   15  C16 UNL     1      25.176   6.374  48.651  1.00  0.00     0.210 A 
ENDBRANCH   9  10
ENDBRANCH   8   9
ENDBRANCH   7   8
ENDBRANCH   5   6
ENDBRANCH   2   5
BRANCH   1  16
HETATM   16  C7  UNL     1      23.890   0.205  52.707  1.00  0.00     0.149 C 
BRANCH  16  17
HETATM   17  C6  UNL     1      24.014  -0.524  53.988  1.00  0.00    -0.006 C 
HETATM   18  C5  UNL     1      25.103  -0.628  54.732  1.00  0.00     0.017 C 
BRANCH  18  19
HETATM   19  C4  UNL     1      26.377  -0.020  54.380  1.00  0.00     0.116 C 
HETATM   20  N1  UNL     1      27.488  -0.477  54.889  1.00  0.00    -0.273 NA
BRANCH  20  21
HETATM   21  C3  UNL     1      28.754   0.073  54.586  1.00  0.00     0.112 C 
HETATM   22  C2  UNL     1      29.652  -0.559  53.846  1.00  0.00    -0.012 C 
HETATM   23  C1  UNL     1      29.363  -1.905  53.290  1.00  0.00     0.037 C 
ENDBRANCH  20  21
ENDBRANCH  18  19
ENDBRANCH  16  17
ENDBRANCH   1  16
TORSDOF 9
ENDMDL
MODEL 6
REMARK VINA RESULT:      -6.1      2.136      4.567
REMARK  9 active torsions:
REMARK  status: ('A' for Active; 'I' for Inactive)
REMARK    1  A    between atoms: C3_3  and  N1_4 
REMARK    2  A    between atoms: C4_5  and  C5_6 
REMARK    3  A    between atoms: C6_7  and  C7_8 
REMARK    4  A    between atoms: C7_8  and  N2_9 
REMARK       I    between atoms: N2_9  and  C8_10 
REMARK    5  A    between atoms: C8_10  and  C9_12 
REMARK    6  A    between atoms: C9_12  and  N3_13 
REMARK    7  A    between atoms: C10_14  and  O2_15 
REMARK    8  A    between atoms: O2_15  and  C11_16 
REMARK    9  A    between atoms: C11_16  and  C12_17 
ROOT
HETATM    1  N2  UNL     1      23.584   4.659  50.429  1.00  0.00    -0.356 N 
HETATM    2  C8  UNL     1      23.121   4.233  51.702  1.00  0.00     0.237 C 
HETATM    3  O1  UNL     1      23.820   4.211  52.735  1.00  0.00    -0.272 OA
HETATM    4  H11 UNL     1      22.863   4.611  49.681  1.00  0.00     0.162 HD
ENDROOT
BRANCH   2   5
HETATM    5  C9  UNL     1      21.707   3.754  51.942  1.00  0.00     0.253 C 
BRANCH   5   6
HETATM    6  N3  UNL     1      21.200   3.329  50.659  1.00  0.00    -0.269 NA
HETATM    7  C10 UNL     1      20.627   2.198  50.476  1.00  0.00     0.246 C 
BRANCH   7   8
HETATM    8  O2  UNL     1      20.699   1.694  51.756  1.00  0.00    -0.341 OA
BRANCH   8   9
HETATM    9  C11 UNL     1      20.486   0.321  51.939  1.00  0.00     0.212 C 
BRANCH   9  10
HETATM   10  C12 UNL     1      21.353  -0.247  52.998  1.00  0.00    -0.032 A 
HETATM   11  C13 UNL     1      22.660  -0.034  53.012  1.00  0.00     0.009 A 
HETATM   12  C14 UNL     1      23.329  -0.680  54.136  1.00  0.00     0.024 A 
HETATM   13  C15 UNL     1      22.649  -1.392  55.019  1.00  0.00     0.135 A 
HETATM   14  O3  UNL     1      21.276  -1.586  54.964  1.00  0.00    -0.359 OA
HETATM   15  C16 UNL     1      20.496  -1.021  53.930  1.00  0.00     0.210 A 
ENDBRANCH   9  10
ENDBRANCH   8   9
ENDBRANCH   7   8
ENDBRANCH   5   6
ENDBRANCH   2   5
BRANCH   1  16
HETATM   16  C7  UNL     1      24.955   5.114  50.243  1.00  0.00     0.149 C 
BRANCH  16  17
HETATM   17  C6  UNL     1      25.696   4.187  49.360  1.00  0.00    -0.006 C 
HETATM   18  C5  UNL     1      26.475   3.189  49.743  1.00  0.00     0.017 C 
BRANCH  18  19
HETATM   19  C4  UNL     1      26.722   2.852  51.136  1.00  0.00     0.116 C 
HETATM   20  N1  UNL     1      26.228   1.757  51.647  1.00  0.00    -0.273 NA
BRANCH  20  21
HETATM   21  C3  UNL     1      26.434   1.379  52.993  1.00  0.00     0.112 C 
HETATM   22  C2  UNL     1      26.682   0.130  53.356  1.00  0.00    -0.012 C 
HETATM   23  C1  UNL     1      26.757  -0.953  52.343  1.00  0.00     0.037 C 
ENDBRANCH  20  21
ENDBRANCH  18  19
ENDBRANCH  16  17
ENDBRANCH   1  16
TORSDOF 9
ENDMDL
MODEL 7
REMARK VINA RESULT:      -6.0      3.362      8.765
REMARK  9 active torsions:
REMARK  status: ('A' for Active; 'I' for Inactive)
REMARK    1  A    between atoms: C3_3  and  N1_4 
REMARK    2  A    between atoms: C4_5  and  C5_6 
REMARK    3  A    between atoms: C6_7  and  C7_8 
REMARK    4  A    between atoms: C7_8  and  N2_9 
REMARK       I    between atoms: N2_9  and  C8_10 
REMARK    5  A    between atoms: C8_10  and  C9_12 
REMARK    6  A    between atoms: C9_12  and  N3_13 
REMARK    7  A    between atoms: C10_14  and  O2_15 
REMARK    8  A    between atoms: O2_15  and  C11_16 
REMARK    9  A    between atoms: C11_16  and  C12_17 
ROOT
HETATM    1  N2  UNL     1      24.960   3.269  51.826  1.00  0.00    -0.356 N 
HETATM    2  C8  UNL     1      26.088   3.277  50.962  1.00  0.00     0.237 C 
HETATM    3  O1  UNL     1      27.137   2.634  51.168  1.00  0.00    -0.272 OA
HETATM    4  H11 UNL     1      24.173   3.863  51.496  1.00  0.00     0.162 HD
ENDROOT
BRANCH   2   5
HETATM    5  C9  UNL     1      26.134   4.080  49.682  1.00  0.00     0.253 C 
BRANCH   5   6
HETATM    6  N3  UNL     1      25.310   5.243  49.903  1.00  0.00    -0.269 NA
HETATM    7  C10 UNL     1      25.624   6.411  49.482  1.00  0.00     0.246 C 
BRANCH   7   8
HETATM    8  O2  UNL     1      26.822   6.118  48.866  1.00  0.00    -0.341 OA
BRANCH   8   9
HETATM    9  C11 UNL     1      27.606   7.183  48.404  1.00  0.00     0.212 C 
BRANCH   9  10
HETATM   10  C12 UNL     1      29.019   6.791  48.189  1.00  0.00    -0.032 A 
HETATM   11  C13 UNL     1      29.375   5.520  48.076  1.00  0.00     0.009 A 
HETATM   12  C14 UNL     1      30.809   5.349  47.869  1.00  0.00     0.024 A 
HETATM   13  C15 UNL     1      31.621   6.392  47.808  1.00  0.00     0.135 A 
HETATM   14  O3  UNL     1      31.199   7.708  47.931  1.00  0.00    -0.359 OA
HETATM   15  C16 UNL     1      29.838   8.027  48.136  1.00  0.00     0.210 A 
ENDBRANCH   9  10
ENDBRANCH   8   9
ENDBRANCH   7   8
ENDBRANCH   5   6
ENDBRANCH   2   5
BRANCH   1  16
HETATM   16  C7  UNL     1      24.958   2.479  53.050  1.00  0.00     0.149 C 
BRANCH  16  17
HETATM   17  C6  UNL     1      24.543   1.087  52.771  1.00  0.00    -0.006 C 
HETATM   18  C5  UNL     1      25.218  -0.010  53.071  1.00  0.00     0.017 C 
BRANCH  18  19
HETATM   19  C4  UNL     1      26.510  -0.002  53.740  1.00  0.00     0.116 C 
HETATM   20  N1  UNL     1      27.612  -0.027  53.043  1.00  0.00    -0.273 NA
BRANCH  20  21
HETATM   21  C3  UNL     1      28.895  -0.022  53.637  1.00  0.00     0.112 C 
HETATM   22  C2  UNL     1      29.649  -1.107  53.724  1.00  0.00    -0.012 C 
HETATM   23  C1  UNL     1      29.170  -2.407  53.189  1.00  0.00     0.037 C 
ENDBRANCH  20  21
ENDBRANCH  18  19
ENDBRANCH  16  17
ENDBRANCH   1  16
TORSDOF 9
ENDMDL
MODEL 8
REMARK VINA RESULT:      -6.0      5.992      9.998
REMARK  9 active torsions:
REMARK  status: ('A' for Active; 'I' for Inactive)
REMARK    1  A    between atoms: C3_3  and  N1_4 
REMARK    2  A    between atoms: C4_5  and  C5_6 
REMARK    3  A    between atoms: C6_7  and  C7_8 
REMARK    4  A    between atoms: C7_8  and  N2_9 
REMARK       I    between atoms: N2_9  and  C8_10 
REMARK    5  A    between atoms: C8_10  and  C9_12 
REMARK    6  A    between atoms: C9_12  and  N3_13 
REMARK    7  A    between atoms: C10_14  and  O2_15 
REMARK    8  A    between atoms: O2_15  and  C11_16 
REMARK    9  A    between atoms: C11_16  and  C12_17 
ROOT
HETATM    1  N2  UNL     1      29.045   6.158  48.875  1.00  0.00    -0.356 N 
HETATM    2  C8  UNL     1      30.458   6.026  48.801  1.00  0.00     0.237 C 
HETATM    3  O1  UNL     1      31.049   5.024  48.352  1.00  0.00    -0.272 OA
HETATM    4  H11 UNL     1      28.727   7.063  49.277  1.00  0.00     0.162 HD
ENDROOT
BRANCH   2   5
HETATM    5  C9  UNL     1      31.407   7.107  49.268  1.00  0.00     0.253 C 
BRANCH   5   6
HETATM    6  N3  UNL     1      31.245   8.211  48.354  1.00  0.00    -0.269 NA
HETATM    7  C10 UNL     1      32.213   8.698  47.672  1.00  0.00     0.246 C 
BRANCH   7   8
HETATM    8  O2  UNL     1      33.234   7.882  48.106  1.00  0.00    -0.341 OA
BRANCH   8   9
HETATM    9  C11 UNL     1      34.185   7.455  47.168  1.00  0.00     0.212 C 
BRANCH   9  10
HETATM   10  C12 UNL     1      34.343   5.982  47.158  1.00  0.00    -0.032 A 
HETATM   11  C13 UNL     1      34.026   5.259  46.094  1.00  0.00     0.009 A 
HETATM   12  C14 UNL     1      34.256   3.831  46.289  1.00  0.00     0.024 A 
HETATM   13  C15 UNL     1      34.735   3.365  47.430  1.00  0.00     0.135 A 
HETATM   14  O3  UNL     1      35.056   4.164  48.519  1.00  0.00    -0.359 OA
HETATM   15  C16 UNL     1      34.884   5.566  48.475  1.00  0.00     0.210 A 
ENDBRANCH   9  10
ENDBRANCH   8   9
ENDBRANCH   7   8
ENDBRANCH   5   6
ENDBRANCH   2   5
BRANCH   1  16
HETATM   16  C7  UNL     1      28.167   5.091  48.412  1.00  0.00     0.149 C 
BRANCH  16  17
HETATM   17  C6  UNL     1      26.786   5.307  48.895  1.00  0.00    -0.006 C 
HETATM   18  C5  UNL     1      26.069   4.472  49.627  1.00  0.00     0.017 C 
BRANCH  18  19
HETATM   19  C4  UNL     1      26.554   3.174  50.073  1.00  0.00     0.116 C 
HETATM   20  N1  UNL     1      26.127   2.661  51.194  1.00  0.00    -0.273 NA
BRANCH  20  21
HETATM   21  C3  UNL     1      26.563   1.407  51.679  1.00  0.00     0.112 C 
HETATM   22  C2  UNL     1      25.763   0.570  52.321  1.00  0.00    -0.012 C 
HETATM   23  C1  UNL     1      24.341   0.918  52.567  1.00  0.00     0.037 C 
ENDBRANCH  20  21
ENDBRANCH  18  19
ENDBRANCH  16  17
ENDBRANCH   1  16
TORSDOF 9
ENDMDL
MODEL 9
REMARK VINA RESULT:      -5.9      3.119      4.284
REMARK  9 active torsions:
REMARK  status: ('A' for Active; 'I' for Inactive)
REMARK    1  A    between atoms: C3_3  and  N1_4 
REMARK    2  A    between atoms: C4_5  and  C5_6 
REMARK    3  A    between atoms: C6_7  and  C7_8 
REMARK    4  A    between atoms: C7_8  and  N2_9 
REMARK       I    between atoms: N2_9  and  C8_10 
REMARK    5  A    between atoms: C8_10  and  C9_12 
REMARK    6  A    between atoms: C9_12  and  N3_13 
REMARK    7  A    between atoms: C10_14  and  O2_15 
REMARK    8  A    between atoms: O2_15  and  C11_16 
REMARK    9  A    between atoms: C11_16  and  C12_17 
ROOT
HETATM    1  N2  UNL     1      26.816   4.017  49.832  1.00  0.00    -0.356 N 
HETATM    2  C8  UNL     1      25.600   3.759  50.520  1.00  0.00     0.237 C 
HETATM    3  O1  UNL     1      24.580   4.473  50.440  1.00  0.00    -0.272 OA
HETATM    4  H11 UNL     1      27.560   3.315  50.017  1.00  0.00     0.162 HD
ENDROOT
BRANCH   2   5
HETATM    5  C9  UNL     1      25.412   2.571  51.435  1.00  0.00     0.253 C 
BRANCH   5   6
HETATM    6  N3  UNL     1      26.665   1.856  51.434  1.00  0.00    -0.269 NA
HETATM    7  C10 UNL     1      26.889   0.839  52.180  1.00  0.00     0.246 C 
BRANCH   7   8
HETATM    8  O2  UNL     1      25.676   0.760  52.829  1.00  0.00    -0.341 OA
BRANCH   8   9
HETATM    9  C11 UNL     1      25.359  -0.433  53.493  1.00  0.00     0.212 C 
BRANCH   9  10
HETATM   10  C12 UNL     1      23.922  -0.516  53.846  1.00  0.00    -0.032 A 
HETATM   11  C13 UNL     1      22.986   0.005  53.066  1.00  0.00     0.009 A 
HETATM   12  C14 UNL     1      21.639  -0.185  53.591  1.00  0.00     0.024 A 
HETATM   13  C15 UNL     1      21.433  -0.820  54.734  1.00  0.00     0.135 A 
HETATM   14  O3  UNL     1      22.448  -1.352  55.517  1.00  0.00    -0.359 OA
HETATM   15  C16 UNL     1      23.804  -1.243  55.134  1.00  0.00     0.210 A 
ENDBRANCH   9  10
ENDBRANCH   8   9
ENDBRANCH   7   8
ENDBRANCH   5   6
ENDBRANCH   2   5
BRANCH   1  16
HETATM   16  C7  UNL     1      26.952   5.174  48.958  1.00  0.00     0.149 C 
BRANCH  16  17
HETATM   17  C6  UNL     1      28.280   5.181  48.306  1.00  0.00    -0.006 C 
HETATM   18  C5  UNL     1      29.056   6.233  48.112  1.00  0.00     0.017 C 
BRANCH  18  19
HETATM   19  C4  UNL     1      28.699   7.582  48.525  1.00  0.00     0.116 C 
HETATM   20  N1  UNL     1      29.625   8.431  48.877  1.00  0.00    -0.273 NA
BRANCH  20  21
HETATM   21  C3  UNL     1      29.339   9.753  49.288  1.00  0.00     0.112 C 
HETATM   22  C2  UNL     1      30.077  10.791  48.927  1.00  0.00    -0.012 C 
HETATM   23  C1  UNL     1      31.265  10.610  48.056  1.00  0.00     0.037 C 
ENDBRANCH  20  21
ENDBRANCH  18  19
ENDBRANCH  16  17
ENDBRANCH   1  16
TORSDOF 9
ENDMDL
