MODEL 1
REMARK VINA RESULT:      -8.3      0.000      0.000
REMARK  9 active torsions:
REMARK  status: ('A' for Active; 'I' for Inactive)
REMARK    1  A    between atoms: C3_4  and  C4_5 
REMARK    2  A    between atoms: C4_5  and  N1_6 
REMARK    3  A    between atoms: N1_6  and  C5_7 
REMARK    4  A    between atoms: C10_14  and  C11_15 
REMARK    5  A    between atoms: C11_15  and  N4_16 
REMARK    6  A    between atoms: C12_17  and  N5_19 
REMARK    7  A    between atoms: N5_19  and  C13_20 
REMARK    8  A    between atoms: C13_20  and  C14_21 
REMARK    9  A    between atoms: C14_21  and  N6_22 
ROOT
HETATM    1  C5  UNL     1      30.285   7.149  47.963  1.00  0.00     0.150 A 
HETATM    2  N2  UNL     1      30.468   8.358  47.577  1.00  0.00    -0.240 NA
HETATM    3  C6  UNL     1      29.467   9.304  47.312  1.00  0.00     0.136 A 
HETATM    4  C7  UNL     1      28.223   8.944  47.465  1.00  0.00     0.116 A 
HETATM    5  N3  UNL     1      27.841   7.634  47.890  1.00  0.00    -0.328 N 
HETATM    6  C8  UNL     1      26.457   7.380  48.014  1.00  0.00     0.097 A 
HETATM    7  C9  UNL     1      26.182   6.131  48.415  1.00  0.00     0.030 A 
HETATM    8  C10 UNL     1      27.214   5.108  48.702  1.00  0.00    -0.022 A 
HETATM    9  C19 UNL     1      28.595   5.530  48.524  1.00  0.00     0.046 A 
HETATM   10  C20 UNL     1      28.910   6.742  48.135  1.00  0.00     0.085 A 
ENDROOT
BRANCH   8  11
HETATM   11  C11 UNL     1      26.816   3.875  49.100  1.00  0.00     0.073 C 
BRANCH  11  12
HETATM   12  N4  UNL     1      26.901   3.779  50.605  1.00  0.00    -0.246 N 
HETATM   13  C12 UNL     1      25.488   3.337  50.856  1.00  0.00     0.231 A 
HETATM   14  O1  UNL     1      24.280   3.010  50.429  1.00  0.00    -0.189 OA
HETATM   15  H13 UNL     1      26.260   3.637  49.969  1.00  0.00     0.214 HD
BRANCH  13  16
HETATM   16  N5  UNL     1      25.207   3.137  52.269  1.00  0.00    -0.377 N 
HETATM   17  H14 UNL     1      25.187   4.087  52.759  1.00  0.00     0.157 HD
BRANCH  16  18
HETATM   18  C13 UNL     1      24.950   2.029  53.188  1.00  0.00     0.148 C 
BRANCH  18  19
HETATM   19  C14 UNL     1      26.196   1.737  53.944  1.00  0.00     0.291 C 
BRANCH  19  20
HETATM   20  N6  UNL     1      27.351   1.517  53.119  1.00  0.00     0.094 N 
HETATM   21  C15 UNL     1      28.610   1.525  53.774  1.00  0.00     0.298 C 
HETATM   22  C16 UNL     1      29.330   0.194  53.767  1.00  0.00     0.198 C 
HETATM   23  O2  UNL     1      28.398  -0.746  54.227  1.00  0.00    -0.388 OA
HETATM   24  C17 UNL     1      27.476  -0.952  53.204  1.00  0.00     0.198 C 
HETATM   25  C18 UNL     1      27.174   0.272  52.408  1.00  0.00     0.298 C 
ENDBRANCH  19  20
ENDBRANCH  18  19
ENDBRANCH  16  18
ENDBRANCH  13  16
ENDBRANCH  11  12
ENDBRANCH   8  11
BRANCH   1  26
HETATM   26  N1  UNL     1      31.378   6.279  48.202  1.00  0.00    -0.369 N 
HETATM   27  H7  UNL     1      31.687   6.113  49.182  1.00  0.00     0.161 HD
BRANCH  26  28
HETATM   28  C4  UNL     1      31.980   5.686  46.998  1.00  0.00     0.150 C 
BRANCH  28  29
HETATM   29  C3  UNL     1      32.042   4.193  47.154  1.00  0.00     0.011 C 
HETATM   30  C2  UNL     1      33.053   3.341  47.401  1.00  0.00     0.005 C 
HETATM   31  C1  UNL     1      32.964   1.857  47.532  1.00  0.00     0.061 C 
HETATM   32 CL1  UNL     1      34.740   3.768  47.634  1.00  0.00    -0.090 Cl
ENDBRANCH  28  29
ENDBRANCH  26  28
ENDBRANCH   1  26
TORSDOF 9
ENDMDL
MODEL 2
REMARK VINA RESULT:      -8.3      5.303     10.257
REMARK  9 active torsions:
REMARK  status: ('A' for Active; 'I' for Inactive)
REMARK    1  A    between atoms: C3_4  and  C4_5 
REMARK    2  A    between atoms: C4_5  and  N1_6 
REMARK    3  A    between atoms: N1_6  and  C5_7 
REMARK    4  A    between atoms: C10_14  and  C11_15 
REMARK    5  A    between atoms: C11_15  and  N4_16 
REMARK    6  A    between atoms: C12_17  and  N5_19 
REMARK    7  A    between atoms: N5_19  and  C13_20 
REMARK    8  A    between atoms: C13_20  and  C14_21 
REMARK    9  A    between atoms: C14_21  and  N6_22 
ROOT
HETATM    1  C5  UNL     1      21.965  -0.004  52.739  1.00  0.00     0.150 A 
HETATM    2  N2  UNL     1      21.193  -0.635  53.543  1.00  0.00    -0.240 NA
HETATM    3  C6  UNL     1      21.584  -1.317  54.705  1.00  0.00     0.136 A 
HETATM    4  C7  UNL     1      22.849  -1.323  55.019  1.00  0.00     0.116 A 
HETATM    5  N3  UNL     1      23.847  -0.669  54.232  1.00  0.00    -0.328 N 
HETATM    6  C8  UNL     1      25.181  -0.757  54.689  1.00  0.00     0.097 A 
HETATM    7  C9  UNL     1      26.055  -0.118  53.898  1.00  0.00     0.030 A 
HETATM    8  C10 UNL     1      25.675   0.609  52.665  1.00  0.00    -0.022 A 
HETATM    9  C19 UNL     1      24.259   0.604  52.332  1.00  0.00     0.046 A 
HETATM   10  C20 UNL     1      23.369  -0.007  53.079  1.00  0.00     0.085 A 
ENDROOT
BRANCH   8  11
HETATM   11  C11 UNL     1      26.647   1.217  51.941  1.00  0.00     0.073 C 
BRANCH  11  12
HETATM   12  N4  UNL     1      26.542   2.714  52.111  1.00  0.00    -0.246 N 
HETATM   13  C12 UNL     1      26.466   3.075  50.656  1.00  0.00     0.231 A 
HETATM   14  O1  UNL     1      26.448   2.743  49.376  1.00  0.00    -0.189 OA
HETATM   15  H13 UNL     1      26.561   2.129  51.410  1.00  0.00     0.214 HD
BRANCH  13  16
HETATM   16  N5  UNL     1      26.351   4.509  50.441  1.00  0.00    -0.377 N 
HETATM   17  H14 UNL     1      26.919   5.021  51.189  1.00  0.00     0.157 HD
BRANCH  16  18
HETATM   18  C13 UNL     1      25.693   5.427  49.513  1.00  0.00     0.148 C 
BRANCH  18  19
HETATM   19  C14 UNL     1      24.715   6.252  50.270  1.00  0.00     0.291 C 
BRANCH  19  20
HETATM   20  N6  UNL     1      23.340   5.964  49.971  1.00  0.00     0.094 N 
HETATM   21  C15 UNL     1      23.097   4.919  49.044  1.00  0.00     0.298 C 
HETATM   22  C16 UNL     1      22.401   3.708  49.629  1.00  0.00     0.198 C 
HETATM   23  O2  UNL     1      23.133   3.365  50.773  1.00  0.00    -0.388 OA
HETATM   24  C17 UNL     1      22.850   4.316  51.749  1.00  0.00     0.198 C 
HETATM   25  C18 UNL     1      22.651   5.692  51.211  1.00  0.00     0.298 C 
ENDBRANCH  19  20
ENDBRANCH  18  19
ENDBRANCH  16  18
ENDBRANCH  13  16
ENDBRANCH  11  12
ENDBRANCH   8  11
BRANCH   1  26
HETATM   26  N1  UNL     1      21.455   0.652  51.590  1.00  0.00    -0.369 N 
HETATM   27  H7  UNL     1      21.929   0.509  50.675  1.00  0.00     0.161 HD
BRANCH  26  28
HETATM   28  C4  UNL     1      20.273   1.494  51.824  1.00  0.00     0.150 C 
BRANCH  28  29
HETATM   29  C3  UNL     1      19.163   1.064  50.907  1.00  0.00     0.011 C 
HETATM   30  C2  UNL     1      18.199   0.132  51.013  1.00  0.00     0.005 C 
HETATM   31  C1  UNL     1      17.146  -0.189  50.005  1.00  0.00     0.061 C 
HETATM   32 CL1  UNL     1      17.938  -0.943  52.376  1.00  0.00    -0.090 Cl
ENDBRANCH  28  29
ENDBRANCH  26  28
ENDBRANCH   1  26
TORSDOF 9
ENDMDL
MODEL 3
REMARK VINA RESULT:      -8.2      3.077      7.483
REMARK  9 active torsions:
REMARK  status: ('A' for Active; 'I' for Inactive)
REMARK    1  A    between atoms: C3_4  and  C4_5 
REMARK    2  A    between atoms: C4_5  and  N1_6 
REMARK    3  A    between atoms: N1_6  and  C5_7 
REMARK    4  A    between atoms: C10_14  and  C11_15 
REMARK    5  A    between atoms: C11_15  and  N4_16 
REMARK    6  A    between atoms: C12_17  and  N5_19 
REMARK    7  A    between atoms: N5_19  and  C13_20 
REMARK    8  A    between atoms: C13_20  and  C14_21 
REMARK    9  A    between atoms: C14_21  and  N6_22 
ROOT
HETATM    1  C5  UNL     1      25.323   2.720  51.222  1.00  0.00     0.150 A 
HETATM    2  N2  UNL     1      24.228   2.788  51.885  1.00  0.00    -0.240 NA
HETATM    3  C6  UNL     1      23.353   3.883  51.930  1.00  0.00     0.136 A 
HETATM    4  C7  UNL     1      23.659   4.945  51.239  1.00  0.00     0.116 A 
HETATM    5  N3  UNL     1      24.844   5.039  50.444  1.00  0.00    -0.328 N 
HETATM    6  C8  UNL     1      25.051   6.250  49.748  1.00  0.00     0.097 A 
HETATM    7  C9  UNL     1      26.182   6.258  49.026  1.00  0.00     0.030 A 
HETATM    8  C10 UNL     1      27.128   5.121  48.959  1.00  0.00    -0.022 A 
HETATM    9  C19 UNL     1      26.767   3.945  49.737  1.00  0.00     0.046 A 
HETATM   10  C20 UNL     1      25.671   3.893  50.455  1.00  0.00     0.085 A 
ENDROOT
BRANCH   8  11
HETATM   11  C11 UNL     1      28.243   5.244  48.197  1.00  0.00     0.073 C 
BRANCH  11  12
HETATM   12  N4  UNL     1      29.385   5.740  49.052  1.00  0.00    -0.246 N 
HETATM   13  C12 UNL     1      29.869   6.822  48.130  1.00  0.00     0.231 A 
HETATM   14  O1  UNL     1      29.788   7.510  47.004  1.00  0.00    -0.189 OA
HETATM   15  H13 UNL     1      29.026   5.955  48.239  1.00  0.00     0.214 HD
BRANCH  13  16
HETATM   16  N5  UNL     1      31.015   7.541  48.665  1.00  0.00    -0.377 N 
HETATM   17  H14 UNL     1      30.678   8.233  49.407  1.00  0.00     0.157 HD
BRANCH  16  18
HETATM   18  C13 UNL     1      32.464   7.584  48.478  1.00  0.00     0.148 C 
BRANCH  18  19
HETATM   19  C14 UNL     1      33.026   6.246  48.797  1.00  0.00     0.291 C 
BRANCH  19  20
HETATM   20  N6  UNL     1      33.771   5.645  47.726  1.00  0.00     0.094 N 
HETATM   21  C15 UNL     1      34.714   4.649  48.088  1.00  0.00     0.298 C 
HETATM   22  C16 UNL     1      34.386   3.260  47.584  1.00  0.00     0.198 C 
HETATM   23  O2  UNL     1      33.058   3.022  47.961  1.00  0.00    -0.388 OA
HETATM   24  C17 UNL     1      32.246   3.790  47.130  1.00  0.00     0.198 C 
HETATM   25  C18 UNL     1      32.835   5.109  46.764  1.00  0.00     0.298 C 
ENDBRANCH  19  20
ENDBRANCH  18  19
ENDBRANCH  16  18
ENDBRANCH  13  16
ENDBRANCH  11  12
ENDBRANCH   8  11
BRANCH   1  26
HETATM   26  N1  UNL     1      26.131   1.555  51.252  1.00  0.00    -0.369 N 
HETATM   27  H7  UNL     1      26.767   1.361  50.451  1.00  0.00     0.161 HD
BRANCH  26  28
HETATM   28  C4  UNL     1      25.978   0.718  52.451  1.00  0.00     0.150 C 
BRANCH  28  29
HETATM   29  C3  UNL     1      27.322   0.191  52.869  1.00  0.00     0.011 C 
HETATM   30  C2  UNL     1      28.436   0.791  53.325  1.00  0.00     0.005 C 
HETATM   31  C1  UNL     1      29.718   0.129  53.707  1.00  0.00     0.061 C 
HETATM   32 CL1  UNL     1      28.659   2.512  53.585  1.00  0.00    -0.090 Cl
ENDBRANCH  28  29
ENDBRANCH  26  28
ENDBRANCH   1  26
TORSDOF 9
ENDMDL
MODEL 4
REMARK VINA RESULT:      -8.2      3.934      7.651
REMARK  9 active torsions:
REMARK  status: ('A' for Active; 'I' for Inactive)
REMARK    1  A    between atoms: C3_4  and  C4_5 
REMARK    2  A    between atoms: C4_5  and  N1_6 
REMARK    3  A    between atoms: N1_6  and  C5_7 
REMARK    4  A    between atoms: C10_14  and  C11_15 
REMARK    5  A    between atoms: C11_15  and  N4_16 
REMARK    6  A    between atoms: C12_17  and  N5_19 
REMARK    7  A    between atoms: N5_19  and  C13_20 
REMARK    8  A    between atoms: C13_20  and  C14_21 
REMARK    9  A    between atoms: C14_21  and  N6_22 
ROOT
HETATM    1  C5  UNL     1      26.562   2.237  52.028  1.00  0.00     0.150 A 
HETATM    2  N2  UNL     1      27.773   2.523  52.336  1.00  0.00    -0.240 NA
HETATM    3  C6  UNL     1      28.526   1.939  53.365  1.00  0.00     0.136 A 
HETATM    4  C7  UNL     1      27.963   1.016  54.093  1.00  0.00     0.116 A 
HETATM    5  N3  UNL     1      26.619   0.577  53.886  1.00  0.00    -0.328 N 
HETATM    6  C8  UNL     1      26.136  -0.432  54.749  1.00  0.00     0.097 A 
HETATM    7  C9  UNL     1      24.869  -0.788  54.490  1.00  0.00     0.030 A 
HETATM    8  C10 UNL     1      24.046  -0.191  53.413  1.00  0.00    -0.022 A 
HETATM    9  C19 UNL     1      24.693   0.838  52.613  1.00  0.00     0.046 A 
HETATM   10  C20 UNL     1      25.930   1.215  52.830  1.00  0.00     0.085 A 
ENDROOT
BRANCH   8  11
HETATM   11  C11 UNL     1      22.774  -0.629  53.246  1.00  0.00     0.073 C 
BRANCH  11  12
HETATM   12  N4  UNL     1      21.809   0.431  53.721  1.00  0.00    -0.246 N 
HETATM   13  C12 UNL     1      20.969   0.508  52.480  1.00  0.00     0.231 A 
HETATM   14  O1  UNL     1      20.679   0.124  51.248  1.00  0.00    -0.189 OA
HETATM   15  H13 UNL     1      21.928  -0.060  52.960  1.00  0.00     0.214 HD
BRANCH  13  16
HETATM   16  N5  UNL     1      19.891   1.477  52.593  1.00  0.00    -0.377 N 
HETATM   17  H14 UNL     1      19.387   1.333  53.525  1.00  0.00     0.157 HD
BRANCH  16  18
HETATM   18  C13 UNL     1      19.313   2.569  51.810  1.00  0.00     0.148 C 
BRANCH  18  19
HETATM   19  C14 UNL     1      20.187   3.764  51.940  1.00  0.00     0.291 C 
BRANCH  19  20
HETATM   20  N6  UNL     1      20.486   4.417  50.696  1.00  0.00     0.094 N 
HETATM   21  C15 UNL     1      21.390   5.509  50.753  1.00  0.00     0.298 C 
HETATM   22  C16 UNL     1      22.703   5.276  50.038  1.00  0.00     0.198 C 
HETATM   23  O2  UNL     1      23.183   4.049  50.512  1.00  0.00    -0.388 OA
HETATM   24  C17 UNL     1      22.403   3.048  49.940  1.00  0.00     0.198 C 
HETATM   25  C18 UNL     1      20.972   3.425  49.765  1.00  0.00     0.298 C 
ENDBRANCH  19  20
ENDBRANCH  18  19
ENDBRANCH  16  18
ENDBRANCH  13  16
ENDBRANCH  11  12
ENDBRANCH   8  11
BRANCH   1  26
HETATM   26  N1  UNL     1      25.898   2.895  50.962  1.00  0.00    -0.369 N 
HETATM   27  H7  UNL     1      24.894   3.145  51.070  1.00  0.00     0.161 HD
BRANCH  26  28
HETATM   28  C4  UNL     1      26.728   3.160  49.777  1.00  0.00     0.150 C 
BRANCH  28  29
HETATM   29  C3  UNL     1      26.438   4.541  49.262  1.00  0.00     0.011 C 
HETATM   30  C2  UNL     1      27.200   5.470  48.656  1.00  0.00     0.005 C 
HETATM   31  C1  UNL     1      26.768   6.821  48.192  1.00  0.00     0.061 C 
HETATM   32 CL1  UNL     1      28.903   5.320  48.260  1.00  0.00    -0.090 Cl
ENDBRANCH  28  29
ENDBRANCH  26  28
ENDBRANCH   1  26
TORSDOF 9
ENDMDL
MODEL 5
REMARK VINA RESULT:      -8.1      3.479      8.354
REMARK  9 active torsions:
REMARK  status: ('A' for Active; 'I' for Inactive)
REMARK    1  A    between atoms: C3_4  and  C4_5 
REMARK    2  A    between atoms: C4_5  and  N1_6 
REMARK    3  A    between atoms: N1_6  and  C5_7 
REMARK    4  A    between atoms: C10_14  and  C11_15 
REMARK    5  A    between atoms: C11_15  and  N4_16 
REMARK    6  A    between atoms: C12_17  and  N5_19 
REMARK    7  A    between atoms: N5_19  and  C13_20 
REMARK    8  A    between atoms: C13_20  and  C14_21 
REMARK    9  A    between atoms: C14_21  and  N6_22 
ROOT
HETATM    1  C5  UNL     1      25.124   2.185  51.748  1.00  0.00     0.150 A 
HETATM    2  N2  UNL     1      23.990   2.123  52.342  1.00  0.00    -0.240 NA
HETATM    3  C6  UNL     1      22.920   3.016  52.180  1.00  0.00     0.136 A 
HETATM    4  C7  UNL     1      23.068   4.012  51.352  1.00  0.00     0.116 A 
HETATM    5  N3  UNL     1      24.269   4.229  50.608  1.00  0.00    -0.328 N 
HETATM    6  C8  UNL     1      24.293   5.349  49.747  1.00  0.00     0.097 A 
HETATM    7  C9  UNL     1      25.452   5.484  49.086  1.00  0.00     0.030 A 
HETATM    8  C10 UNL     1      26.600   4.561  49.234  1.00  0.00    -0.022 A 
HETATM    9  C19 UNL     1      26.414   3.457  50.163  1.00  0.00     0.046 A 
HETATM   10  C20 UNL     1      25.297   3.286  50.830  1.00  0.00     0.085 A 
ENDROOT
BRANCH   8  11
HETATM   11  C11 UNL     1      27.725   4.798  48.515  1.00  0.00     0.073 C 
BRANCH  11  12
HETATM   12  N4  UNL     1      28.363   6.084  48.986  1.00  0.00    -0.246 N 
HETATM   13  C12 UNL     1      29.769   5.775  48.563  1.00  0.00     0.231 A 
HETATM   14  O1  UNL     1      30.668   4.977  48.011  1.00  0.00    -0.189 OA
HETATM   15  H13 UNL     1      28.645   5.319  48.573  1.00  0.00     0.214 HD
BRANCH  13  16
HETATM   16  N5  UNL     1      30.697   6.851  48.877  1.00  0.00    -0.377 N 
HETATM   17  H14 UNL     1      30.720   6.994  49.936  1.00  0.00     0.157 HD
BRANCH  16  18
HETATM   18  C13 UNL     1      31.586   7.771  48.169  1.00  0.00     0.148 C 
BRANCH  18  19
HETATM   19  C14 UNL     1      31.452   9.123  48.772  1.00  0.00     0.291 C 
BRANCH  19  20
HETATM   20  N6  UNL     1      30.650  10.036  48.006  1.00  0.00     0.094 N 
HETATM   21  C15 UNL     1      30.017   9.510  46.851  1.00  0.00     0.298 C 
HETATM   22  C16 UNL     1      28.505   9.481  46.922  1.00  0.00     0.198 C 
HETATM   23  O2  UNL     1      28.193   8.859  48.138  1.00  0.00    -0.388 OA
HETATM   24  C17 UNL     1      28.476   9.767  49.154  1.00  0.00     0.198 C 
HETATM   25  C18 UNL     1      29.665  10.624  48.883  1.00  0.00     0.298 C 
ENDBRANCH  19  20
ENDBRANCH  18  19
ENDBRANCH  16  18
ENDBRANCH  13  16
ENDBRANCH  11  12
ENDBRANCH   8  11
BRANCH   1  26
HETATM   26  N1  UNL     1      26.136   1.222  51.991  1.00  0.00    -0.369 N 
HETATM   27  H7  UNL     1      26.602   0.765  51.181  1.00  0.00     0.161 HD
BRANCH  26  28
HETATM   28  C4  UNL     1      26.425   0.962  53.409  1.00  0.00     0.150 C 
BRANCH  28  29
HETATM   29  C3  UNL     1      27.752   0.269  53.531  1.00  0.00     0.011 C 
HETATM   30  C2  UNL     1      28.160  -0.981  53.247  1.00  0.00     0.005 C 
HETATM   31  C1  UNL     1      29.533  -1.539  53.422  1.00  0.00     0.061 C 
HETATM   32 CL1  UNL     1      27.168  -2.275  52.596  1.00  0.00    -0.090 Cl
ENDBRANCH  28  29
ENDBRANCH  26  28
ENDBRANCH   1  26
TORSDOF 9
ENDMDL
MODEL 6
REMARK VINA RESULT:      -7.8      2.275      2.916
REMARK  9 active torsions:
REMARK  status: ('A' for Active; 'I' for Inactive)
REMARK    1  A    between atoms: C3_4  and  C4_5 
REMARK    2  A    between atoms: C4_5  and  N1_6 
REMARK    3  A    between atoms: N1_6  and  C5_7 
REMARK    4  A    between atoms: C10_14  and  C11_15 
REMARK    5  A    between atoms: C11_15  and  N4_16 
REMARK    6  A    between atoms: C12_17  and  N5_19 
REMARK    7  A    between atoms: N5_19  and  C13_20 
REMARK    8  A    between atoms: C13_20  and  C14_21 
REMARK    9  A    between atoms: C14_21  and  N6_22 
ROOT
HETATM    1  C5  UNL     1      27.898   9.761  49.362  1.00  0.00     0.150 A 
HETATM    2  N2  UNL     1      27.575  10.970  49.084  1.00  0.00    -0.240 NA
HETATM    3  C6  UNL     1      26.417  11.384  48.408  1.00  0.00     0.136 A 
HETATM    4  C7  UNL     1      25.574  10.471  48.015  1.00  0.00     0.116 A 
HETATM    5  N3  UNL     1      25.780   9.075  48.243  1.00  0.00    -0.328 N 
HETATM    6  C8  UNL     1      24.784   8.196  47.763  1.00  0.00     0.097 A 
HETATM    7  C9  UNL     1      25.050   6.906  48.016  1.00  0.00     0.030 A 
HETATM    8  C10 UNL     1      26.262   6.435  48.725  1.00  0.00    -0.022 A 
HETATM    9  C19 UNL     1      27.191   7.470  49.154  1.00  0.00     0.046 A 
HETATM   10  C20 UNL     1      26.969   8.743  48.930  1.00  0.00     0.085 A 
ENDROOT
BRANCH   8  11
HETATM   11  C11 UNL     1      26.427   5.104  48.922  1.00  0.00     0.073 C 
BRANCH  11  12
HETATM   12  N4  UNL     1      26.065   4.757  50.347  1.00  0.00    -0.246 N 
HETATM   13  C12 UNL     1      24.965   3.782  50.041  1.00  0.00     0.231 A 
HETATM   14  O1  UNL     1      24.206   3.118  49.185  1.00  0.00    -0.189 OA
HETATM   15  H13 UNL     1      25.777   4.514  49.514  1.00  0.00     0.214 HD
BRANCH  13  16
HETATM   16  N5  UNL     1      24.364   3.222  51.241  1.00  0.00    -0.377 N 
HETATM   17  H14 UNL     1      24.086   4.020  51.897  1.00  0.00     0.157 HD
BRANCH  16  18
HETATM   18  C13 UNL     1      24.039   1.907  51.792  1.00  0.00     0.148 C 
BRANCH  18  19
HETATM   19  C14 UNL     1      25.108   1.512  52.746  1.00  0.00     0.291 C 
BRANCH  19  20
HETATM   20  N6  UNL     1      26.401   1.334  52.146  1.00  0.00     0.094 N 
HETATM   21  C15 UNL     1      27.491   1.981  52.782  1.00  0.00     0.298 C 
HETATM   22  C16 UNL     1      28.515   1.043  53.384  1.00  0.00     0.198 C 
HETATM   23  O2  UNL     1      27.788   0.138  54.168  1.00  0.00    -0.388 OA
HETATM   24  C17 UNL     1      27.130  -0.729  53.300  1.00  0.00     0.198 C 
HETATM   25  C18 UNL     1      26.663  -0.083  52.040  1.00  0.00     0.298 C 
ENDBRANCH  19  20
ENDBRANCH  18  19
ENDBRANCH  16  18
ENDBRANCH  13  16
ENDBRANCH  11  12
ENDBRANCH   8  11
BRANCH   1  26
HETATM   26  N1  UNL     1      29.099   9.460  50.053  1.00  0.00    -0.369 N 
HETATM   27  H7  UNL     1      29.044   9.105  51.029  1.00  0.00     0.161 HD
BRANCH  26  28
HETATM   28  C4  UNL     1      30.335   9.694  49.291  1.00  0.00     0.150 C 
BRANCH  28  29
HETATM   29  C3  UNL     1      31.254   8.517  49.455  1.00  0.00     0.011 C 
HETATM   30  C2  UNL     1      31.282   7.294  48.896  1.00  0.00     0.005 C 
HETATM   31  C1  UNL     1      32.272   6.209  49.160  1.00  0.00     0.061 C 
HETATM   32 CL1  UNL     1      30.151   6.668  47.709  1.00  0.00    -0.090 Cl
ENDBRANCH  28  29
ENDBRANCH  26  28
ENDBRANCH   1  26
TORSDOF 9
ENDMDL
MODEL 7
REMARK VINA RESULT:      -7.7      4.327      8.671
REMARK  9 active torsions:
REMARK  status: ('A' for Active; 'I' for Inactive)
REMARK    1  A    between atoms: C3_4  and  C4_5 
REMARK    2  A    between atoms: C4_5  and  N1_6 
REMARK    3  A    between atoms: N1_6  and  C5_7 
REMARK    4  A    between atoms: C10_14  and  C11_15 
REMARK    5  A    between atoms: C11_15  and  N4_16 
REMARK    6  A    between atoms: C12_17  and  N5_19 
REMARK    7  A    between atoms: N5_19  and  C13_20 
REMARK    8  A    between atoms: C13_20  and  C14_21 
REMARK    9  A    between atoms: C14_21  and  N6_22 
ROOT
HETATM    1  C5  UNL     1      23.816   5.657  51.316  1.00  0.00     0.150 A 
HETATM    2  N2  UNL     1      23.257   4.704  51.965  1.00  0.00    -0.240 NA
HETATM    3  C6  UNL     1      23.646   3.357  51.959  1.00  0.00     0.136 A 
HETATM    4  C7  UNL     1      24.671   3.014  51.230  1.00  0.00     0.116 A 
HETATM    5  N3  UNL     1      25.410   3.951  50.443  1.00  0.00    -0.328 N 
HETATM    6  C8  UNL     1      26.499   3.442  49.701  1.00  0.00     0.097 A 
HETATM    7  C9  UNL     1      27.140   4.382  48.990  1.00  0.00     0.030 A 
HETATM    8  C10 UNL     1      26.755   5.812  48.973  1.00  0.00    -0.022 A 
HETATM    9  C19 UNL     1      25.608   6.172  49.793  1.00  0.00     0.046 A 
HETATM   10  C20 UNL     1      24.953   5.286  50.505  1.00  0.00     0.085 A 
ENDROOT
BRANCH   8  11
HETATM   11  C11 UNL     1      27.477   6.672  48.213  1.00  0.00     0.073 C 
BRANCH  11  12
HETATM   12  N4  UNL     1      28.681   7.145  48.993  1.00  0.00    -0.246 N 
HETATM   13  C12 UNL     1      28.291   8.590  49.104  1.00  0.00     0.231 A 
HETATM   14  O1  UNL     1      27.459   9.590  48.868  1.00  0.00    -0.189 OA
HETATM   15  H13 UNL     1      27.921   7.525  48.656  1.00  0.00     0.214 HD
BRANCH  13  16
HETATM   16  N5  UNL     1      29.272   9.379  49.833  1.00  0.00    -0.377 N 
HETATM   17  H14 UNL     1      28.792   9.854  50.662  1.00  0.00     0.157 HD
BRANCH  16  18
HETATM   18  C13 UNL     1      30.697   9.699  49.754  1.00  0.00     0.148 C 
BRANCH  18  19
HETATM   19  C14 UNL     1      31.036  10.020  48.343  1.00  0.00     0.291 C 
BRANCH  19  20
HETATM   20  N6  UNL     1      32.174   9.308  47.831  1.00  0.00     0.094 N 
HETATM   21  C15 UNL     1      32.593   8.167  48.564  1.00  0.00     0.298 C 
HETATM   22  C16 UNL     1      32.433   6.854  47.828  1.00  0.00     0.198 C 
HETATM   23  O2  UNL     1      31.114   6.839  47.358  1.00  0.00    -0.388 OA
HETATM   24  C17 UNL     1      31.041   7.735  46.294  1.00  0.00     0.198 C 
HETATM   25  C18 UNL     1      31.903   8.940  46.461  1.00  0.00     0.298 C 
ENDBRANCH  19  20
ENDBRANCH  18  19
ENDBRANCH  16  18
ENDBRANCH  13  16
ENDBRANCH  11  12
ENDBRANCH   8  11
BRANCH   1  26
HETATM   26  N1  UNL     1      23.335   6.988  51.399  1.00  0.00    -0.369 N 
HETATM   27  H7  UNL     1      23.900   7.698  51.908  1.00  0.00     0.161 HD
BRANCH  26  28
HETATM   28  C4  UNL     1      22.044   7.229  50.737  1.00  0.00     0.150 C 
BRANCH  28  29
HETATM   29  C3  UNL     1      22.282   7.823  49.378  1.00  0.00     0.011 C 
HETATM   30  C2  UNL     1      22.498   7.278  48.167  1.00  0.00     0.005 C 
HETATM   31  C1  UNL     1      22.722   8.005  46.883  1.00  0.00     0.061 C 
HETATM   32 CL1  UNL     1      22.570   5.564  47.797  1.00  0.00    -0.090 Cl
ENDBRANCH  28  29
ENDBRANCH  26  28
ENDBRANCH   1  26
TORSDOF 9
ENDMDL
MODEL 8
REMARK VINA RESULT:      -7.6      4.444      9.866
REMARK  9 active torsions:
REMARK  status: ('A' for Active; 'I' for Inactive)
REMARK    1  A    between atoms: C3_4  and  C4_5 
REMARK    2  A    between atoms: C4_5  and  N1_6 
REMARK    3  A    between atoms: N1_6  and  C5_7 
REMARK    4  A    between atoms: C10_14  and  C11_15 
REMARK    5  A    between atoms: C11_15  and  N4_16 
REMARK    6  A    between atoms: C12_17  and  N5_19 
REMARK    7  A    between atoms: N5_19  and  C13_20 
REMARK    8  A    between atoms: C13_20  and  C14_21 
REMARK    9  A    between atoms: C14_21  and  N6_22 
ROOT
HETATM    1  C5  UNL     1      21.926   0.634  53.098  1.00  0.00     0.150 A 
HETATM    2  N2  UNL     1      21.242  -0.016  53.966  1.00  0.00    -0.240 NA
HETATM    3  C6  UNL     1      21.748  -0.913  54.918  1.00  0.00     0.136 A 
HETATM    4  C7  UNL     1      23.034  -1.123  54.945  1.00  0.00     0.116 A 
HETATM    5  N3  UNL     1      23.943  -0.481  54.048  1.00  0.00    -0.328 N 
HETATM    6  C8  UNL     1      25.312  -0.801  54.189  1.00  0.00     0.097 A 
HETATM    7  C9  UNL     1      26.098  -0.159  53.312  1.00  0.00     0.030 A 
HETATM    8  C10 UNL     1      25.597   0.792  52.294  1.00  0.00    -0.022 A 
HETATM    9  C19 UNL     1      24.159   1.012  52.281  1.00  0.00     0.046 A 
HETATM   10  C20 UNL     1      23.352   0.406  53.120  1.00  0.00     0.085 A 
ENDROOT
BRANCH   8  11
HETATM   11  C11 UNL     1      26.487   1.381  51.458  1.00  0.00     0.073 C 
BRANCH  11  12
HETATM   12  N4  UNL     1      26.592   2.851  51.788  1.00  0.00    -0.246 N 
HETATM   13  C12 UNL     1      26.072   3.386  50.486  1.00  0.00     0.231 A 
HETATM   14  O1  UNL     1      25.595   3.210  49.266  1.00  0.00    -0.189 OA
HETATM   15  H13 UNL     1      26.319   2.353  51.073  1.00  0.00     0.214 HD
BRANCH  13  16
HETATM   16  N5  UNL     1      26.033   4.840  50.454  1.00  0.00    -0.377 N 
HETATM   17  H14 UNL     1      26.033   5.212  51.457  1.00  0.00     0.157 HD
BRANCH  16  18
HETATM   18  C13 UNL     1      25.997   5.912  49.461  1.00  0.00     0.148 C 
BRANCH  18  19
HETATM   19  C14 UNL     1      25.728   7.198  50.156  1.00  0.00     0.291 C 
BRANCH  19  20
HETATM   20  N6  UNL     1      26.634   8.258  49.812  1.00  0.00     0.094 N 
HETATM   21  C15 UNL     1      27.599   7.970  48.813  1.00  0.00     0.298 C 
HETATM   22  C16 UNL     1      27.434   8.761  47.533  1.00  0.00     0.198 C 
HETATM   23  O2  UNL     1      26.092   8.608  47.161  1.00  0.00    -0.388 OA
HETATM   24  C17 UNL     1      25.329   9.379  48.034  1.00  0.00     0.198 C 
HETATM   25  C18 UNL     1      25.858   9.414  49.427  1.00  0.00     0.298 C 
ENDBRANCH  19  20
ENDBRANCH  18  19
ENDBRANCH  16  18
ENDBRANCH  13  16
ENDBRANCH  11  12
ENDBRANCH   8  11
BRANCH   1  26
HETATM   26  N1  UNL     1      21.304   1.517  52.181  1.00  0.00    -0.369 N 
HETATM   27  H7  UNL     1      21.268   2.533  52.404  1.00  0.00     0.161 HD
BRANCH  26  28
HETATM   28  C4  UNL     1      20.758   0.881  50.972  1.00  0.00     0.150 C 
BRANCH  28  29
HETATM   29  C3  UNL     1      21.665   1.159  49.807  1.00  0.00     0.011 C 
HETATM   30  C2  UNL     1      21.485   1.809  48.643  1.00  0.00     0.005 C 
HETATM   31  C1  UNL     1      22.494   2.009  47.562  1.00  0.00     0.061 C 
HETATM   32 CL1  UNL     1      20.007   2.588  48.106  1.00  0.00    -0.090 Cl
ENDBRANCH  28  29
ENDBRANCH  26  28
ENDBRANCH   1  26
TORSDOF 9
ENDMDL
MODEL 9
REMARK VINA RESULT:      -7.3      6.192     10.027
REMARK  9 active torsions:
REMARK  status: ('A' for Active; 'I' for Inactive)
REMARK    1  A    between atoms: C3_4  and  C4_5 
REMARK    2  A    between atoms: C4_5  and  N1_6 
REMARK    3  A    between atoms: N1_6  and  C5_7 
REMARK    4  A    between atoms: C10_14  and  C11_15 
REMARK    5  A    between atoms: C11_15  and  N4_16 
REMARK    6  A    between atoms: C12_17  and  N5_19 
REMARK    7  A    between atoms: N5_19  and  C13_20 
REMARK    8  A    between atoms: C13_20  and  C14_21 
REMARK    9  A    between atoms: C14_21  and  N6_22 
ROOT
HETATM    1  C5  UNL     1      25.515   2.239  51.982  1.00  0.00     0.150 A 
HETATM    2  N2  UNL     1      26.728   1.827  51.932  1.00  0.00    -0.240 NA
HETATM    3  C6  UNL     1      27.211   0.609  52.434  1.00  0.00     0.136 A 
HETATM    4  C7  UNL     1      26.366  -0.198  53.011  1.00  0.00     0.116 A 
HETATM    5  N3  UNL     1      24.977   0.105  53.153  1.00  0.00    -0.328 N 
HETATM    6  C8  UNL     1      24.175  -0.861  53.800  1.00  0.00     0.097 A 
HETATM    7  C9  UNL     1      22.886  -0.502  53.894  1.00  0.00     0.030 A 
HETATM    8  C10 UNL     1      22.344   0.775  53.376  1.00  0.00    -0.022 A 
HETATM    9  C19 UNL     1      23.303   1.662  52.736  1.00  0.00     0.046 A 
HETATM   10  C20 UNL     1      24.572   1.351  52.621  1.00  0.00     0.085 A 
ENDROOT
BRANCH   8  11
HETATM   11  C11 UNL     1      21.021   1.032  53.530  1.00  0.00     0.073 C 
BRANCH  11  12
HETATM   12  N4  UNL     1      20.276   0.601  52.288  1.00  0.00    -0.246 N 
HETATM   13  C12 UNL     1      19.631   1.920  51.975  1.00  0.00     0.231 A 
HETATM   14  O1  UNL     1      19.410   3.197  52.240  1.00  0.00    -0.189 OA
HETATM   15  H13 UNL     1      20.371   1.373  52.767  1.00  0.00     0.214 HD
BRANCH  13  16
HETATM   16  N5  UNL     1      18.802   1.867  50.782  1.00  0.00    -0.377 N 
HETATM   17  H14 UNL     1      19.341   2.293  49.962  1.00  0.00     0.157 HD
BRANCH  16  18
HETATM   18  C13 UNL     1      17.469   1.407  50.395  1.00  0.00     0.148 C 
BRANCH  18  19
HETATM   19  C14 UNL     1      16.608   1.366  51.605  1.00  0.00     0.291 C 
BRANCH  19  20
HETATM   20  N6  UNL     1      15.373   2.089  51.479  1.00  0.00     0.094 N 
HETATM   21  C15 UNL     1      14.633   2.296  52.671  1.00  0.00     0.298 C 
HETATM   22  C16 UNL     1      14.522   3.744  53.098  1.00  0.00     0.198 C 
HETATM   23  O2  UNL     1      15.829   4.246  53.085  1.00  0.00    -0.388 OA
HETATM   24  C17 UNL     1      16.200   4.404  51.752  1.00  0.00     0.198 C 
HETATM   25  C18 UNL     1      15.650   3.357  50.845  1.00  0.00     0.298 C 
ENDBRANCH  19  20
ENDBRANCH  18  19
ENDBRANCH  16  18
ENDBRANCH  13  16
ENDBRANCH  11  12
ENDBRANCH   8  11
BRANCH   1  26
HETATM   26  N1  UNL     1      25.140   3.494  51.439  1.00  0.00    -0.369 N 
HETATM   27  H7  UNL     1      24.987   4.297  52.083  1.00  0.00     0.161 HD
BRANCH  26  28
HETATM   28  C4  UNL     1      25.001   3.525  49.976  1.00  0.00     0.150 C 
BRANCH  28  29
HETATM   29  C3  UNL     1      23.622   4.002  49.614  1.00  0.00     0.011 C 
HETATM   30  C2  UNL     1      22.469   3.357  49.365  1.00  0.00     0.005 C 
HETATM   31  C1  UNL     1      21.155   3.972  49.013  1.00  0.00     0.061 C 
HETATM   32 CL1  UNL     1      22.222   1.619  49.393  1.00  0.00    -0.090 Cl
ENDBRANCH  28  29
ENDBRANCH  26  28
ENDBRANCH   1  26
TORSDOF 9
ENDMDL
