MODEL 1
REMARK VINA RESULT:      -7.9      0.000      0.000
REMARK  6 active torsions:
REMARK  status: ('A' for Active; 'I' for Inactive)
REMARK    1  A    between atoms: C2_2  and  N1_3 
REMARK    2  A    between atoms: C2_2  and  C9_12 
REMARK       I    between atoms: N1_3  and  C3_4 
REMARK    3  A    between atoms: C3_4  and  C4_6 
REMARK    4  A    between atoms: C5_7  and  C6_8 
REMARK    5  A    between atoms: C6_8  and  N2_9 
REMARK    6  A    between atoms: C17_21  and  C18_22 
ROOT
HETATM    1  C9  UNL     1      25.162   3.399  50.851  1.00  0.00    -0.006 A 
HETATM    2  C10 UNL     1      26.372   2.879  50.580  1.00  0.00     0.001 A 
HETATM    3  C11 UNL     1      26.199   1.576  51.269  1.00  0.00     0.067 A 
HETATM    4  C12 UNL     1      27.022   1.322  52.447  1.00  0.00     0.005 C 
HETATM    5  C13 UNL     1      26.797   0.402  53.371  1.00  0.00     0.023 C 
HETATM    6  C14 UNL     1      27.877   0.526  54.341  1.00  0.00     0.095 C 
HETATM    7  N3  UNL     1      28.740   0.614  55.139  1.00  0.00    -0.192 NA
HETATM    8  C15 UNL     1      25.897  -0.681  53.798  1.00  0.00     0.077 C 
HETATM    9  C16 UNL     1      24.457  -0.415  53.525  1.00  0.00    -0.013 C 
HETATM   10  C17 UNL     1      23.569   0.408  52.966  1.00  0.00    -0.047 C 
HETATM   11  C19 UNL     1      23.843   1.650  52.256  1.00  0.00     0.017 C 
HETATM   12  C20 UNL     1      24.879   2.157  51.564  1.00  0.00    -0.034 A 
ENDROOT
BRANCH  10  13
HETATM   13  C18 UNL     1      22.100   0.074  53.046  1.00  0.00     0.152 C 
HETATM   14 CL1  UNL     1      21.807  -1.020  54.420  1.00  0.00    -0.126 Cl
ENDBRANCH  10  13
BRANCH   1  15
HETATM   15  C2  UNL     1      24.409   4.616  50.595  1.00  0.00     0.036 C 
HETATM   16  C1  UNL     1      23.170   4.560  50.141  1.00  0.00     0.044 C 
BRANCH  15  17
HETATM   17  N1  UNL     1      24.979   5.896  50.827  1.00  0.00    -0.324 N 
HETATM   18  C3  UNL     1      25.677   6.520  49.748  1.00  0.00     0.245 C 
HETATM   19  O1  UNL     1      25.823   6.014  48.604  1.00  0.00    -0.268 OA
HETATM   20  H3  UNL     1      24.872   6.330  51.756  1.00  0.00     0.169 HD
BRANCH  18  21
HETATM   21  C4  UNL     1      26.262   7.844  49.998  1.00  0.00     0.072 C 
HETATM   22  C5  UNL     1      27.328   8.254  49.362  1.00  0.00     0.008 C 
BRANCH  22  23
HETATM   23  C6  UNL     1      28.048   9.531  49.478  1.00  0.00     0.299 C 
BRANCH  23  24
HETATM   24  N2  UNL     1      29.493   9.337  49.512  1.00  0.00     0.083 N 
HETATM   25  C7  UNL     1      29.884   8.198  48.706  1.00  0.00     0.309 C 
HETATM   26  C8  UNL     1      30.203  10.514  49.114  1.00  0.00     0.309 C 
ENDBRANCH  23  24
ENDBRANCH  22  23
ENDBRANCH  18  21
ENDBRANCH  15  17
ENDBRANCH   1  15
TORSDOF 6
ENDMDL
MODEL 2
REMARK VINA RESULT:      -7.9      4.754      6.489
REMARK  6 active torsions:
REMARK  status: ('A' for Active; 'I' for Inactive)
REMARK    1  A    between atoms: C2_2  and  N1_3 
REMARK    2  A    between atoms: C2_2  and  C9_12 
REMARK       I    between atoms: N1_3  and  C3_4 
REMARK    3  A    between atoms: C3_4  and  C4_6 
REMARK    4  A    between atoms: C5_7  and  C6_8 
REMARK    5  A    between atoms: C6_8  and  N2_9 
REMARK    6  A    between atoms: C17_21  and  C18_22 
ROOT
HETATM    1  C9  UNL     1      22.119  -0.029  53.293  1.00  0.00    -0.006 A 
HETATM    2  C10 UNL     1      22.816  -0.555  54.317  1.00  0.00     0.001 A 
HETATM    3  C11 UNL     1      24.141   0.027  53.988  1.00  0.00     0.067 A 
HETATM    4  C12 UNL     1      25.201  -0.893  53.585  1.00  0.00     0.005 C 
HETATM    5  C13 UNL     1      26.314  -0.568  52.950  1.00  0.00     0.023 C 
HETATM    6  C14 UNL     1      27.055  -1.809  52.766  1.00  0.00     0.095 C 
HETATM    7  N3  UNL     1      27.667  -2.803  52.604  1.00  0.00    -0.192 NA
HETATM    8  C15 UNL     1      27.087   0.538  52.364  1.00  0.00     0.077 C 
HETATM    9  C16 UNL     1      26.251   1.577  51.701  1.00  0.00    -0.013 C 
HETATM   10  C17 UNL     1      25.016   2.005  51.441  1.00  0.00    -0.047 C 
HETATM   11  C19 UNL     1      23.763   1.389  51.858  1.00  0.00     0.017 C 
HETATM   12  C20 UNL     1      23.370   0.592  52.869  1.00  0.00    -0.034 A 
ENDROOT
BRANCH  10  13
HETATM   13  C18 UNL     1      24.823   3.261  50.627  1.00  0.00     0.152 C 
HETATM   14 CL1  UNL     1      26.149   3.420  49.448  1.00  0.00    -0.126 Cl
ENDBRANCH  10  13
BRANCH   1  15
HETATM   15  C2  UNL     1      20.761  -0.030  52.777  1.00  0.00     0.036 C 
HETATM   16  C1  UNL     1      19.793  -0.650  53.427  1.00  0.00     0.044 C 
BRANCH  15  17
HETATM   17  N1  UNL     1      20.433   0.634  51.565  1.00  0.00    -0.324 N 
HETATM   18  C3  UNL     1      20.096   2.020  51.635  1.00  0.00     0.245 C 
HETATM   19  O1  UNL     1      20.067   2.696  52.697  1.00  0.00    -0.268 OA
HETATM   20  H3  UNL     1      20.450   0.101  50.683  1.00  0.00     0.169 HD
BRANCH  18  21
HETATM   21  C4  UNL     1      19.760   2.698  50.375  1.00  0.00     0.072 C 
HETATM   22  C5  UNL     1      20.679   3.029  49.507  1.00  0.00     0.008 C 
BRANCH  22  23
HETATM   23  C6  UNL     1      20.535   3.703  48.209  1.00  0.00     0.299 C 
BRANCH  23  24
HETATM   24  N2  UNL     1      21.308   3.041  47.165  1.00  0.00     0.083 N 
HETATM   25  C7  UNL     1      21.738   3.987  46.156  1.00  0.00     0.309 C 
HETATM   26  C8  UNL     1      22.421   2.318  47.698  1.00  0.00     0.309 C 
ENDBRANCH  23  24
ENDBRANCH  22  23
ENDBRANCH  18  21
ENDBRANCH  15  17
ENDBRANCH   1  15
TORSDOF 6
ENDMDL
MODEL 3
REMARK VINA RESULT:      -7.7      4.260      7.762
REMARK  6 active torsions:
REMARK  status: ('A' for Active; 'I' for Inactive)
REMARK    1  A    between atoms: C2_2  and  N1_3 
REMARK    2  A    between atoms: C2_2  and  C9_12 
REMARK       I    between atoms: N1_3  and  C3_4 
REMARK    3  A    between atoms: C3_4  and  C4_6 
REMARK    4  A    between atoms: C5_7  and  C6_8 
REMARK    5  A    between atoms: C6_8  and  N2_9 
REMARK    6  A    between atoms: C17_21  and  C18_22 
ROOT
HETATM    1  C9  UNL     1      23.223   3.143  51.135  1.00  0.00    -0.006 A 
HETATM    2  C10 UNL     1      24.410   3.183  50.502  1.00  0.00     0.001 A 
HETATM    3  C11 UNL     1      25.030   1.998  51.143  1.00  0.00     0.067 A 
HETATM    4  C12 UNL     1      26.173   2.226  52.021  1.00  0.00     0.005 C 
HETATM    5  C13 UNL     1      26.646   1.381  52.922  1.00  0.00     0.023 C 
HETATM    6  C14 UNL     1      27.783   2.043  53.546  1.00  0.00     0.095 C 
HETATM    7  N3  UNL     1      28.703   2.566  54.066  1.00  0.00    -0.192 NA
HETATM    8  C15 UNL     1      26.475   0.053  53.532  1.00  0.00     0.077 C 
HETATM    9  C16 UNL     1      25.054  -0.360  53.698  1.00  0.00    -0.013 C 
HETATM   10  C17 UNL     1      23.778  -0.058  53.461  1.00  0.00    -0.047 C 
HETATM   11  C19 UNL     1      23.264   1.117  52.767  1.00  0.00     0.017 C 
HETATM   12  C20 UNL     1      23.730   1.966  51.834  1.00  0.00    -0.034 A 
ENDROOT
BRANCH  10  13
HETATM   13  C18 UNL     1      22.695  -0.991  53.942  1.00  0.00     0.152 C 
HETATM   14 CL1  UNL     1      21.345  -0.046  54.617  1.00  0.00    -0.126 Cl
ENDBRANCH  10  13
BRANCH   1  15
HETATM   15  C2  UNL     1      21.973   3.883  51.169  1.00  0.00     0.036 C 
HETATM   16  C1  UNL     1      21.952   5.157  51.517  1.00  0.00     0.044 C 
BRANCH  15  17
HETATM   17  N1  UNL     1      20.741   3.262  50.830  1.00  0.00    -0.324 N 
HETATM   18  C3  UNL     1      19.936   2.751  51.893  1.00  0.00     0.245 C 
HETATM   19  O1  UNL     1      20.243   2.811  53.113  1.00  0.00    -0.268 OA
HETATM   20  H3  UNL     1      20.469   3.201  49.837  1.00  0.00     0.169 HD
BRANCH  18  21
HETATM   21  C4  UNL     1      18.664   2.111  51.531  1.00  0.00     0.072 C 
HETATM   22  C5  UNL     1      18.453   0.838  51.738  1.00  0.00     0.008 C 
BRANCH  22  23
HETATM   23  C6  UNL     1      17.259   0.032  51.445  1.00  0.00     0.299 C 
BRANCH  23  24
HETATM   24  N2  UNL     1      16.854  -0.772  52.591  1.00  0.00     0.083 N 
HETATM   25  C7  UNL     1      15.900  -1.790  52.201  1.00  0.00     0.309 C 
HETATM   26  C8  UNL     1      17.975  -1.352  53.264  1.00  0.00     0.309 C 
ENDBRANCH  23  24
ENDBRANCH  22  23
ENDBRANCH  18  21
ENDBRANCH  15  17
ENDBRANCH   1  15
TORSDOF 6
ENDMDL
MODEL 4
REMARK VINA RESULT:      -7.6      2.780      3.955
REMARK  6 active torsions:
REMARK  status: ('A' for Active; 'I' for Inactive)
REMARK    1  A    between atoms: C2_2  and  N1_3 
REMARK    2  A    between atoms: C2_2  and  C9_12 
REMARK       I    between atoms: N1_3  and  C3_4 
REMARK    3  A    between atoms: C3_4  and  C4_6 
REMARK    4  A    between atoms: C5_7  and  C6_8 
REMARK    5  A    between atoms: C6_8  and  N2_9 
REMARK    6  A    between atoms: C17_21  and  C18_22 
ROOT
HETATM    1  C9  UNL     1      23.051   2.738  50.860  1.00  0.00    -0.006 A 
HETATM    2  C10 UNL     1      22.046   3.021  51.708  1.00  0.00     0.001 A 
HETATM    3  C11 UNL     1      22.444   2.114  52.814  1.00  0.00     0.067 A 
HETATM    4  C12 UNL     1      21.568   0.984  53.108  1.00  0.00     0.005 C 
HETATM    5  C13 UNL     1      21.894  -0.094  53.801  1.00  0.00     0.023 C 
HETATM    6  C14 UNL     1      20.705  -0.936  53.828  1.00  0.00     0.095 C 
HETATM    7  N3  UNL     1      19.755  -1.632  53.857  1.00  0.00    -0.192 NA
HETATM    8  C15 UNL     1      22.971  -0.768  54.544  1.00  0.00     0.077 C 
HETATM    9  C16 UNL     1      24.325  -0.578  53.954  1.00  0.00    -0.013 C 
HETATM   10  C17 UNL     1      25.049   0.031  53.015  1.00  0.00    -0.047 C 
HETATM   11  C19 UNL     1      24.571   0.958  51.996  1.00  0.00     0.017 C 
HETATM   12  C20 UNL     1      23.536   1.809  51.875  1.00  0.00    -0.034 A 
ENDROOT
BRANCH  10  13
HETATM   13  C18 UNL     1      26.533  -0.226  52.942  1.00  0.00     0.152 C 
HETATM   14 CL1  UNL     1      26.826  -1.917  52.467  1.00  0.00    -0.126 Cl
ENDBRANCH  10  13
BRANCH   1  15
HETATM   15  C2  UNL     1      23.511   3.127  49.538  1.00  0.00     0.036 C 
HETATM   16  C1  UNL     1      22.650   3.474  48.599  1.00  0.00     0.044 C 
BRANCH  15  17
HETATM   17  N1  UNL     1      24.895   3.146  49.216  1.00  0.00    -0.324 N 
HETATM   18  C3  UNL     1      25.635   4.327  49.530  1.00  0.00     0.245 C 
HETATM   19  O1  UNL     1      25.147   5.354  50.071  1.00  0.00    -0.268 OA
HETATM   20  H3  UNL     1      25.318   2.317  48.773  1.00  0.00     0.169 HD
BRANCH  18  21
HETATM   21  C4  UNL     1      27.065   4.337  49.194  1.00  0.00     0.072 C 
HETATM   22  C5  UNL     1      27.619   5.351  48.582  1.00  0.00     0.008 C 
BRANCH  22  23
HETATM   23  C6  UNL     1      29.018   5.539  48.169  1.00  0.00     0.299 C 
BRANCH  23  24
HETATM   24  N2  UNL     1      29.352   6.949  48.013  1.00  0.00     0.083 N 
HETATM   25  C7  UNL     1      28.294   7.795  48.526  1.00  0.00     0.309 C 
HETATM   26  C8  UNL     1      30.607   7.274  48.619  1.00  0.00     0.309 C 
ENDBRANCH  23  24
ENDBRANCH  22  23
ENDBRANCH  18  21
ENDBRANCH  15  17
ENDBRANCH   1  15
TORSDOF 6
ENDMDL
MODEL 5
REMARK VINA RESULT:      -7.6      4.172      7.179
REMARK  6 active torsions:
REMARK  status: ('A' for Active; 'I' for Inactive)
REMARK    1  A    between atoms: C2_2  and  N1_3 
REMARK    2  A    between atoms: C2_2  and  C9_12 
REMARK       I    between atoms: N1_3  and  C3_4 
REMARK    3  A    between atoms: C3_4  and  C4_6 
REMARK    4  A    between atoms: C5_7  and  C6_8 
REMARK    5  A    between atoms: C6_8  and  N2_9 
REMARK    6  A    between atoms: C17_21  and  C18_22 
ROOT
HETATM    1  C9  UNL     1      21.999   2.983  52.175  1.00  0.00    -0.006 A 
HETATM    2  C10 UNL     1      20.773   3.511  52.008  1.00  0.00     0.001 A 
HETATM    3  C11 UNL     1      19.983   2.387  52.570  1.00  0.00     0.067 A 
HETATM    4  C12 UNL     1      19.126   1.641  51.654  1.00  0.00     0.005 C 
HETATM    5  C13 UNL     1      18.616   0.440  51.868  1.00  0.00     0.023 C 
HETATM    6  C14 UNL     1      17.836   0.111  50.683  1.00  0.00     0.095 C 
HETATM    7  N3  UNL     1      17.203  -0.175  49.730  1.00  0.00    -0.192 NA
HETATM    8  C15 UNL     1      18.528  -0.679  52.821  1.00  0.00     0.077 C 
HETATM    9  C16 UNL     1      19.790  -0.937  53.569  1.00  0.00    -0.013 C 
HETATM   10  C17 UNL     1      21.034  -0.529  53.817  1.00  0.00    -0.047 C 
HETATM   11  C19 UNL     1      21.711   0.632  53.252  1.00  0.00     0.017 C 
HETATM   12  C20 UNL     1      21.329   1.817  52.743  1.00  0.00    -0.034 A 
ENDROOT
BRANCH  10  13
HETATM   13  C18 UNL     1      21.893  -1.313  54.778  1.00  0.00     0.152 C 
HETATM   14 CL1  UNL     1      23.609  -0.925  54.503  1.00  0.00    -0.126 Cl
ENDBRANCH  10  13
BRANCH   1  15
HETATM   15  C2  UNL     1      23.387   3.337  51.931  1.00  0.00     0.036 C 
HETATM   16  C1  UNL     1      23.753   3.881  50.785  1.00  0.00     0.044 C 
BRANCH  15  17
HETATM   17  N1  UNL     1      24.387   3.112  52.914  1.00  0.00    -0.324 N 
HETATM   18  C3  UNL     1      25.155   1.911  52.821  1.00  0.00     0.245 C 
HETATM   19  O1  UNL     1      25.006   1.035  51.929  1.00  0.00    -0.268 OA
HETATM   20  H3  UNL     1      24.528   3.815  53.655  1.00  0.00     0.169 HD
BRANCH  18  21
HETATM   21  C4  UNL     1      26.187   1.688  53.843  1.00  0.00     0.072 C 
HETATM   22  C5  UNL     1      26.738   0.515  54.017  1.00  0.00     0.008 C 
BRANCH  22  23
HETATM   23  C6  UNL     1      27.774   0.106  54.977  1.00  0.00     0.299 C 
BRANCH  23  24
HETATM   24  N2  UNL     1      29.042  -0.181  54.317  1.00  0.00     0.083 N 
HETATM   25  C7  UNL     1      28.900  -1.267  53.369  1.00  0.00     0.309 C 
HETATM   26  C8  UNL     1      29.595   0.979  53.688  1.00  0.00     0.309 C 
ENDBRANCH  23  24
ENDBRANCH  22  23
ENDBRANCH  18  21
ENDBRANCH  15  17
ENDBRANCH   1  15
TORSDOF 6
ENDMDL
MODEL 6
REMARK VINA RESULT:      -7.6      4.362      5.888
REMARK  6 active torsions:
REMARK  status: ('A' for Active; 'I' for Inactive)
REMARK    1  A    between atoms: C2_2  and  N1_3 
REMARK    2  A    between atoms: C2_2  and  C9_12 
REMARK       I    between atoms: N1_3  and  C3_4 
REMARK    3  A    between atoms: C3_4  and  C4_6 
REMARK    4  A    between atoms: C5_7  and  C6_8 
REMARK    5  A    between atoms: C6_8  and  N2_9 
REMARK    6  A    between atoms: C17_21  and  C18_22 
ROOT
HETATM    1  C9  UNL     1      22.030   0.528  52.697  1.00  0.00    -0.006 A 
HETATM    2  C10 UNL     1      22.569  -0.065  53.777  1.00  0.00     0.001 A 
HETATM    3  C11 UNL     1      23.963   0.413  53.604  1.00  0.00     0.067 A 
HETATM    4  C12 UNL     1      24.984  -0.584  53.297  1.00  0.00     0.005 C 
HETATM    5  C13 UNL     1      26.182  -0.342  52.792  1.00  0.00     0.023 C 
HETATM    6  C14 UNL     1      26.838  -1.636  52.661  1.00  0.00     0.095 C 
HETATM    7  N3  UNL     1      27.384  -2.675  52.544  1.00  0.00    -0.192 NA
HETATM    8  C15 UNL     1      27.099   0.706  52.315  1.00  0.00     0.077 C 
HETATM    9  C16 UNL     1      26.423   1.817  51.589  1.00  0.00    -0.013 C 
HETATM   10  C17 UNL     1      25.261   2.346  51.208  1.00  0.00    -0.047 C 
HETATM   11  C19 UNL     1      23.925   1.828  51.476  1.00  0.00     0.017 C 
HETATM   12  C20 UNL     1      23.364   1.052  52.421  1.00  0.00    -0.034 A 
ENDROOT
BRANCH  10  13
HETATM   13  C18 UNL     1      25.257   3.624  50.406  1.00  0.00     0.152 C 
HETATM   14 CL1  UNL     1      26.694   3.675  49.354  1.00  0.00    -0.126 Cl
ENDBRANCH  10  13
BRANCH   1  15
HETATM   15  C2  UNL     1      20.739   0.643  52.038  1.00  0.00     0.036 C 
HETATM   16  C1  UNL     1      19.723  -0.113  52.410  1.00  0.00     0.044 C 
BRANCH  15  17
HETATM   17  N1  UNL     1      20.532   1.570  50.982  1.00  0.00    -0.324 N 
HETATM   18  C3  UNL     1      20.186   2.912  51.330  1.00  0.00     0.245 C 
HETATM   19  O1  UNL     1      20.051   3.331  52.509  1.00  0.00    -0.268 OA
HETATM   20  H3  UNL     1      20.637   1.249  50.007  1.00  0.00     0.169 HD
BRANCH  18  21
HETATM   21  C4  UNL     1      19.975   3.862  50.230  1.00  0.00     0.072 C 
HETATM   22  C5  UNL     1      20.197   5.141  50.376  1.00  0.00     0.008 C 
BRANCH  22  23
HETATM   23  C6  UNL     1      20.044   6.231  49.401  1.00  0.00     0.299 C 
BRANCH  23  24
HETATM   24  N2  UNL     1      21.063   7.259  49.572  1.00  0.00     0.083 N 
HETATM   25  C7  UNL     1      21.668   7.179  50.886  1.00  0.00     0.309 C 
HETATM   26  C8  UNL     1      22.059   7.204  48.546  1.00  0.00     0.309 C 
ENDBRANCH  23  24
ENDBRANCH  22  23
ENDBRANCH  18  21
ENDBRANCH  15  17
ENDBRANCH   1  15
TORSDOF 6
ENDMDL
MODEL 7
REMARK VINA RESULT:      -7.6      3.124      6.018
REMARK  6 active torsions:
REMARK  status: ('A' for Active; 'I' for Inactive)
REMARK    1  A    between atoms: C2_2  and  N1_3 
REMARK    2  A    between atoms: C2_2  and  C9_12 
REMARK       I    between atoms: N1_3  and  C3_4 
REMARK    3  A    between atoms: C3_4  and  C4_6 
REMARK    4  A    between atoms: C5_7  and  C6_8 
REMARK    5  A    between atoms: C6_8  and  N2_9 
REMARK    6  A    between atoms: C17_21  and  C18_22 
ROOT
HETATM    1  C9  UNL     1      25.087   3.378  50.747  1.00  0.00    -0.006 A 
HETATM    2  C10 UNL     1      26.327   2.935  50.473  1.00  0.00     0.001 A 
HETATM    3  C11 UNL     1      26.250   1.639  51.191  1.00  0.00     0.067 A 
HETATM    4  C12 UNL     1      27.102   1.467  52.364  1.00  0.00     0.005 C 
HETATM    5  C13 UNL     1      26.950   0.555  53.309  1.00  0.00     0.023 C 
HETATM    6  C14 UNL     1      28.029   0.772  54.263  1.00  0.00     0.095 C 
HETATM    7  N3  UNL     1      28.893   0.937  55.049  1.00  0.00    -0.192 NA
HETATM    8  C15 UNL     1      26.130  -0.577  53.770  1.00  0.00     0.077 C 
HETATM    9  C16 UNL     1      24.673  -0.416  53.509  1.00  0.00    -0.013 C 
HETATM   10  C17 UNL     1      23.725   0.332  52.944  1.00  0.00    -0.047 C 
HETATM   11  C19 UNL     1      23.905   1.575  52.204  1.00  0.00     0.017 C 
HETATM   12  C20 UNL     1      24.897   2.136  51.490  1.00  0.00    -0.034 A 
ENDROOT
BRANCH  10  13
HETATM   13  C18 UNL     1      22.282  -0.099  53.049  1.00  0.00     0.152 C 
HETATM   14 CL1  UNL     1      22.006  -0.893  54.619  1.00  0.00    -0.126 Cl
ENDBRANCH  10  13
BRANCH   1  15
HETATM   15  C2  UNL     1      24.250   4.535  50.475  1.00  0.00     0.036 C 
HETATM   16  C1  UNL     1      24.779   5.740  50.372  1.00  0.00     0.044 C 
BRANCH  15  17
HETATM   17  N1  UNL     1      22.845   4.404  50.310  1.00  0.00    -0.324 N 
HETATM   18  C3  UNL     1      22.020   4.573  51.463  1.00  0.00     0.245 C 
HETATM   19  O1  UNL     1      22.450   4.828  52.619  1.00  0.00    -0.268 OA
HETATM   20  H3  UNL     1      22.469   4.195  49.373  1.00  0.00     0.169 HD
BRANCH  18  21
HETATM   21  C4  UNL     1      20.568   4.436  51.282  1.00  0.00     0.072 C 
HETATM   22  C5  UNL     1      19.923   3.376  51.691  1.00  0.00     0.008 C 
BRANCH  22  23
HETATM   23  C6  UNL     1      18.489   3.065  51.598  1.00  0.00     0.299 C 
BRANCH  23  24
HETATM   24  N2  UNL     1      18.247   1.845  50.837  1.00  0.00     0.083 N 
HETATM   25  C7  UNL     1      18.183   2.121  49.417  1.00  0.00     0.309 C 
HETATM   26  C8  UNL     1      19.219   0.835  51.119  1.00  0.00     0.309 C 
ENDBRANCH  23  24
ENDBRANCH  22  23
ENDBRANCH  18  21
ENDBRANCH  15  17
ENDBRANCH   1  15
TORSDOF 6
ENDMDL
MODEL 8
REMARK VINA RESULT:      -7.4      2.572      3.498
REMARK  6 active torsions:
REMARK  status: ('A' for Active; 'I' for Inactive)
REMARK    1  A    between atoms: C2_2  and  N1_3 
REMARK    2  A    between atoms: C2_2  and  C9_12 
REMARK       I    between atoms: N1_3  and  C3_4 
REMARK    3  A    between atoms: C3_4  and  C4_6 
REMARK    4  A    between atoms: C5_7  and  C6_8 
REMARK    5  A    between atoms: C6_8  and  N2_9 
REMARK    6  A    between atoms: C17_21  and  C18_22 
ROOT
HETATM    1  C9  UNL     1      26.200   5.068  49.446  1.00  0.00    -0.006 A 
HETATM    2  C10 UNL     1      26.889   3.920  49.319  1.00  0.00     0.001 A 
HETATM    3  C11 UNL     1      26.046   3.071  50.197  1.00  0.00     0.067 A 
HETATM    4  C12 UNL     1      26.641   2.586  51.439  1.00  0.00     0.005 C 
HETATM    5  C13 UNL     1      25.984   2.114  52.485  1.00  0.00     0.023 C 
HETATM    6  C14 UNL     1      26.993   1.757  53.473  1.00  0.00     0.095 C 
HETATM    7  N3  UNL     1      27.795   1.466  54.286  1.00  0.00    -0.192 NA
HETATM    8  C15 UNL     1      24.652   1.813  53.035  1.00  0.00     0.077 C 
HETATM    9  C16 UNL     1      23.603   2.800  52.655  1.00  0.00    -0.013 C 
HETATM   10  C17 UNL     1      23.307   3.879  51.932  1.00  0.00    -0.047 C 
HETATM   11  C19 UNL     1      24.198   4.619  51.046  1.00  0.00     0.017 C 
HETATM   12  C20 UNL     1      25.303   4.335  50.333  1.00  0.00    -0.034 A 
ENDROOT
BRANCH  10  13
HETATM   13  C18 UNL     1      21.913   4.453  51.993  1.00  0.00     0.152 C 
HETATM   14 CL1  UNL     1      21.899   6.075  51.258  1.00  0.00    -0.126 Cl
ENDBRANCH  10  13
BRANCH   1  15
HETATM   15  C2  UNL     1      26.254   6.438  48.964  1.00  0.00     0.036 C 
HETATM   16  C1  UNL     1      25.284   6.929  48.214  1.00  0.00     0.044 C 
BRANCH  15  17
HETATM   17  N1  UNL     1      27.345   7.288  49.287  1.00  0.00    -0.324 N 
HETATM   18  C3  UNL     1      28.485   7.266  48.426  1.00  0.00     0.245 C 
HETATM   19  O1  UNL     1      28.591   6.543  47.400  1.00  0.00    -0.268 OA
HETATM   20  H3  UNL     1      27.282   7.889  50.122  1.00  0.00     0.169 HD
BRANCH  18  21
HETATM   21  C4  UNL     1      29.608   8.149  48.768  1.00  0.00     0.072 C 
HETATM   22  C5  UNL     1      30.850   7.763  48.634  1.00  0.00     0.008 C 
BRANCH  22  23
HETATM   23  C6  UNL     1      32.090   8.499  48.921  1.00  0.00     0.299 C 
BRANCH  23  24
HETATM   24  N2  UNL     1      33.258   7.626  48.888  1.00  0.00     0.083 N 
HETATM   25  C7  UNL     1      32.868   6.242  48.716  1.00  0.00     0.309 C 
HETATM   26  C8  UNL     1      34.197   8.023  47.885  1.00  0.00     0.309 C 
ENDBRANCH  23  24
ENDBRANCH  22  23
ENDBRANCH  18  21
ENDBRANCH  15  17
ENDBRANCH   1  15
TORSDOF 6
ENDMDL
MODEL 9
REMARK VINA RESULT:      -7.3      4.299      6.328
REMARK  6 active torsions:
REMARK  status: ('A' for Active; 'I' for Inactive)
REMARK    1  A    between atoms: C2_2  and  N1_3 
REMARK    2  A    between atoms: C2_2  and  C9_12 
REMARK       I    between atoms: N1_3  and  C3_4 
REMARK    3  A    between atoms: C3_4  and  C4_6 
REMARK    4  A    between atoms: C5_7  and  C6_8 
REMARK    5  A    between atoms: C6_8  and  N2_9 
REMARK    6  A    between atoms: C17_21  and  C18_22 
ROOT
HETATM    1  C9  UNL     1      22.216   1.213  51.814  1.00  0.00    -0.006 A 
HETATM    2  C10 UNL     1      22.487   0.635  52.998  1.00  0.00     0.001 A 
HETATM    3  C11 UNL     1      23.923   0.997  53.085  1.00  0.00     0.067 A 
HETATM    4  C12 UNL     1      24.898  -0.087  53.016  1.00  0.00     0.005 C 
HETATM    5  C13 UNL     1      26.186   0.040  52.746  1.00  0.00     0.023 C 
HETATM    6  C14 UNL     1      26.746  -1.304  52.790  1.00  0.00     0.095 C 
HETATM    7  N3  UNL     1      27.216  -2.385  52.816  1.00  0.00    -0.192 NA
HETATM    8  C15 UNL     1      27.261   0.992  52.423  1.00  0.00     0.077 C 
HETATM    9  C16 UNL     1      26.831   2.114  51.542  1.00  0.00    -0.013 C 
HETATM   10  C17 UNL     1      25.812   2.710  50.925  1.00  0.00    -0.047 C 
HETATM   11  C19 UNL     1      24.411   2.306  50.944  1.00  0.00     0.017 C 
HETATM   12  C20 UNL     1      23.617   1.622  51.787  1.00  0.00    -0.034 A 
ENDROOT
BRANCH  10  13
HETATM   13  C18 UNL     1      26.068   3.943  50.095  1.00  0.00     0.152 C 
HETATM   14 CL1  UNL     1      24.593   4.377  49.195  1.00  0.00    -0.126 Cl
ENDBRANCH  10  13
BRANCH   1  15
HETATM   15  C2  UNL     1      21.089   1.392  50.914  1.00  0.00     0.036 C 
HETATM   16  C1  UNL     1      20.090   0.529  50.904  1.00  0.00     0.044 C 
BRANCH  15  17
HETATM   17  N1  UNL     1      21.028   2.496  50.022  1.00  0.00    -0.324 N 
HETATM   18  C3  UNL     1      21.497   2.302  48.687  1.00  0.00     0.245 C 
HETATM   19  O1  UNL     1      21.962   1.219  48.243  1.00  0.00    -0.268 OA
HETATM   20  H3  UNL     1      20.651   3.393  50.363  1.00  0.00     0.169 HD
BRANCH  18  21
HETATM   21  C4  UNL     1      21.429   3.450  47.773  1.00  0.00     0.072 C 
HETATM   22  C5  UNL     1      21.675   3.326  46.496  1.00  0.00     0.008 C 
BRANCH  22  23
HETATM   23  C6  UNL     1      21.656   4.349  45.439  1.00  0.00     0.299 C 
BRANCH  23  24
HETATM   24  N2  UNL     1      20.798   3.962  44.326  1.00  0.00     0.083 N 
HETATM   25  C7  UNL     1      19.442   3.721  44.773  1.00  0.00     0.309 C 
HETATM   26  C8  UNL     1      20.826   4.924  43.267  1.00  0.00     0.309 C 
ENDBRANCH  23  24
ENDBRANCH  22  23
ENDBRANCH  18  21
ENDBRANCH  15  17
ENDBRANCH   1  15
TORSDOF 6
ENDMDL
