MODEL 1
REMARK VINA RESULT:      -8.3      0.000      0.000
REMARK  10 active torsions:
REMARK  status: ('A' for Active; 'I' for Inactive)
REMARK    1  A    between atoms: C5_5  and  C6_6 
REMARK    2  A    between atoms: C6_6  and  N1_7 
REMARK    3  A    between atoms: N1_7  and  C7_8 
REMARK    4  A    between atoms: C13_16  and  O1_17 
REMARK    5  A    between atoms: C15_19  and  N4_20 
REMARK    6  A    between atoms: N4_20  and  C16_21 
REMARK    7  A    between atoms: C16_21  and  C17_22 
REMARK    8  A    between atoms: C17_22  and  C18_23 
REMARK    9  A    between atoms: C18_23  and  C19_24 
REMARK   10  A    between atoms: C19_24  and  N5_25 
ROOT
HETATM    1  C7  UNL     1      22.924   0.863  53.080  1.00  0.00     0.063 A 
HETATM    2  C8  UNL     1      21.630   0.607  53.394  1.00  0.00     0.089 A 
HETATM    3  C9  UNL     1      21.466  -0.651  54.066  1.00  0.00     0.103 C 
HETATM    4  N2  UNL     1      21.329  -1.671  54.604  1.00  0.00    -0.191 NA
HETATM    5  C10 UNL     1      20.538   1.391  53.123  1.00  0.00     0.142 A 
HETATM    6  N3  UNL     1      20.833   2.541  52.467  1.00  0.00    -0.259 NA
HETATM    7  C11 UNL     1      22.096   2.836  52.135  1.00  0.00     0.071 A 
HETATM    8  C12 UNL     1      22.226   4.014  51.481  1.00  0.00     0.071 A 
HETATM    9  C13 UNL     1      23.517   4.221  51.187  1.00  0.00     0.096 A 
HETATM   10  C15 UNL     1      24.759   3.868  51.201  1.00  0.00     0.063 A 
HETATM   11  C22 UNL     1      24.462   2.580  51.940  1.00  0.00     0.048 A 
HETATM   12  C23 UNL     1      23.219   2.038  52.408  1.00  0.00     0.023 A 
ENDROOT
BRANCH   1  13
HETATM   13  N1  UNL     1      24.060   0.107  53.360  1.00  0.00    -0.382 N 
HETATM   14  H8  UNL     1      24.364  -0.176  52.393  1.00  0.00     0.160 HD
BRANCH  13  15
HETATM   15  C6  UNL     1      24.828  -0.330  54.505  1.00  0.00     0.181 C 
BRANCH  15  16
HETATM   16  C5  UNL     1      26.235   0.087  54.309  1.00  0.00     0.076 A 
HETATM   17  C4  UNL     1      27.417  -0.424  54.017  1.00  0.00     0.063 A 
HETATM   18  C3  UNL     1      28.387   0.674  54.000  1.00  0.00     0.077 A 
HETATM   19  C2  UNL     1      29.667   0.499  53.736  1.00  0.00     0.002 C 
HETATM   20  N7  UNL     1      27.625   1.833  54.310  1.00  0.00    -0.151 NA
HETATM   21  C1  UNL     1      30.174  -0.864  53.440  1.00  0.00     0.038 C 
HETATM   22  N6  UNL     1      26.401   1.505  54.485  1.00  0.00    -0.153 NA
ENDBRANCH  15  16
ENDBRANCH  13  15
ENDBRANCH   1  13
BRANCH  10  23
HETATM   23  N4  UNL     1      26.090   3.489  51.217  1.00  0.00    -0.384 N 
HETATM   24  H14 UNL     1      26.979   3.340  51.683  1.00  0.00     0.160 HD
BRANCH  23  25
HETATM   25  C16 UNL     1      26.249   3.132  49.818  1.00  0.00     0.147 C 
BRANCH  25  26
HETATM   26  C17 UNL     1      27.030   4.158  49.095  1.00  0.00    -0.010 C 
BRANCH  26  27
HETATM   27  C18 UNL     1      27.705   5.142  48.625  1.00  0.00    -0.010 C 
BRANCH  27  28
HETATM   28  C19 UNL     1      28.255   6.396  48.107  1.00  0.00     0.143 C 
BRANCH  28  29
HETATM   29  N5  UNL     1      27.610   7.514  48.738  1.00  0.00    -0.418 N 
HETATM   30  C20 UNL     1      28.417   8.654  48.987  1.00  0.00     0.142 C 
HETATM   31  C21 UNL     1      26.301   7.815  48.286  1.00  0.00     0.142 C 
ENDBRANCH  28  29
ENDBRANCH  27  28
ENDBRANCH  26  27
ENDBRANCH  25  26
ENDBRANCH  23  25
ENDBRANCH  10  23
BRANCH   9  32
HETATM   32  O1  UNL     1      23.972   5.408  50.489  1.00  0.00    -0.354 OA
HETATM   33  C14 UNL     1      23.452   5.579  49.202  1.00  0.00     0.210 C 
ENDBRANCH   9  32
TORSDOF 10
ENDMDL
MODEL 2
REMARK VINA RESULT:      -8.0      1.843      2.284
REMARK  10 active torsions:
REMARK  status: ('A' for Active; 'I' for Inactive)
REMARK    1  A    between atoms: C5_5  and  C6_6 
REMARK    2  A    between atoms: C6_6  and  N1_7 
REMARK    3  A    between atoms: N1_7  and  C7_8 
REMARK    4  A    between atoms: C13_16  and  O1_17 
REMARK    5  A    between atoms: C15_19  and  N4_20 
REMARK    6  A    between atoms: N4_20  and  C16_21 
REMARK    7  A    between atoms: C16_21  and  C17_22 
REMARK    8  A    between atoms: C17_22  and  C18_23 
REMARK    9  A    between atoms: C18_23  and  C19_24 
REMARK   10  A    between atoms: C19_24  and  N5_25 
ROOT
HETATM    1  C7  UNL     1      23.764   1.765  51.775  1.00  0.00     0.063 A 
HETATM    2  C8  UNL     1      22.629   1.030  51.865  1.00  0.00     0.089 A 
HETATM    3  C9  UNL     1      22.750  -0.058  52.793  1.00  0.00     0.103 C 
HETATM    4  N2  UNL     1      22.847  -0.944  53.538  1.00  0.00    -0.191 NA
HETATM    5  C10 UNL     1      21.459   1.219  51.174  1.00  0.00     0.142 A 
HETATM    6  N3  UNL     1      21.488   2.270  50.317  1.00  0.00    -0.259 NA
HETATM    7  C11 UNL     1      22.587   3.024  50.194  1.00  0.00     0.071 A 
HETATM    8  C12 UNL     1      22.460   4.029  49.296  1.00  0.00     0.071 A 
HETATM    9  C13 UNL     1      23.606   4.722  49.238  1.00  0.00     0.096 A 
HETATM   10  C15 UNL     1      24.824   4.942  49.606  1.00  0.00     0.063 A 
HETATM   11  C22 UNL     1      24.819   3.780  50.577  1.00  0.00     0.048 A 
HETATM   12  C23 UNL     1      23.788   2.836  50.897  1.00  0.00     0.023 A 
ENDROOT
BRANCH   1  13
HETATM   13  N1  UNL     1      24.959   1.621  52.477  1.00  0.00    -0.382 N 
HETATM   14  H8  UNL     1      25.494   0.972  51.844  1.00  0.00     0.160 HD
BRANCH  13  15
HETATM   15  C6  UNL     1      25.569   2.084  53.703  1.00  0.00     0.181 C 
BRANCH  15  16
HETATM   16  C5  UNL     1      26.947   1.545  53.770  1.00  0.00     0.076 A 
HETATM   17  C4  UNL     1      27.608   0.416  53.588  1.00  0.00     0.063 A 
HETATM   18  C3  UNL     1      29.024   0.680  53.856  1.00  0.00     0.077 A 
HETATM   19  C2  UNL     1      29.959  -0.245  53.761  1.00  0.00     0.002 C 
HETATM   20  N7  UNL     1      29.076   2.058  54.202  1.00  0.00    -0.151 NA
HETATM   21  C1  UNL     1      29.585  -1.625  53.365  1.00  0.00     0.038 C 
HETATM   22  N6  UNL     1      27.898   2.554  54.154  1.00  0.00    -0.153 NA
ENDBRANCH  15  16
ENDBRANCH  13  15
ENDBRANCH   1  13
BRANCH  10  23
HETATM   23  N4  UNL     1      26.129   5.178  50.001  1.00  0.00    -0.384 N 
HETATM   24  H14 UNL     1      26.825   5.608  50.601  1.00  0.00     0.160 HD
BRANCH  23  25
HETATM   25  C16 UNL     1      26.823   4.377  49.009  1.00  0.00     0.147 C 
BRANCH  25  26
HETATM   26  C17 UNL     1      28.067   5.041  48.566  1.00  0.00    -0.010 C 
BRANCH  26  27
HETATM   27  C18 UNL     1      29.116   5.736  48.318  1.00  0.00    -0.010 C 
BRANCH  27  28
HETATM   28  C19 UNL     1      30.332   6.384  47.824  1.00  0.00     0.143 C 
BRANCH  28  29
HETATM   29  N5  UNL     1      31.270   6.557  48.899  1.00  0.00    -0.418 N 
HETATM   30  C20 UNL     1      32.411   5.715  48.887  1.00  0.00     0.142 C 
HETATM   31  C21 UNL     1      31.536   7.895  49.283  1.00  0.00     0.142 C 
ENDBRANCH  28  29
ENDBRANCH  27  28
ENDBRANCH  26  27
ENDBRANCH  25  26
ENDBRANCH  23  25
ENDBRANCH  10  23
BRANCH   9  32
HETATM   32  O1  UNL     1      23.774   5.869  48.366  1.00  0.00    -0.354 OA
HETATM   33  C14 UNL     1      22.817   5.993  47.353  1.00  0.00     0.210 C 
ENDBRANCH   9  32
TORSDOF 10
ENDMDL
MODEL 3
REMARK VINA RESULT:      -8.0      2.072      4.969
REMARK  10 active torsions:
REMARK  status: ('A' for Active; 'I' for Inactive)
REMARK    1  A    between atoms: C5_5  and  C6_6 
REMARK    2  A    between atoms: C6_6  and  N1_7 
REMARK    3  A    between atoms: N1_7  and  C7_8 
REMARK    4  A    between atoms: C13_16  and  O1_17 
REMARK    5  A    between atoms: C15_19  and  N4_20 
REMARK    6  A    between atoms: N4_20  and  C16_21 
REMARK    7  A    between atoms: C16_21  and  C17_22 
REMARK    8  A    between atoms: C17_22  and  C18_23 
REMARK    9  A    between atoms: C18_23  and  C19_24 
REMARK   10  A    between atoms: C19_24  and  N5_25 
ROOT
HETATM    1  C7  UNL     1      23.219   0.238  53.409  1.00  0.00     0.063 A 
HETATM    2  C8  UNL     1      23.121  -0.786  54.291  1.00  0.00     0.089 A 
HETATM    3  C9  UNL     1      21.776  -1.270  54.425  1.00  0.00     0.103 C 
HETATM    4  N2  UNL     1      20.688  -1.660  54.540  1.00  0.00    -0.191 NA
HETATM    5  C10 UNL     1      24.131  -1.347  55.030  1.00  0.00     0.142 A 
HETATM    6  N3  UNL     1      25.346  -0.782  54.822  1.00  0.00    -0.259 NA
HETATM    7  C11 UNL     1      25.492   0.233  53.961  1.00  0.00     0.071 A 
HETATM    8  C12 UNL     1      26.762   0.691  53.868  1.00  0.00     0.071 A 
HETATM    9  C13 UNL     1      26.809   1.704  52.992  1.00  0.00     0.096 A 
HETATM   10  C15 UNL     1      26.250   2.509  52.151  1.00  0.00     0.063 A 
HETATM   11  C22 UNL     1      24.882   1.893  52.357  1.00  0.00     0.048 A 
HETATM   12  C23 UNL     1      24.462   0.813  53.202  1.00  0.00     0.023 A 
ENDROOT
BRANCH   1  13
HETATM   13  N1  UNL     1      22.224   0.816  52.623  1.00  0.00    -0.382 N 
HETATM   14  H8  UNL     1      22.106   1.750  53.094  1.00  0.00     0.160 HD
BRANCH  13  15
HETATM   15  C6  UNL     1      21.417   0.492  51.468  1.00  0.00     0.181 C 
BRANCH  15  16
HETATM   16  C5  UNL     1      21.808   1.393  50.359  1.00  0.00     0.076 A 
HETATM   17  C4  UNL     1      22.268   2.613  50.154  1.00  0.00     0.063 A 
HETATM   18  C3  UNL     1      22.416   2.797  48.708  1.00  0.00     0.077 A 
HETATM   19  C2  UNL     1      22.860   3.915  48.166  1.00  0.00     0.002 C 
HETATM   20  N7  UNL     1      21.994   1.564  48.142  1.00  0.00    -0.151 NA
HETATM   21  C1  UNL     1      23.234   5.053  49.040  1.00  0.00     0.038 C 
HETATM   22  N6  UNL     1      21.648   0.762  49.077  1.00  0.00    -0.153 NA
ENDBRANCH  15  16
ENDBRANCH  13  15
ENDBRANCH   1  13
BRANCH  10  23
HETATM   23  N4  UNL     1      25.650   3.372  51.250  1.00  0.00    -0.384 N 
HETATM   24  H14 UNL     1      25.009   4.120  51.010  1.00  0.00     0.160 HD
BRANCH  23  25
HETATM   25  C16 UNL     1      26.313   2.938  50.033  1.00  0.00     0.147 C 
BRANCH  25  26
HETATM   26  C17 UNL     1      26.812   4.094  49.259  1.00  0.00    -0.010 C 
BRANCH  26  27
HETATM   27  C18 UNL     1      27.237   5.190  48.747  1.00  0.00    -0.010 C 
BRANCH  27  28
HETATM   28  C19 UNL     1      27.475   6.513  48.167  1.00  0.00     0.143 C 
BRANCH  28  29
HETATM   29  N5  UNL     1      28.884   6.723  47.981  1.00  0.00    -0.418 N 
HETATM   30  C20 UNL     1      29.432   7.898  48.555  1.00  0.00     0.142 C 
HETATM   31  C21 UNL     1      29.706   5.575  48.106  1.00  0.00     0.142 C 
ENDBRANCH  28  29
ENDBRANCH  27  28
ENDBRANCH  26  27
ENDBRANCH  25  26
ENDBRANCH  23  25
ENDBRANCH  10  23
BRANCH   9  32
HETATM   32  O1  UNL     1      28.042   2.398  52.674  1.00  0.00    -0.354 OA
HETATM   33  C14 UNL     1      28.975   2.462  53.715  1.00  0.00     0.210 C 
ENDBRANCH   9  32
TORSDOF 10
ENDMDL
MODEL 4
REMARK VINA RESULT:      -7.9      2.073      3.036
REMARK  10 active torsions:
REMARK  status: ('A' for Active; 'I' for Inactive)
REMARK    1  A    between atoms: C5_5  and  C6_6 
REMARK    2  A    between atoms: C6_6  and  N1_7 
REMARK    3  A    between atoms: N1_7  and  C7_8 
REMARK    4  A    between atoms: C13_16  and  O1_17 
REMARK    5  A    between atoms: C15_19  and  N4_20 
REMARK    6  A    between atoms: N4_20  and  C16_21 
REMARK    7  A    between atoms: C16_21  and  C17_22 
REMARK    8  A    between atoms: C17_22  and  C18_23 
REMARK    9  A    between atoms: C18_23  and  C19_24 
REMARK   10  A    between atoms: C19_24  and  N5_25 
ROOT
HETATM    1  C7  UNL     1      23.520   0.155  52.991  1.00  0.00     0.063 A 
HETATM    2  C8  UNL     1      23.156  -0.600  54.057  1.00  0.00     0.089 A 
HETATM    3  C9  UNL     1      24.262  -0.905  54.919  1.00  0.00     0.103 C 
HETATM    4  N2  UNL     1      25.155  -1.160  55.616  1.00  0.00    -0.191 NA
HETATM    5  C10 UNL     1      21.903  -1.079  54.346  1.00  0.00     0.142 A 
HETATM    6  N3  UNL     1      20.957  -0.734  53.439  1.00  0.00    -0.259 NA
HETATM    7  C11 UNL     1      21.270   0.010  52.370  1.00  0.00     0.071 A 
HETATM    8  C12 UNL     1      20.218   0.266  51.558  1.00  0.00     0.071 A 
HETATM    9  C13 UNL     1      20.628   1.008  50.519  1.00  0.00     0.096 A 
HETATM   10  C15 UNL     1      21.542   1.635  49.858  1.00  0.00     0.063 A 
HETATM   11  C22 UNL     1      22.620   1.271  50.857  1.00  0.00     0.048 A 
HETATM   12  C23 UNL     1      22.550   0.503  52.067  1.00  0.00     0.023 A 
ENDROOT
BRANCH   1  13
HETATM   13  N1  UNL     1      24.772   0.680  52.678  1.00  0.00    -0.382 N 
HETATM   14  H8  UNL     1      25.115  -0.014  51.965  1.00  0.00     0.160 HD
BRANCH  13  15
HETATM   15  C6  UNL     1      25.610   1.801  53.041  1.00  0.00     0.181 C 
BRANCH  15  16
HETATM   16  C5  UNL     1      26.961   1.288  53.361  1.00  0.00     0.076 A 
HETATM   17  C4  UNL     1      27.682   0.186  53.259  1.00  0.00     0.063 A 
HETATM   18  C3  UNL     1      29.004   0.462  53.827  1.00  0.00     0.077 A 
HETATM   19  C2  UNL     1      29.968  -0.436  53.876  1.00  0.00     0.002 C 
HETATM   20  N7  UNL     1      28.939   1.817  54.250  1.00  0.00    -0.151 NA
HETATM   21  C1  UNL     1      29.728  -1.797  53.338  1.00  0.00     0.038 C 
HETATM   22  N6  UNL     1      27.780   2.291  53.986  1.00  0.00    -0.153 NA
ENDBRANCH  15  16
ENDBRANCH  13  15
ENDBRANCH   1  13
BRANCH  10  23
HETATM   23  N4  UNL     1      22.523   2.307  49.149  1.00  0.00    -0.384 N 
HETATM   24  H14 UNL     1      23.172   2.398  48.375  1.00  0.00     0.160 HD
BRANCH  23  25
HETATM   25  C16 UNL     1      22.663   3.478  49.996  1.00  0.00     0.147 C 
BRANCH  25  26
HETATM   26  C17 UNL     1      23.868   4.254  49.633  1.00  0.00    -0.010 C 
BRANCH  26  27
HETATM   27  C18 UNL     1      24.986   4.766  49.268  1.00  0.00    -0.010 C 
BRANCH  27  28
HETATM   28  C19 UNL     1      26.270   5.446  49.090  1.00  0.00     0.143 C 
BRANCH  28  29
HETATM   29  N5  UNL     1      26.068   6.866  49.008  1.00  0.00    -0.418 N 
HETATM   30  C20 UNL     1      25.268   7.333  47.934  1.00  0.00     0.142 C 
HETATM   31  C21 UNL     1      25.841   7.535  50.237  1.00  0.00     0.142 C 
ENDBRANCH  28  29
ENDBRANCH  27  28
ENDBRANCH  26  27
ENDBRANCH  25  26
ENDBRANCH  23  25
ENDBRANCH  10  23
BRANCH   9  32
HETATM   32  O1  UNL     1      19.721   1.448  49.476  1.00  0.00    -0.354 OA
HETATM   33  C14 UNL     1      18.731   2.347  49.888  1.00  0.00     0.210 C 
ENDBRANCH   9  32
TORSDOF 10
ENDMDL
MODEL 5
REMARK VINA RESULT:      -7.8      1.867      4.864
REMARK  10 active torsions:
REMARK  status: ('A' for Active; 'I' for Inactive)
REMARK    1  A    between atoms: C5_5  and  C6_6 
REMARK    2  A    between atoms: C6_6  and  N1_7 
REMARK    3  A    between atoms: N1_7  and  C7_8 
REMARK    4  A    between atoms: C13_16  and  O1_17 
REMARK    5  A    between atoms: C15_19  and  N4_20 
REMARK    6  A    between atoms: N4_20  and  C16_21 
REMARK    7  A    between atoms: C16_21  and  C17_22 
REMARK    8  A    between atoms: C17_22  and  C18_23 
REMARK    9  A    between atoms: C18_23  and  C19_24 
REMARK   10  A    between atoms: C19_24  and  N5_25 
ROOT
HETATM    1  C7  UNL     1      22.598   1.029  52.720  1.00  0.00     0.063 A 
HETATM    2  C8  UNL     1      22.170  -0.050  53.420  1.00  0.00     0.089 A 
HETATM    3  C9  UNL     1      20.739  -0.163  53.437  1.00  0.00     0.103 C 
HETATM    4  N2  UNL     1      19.582  -0.254  53.459  1.00  0.00    -0.191 NA
HETATM    5  C10 UNL     1      22.942  -0.969  54.084  1.00  0.00     0.142 A 
HETATM    6  N3  UNL     1      24.275  -0.731  54.003  1.00  0.00    -0.259 NA
HETATM    7  C11 UNL     1      24.744   0.322  53.324  1.00  0.00     0.071 A 
HETATM    8  C12 UNL     1      26.093   0.425  53.340  1.00  0.00     0.071 A 
HETATM    9  C13 UNL     1      26.467   1.507  52.642  1.00  0.00     0.096 A 
HETATM   10  C15 UNL     1      26.201   2.550  51.930  1.00  0.00     0.063 A 
HETATM   11  C22 UNL     1      24.708   2.307  51.996  1.00  0.00     0.048 A 
HETATM   12  C23 UNL     1      23.959   1.268  52.642  1.00  0.00     0.023 A 
ENDROOT
BRANCH   1  13
HETATM   13  N1  UNL     1      21.848   1.967  52.013  1.00  0.00    -0.382 N 
HETATM   14  H8  UNL     1      21.628   1.435  51.132  1.00  0.00     0.160 HD
BRANCH  13  15
HETATM   15  C6  UNL     1      21.360   3.319  52.169  1.00  0.00     0.181 C 
BRANCH  15  16
HETATM   16  C5  UNL     1      22.049   4.181  51.182  1.00  0.00     0.076 A 
HETATM   17  C4  UNL     1      22.095   4.402  49.881  1.00  0.00     0.063 A 
HETATM   18  C3  UNL     1      23.070   5.470  49.643  1.00  0.00     0.077 A 
HETATM   19  C2  UNL     1      23.352   5.932  48.441  1.00  0.00     0.002 C 
HETATM   20  N7  UNL     1      23.552   5.812  50.936  1.00  0.00    -0.151 NA
HETATM   21  C1  UNL     1      22.664   5.362  47.258  1.00  0.00     0.038 C 
HETATM   22  N6  UNL     1      22.974   5.083  51.814  1.00  0.00    -0.153 NA
ENDBRANCH  15  16
ENDBRANCH  13  15
ENDBRANCH   1  13
BRANCH  10  23
HETATM   23  N4  UNL     1      25.915   3.669  51.166  1.00  0.00    -0.384 N 
HETATM   24  H14 UNL     1      25.571   4.615  51.049  1.00  0.00     0.160 HD
BRANCH  23  25
HETATM   25  C16 UNL     1      26.346   3.182  49.868  1.00  0.00     0.147 C 
BRANCH  25  26
HETATM   26  C17 UNL     1      27.006   4.253  49.091  1.00  0.00    -0.010 C 
BRANCH  26  27
HETATM   27  C18 UNL     1      27.720   5.161  48.533  1.00  0.00    -0.010 C 
BRANCH  27  28
HETATM   28  C19 UNL     1      28.542   6.303  48.130  1.00  0.00     0.143 C 
BRANCH  28  29
HETATM   29  N5  UNL     1      28.119   7.485  48.829  1.00  0.00    -0.418 N 
HETATM   30  C20 UNL     1      29.036   8.567  48.858  1.00  0.00     0.142 C 
HETATM   31  C21 UNL     1      26.768   7.870  48.642  1.00  0.00     0.142 C 
ENDBRANCH  28  29
ENDBRANCH  27  28
ENDBRANCH  26  27
ENDBRANCH  25  26
ENDBRANCH  23  25
ENDBRANCH  10  23
BRANCH   9  32
HETATM   32  O1  UNL     1      27.859   1.877  52.475  1.00  0.00    -0.354 OA
HETATM   33  C14 UNL     1      28.474   2.415  53.611  1.00  0.00     0.210 C 
ENDBRANCH   9  32
TORSDOF 10
ENDMDL
MODEL 6
REMARK VINA RESULT:      -7.6      1.905      5.144
REMARK  10 active torsions:
REMARK  status: ('A' for Active; 'I' for Inactive)
REMARK    1  A    between atoms: C5_5  and  C6_6 
REMARK    2  A    between atoms: C6_6  and  N1_7 
REMARK    3  A    between atoms: N1_7  and  C7_8 
REMARK    4  A    between atoms: C13_16  and  O1_17 
REMARK    5  A    between atoms: C15_19  and  N4_20 
REMARK    6  A    between atoms: N4_20  and  C16_21 
REMARK    7  A    between atoms: C16_21  and  C17_22 
REMARK    8  A    between atoms: C17_22  and  C18_23 
REMARK    9  A    between atoms: C18_23  and  C19_24 
REMARK   10  A    between atoms: C19_24  and  N5_25 
ROOT
HETATM    1  C7  UNL     1      21.911   0.439  53.191  1.00  0.00     0.063 A 
HETATM    2  C8  UNL     1      21.289  -0.627  53.751  1.00  0.00     0.089 A 
HETATM    3  C9  UNL     1      19.876  -0.633  53.503  1.00  0.00     0.103 C 
HETATM    4  N2  UNL     1      18.731  -0.637  53.310  1.00  0.00    -0.191 NA
HETATM    5  C10 UNL     1      21.862  -1.623  54.501  1.00  0.00     0.142 A 
HETATM    6  N3  UNL     1      23.200  -1.484  54.675  1.00  0.00    -0.259 NA
HETATM    7  C11 UNL     1      23.856  -0.447  54.141  1.00  0.00     0.071 A 
HETATM    8  C12 UNL     1      25.183  -0.447  54.406  1.00  0.00     0.071 A 
HETATM    9  C13 UNL     1      25.752   0.627  53.839  1.00  0.00     0.096 A 
HETATM   10  C15 UNL     1      25.693   1.710  53.139  1.00  0.00     0.063 A 
HETATM   11  C22 UNL     1      24.201   1.578  52.922  1.00  0.00     0.048 A 
HETATM   12  C23 UNL     1      23.277   0.577  53.372  1.00  0.00     0.023 A 
ENDROOT
BRANCH   1  13
HETATM   13  N1  UNL     1      21.371   1.454  52.404  1.00  0.00    -0.382 N 
HETATM   14  H8  UNL     1      21.892   1.315  51.500  1.00  0.00     0.160 HD
BRANCH  13  15
HETATM   15  C6  UNL     1      20.394   2.516  52.507  1.00  0.00     0.181 C 
BRANCH  15  16
HETATM   16  C5  UNL     1      20.972   3.739  51.905  1.00  0.00     0.076 A 
HETATM   17  C4  UNL     1      22.073   4.467  51.937  1.00  0.00     0.063 A 
HETATM   18  C3  UNL     1      21.893   5.592  51.017  1.00  0.00     0.077 A 
HETATM   19  C2  UNL     1      22.817   6.511  50.813  1.00  0.00     0.002 C 
HETATM   20  N7  UNL     1      20.589   5.413  50.479  1.00  0.00    -0.151 NA
HETATM   21  C1  UNL     1      24.108   6.422  51.537  1.00  0.00     0.038 C 
HETATM   22  N6  UNL     1      20.062   4.361  50.980  1.00  0.00    -0.153 NA
ENDBRANCH  15  16
ENDBRANCH  13  15
ENDBRANCH   1  13
BRANCH  10  23
HETATM   23  N4  UNL     1      25.630   2.871  52.389  1.00  0.00    -0.384 N 
HETATM   24  H14 UNL     1      25.482   3.869  52.285  1.00  0.00     0.160 HD
BRANCH  23  25
HETATM   25  C16 UNL     1      25.937   2.322  51.080  1.00  0.00     0.147 C 
BRANCH  25  26
HETATM   26  C17 UNL     1      26.371   3.384  50.147  1.00  0.00    -0.010 C 
BRANCH  26  27
HETATM   27  C18 UNL     1      26.919   4.254  49.380  1.00  0.00    -0.010 C 
BRANCH  27  28
HETATM   28  C19 UNL     1      27.753   5.097  48.523  1.00  0.00     0.143 C 
BRANCH  28  29
HETATM   29  N5  UNL     1      27.314   6.463  48.599  1.00  0.00    -0.418 N 
HETATM   30  C20 UNL     1      28.175   7.439  48.036  1.00  0.00     0.142 C 
HETATM   31  C21 UNL     1      25.937   6.689  48.352  1.00  0.00     0.142 C 
ENDBRANCH  28  29
ENDBRANCH  27  28
ENDBRANCH  26  27
ENDBRANCH  25  26
ENDBRANCH  23  25
ENDBRANCH  10  23
BRANCH   9  32
HETATM   32  O1  UNL     1      27.173   0.897  53.944  1.00  0.00    -0.354 OA
HETATM   33  C14 UNL     1      28.006  -0.052  53.342  1.00  0.00     0.210 C 
ENDBRANCH   9  32
TORSDOF 10
ENDMDL
MODEL 7
REMARK VINA RESULT:      -7.6      3.545      4.536
REMARK  10 active torsions:
REMARK  status: ('A' for Active; 'I' for Inactive)
REMARK    1  A    between atoms: C5_5  and  C6_6 
REMARK    2  A    between atoms: C6_6  and  N1_7 
REMARK    3  A    between atoms: N1_7  and  C7_8 
REMARK    4  A    between atoms: C13_16  and  O1_17 
REMARK    5  A    between atoms: C15_19  and  N4_20 
REMARK    6  A    between atoms: N4_20  and  C16_21 
REMARK    7  A    between atoms: C16_21  and  C17_22 
REMARK    8  A    between atoms: C17_22  and  C18_23 
REMARK    9  A    between atoms: C18_23  and  C19_24 
REMARK   10  A    between atoms: C19_24  and  N5_25 
ROOT
HETATM    1  C7  UNL     1      23.465   0.453  53.244  1.00  0.00     0.063 A 
HETATM    2  C8  UNL     1      23.205  -0.505  54.166  1.00  0.00     0.089 A 
HETATM    3  C9  UNL     1      24.379  -0.914  54.883  1.00  0.00     0.103 C 
HETATM    4  N2  UNL     1      25.329  -1.251  55.460  1.00  0.00    -0.191 NA
HETATM    5  C10 UNL     1      21.994  -1.089  54.439  1.00  0.00     0.142 A 
HETATM    6  N3  UNL     1      20.973  -0.625  53.675  1.00  0.00    -0.259 NA
HETATM    7  C11 UNL     1      21.183   0.320  52.751  1.00  0.00     0.071 A 
HETATM    8  C12 UNL     1      20.068   0.674  52.071  1.00  0.00     0.071 A 
HETATM    9  C13 UNL     1      20.375   1.616  51.168  1.00  0.00     0.096 A 
HETATM   10  C15 UNL     1      21.218   2.399  50.582  1.00  0.00     0.063 A 
HETATM   11  C22 UNL     1      22.376   1.906  51.423  1.00  0.00     0.048 A 
HETATM   12  C23 UNL     1      22.420   0.922  52.466  1.00  0.00     0.023 A 
ENDROOT
BRANCH   1  13
HETATM   13  N1  UNL     1      24.672   1.087  52.957  1.00  0.00    -0.382 N 
HETATM   14  H8  UNL     1      24.974   0.575  52.088  1.00  0.00     0.160 HD
BRANCH  13  15
HETATM   15  C6  UNL     1      25.507   2.141  53.489  1.00  0.00     0.181 C 
BRANCH  15  16
HETATM   16  C5  UNL     1      26.884   1.617  53.633  1.00  0.00     0.076 A 
HETATM   17  C4  UNL     1      27.574   0.504  53.454  1.00  0.00     0.063 A 
HETATM   18  C3  UNL     1      28.963   0.774  53.833  1.00  0.00     0.077 A 
HETATM   19  C2  UNL     1      29.916  -0.135  53.768  1.00  0.00     0.002 C 
HETATM   20  N7  UNL     1      28.969   2.136  54.237  1.00  0.00    -0.151 NA
HETATM   21  C1  UNL     1      29.592  -1.502  53.291  1.00  0.00     0.038 C 
HETATM   22  N6  UNL     1      27.790   2.620  54.124  1.00  0.00    -0.153 NA
ENDBRANCH  15  16
ENDBRANCH  13  15
ENDBRANCH   1  13
BRANCH  10  23
HETATM   23  N4  UNL     1      22.122   3.238  49.953  1.00  0.00    -0.384 N 
HETATM   24  H14 UNL     1      22.594   4.128  49.838  1.00  0.00     0.160 HD
BRANCH  23  25
HETATM   25  C16 UNL     1      22.624   2.326  48.941  1.00  0.00     0.147 C 
BRANCH  25  26
HETATM   26  C17 UNL     1      22.236   2.772  47.586  1.00  0.00    -0.010 C 
BRANCH  26  27
HETATM   27  C18 UNL     1      21.944   3.327  46.467  1.00  0.00    -0.010 C 
BRANCH  27  28
HETATM   28  C19 UNL     1      21.816   4.109  45.237  1.00  0.00     0.143 C 
BRANCH  28  29
HETATM   29  N5  UNL     1      20.602   3.757  44.553  1.00  0.00    -0.418 N 
HETATM   30  C20 UNL     1      19.398   3.881  45.293  1.00  0.00     0.142 C 
HETATM   31  C21 UNL     1      20.502   4.178  43.204  1.00  0.00     0.142 C 
ENDBRANCH  28  29
ENDBRANCH  27  28
ENDBRANCH  26  27
ENDBRANCH  25  26
ENDBRANCH  23  25
ENDBRANCH  10  23
BRANCH   9  32
HETATM   32  O1  UNL     1      19.381   2.201  50.289  1.00  0.00    -0.354 OA
HETATM   33  C14 UNL     1      18.059   1.829  50.554  1.00  0.00     0.210 C 
ENDBRANCH   9  32
TORSDOF 10
ENDMDL
MODEL 8
REMARK VINA RESULT:      -7.5      2.031      5.672
REMARK  10 active torsions:
REMARK  status: ('A' for Active; 'I' for Inactive)
REMARK    1  A    between atoms: C5_5  and  C6_6 
REMARK    2  A    between atoms: C6_6  and  N1_7 
REMARK    3  A    between atoms: N1_7  and  C7_8 
REMARK    4  A    between atoms: C13_16  and  O1_17 
REMARK    5  A    between atoms: C15_19  and  N4_20 
REMARK    6  A    between atoms: N4_20  and  C16_21 
REMARK    7  A    between atoms: C16_21  and  C17_22 
REMARK    8  A    between atoms: C17_22  and  C18_23 
REMARK    9  A    between atoms: C18_23  and  C19_24 
REMARK   10  A    between atoms: C19_24  and  N5_25 
ROOT
HETATM    1  C7  UNL     1      23.336   0.235  53.460  1.00  0.00     0.063 A 
HETATM    2  C8  UNL     1      23.229  -0.796  54.333  1.00  0.00     0.089 A 
HETATM    3  C9  UNL     1      21.877  -1.258  54.475  1.00  0.00     0.103 C 
HETATM    4  N2  UNL     1      20.784  -1.631  54.598  1.00  0.00    -0.191 NA
HETATM    5  C10 UNL     1      24.237  -1.382  55.055  1.00  0.00     0.142 A 
HETATM    6  N3  UNL     1      25.460  -0.835  54.841  1.00  0.00    -0.259 NA
HETATM    7  C11 UNL     1      25.614   0.185  53.989  1.00  0.00     0.071 A 
HETATM    8  C12 UNL     1      26.891   0.622  53.887  1.00  0.00     0.071 A 
HETATM    9  C13 UNL     1      26.946   1.643  53.021  1.00  0.00     0.096 A 
HETATM   10  C15 UNL     1      26.393   2.466  52.194  1.00  0.00     0.063 A 
HETATM   11  C22 UNL     1      25.017   1.872  52.407  1.00  0.00     0.048 A 
HETATM   12  C23 UNL     1      24.587   0.790  53.246  1.00  0.00     0.023 A 
ENDROOT
BRANCH   1  13
HETATM   13  N1  UNL     1      22.344   0.838  52.690  1.00  0.00    -0.382 N 
HETATM   14  H8  UNL     1      21.883  -0.001  52.252  1.00  0.00     0.160 HD
BRANCH  13  15
HETATM   15  C6  UNL     1      21.851   2.163  52.384  1.00  0.00     0.181 C 
BRANCH  15  16
HETATM   16  C5  UNL     1      20.425   2.052  51.999  1.00  0.00     0.076 A 
HETATM   17  C4  UNL     1      19.584   1.198  51.444  1.00  0.00     0.063 A 
HETATM   18  C3  UNL     1      18.266   1.835  51.398  1.00  0.00     0.077 A 
HETATM   19  C2  UNL     1      17.197   1.243  50.901  1.00  0.00     0.002 C 
HETATM   20  N7  UNL     1      18.464   3.117  51.978  1.00  0.00    -0.151 NA
HETATM   21  C1  UNL     1      17.309  -0.133  50.358  1.00  0.00     0.038 C 
HETATM   22  N6  UNL     1      19.690   3.245  52.322  1.00  0.00    -0.153 NA
ENDBRANCH  15  16
ENDBRANCH  13  15
ENDBRANCH   1  13
BRANCH  10  23
HETATM   23  N4  UNL     1      25.799   3.348  51.308  1.00  0.00    -0.384 N 
HETATM   24  H14 UNL     1      25.186   4.124  51.085  1.00  0.00     0.160 HD
BRANCH  23  25
HETATM   25  C16 UNL     1      26.389   2.870  50.070  1.00  0.00     0.147 C 
BRANCH  25  26
HETATM   26  C17 UNL     1      26.973   3.985  49.295  1.00  0.00    -0.010 C 
BRANCH  26  27
HETATM   27  C18 UNL     1      27.335   5.051  48.680  1.00  0.00    -0.010 C 
BRANCH  27  28
HETATM   28  C19 UNL     1      27.817   6.352  48.212  1.00  0.00     0.143 C 
BRANCH  28  29
HETATM   29  N5  UNL     1      26.778   7.337  48.340  1.00  0.00    -0.418 N 
HETATM   30  C20 UNL     1      26.648   7.962  49.606  1.00  0.00     0.142 C 
HETATM   31  C21 UNL     1      26.612   8.212  47.238  1.00  0.00     0.142 C 
ENDBRANCH  28  29
ENDBRANCH  27  28
ENDBRANCH  26  27
ENDBRANCH  25  26
ENDBRANCH  23  25
ENDBRANCH  10  23
BRANCH   9  32
HETATM   32  O1  UNL     1      28.188   2.319  52.697  1.00  0.00    -0.354 OA
HETATM   33  C14 UNL     1      29.088   2.453  53.760  1.00  0.00     0.210 C 
ENDBRANCH   9  32
TORSDOF 10
ENDMDL
MODEL 9
REMARK VINA RESULT:      -7.4      3.488      7.760
REMARK  10 active torsions:
REMARK  status: ('A' for Active; 'I' for Inactive)
REMARK    1  A    between atoms: C5_5  and  C6_6 
REMARK    2  A    between atoms: C6_6  and  N1_7 
REMARK    3  A    between atoms: N1_7  and  C7_8 
REMARK    4  A    between atoms: C13_16  and  O1_17 
REMARK    5  A    between atoms: C15_19  and  N4_20 
REMARK    6  A    between atoms: N4_20  and  C16_21 
REMARK    7  A    between atoms: C16_21  and  C17_22 
REMARK    8  A    between atoms: C17_22  and  C18_23 
REMARK    9  A    between atoms: C18_23  and  C19_24 
REMARK   10  A    between atoms: C19_24  and  N5_25 
ROOT
HETATM    1  C7  UNL     1      23.768   0.047  53.631  1.00  0.00     0.063 A 
HETATM    2  C8  UNL     1      24.341  -0.661  54.635  1.00  0.00     0.089 A 
HETATM    3  C9  UNL     1      25.752  -0.418  54.744  1.00  0.00     0.103 C 
HETATM    4  N2  UNL     1      26.894  -0.229  54.831  1.00  0.00    -0.191 NA
HETATM    5  C10 UNL     1      23.726  -1.544  55.485  1.00  0.00     0.142 A 
HETATM    6  N3  UNL     1      22.397  -1.694  55.258  1.00  0.00    -0.259 NA
HETATM    7  C11 UNL     1      21.788  -1.016  54.277  1.00  0.00     0.071 A 
HETATM    8  C12 UNL     1      20.465  -1.277  54.176  1.00  0.00     0.071 A 
HETATM    9  C13 UNL     1      19.945  -0.561  53.168  1.00  0.00     0.096 A 
HETATM   10  C15 UNL     1      20.051   0.286  52.200  1.00  0.00     0.063 A 
HETATM   11  C22 UNL     1      21.534   0.480  52.434  1.00  0.00     0.048 A 
HETATM   12  C23 UNL     1      22.412  -0.110  53.403  1.00  0.00     0.023 A 
ENDROOT
BRANCH   1  13
HETATM   13  N1  UNL     1      24.353   0.971  52.766  1.00  0.00    -0.382 N 
HETATM   14  H8  UNL     1      24.431   0.406  51.882  1.00  0.00     0.160 HD
BRANCH  13  15
HETATM   15  C6  UNL     1      24.818   2.340  52.780  1.00  0.00     0.181 C 
BRANCH  15  16
HETATM   16  C5  UNL     1      23.994   3.122  51.831  1.00  0.00     0.076 A 
HETATM   17  C4  UNL     1      23.333   4.263  51.757  1.00  0.00     0.063 A 
HETATM   18  C3  UNL     1      22.736   4.348  50.421  1.00  0.00     0.077 A 
HETATM   19  C2  UNL     1      22.009   5.373  50.022  1.00  0.00     0.002 C 
HETATM   20  N7  UNL     1      23.132   3.147  49.772  1.00  0.00    -0.151 NA
HETATM   21  C1  UNL     1      21.770   6.506  50.949  1.00  0.00     0.038 C 
HETATM   22  N6  UNL     1      23.847   2.447  50.569  1.00  0.00    -0.153 NA
ENDBRANCH  15  16
ENDBRANCH  13  15
ENDBRANCH   1  13
BRANCH  10  23
HETATM   23  N4  UNL     1      20.166   1.195  51.163  1.00  0.00    -0.384 N 
HETATM   24  H14 UNL     1      20.250   1.434  50.181  1.00  0.00     0.160 HD
BRANCH  23  25
HETATM   25  C16 UNL     1      20.165   2.428  51.929  1.00  0.00     0.147 C 
BRANCH  25  26
HETATM   26  C17 UNL     1      18.933   3.206  51.684  1.00  0.00    -0.010 C 
BRANCH  26  27
HETATM   27  C18 UNL     1      17.776   3.748  51.565  1.00  0.00    -0.010 C 
BRANCH  27  28
HETATM   28  C19 UNL     1      16.367   4.139  51.504  1.00  0.00     0.143 C 
BRANCH  28  29
HETATM   29  N5  UNL     1      15.599   3.359  52.435  1.00  0.00    -0.418 N 
HETATM   30  C20 UNL     1      14.478   3.997  53.024  1.00  0.00     0.142 C 
HETATM   31  C21 UNL     1      15.379   2.005  52.079  1.00  0.00     0.142 C 
ENDBRANCH  28  29
ENDBRANCH  27  28
ENDBRANCH  26  27
ENDBRANCH  25  26
ENDBRANCH  23  25
ENDBRANCH  10  23
BRANCH   9  32
HETATM   32  O1  UNL     1      18.539  -0.624  52.818  1.00  0.00    -0.354 OA
HETATM   33  C14 UNL     1      17.836  -1.702  53.367  1.00  0.00     0.210 C 
ENDBRANCH   9  32
TORSDOF 10
ENDMDL
