MODEL 1
REMARK VINA RESULT:      -8.2      0.000      0.000
REMARK  4 active torsions:
REMARK  status: ('A' for Active; 'I' for Inactive)
REMARK    1  A    between atoms: O1_2  and  C2_3 
REMARK    2  A    between atoms: C5_6  and  C6_7 
REMARK       I    between atoms: C6_7  and  N1_9 
REMARK    3  A    between atoms: N1_9  and  S1_10 
REMARK    4  A    between atoms: S1_10  and  C7_13 
ROOT
HETATM    1  C6  UNL     1      25.752   2.615  51.378  1.00  0.00     0.239 C 
HETATM    2  O2  UNL     1      24.931   1.994  52.111  1.00  0.00    -0.272 OA
HETATM    3  N1  UNL     1      27.062   2.682  51.929  1.00  0.00    -0.250 N 
HETATM    4  H8  UNL     1      27.841   3.178  51.406  1.00  0.00     0.182 HD
ENDROOT
BRANCH   3   5
HETATM    5  S1  UNL     1      27.439   1.960  53.467  1.00  0.00     0.265 S 
HETATM    6  O3  UNL     1      28.653   2.664  54.058  1.00  0.00    -0.200 OA
HETATM    7  O4  UNL     1      26.346   2.105  54.456  1.00  0.00    -0.200 OA
BRANCH   5   8
HETATM    8  C7  UNL     1      27.888   0.292  53.265  1.00  0.00     0.079 A 
HETATM    9  C8  UNL     1      29.174  -0.062  53.602  1.00  0.00     0.025 A 
HETATM   10  C9  UNL     1      29.626  -1.373  53.475  1.00  0.00     0.002 A 
HETATM   11  C10 UNL     1      28.732  -2.312  52.996  1.00  0.00     0.000 A 
HETATM   12  C11 UNL     1      27.431  -1.970  52.651  1.00  0.00     0.002 A 
HETATM   13  C12 UNL     1      26.985  -0.659  52.781  1.00  0.00     0.025 A 
ENDBRANCH   5   8
ENDBRANCH   3   5
BRANCH   1  14
HETATM   14  C5  UNL     1      25.532   3.261  50.061  1.00  0.00     0.105 A 
HETATM   15  C4  UNL     1      24.759   4.530  50.289  1.00  0.00     0.048 A 
HETATM   16  C3  UNL     1      25.447   5.729  49.716  1.00  0.00     0.011 A 
HETATM   17  C2  UNL     1      26.592   5.871  49.057  1.00  0.00     0.064 A 
HETATM   18  C14 UNL     1      27.320   4.607  48.853  1.00  0.00     0.033 A 
HETATM   19  C13 UNL     1      26.799   3.467  49.324  1.00  0.00    -0.010 A 
BRANCH  17  20
HETATM   20  O1  UNL     1      27.132   7.063  48.567  1.00  0.00    -0.356 OA
HETATM   21  C1  UNL     1      27.009   8.225  49.351  1.00  0.00     0.210 C 
ENDBRANCH  17  20
ENDBRANCH   1  14
TORSDOF 4
ENDMDL
MODEL 2
REMARK VINA RESULT:      -7.6      3.714      4.692
REMARK  4 active torsions:
REMARK  status: ('A' for Active; 'I' for Inactive)
REMARK    1  A    between atoms: O1_2  and  C2_3 
REMARK    2  A    between atoms: C5_6  and  C6_7 
REMARK       I    between atoms: C6_7  and  N1_9 
REMARK    3  A    between atoms: N1_9  and  S1_10 
REMARK    4  A    between atoms: S1_10  and  C7_13 
ROOT
HETATM    1  C6  UNL     1      24.096   0.742  52.873  1.00  0.00     0.239 C 
HETATM    2  O2  UNL     1      24.370   0.384  54.054  1.00  0.00    -0.272 OA
HETATM    3  N1  UNL     1      25.206   1.302  52.181  1.00  0.00    -0.250 N 
HETATM    4  H8  UNL     1      25.102   1.640  51.181  1.00  0.00     0.182 HD
ENDROOT
BRANCH   3   5
HETATM    5  S1  UNL     1      26.766   1.455  52.939  1.00  0.00     0.265 S 
HETATM    6  O3  UNL     1      27.640   2.364  52.086  1.00  0.00    -0.200 OA
HETATM    7  O4  UNL     1      26.696   2.078  54.281  1.00  0.00    -0.200 OA
BRANCH   5   8
HETATM    8  C7  UNL     1      27.569  -0.085  53.000  1.00  0.00     0.079 A 
HETATM    9  C8  UNL     1      28.862  -0.106  53.469  1.00  0.00     0.025 A 
HETATM   10  C9  UNL     1      29.587  -1.292  53.556  1.00  0.00     0.002 A 
HETATM   11  C10 UNL     1      28.959  -2.454  53.150  1.00  0.00     0.000 A 
HETATM   12  C11 UNL     1      27.654  -2.449  52.673  1.00  0.00     0.002 A 
HETATM   13  C12 UNL     1      26.935  -1.262  52.590  1.00  0.00     0.025 A 
ENDBRANCH   5   8
ENDBRANCH   3   5
BRANCH   1  14
HETATM   14  C5  UNL     1      22.809   0.654  52.140  1.00  0.00     0.105 A 
HETATM   15  C4  UNL     1      21.723   0.374  53.141  1.00  0.00     0.048 A 
HETATM   16  C3  UNL     1      20.618   1.381  53.081  1.00  0.00     0.011 A 
HETATM   17  C2  UNL     1      20.427   2.454  52.319  1.00  0.00     0.064 A 
HETATM   18  C14 UNL     1      21.513   2.695  51.352  1.00  0.00     0.033 A 
HETATM   19  C13 UNL     1      22.556   1.856  51.316  1.00  0.00    -0.010 A 
BRANCH  17  20
HETATM   20  O1  UNL     1      19.337   3.326  52.361  1.00  0.00    -0.356 OA
HETATM   21  C1  UNL     1      18.886   3.892  51.155  1.00  0.00     0.210 C 
ENDBRANCH  17  20
ENDBRANCH   1  14
TORSDOF 4
ENDMDL
MODEL 3
REMARK VINA RESULT:      -7.4      3.337      5.107
REMARK  4 active torsions:
REMARK  status: ('A' for Active; 'I' for Inactive)
REMARK    1  A    between atoms: O1_2  and  C2_3 
REMARK    2  A    between atoms: C5_6  and  C6_7 
REMARK       I    between atoms: C6_7  and  N1_9 
REMARK    3  A    between atoms: N1_9  and  S1_10 
REMARK    4  A    between atoms: S1_10  and  C7_13 
ROOT
HETATM    1  C6  UNL     1      24.777   1.865  52.622  1.00  0.00     0.239 C 
HETATM    2  O2  UNL     1      25.277   1.818  51.463  1.00  0.00    -0.272 OA
HETATM    3  N1  UNL     1      25.752   1.883  53.657  1.00  0.00    -0.250 N 
HETATM    4  H8  UNL     1      25.456   1.922  54.676  1.00  0.00     0.182 HD
ENDROOT
BRANCH   3   5
HETATM    5  S1  UNL     1      27.456   1.842  53.302  1.00  0.00     0.265 S 
HETATM    6  O3  UNL     1      27.684   2.434  51.917  1.00  0.00    -0.200 OA
HETATM    7  O4  UNL     1      28.261   2.654  54.243  1.00  0.00    -0.200 OA
BRANCH   5   8
HETATM    8  C7  UNL     1      28.027   0.202  53.236  1.00  0.00     0.079 A 
HETATM    9  C8  UNL     1      27.151  -0.756  52.781  1.00  0.00     0.025 A 
HETATM   10  C9  UNL     1      27.517  -2.096  52.692  1.00  0.00     0.002 A 
HETATM   11  C10 UNL     1      28.800  -2.433  53.080  1.00  0.00     0.000 A 
HETATM   12  C11 UNL     1      29.696  -1.478  53.542  1.00  0.00     0.002 A 
HETATM   13  C12 UNL     1      29.325  -0.141  53.628  1.00  0.00     0.025 A 
ENDBRANCH   5   8
ENDBRANCH   3   5
BRANCH   1  14
HETATM   14  C5  UNL     1      23.350   1.902  53.029  1.00  0.00     0.105 A 
HETATM   15  C4  UNL     1      22.600   2.717  52.013  1.00  0.00     0.048 A 
HETATM   16  C3  UNL     1      21.445   1.971  51.422  1.00  0.00     0.011 A 
HETATM   17  C2  UNL     1      20.975   0.745  51.629  1.00  0.00     0.064 A 
HETATM   18  C14 UNL     1      21.737  -0.022  52.630  1.00  0.00     0.033 A 
HETATM   19  C13 UNL     1      22.792   0.546  53.226  1.00  0.00    -0.010 A 
BRANCH  17  20
HETATM   20  O1  UNL     1      19.872   0.156  51.005  1.00  0.00    -0.356 OA
HETATM   21  C1  UNL     1      18.691  -0.010  51.750  1.00  0.00     0.210 C 
ENDBRANCH  17  20
ENDBRANCH   1  14
TORSDOF 4
ENDMDL
MODEL 4
REMARK VINA RESULT:      -7.4      2.258      6.845
REMARK  4 active torsions:
REMARK  status: ('A' for Active; 'I' for Inactive)
REMARK    1  A    between atoms: O1_2  and  C2_3 
REMARK    2  A    between atoms: C5_6  and  C6_7 
REMARK       I    between atoms: C6_7  and  N1_9 
REMARK    3  A    between atoms: N1_9  and  S1_10 
REMARK    4  A    between atoms: S1_10  and  C7_13 
ROOT
HETATM    1  C6  UNL     1      24.617   2.299  52.322  1.00  0.00     0.239 C 
HETATM    2  O2  UNL     1      23.404   2.304  51.971  1.00  0.00    -0.272 OA
HETATM    3  N1  UNL     1      25.426   3.199  51.573  1.00  0.00    -0.250 N 
HETATM    4  H8  UNL     1      26.464   3.285  51.775  1.00  0.00     0.182 HD
ENDROOT
BRANCH   3   5
HETATM    5  S1  UNL     1      24.753   4.186  50.307  1.00  0.00     0.265 S 
HETATM    6  O3  UNL     1      24.053   3.285  49.299  1.00  0.00    -0.200 OA
HETATM    7  O4  UNL     1      23.731   5.138  50.800  1.00  0.00    -0.200 OA
BRANCH   5   8
HETATM    8  C7  UNL     1      26.015   5.009  49.439  1.00  0.00     0.079 A 
HETATM    9  C8  UNL     1      25.783   6.314  49.071  1.00  0.00     0.025 A 
HETATM   10  C9  UNL     1      26.732   7.055  48.374  1.00  0.00     0.002 A 
HETATM   11  C10 UNL     1      27.925   6.430  48.061  1.00  0.00     0.000 A 
HETATM   12  C11 UNL     1      28.174   5.113  48.425  1.00  0.00     0.002 A 
HETATM   13  C12 UNL     1      27.222   4.378  49.122  1.00  0.00     0.025 A 
ENDBRANCH   5   8
ENDBRANCH   3   5
BRANCH   1  14
HETATM   14  C5  UNL     1      25.285   1.502  53.380  1.00  0.00     0.105 A 
HETATM   15  C4  UNL     1      25.054   0.047  53.082  1.00  0.00     0.048 A 
HETATM   16  C3  UNL     1      26.331  -0.728  52.995  1.00  0.00     0.011 A 
HETATM   17  C2  UNL     1      27.604  -0.370  53.132  1.00  0.00     0.064 A 
HETATM   18  C14 UNL     1      27.789   1.062  53.423  1.00  0.00     0.033 A 
HETATM   19  C13 UNL     1      26.715   1.855  53.524  1.00  0.00    -0.010 A 
BRANCH  17  20
HETATM   20  O1  UNL     1      28.722  -1.201  53.025  1.00  0.00    -0.356 OA
HETATM   21  C1  UNL     1      29.892  -0.841  53.718  1.00  0.00     0.210 C 
ENDBRANCH  17  20
ENDBRANCH   1  14
TORSDOF 4
ENDMDL
MODEL 5
REMARK VINA RESULT:      -7.2      2.885      3.659
REMARK  4 active torsions:
REMARK  status: ('A' for Active; 'I' for Inactive)
REMARK    1  A    between atoms: O1_2  and  C2_3 
REMARK    2  A    between atoms: C5_6  and  C6_7 
REMARK       I    between atoms: C6_7  and  N1_9 
REMARK    3  A    between atoms: N1_9  and  S1_10 
REMARK    4  A    between atoms: S1_10  and  C7_13 
ROOT
HETATM    1  C6  UNL     1      26.277   2.872  50.674  1.00  0.00     0.239 C 
HETATM    2  O2  UNL     1      27.316   2.779  51.387  1.00  0.00    -0.272 OA
HETATM    3  N1  UNL     1      25.141   2.234  51.244  1.00  0.00    -0.250 N 
HETATM    4  H8  UNL     1      24.208   2.244  50.739  1.00  0.00     0.182 HD
ENDROOT
BRANCH   3   5
HETATM    5  S1  UNL     1      25.233   1.417  52.778  1.00  0.00     0.265 S 
HETATM    6  O3  UNL     1      26.194   0.242  52.655  1.00  0.00    -0.200 OA
HETATM    7  O4  UNL     1      25.760   2.280  53.860  1.00  0.00    -0.200 OA
BRANCH   5   8
HETATM    8  C7  UNL     1      23.688   0.744  53.205  1.00  0.00     0.079 A 
HETATM    9  C8  UNL     1      23.684  -0.454  53.880  1.00  0.00     0.025 A 
HETATM   10  C9  UNL     1      22.496  -1.070  54.265  1.00  0.00     0.002 A 
HETATM   11  C10 UNL     1      21.313  -0.432  53.943  1.00  0.00     0.000 A 
HETATM   12  C11 UNL     1      21.301   0.777  53.261  1.00  0.00     0.002 A 
HETATM   13  C12 UNL     1      22.490   1.389  52.880  1.00  0.00     0.025 A 
ENDBRANCH   5   8
ENDBRANCH   3   5
BRANCH   1  14
HETATM   14  C5  UNL     1      26.096   3.542  49.362  1.00  0.00     0.105 A 
HETATM   15  C4  UNL     1      24.856   4.388  49.439  1.00  0.00     0.048 A 
HETATM   16  C3  UNL     1      25.117   5.817  49.082  1.00  0.00     0.011 A 
HETATM   17  C2  UNL     1      26.222   6.459  48.717  1.00  0.00     0.064 A 
HETATM   18  C14 UNL     1      27.415   5.597  48.653  1.00  0.00     0.033 A 
HETATM   19  C13 UNL     1      27.301   4.297  48.952  1.00  0.00    -0.010 A 
BRANCH  17  20
HETATM   20  O1  UNL     1      26.336   7.816  48.405  1.00  0.00    -0.356 OA
HETATM   21  C1  UNL     1      27.344   8.566  49.038  1.00  0.00     0.210 C 
ENDBRANCH  17  20
ENDBRANCH   1  14
TORSDOF 4
ENDMDL
MODEL 6
REMARK VINA RESULT:      -7.1      3.096      6.991
REMARK  4 active torsions:
REMARK  status: ('A' for Active; 'I' for Inactive)
REMARK    1  A    between atoms: O1_2  and  C2_3 
REMARK    2  A    between atoms: C5_6  and  C6_7 
REMARK       I    between atoms: C6_7  and  N1_9 
REMARK    3  A    between atoms: N1_9  and  S1_10 
REMARK    4  A    between atoms: S1_10  and  C7_13 
ROOT
HETATM    1  C6  UNL     1      26.405   2.437  51.279  1.00  0.00     0.239 C 
HETATM    2  O2  UNL     1      26.616   2.736  50.070  1.00  0.00    -0.272 OA
HETATM    3  N1  UNL     1      25.316   3.148  51.855  1.00  0.00    -0.250 N 
HETATM    4  H8  UNL     1      25.040   2.984  52.867  1.00  0.00     0.182 HD
ENDROOT
BRANCH   3   5
HETATM    5  S1  UNL     1      24.398   4.306  50.935  1.00  0.00     0.265 S 
HETATM    6  O3  UNL     1      23.463   5.053  51.876  1.00  0.00    -0.200 OA
HETATM    7  O4  UNL     1      25.248   5.331  50.286  1.00  0.00    -0.200 OA
BRANCH   5   8
HETATM    8  C7  UNL     1      23.387   3.500  49.774  1.00  0.00     0.079 A 
HETATM    9  C8  UNL     1      23.119   4.163  48.599  1.00  0.00     0.025 A 
HETATM   10  C9  UNL     1      22.320   3.599  47.608  1.00  0.00     0.002 A 
HETATM   11  C10 UNL     1      21.801   2.340  47.848  1.00  0.00     0.000 A 
HETATM   12  C11 UNL     1      22.062   1.658  49.029  1.00  0.00     0.002 A 
HETATM   13  C12 UNL     1      22.862   2.226  50.015  1.00  0.00     0.025 A 
ENDBRANCH   5   8
ENDBRANCH   3   5
BRANCH   1  14
HETATM   14  C5  UNL     1      27.124   1.471  52.147  1.00  0.00     0.105 A 
HETATM   15  C4  UNL     1      27.117   2.012  53.549  1.00  0.00     0.048 A 
HETATM   16  C3  UNL     1      26.544   1.041  54.533  1.00  0.00     0.011 A 
HETATM   17  C2  UNL     1      26.051  -0.186  54.393  1.00  0.00     0.064 A 
HETATM   18  C14 UNL     1      26.074  -0.680  53.005  1.00  0.00     0.033 A 
HETATM   19  C13 UNL     1      26.566   0.105  52.039  1.00  0.00    -0.010 A 
BRANCH  17  20
HETATM   20  O1  UNL     1      25.538  -1.000  55.405  1.00  0.00    -0.356 OA
HETATM   21  C1  UNL     1      24.163  -1.295  55.395  1.00  0.00     0.210 C 
ENDBRANCH  17  20
ENDBRANCH   1  14
TORSDOF 4
ENDMDL
MODEL 7
REMARK VINA RESULT:      -6.8      4.638      6.408
REMARK  4 active torsions:
REMARK  status: ('A' for Active; 'I' for Inactive)
REMARK    1  A    between atoms: O1_2  and  C2_3 
REMARK    2  A    between atoms: C5_6  and  C6_7 
REMARK       I    between atoms: C6_7  and  N1_9 
REMARK    3  A    between atoms: N1_9  and  S1_10 
REMARK    4  A    between atoms: S1_10  and  C7_13 
ROOT
HETATM    1  C6  UNL     1      22.791   1.246  52.073  1.00  0.00     0.239 C 
HETATM    2  O2  UNL     1      22.556   2.479  52.218  1.00  0.00    -0.272 OA
HETATM    3  N1  UNL     1      24.159   0.905  52.261  1.00  0.00    -0.250 N 
HETATM    4  H8  UNL     1      24.482  -0.101  52.165  1.00  0.00     0.182 HD
ENDROOT
BRANCH   3   5
HETATM    5  S1  UNL     1      25.351   2.113  52.650  1.00  0.00     0.265 S 
HETATM    6  O3  UNL     1      25.617   2.960  51.414  1.00  0.00    -0.200 OA
HETATM    7  O4  UNL     1      24.901   3.046  53.709  1.00  0.00    -0.200 OA
BRANCH   5   8
HETATM    8  C7  UNL     1      26.863   1.366  53.069  1.00  0.00     0.079 A 
HETATM    9  C8  UNL     1      27.849   2.176  53.582  1.00  0.00     0.025 A 
HETATM   10  C9  UNL     1      29.094   1.670  53.947  1.00  0.00     0.002 A 
HETATM   11  C10 UNL     1      29.306   0.314  53.775  1.00  0.00     0.000 A 
HETATM   12  C11 UNL     1      28.321  -0.517  53.258  1.00  0.00     0.002 A 
HETATM   13  C12 UNL     1      27.079  -0.005  52.896  1.00  0.00     0.025 A 
ENDBRANCH   5   8
ENDBRANCH   3   5
BRANCH   1  14
HETATM   14  C5  UNL     1      21.853   0.144  51.744  1.00  0.00     0.105 A 
HETATM   15  C4  UNL     1      21.269  -0.368  53.030  1.00  0.00     0.048 A 
HETATM   16  C3  UNL     1      19.772  -0.345  53.027  1.00  0.00     0.011 A 
HETATM   17  C2  UNL     1      18.887   0.038  52.112  1.00  0.00     0.064 A 
HETATM   18  C14 UNL     1      19.499   0.534  50.867  1.00  0.00     0.033 A 
HETATM   19  C13 UNL     1      20.832   0.559  50.756  1.00  0.00    -0.010 A 
BRANCH  17  20
HETATM   20  O1  UNL     1      17.496   0.010  52.233  1.00  0.00    -0.356 OA
HETATM   21  C1  UNL     1      16.909  -1.032  52.973  1.00  0.00     0.210 C 
ENDBRANCH  17  20
ENDBRANCH   1  14
TORSDOF 4
ENDMDL
MODEL 8
REMARK VINA RESULT:      -6.5      3.110      7.428
REMARK  4 active torsions:
REMARK  status: ('A' for Active; 'I' for Inactive)
REMARK    1  A    between atoms: O1_2  and  C2_3 
REMARK    2  A    between atoms: C5_6  and  C6_7 
REMARK       I    between atoms: C6_7  and  N1_9 
REMARK    3  A    between atoms: N1_9  and  S1_10 
REMARK    4  A    between atoms: S1_10  and  C7_13 
ROOT
HETATM    1  C6  UNL     1      24.501   1.928  52.474  1.00  0.00     0.239 C 
HETATM    2  O2  UNL     1      24.382   2.909  53.262  1.00  0.00    -0.272 OA
HETATM    3  N1  UNL     1      24.039   2.202  51.158  1.00  0.00    -0.250 N 
HETATM    4  H8  UNL     1      24.086   1.456  50.404  1.00  0.00     0.182 HD
ENDROOT
BRANCH   3   5
HETATM    5  S1  UNL     1      23.382   3.757  50.730  1.00  0.00     0.265 S 
HETATM    6  O3  UNL     1      22.142   4.016  51.574  1.00  0.00    -0.200 OA
HETATM    7  O4  UNL     1      24.317   4.872  51.004  1.00  0.00    -0.200 OA
BRANCH   5   8
HETATM    8  C7  UNL     1      22.859   3.764  49.072  1.00  0.00     0.079 A 
HETATM    9  C8  UNL     1      22.785   4.982  48.438  1.00  0.00     0.025 A 
HETATM   10  C9  UNL     1      22.378   5.090  47.111  1.00  0.00     0.002 A 
HETATM   11  C10 UNL     1      22.048   3.922  46.449  1.00  0.00     0.000 A 
HETATM   12  C11 UNL     1      22.117   2.685  47.076  1.00  0.00     0.002 A 
HETATM   13  C12 UNL     1      22.526   2.584  48.401  1.00  0.00     0.025 A 
ENDBRANCH   5   8
ENDBRANCH   3   5
BRANCH   1  14
HETATM   14  C5  UNL     1      25.044   0.572  52.738  1.00  0.00     0.105 A 
HETATM   15  C4  UNL     1      26.260   0.383  51.876  1.00  0.00     0.048 A 
HETATM   16  C3  UNL     1      27.470   0.005  52.670  1.00  0.00     0.011 A 
HETATM   17  C2  UNL     1      27.659  -0.190  53.972  1.00  0.00     0.064 A 
HETATM   18  C14 UNL     1      26.445   0.006  54.783  1.00  0.00     0.033 A 
HETATM   19  C13 UNL     1      25.300   0.346  54.178  1.00  0.00    -0.010 A 
BRANCH  17  20
HETATM   20  O1  UNL     1      28.856  -0.545  54.598  1.00  0.00    -0.356 OA
HETATM   21  C1  UNL     1      29.928  -0.977  53.797  1.00  0.00     0.210 C 
ENDBRANCH  17  20
ENDBRANCH   1  14
TORSDOF 4
ENDMDL
MODEL 9
REMARK VINA RESULT:      -6.5      4.136      5.013
REMARK  4 active torsions:
REMARK  status: ('A' for Active; 'I' for Inactive)
REMARK    1  A    between atoms: O1_2  and  C2_3 
REMARK    2  A    between atoms: C5_6  and  C6_7 
REMARK       I    between atoms: C6_7  and  N1_9 
REMARK    3  A    between atoms: N1_9  and  S1_10 
REMARK    4  A    between atoms: S1_10  and  C7_13 
ROOT
HETATM    1  C6  UNL     1      22.558   2.373  49.740  1.00  0.00     0.239 C 
HETATM    2  O2  UNL     1      21.985   1.293  49.421  1.00  0.00    -0.272 OA
HETATM    3  N1  UNL     1      22.096   2.917  50.970  1.00  0.00    -0.250 N 
HETATM    4  H8  UNL     1      22.502   3.823  51.345  1.00  0.00     0.182 HD
ENDROOT
BRANCH   3   5
HETATM    5  S1  UNL     1      20.857   2.127  51.904  1.00  0.00     0.265 S 
HETATM    6  O3  UNL     1      20.186   3.157  52.803  1.00  0.00    -0.200 OA
HETATM    7  O4  UNL     1      19.787   1.542  51.064  1.00  0.00    -0.200 OA
BRANCH   5   8
HETATM    8  C7  UNL     1      21.554   0.934  52.958  1.00  0.00     0.079 A 
HETATM    9  C8  UNL     1      22.875   0.605  52.755  1.00  0.00     0.025 A 
HETATM   10  C9  UNL     1      23.521  -0.339  53.548  1.00  0.00     0.002 A 
HETATM   11  C10 UNL     1      22.784  -0.940  54.553  1.00  0.00     0.000 A 
HETATM   12  C11 UNL     1      21.451  -0.619  54.769  1.00  0.00     0.002 A 
HETATM   13  C12 UNL     1      20.811   0.325  53.974  1.00  0.00     0.025 A 
ENDBRANCH   5   8
ENDBRANCH   3   5
BRANCH   1  14
HETATM   14  C5  UNL     1      23.618   3.122  49.019  1.00  0.00     0.105 A 
HETATM   15  C4  UNL     1      23.063   4.468  48.646  1.00  0.00     0.048 A 
HETATM   16  C3  UNL     1      23.912   5.594  49.149  1.00  0.00     0.011 A 
HETATM   17  C2  UNL     1      25.041   5.617  49.849  1.00  0.00     0.064 A 
HETATM   18  C14 UNL     1      25.552   4.279  50.195  1.00  0.00     0.033 A 
HETATM   19  C13 UNL     1      24.874   3.196  49.797  1.00  0.00    -0.010 A 
BRANCH  17  20
HETATM   20  O1  UNL     1      25.745   6.751  50.262  1.00  0.00    -0.356 OA
HETATM   21  C1  UNL     1      25.899   7.812  49.351  1.00  0.00     0.210 C 
ENDBRANCH  17  20
ENDBRANCH   1  14
TORSDOF 4
ENDMDL
