MODEL 1
REMARK VINA RESULT:      -8.3      0.000      0.000
REMARK  7 active torsions:
REMARK  status: ('A' for Active; 'I' for Inactive)
REMARK    1  A    between atoms: C2_2  and  C3_3 
REMARK    2  A    between atoms: C2_2  and  C8_10 
REMARK    3  A    between atoms: C3_3  and  N1_4 
REMARK       I    between atoms: C8_10  and  N2_12 
REMARK    4  A    between atoms: N2_12  and  C9_13 
REMARK    5  A    between atoms: C16_22  and  N5_23 
REMARK    6  A    between atoms: N5_23  and  C17_24 
REMARK    7  A    between atoms: C17_24  and  C18_25 
ROOT
HETATM    1  C9  UNL     1      23.333   3.291  51.151  1.00  0.00     0.036 A 
HETATM    2  C10 UNL     1      22.020   3.668  51.350  1.00  0.00     0.032 A 
HETATM    3  C11 UNL     1      21.657   4.995  51.231  1.00  0.00     0.035 A 
HETATM    4  C12 UNL     1      22.669   5.877  50.912  1.00  0.00     0.069 A 
HETATM    5  N3  UNL     1      22.281   7.178  50.801  1.00  0.00    -0.259 NA
HETATM    6  C13 UNL     1      23.174   8.133  50.493  1.00  0.00     0.142 A 
HETATM    7  C14 UNL     1      24.506   7.853  50.277  1.00  0.00     0.089 A 
HETATM    8  C15 UNL     1      25.472   8.851  49.950  1.00  0.00     0.103 C 
HETATM    9  N4  UNL     1      26.271   9.656  49.669  1.00  0.00    -0.191 NA
HETATM   10  C16 UNL     1      24.904   6.539  50.388  1.00  0.00     0.063 A 
HETATM   11  C20 UNL     1      23.996   5.547  50.703  1.00  0.00     0.023 A 
HETATM   12  C21 UNL     1      24.318   4.212  50.831  1.00  0.00     0.045 A 
ENDROOT
BRANCH  10  13
HETATM   13  N5  UNL     1      26.245   6.107  50.191  1.00  0.00    -0.384 N 
HETATM   14  H17 UNL     1      26.813   6.201  51.044  1.00  0.00     0.160 HD
BRANCH  13  15
HETATM   15  C17 UNL     1      26.406   5.653  48.811  1.00  0.00     0.149 C 
BRANCH  15  16
HETATM   16  C18 UNL     1      27.763   6.027  48.301  1.00  0.00     0.022 C 
HETATM   17  C19 UNL     1      29.013   5.584  48.326  1.00  0.00     0.186 C 
HETATM   18  F1  UNL     1      30.125   6.149  47.746  1.00  0.00    -0.220 F 
ENDBRANCH  15  16
ENDBRANCH  13  15
ENDBRANCH  10  13
BRANCH   1  19
HETATM   19  N2  UNL     1      23.621   1.907  51.292  1.00  0.00    -0.323 N 
HETATM   20  C8  UNL     1      24.192   1.731  52.583  1.00  0.00     0.253 C 
HETATM   21  O2  UNL     1      24.407   2.644  53.451  1.00  0.00    -0.268 OA
HETATM   22  H13 UNL     1      23.591   0.962  50.850  1.00  0.00     0.169 HD
BRANCH  20  23
HETATM   23  C2  UNL     1      24.700   0.596  53.348  1.00  0.00     0.029 C 
HETATM   24  C1  UNL     1      23.801  -0.377  53.384  1.00  0.00     0.026 C 
BRANCH  23  25
HETATM   25  C3  UNL     1      26.049   0.691  53.933  1.00  0.00     0.316 C 
BRANCH  25  26
HETATM   26  N1  UNL     1      27.109   0.595  52.981  1.00  0.00     0.096 N 
HETATM   27  C4  UNL     1      28.091  -0.396  53.370  1.00  0.00     0.299 C 
HETATM   28  C5  UNL     1      28.861   0.044  54.573  1.00  0.00     0.198 C 
HETATM   29  O1  UNL     1      28.749   1.375  54.881  1.00  0.00    -0.388 OA
HETATM   30  C6  UNL     1      28.685   2.241  53.818  1.00  0.00     0.198 C 
HETATM   31  C7  UNL     1      27.773   1.830  52.710  1.00  0.00     0.299 C 
ENDBRANCH  25  26
ENDBRANCH  23  25
ENDBRANCH  20  23
ENDBRANCH   1  19
TORSDOF 7
ENDMDL
MODEL 2
REMARK VINA RESULT:      -8.0      3.410      6.741
REMARK  7 active torsions:
REMARK  status: ('A' for Active; 'I' for Inactive)
REMARK    1  A    between atoms: C2_2  and  C3_3 
REMARK    2  A    between atoms: C2_2  and  C8_10 
REMARK    3  A    between atoms: C3_3  and  N1_4 
REMARK       I    between atoms: C8_10  and  N2_12 
REMARK    4  A    between atoms: N2_12  and  C9_13 
REMARK    5  A    between atoms: C16_22  and  N5_23 
REMARK    6  A    between atoms: N5_23  and  C17_24 
REMARK    7  A    between atoms: C17_24  and  C18_25 
ROOT
HETATM    1  C9  UNL     1      22.217   0.507  53.312  1.00  0.00     0.036 A 
HETATM    2  C10 UNL     1      22.349  -0.659  54.040  1.00  0.00     0.032 A 
HETATM    3  C11 UNL     1      23.593  -1.052  54.492  1.00  0.00     0.035 A 
HETATM    4  C12 UNL     1      24.648  -0.222  54.172  1.00  0.00     0.069 A 
HETATM    5  N3  UNL     1      25.862  -0.635  54.632  1.00  0.00    -0.259 NA
HETATM    6  C13 UNL     1      26.967   0.087  54.387  1.00  0.00     0.142 A 
HETATM    7  C14 UNL     1      26.933   1.264  53.669  1.00  0.00     0.089 A 
HETATM    8  C15 UNL     1      28.094   2.048  53.396  1.00  0.00     0.103 C 
HETATM    9  N4  UNL     1      29.034   2.704  53.176  1.00  0.00    -0.191 NA
HETATM   10  C16 UNL     1      25.708   1.686  53.202  1.00  0.00     0.063 A 
HETATM   11  C20 UNL     1      24.564   0.953  53.447  1.00  0.00     0.023 A 
HETATM   12  C21 UNL     1      23.304   1.311  53.014  1.00  0.00     0.045 A 
ENDROOT
BRANCH  10  13
HETATM   13  N5  UNL     1      25.526   2.879  52.449  1.00  0.00    -0.384 N 
HETATM   14  H17 UNL     1      25.550   3.721  53.040  1.00  0.00     0.160 HD
BRANCH  13  15
HETATM   15  C17 UNL     1      25.361   2.535  51.037  1.00  0.00     0.149 C 
BRANCH  15  16
HETATM   16  C18 UNL     1      26.462   3.146  50.226  1.00  0.00     0.022 C 
HETATM   17  C19 UNL     1      26.649   4.108  49.333  1.00  0.00     0.186 C 
HETATM   18  F1  UNL     1      27.822   4.477  48.718  1.00  0.00    -0.220 F 
ENDBRANCH  15  16
ENDBRANCH  13  15
ENDBRANCH  10  13
BRANCH   1  19
HETATM   19  N2  UNL     1      20.903   0.838  52.885  1.00  0.00    -0.323 N 
HETATM   20  C8  UNL     1      20.898   0.771  51.463  1.00  0.00     0.253 C 
HETATM   21  O2  UNL     1      21.888   0.470  50.713  1.00  0.00    -0.268 OA
HETATM   22  H13 UNL     1      19.936   1.110  53.171  1.00  0.00     0.169 HD
BRANCH  20  23
HETATM   23  C2  UNL     1      19.904   0.985  50.416  1.00  0.00     0.029 C 
HETATM   24  C1  UNL     1      18.687   0.733  50.876  1.00  0.00     0.026 C 
BRANCH  23  25
HETATM   25  C3  UNL     1      20.367   1.421  49.088  1.00  0.00     0.316 C 
BRANCH  25  26
HETATM   26  N1  UNL     1      20.112   2.796  48.800  1.00  0.00     0.096 N 
HETATM   27  C4  UNL     1      20.467   3.134  47.437  1.00  0.00     0.299 C 
HETATM   28  C5  UNL     1      21.948   3.095  47.234  1.00  0.00     0.198 C 
HETATM   29  O1  UNL     1      22.692   3.081  48.384  1.00  0.00    -0.388 OA
HETATM   30  C6  UNL     1      22.215   3.836  49.425  1.00  0.00     0.198 C 
HETATM   31  C7  UNL     1      20.751   3.714  49.689  1.00  0.00     0.299 C 
ENDBRANCH  25  26
ENDBRANCH  23  25
ENDBRANCH  20  23
ENDBRANCH   1  19
TORSDOF 7
ENDMDL
MODEL 3
REMARK VINA RESULT:      -7.9      3.891      6.639
REMARK  7 active torsions:
REMARK  status: ('A' for Active; 'I' for Inactive)
REMARK    1  A    between atoms: C2_2  and  C3_3 
REMARK    2  A    between atoms: C2_2  and  C8_10 
REMARK    3  A    between atoms: C3_3  and  N1_4 
REMARK       I    between atoms: C8_10  and  N2_12 
REMARK    4  A    between atoms: N2_12  and  C9_13 
REMARK    5  A    between atoms: C16_22  and  N5_23 
REMARK    6  A    between atoms: N5_23  and  C17_24 
REMARK    7  A    between atoms: C17_24  and  C18_25 
ROOT
HETATM    1  C9  UNL     1      22.966   3.318  52.547  1.00  0.00     0.036 A 
HETATM    2  C10 UNL     1      22.479   4.565  52.206  1.00  0.00     0.032 A 
HETATM    3  C11 UNL     1      21.163   4.709  51.816  1.00  0.00     0.035 A 
HETATM    4  C12 UNL     1      20.405   3.556  51.794  1.00  0.00     0.069 A 
HETATM    5  N3  UNL     1      19.110   3.729  51.406  1.00  0.00    -0.259 NA
HETATM    6  C13 UNL     1      18.270   2.684  51.345  1.00  0.00     0.142 A 
HETATM    7  C14 UNL     1      18.665   1.402  51.666  1.00  0.00     0.089 A 
HETATM    8  C15 UNL     1      17.790   0.276  51.607  1.00  0.00     0.103 C 
HETATM    9  N4  UNL     1      17.082  -0.652  51.575  1.00  0.00    -0.191 NA
HETATM   10  C16 UNL     1      19.973   1.222  52.059  1.00  0.00     0.063 A 
HETATM   11  C20 UNL     1      20.847   2.288  52.126  1.00  0.00     0.023 A 
HETATM   12  C21 UNL     1      22.168   2.187  52.511  1.00  0.00     0.045 A 
ENDROOT
BRANCH  10  13
HETATM   13  N5  UNL     1      20.515  -0.044  52.417  1.00  0.00    -0.384 N 
HETATM   14  H17 UNL     1      21.105  -0.440  51.673  1.00  0.00     0.160 HD
BRANCH  13  15
HETATM   15  C17 UNL     1      20.059  -0.398  53.761  1.00  0.00     0.149 C 
BRANCH  15  16
HETATM   16  C18 UNL     1      21.160  -1.079  54.514  1.00  0.00     0.022 C 
HETATM   17  C19 UNL     1      22.453  -0.936  54.769  1.00  0.00     0.186 C 
HETATM   18  F1  UNL     1      23.262  -1.747  55.531  1.00  0.00    -0.220 F 
ENDBRANCH  15  16
ENDBRANCH  13  15
ENDBRANCH  10  13
BRANCH   1  19
HETATM   19  N2  UNL     1      24.331   3.259  52.936  1.00  0.00    -0.323 N 
HETATM   20  C8  UNL     1      25.064   2.788  51.811  1.00  0.00     0.253 C 
HETATM   21  O2  UNL     1      24.586   2.477  50.668  1.00  0.00    -0.268 OA
HETATM   22  H13 UNL     1      25.027   3.414  53.699  1.00  0.00     0.169 HD
BRANCH  20  23
HETATM   23  C2  UNL     1      26.469   2.503  51.532  1.00  0.00     0.029 C 
HETATM   24  C1  UNL     1      26.747   2.751  50.261  1.00  0.00     0.026 C 
BRANCH  23  25
HETATM   25  C3  UNL     1      27.317   2.012  52.632  1.00  0.00     0.316 C 
BRANCH  25  26
HETATM   26  N1  UNL     1      27.542   0.602  52.613  1.00  0.00     0.096 N 
HETATM   27  C4  UNL     1      26.376  -0.134  53.056  1.00  0.00     0.299 C 
HETATM   28  C5  UNL     1      26.126   0.070  54.516  1.00  0.00     0.198 C 
HETATM   29  O1  UNL     1      27.173   0.611  55.215  1.00  0.00    -0.388 OA
HETATM   30  C6  UNL     1      28.429   0.206  54.838  1.00  0.00     0.198 C 
HETATM   31  C7  UNL     1      28.678   0.175  53.367  1.00  0.00     0.299 C 
ENDBRANCH  25  26
ENDBRANCH  23  25
ENDBRANCH  20  23
ENDBRANCH   1  19
TORSDOF 7
ENDMDL
MODEL 4
REMARK VINA RESULT:      -7.9      3.919      7.567
REMARK  7 active torsions:
REMARK  status: ('A' for Active; 'I' for Inactive)
REMARK    1  A    between atoms: C2_2  and  C3_3 
REMARK    2  A    between atoms: C2_2  and  C8_10 
REMARK    3  A    between atoms: C3_3  and  N1_4 
REMARK       I    between atoms: C8_10  and  N2_12 
REMARK    4  A    between atoms: N2_12  and  C9_13 
REMARK    5  A    between atoms: C16_22  and  N5_23 
REMARK    6  A    between atoms: N5_23  and  C17_24 
REMARK    7  A    between atoms: C17_24  and  C18_25 
ROOT
HETATM    1  C9  UNL     1      22.278   0.794  51.785  1.00  0.00     0.036 A 
HETATM    2  C10 UNL     1      22.073  -0.334  52.554  1.00  0.00     0.032 A 
HETATM    3  C11 UNL     1      23.056  -0.765  53.423  1.00  0.00     0.035 A 
HETATM    4  C12 UNL     1      24.210  -0.009  53.459  1.00  0.00     0.069 A 
HETATM    5  N3  UNL     1      25.161  -0.458  54.325  1.00  0.00    -0.259 NA
HETATM    6  C13 UNL     1      26.329   0.192  54.453  1.00  0.00     0.142 A 
HETATM    7  C14 UNL     1      26.624   1.328  53.727  1.00  0.00     0.089 A 
HETATM    8  C15 UNL     1      27.858   2.034  53.846  1.00  0.00     0.103 C 
HETATM    9  N4  UNL     1      28.859   2.628  53.942  1.00  0.00    -0.191 NA
HETATM   10  C16 UNL     1      25.665   1.785  52.850  1.00  0.00     0.063 A 
HETATM   11  C20 UNL     1      24.460   1.126  52.709  1.00  0.00     0.023 A 
HETATM   12  C21 UNL     1      23.453   1.523  51.854  1.00  0.00     0.045 A 
ENDROOT
BRANCH  10  13
HETATM   13  N5  UNL     1      25.835   2.941  52.039  1.00  0.00    -0.384 N 
HETATM   14  H17 UNL     1      25.471   3.791  52.491  1.00  0.00     0.160 HD
BRANCH  13  15
HETATM   15  C17 UNL     1      26.488   2.559  50.788  1.00  0.00     0.149 C 
BRANCH  15  16
HETATM   16  C18 UNL     1      26.414   3.685  49.804  1.00  0.00     0.022 C 
HETATM   17  C19 UNL     1      27.216   4.449  49.075  1.00  0.00     0.186 C 
HETATM   18  F1  UNL     1      26.868   5.460  48.210  1.00  0.00    -0.220 F 
ENDBRANCH  15  16
ENDBRANCH  13  15
ENDBRANCH  10  13
BRANCH   1  19
HETATM   19  N2  UNL     1      21.216   1.167  50.917  1.00  0.00    -0.323 N 
HETATM   20  C8  UNL     1      20.255   1.856  51.709  1.00  0.00     0.253 C 
HETATM   21  O2  UNL     1      20.332   2.094  52.962  1.00  0.00    -0.268 OA
HETATM   22  H13 UNL     1      20.840   1.151  49.944  1.00  0.00     0.169 HD
BRANCH  20  23
HETATM   23  C2  UNL     1      18.964   2.490  51.457  1.00  0.00     0.029 C 
HETATM   24  C1  UNL     1      19.123   3.781  51.205  1.00  0.00     0.026 C 
BRANCH  23  25
HETATM   25  C3  UNL     1      17.750   1.657  51.518  1.00  0.00     0.316 C 
BRANCH  25  26
HETATM   26  N1  UNL     1      17.960   0.289  51.163  1.00  0.00     0.096 N 
HETATM   27  C4  UNL     1      17.137  -0.105  50.038  1.00  0.00     0.299 C 
HETATM   28  C5  UNL     1      15.690  -0.151  50.411  1.00  0.00     0.198 C 
HETATM   29  O1  UNL     1      15.436  -0.145  51.758  1.00  0.00    -0.388 OA
HETATM   30  C6  UNL     1      16.316  -0.844  52.545  1.00  0.00     0.198 C 
HETATM   31  C7  UNL     1      17.761  -0.636  52.233  1.00  0.00     0.299 C 
ENDBRANCH  25  26
ENDBRANCH  23  25
ENDBRANCH  20  23
ENDBRANCH   1  19
TORSDOF 7
ENDMDL
MODEL 5
REMARK VINA RESULT:      -7.8      3.148      6.950
REMARK  7 active torsions:
REMARK  status: ('A' for Active; 'I' for Inactive)
REMARK    1  A    between atoms: C2_2  and  C3_3 
REMARK    2  A    between atoms: C2_2  and  C8_10 
REMARK    3  A    between atoms: C3_3  and  N1_4 
REMARK       I    between atoms: C8_10  and  N2_12 
REMARK    4  A    between atoms: N2_12  and  C9_13 
REMARK    5  A    between atoms: C16_22  and  N5_23 
REMARK    6  A    between atoms: N5_23  and  C17_24 
REMARK    7  A    between atoms: C17_24  and  C18_25 
ROOT
HETATM    1  C9  UNL     1      24.930   5.085  49.663  1.00  0.00     0.036 A 
HETATM    2  C10 UNL     1      23.839   4.818  48.861  1.00  0.00     0.032 A 
HETATM    3  C11 UNL     1      23.064   3.700  49.098  1.00  0.00     0.035 A 
HETATM    4  C12 UNL     1      23.453   2.904  50.156  1.00  0.00     0.069 A 
HETATM    5  N3  UNL     1      22.671   1.808  50.365  1.00  0.00    -0.259 NA
HETATM    6  C13 UNL     1      22.945   0.955  51.366  1.00  0.00     0.142 A 
HETATM    7  C14 UNL     1      24.013   1.138  52.218  1.00  0.00     0.089 A 
HETATM    8  C15 UNL     1      24.323   0.244  53.287  1.00  0.00     0.103 C 
HETATM    9  N4  UNL     1      24.582  -0.472  54.172  1.00  0.00    -0.191 NA
HETATM   10  C16 UNL     1      24.807   2.244  52.010  1.00  0.00     0.063 A 
HETATM   11  C20 UNL     1      24.537   3.130  50.986  1.00  0.00     0.023 A 
HETATM   12  C21 UNL     1      25.284   4.257  50.716  1.00  0.00     0.045 A 
ENDROOT
BRANCH  10  13
HETATM   13  N5  UNL     1      25.940   2.556  52.812  1.00  0.00    -0.384 N 
HETATM   14  H17 UNL     1      25.683   3.064  53.668  1.00  0.00     0.160 HD
BRANCH  13  15
HETATM   15  C17 UNL     1      27.145   2.047  52.159  1.00  0.00     0.149 C 
BRANCH  15  16
HETATM   16  C18 UNL     1      27.971   1.270  53.136  1.00  0.00     0.022 C 
HETATM   17  C19 UNL     1      27.881   0.754  54.355  1.00  0.00     0.186 C 
HETATM   18  F1  UNL     1      28.837   0.051  55.051  1.00  0.00    -0.220 F 
ENDBRANCH  15  16
ENDBRANCH  13  15
ENDBRANCH  10  13
BRANCH   1  19
HETATM   19  N2  UNL     1      25.672   6.256  49.350  1.00  0.00    -0.323 N 
HETATM   20  C8  UNL     1      26.877   5.830  48.726  1.00  0.00     0.253 C 
HETATM   21  O2  UNL     1      27.227   4.623  48.491  1.00  0.00    -0.268 OA
HETATM   22  H13 UNL     1      25.709   7.299  49.384  1.00  0.00     0.169 HD
BRANCH  20  23
HETATM   23  C2  UNL     1      28.051   6.496  48.171  1.00  0.00     0.029 C 
HETATM   24  C1  UNL     1      27.731   7.703  47.726  1.00  0.00     0.026 C 
BRANCH  23  25
HETATM   25  C3  UNL     1      29.337   5.778  48.183  1.00  0.00     0.316 C 
BRANCH  25  26
HETATM   26  N1  UNL     1      30.472   6.603  47.915  1.00  0.00     0.096 N 
HETATM   27  C4  UNL     1      31.435   5.931  47.066  1.00  0.00     0.299 C 
HETATM   28  C5  UNL     1      32.098   4.800  47.784  1.00  0.00     0.198 C 
HETATM   29  O1  UNL     1      31.941   4.804  49.146  1.00  0.00    -0.388 OA
HETATM   30  C6  UNL     1      31.950   6.033  49.755  1.00  0.00     0.198 C 
HETATM   31  C7  UNL     1      31.137   7.089  49.082  1.00  0.00     0.299 C 
ENDBRANCH  25  26
ENDBRANCH  23  25
ENDBRANCH  20  23
ENDBRANCH   1  19
TORSDOF 7
ENDMDL
MODEL 6
REMARK VINA RESULT:      -7.7      4.541      9.017
REMARK  7 active torsions:
REMARK  status: ('A' for Active; 'I' for Inactive)
REMARK    1  A    between atoms: C2_2  and  C3_3 
REMARK    2  A    between atoms: C2_2  and  C8_10 
REMARK    3  A    between atoms: C3_3  and  N1_4 
REMARK       I    between atoms: C8_10  and  N2_12 
REMARK    4  A    between atoms: N2_12  and  C9_13 
REMARK    5  A    between atoms: C16_22  and  N5_23 
REMARK    6  A    between atoms: N5_23  and  C17_24 
REMARK    7  A    between atoms: C17_24  and  C18_25 
ROOT
HETATM    1  C9  UNL     1      20.843   0.096  52.548  1.00  0.00     0.036 A 
HETATM    2  C10 UNL     1      20.245  -0.672  53.527  1.00  0.00     0.032 A 
HETATM    3  C11 UNL     1      21.009  -1.215  54.541  1.00  0.00     0.035 A 
HETATM    4  C12 UNL     1      22.360  -0.940  54.499  1.00  0.00     0.069 A 
HETATM    5  N3  UNL     1      23.087  -1.488  55.512  1.00  0.00    -0.259 NA
HETATM    6  C13 UNL     1      24.414  -1.292  55.584  1.00  0.00     0.142 A 
HETATM    7  C14 UNL     1      25.099  -0.540  54.652  1.00  0.00     0.089 A 
HETATM    8  C15 UNL     1      26.508  -0.319  54.708  1.00  0.00     0.103 C 
HETATM    9  N4  UNL     1      27.657  -0.120  54.748  1.00  0.00    -0.191 NA
HETATM   10  C16 UNL     1      24.367   0.017  53.627  1.00  0.00     0.063 A 
HETATM   11  C20 UNL     1      23.003  -0.176  53.541  1.00  0.00     0.023 A 
HETATM   12  C21 UNL     1      22.204   0.347  52.546  1.00  0.00     0.045 A 
ENDROOT
BRANCH  10  13
HETATM   13  N5  UNL     1      24.943   0.814  52.598  1.00  0.00    -0.384 N 
HETATM   14  H17 UNL     1      25.049   0.295  51.717  1.00  0.00     0.160 HD
BRANCH  13  15
HETATM   15  C17 UNL     1      25.209   2.153  53.122  1.00  0.00     0.149 C 
BRANCH  15  16
HETATM   16  C18 UNL     1      24.436   3.173  52.344  1.00  0.00     0.022 C 
HETATM   17  C19 UNL     1      23.325   3.891  52.437  1.00  0.00     0.186 C 
HETATM   18  F1  UNL     1      22.824   4.799  51.534  1.00  0.00    -0.220 F 
ENDBRANCH  15  16
ENDBRANCH  13  15
ENDBRANCH  10  13
BRANCH   1  19
HETATM   19  N2  UNL     1      19.984   0.616  51.542  1.00  0.00    -0.323 N 
HETATM   20  C8  UNL     1      19.645   1.942  51.930  1.00  0.00     0.253 C 
HETATM   21  O2  UNL     1      20.037   2.551  52.983  1.00  0.00    -0.268 OA
HETATM   22  H13 UNL     1      19.496   0.438  50.637  1.00  0.00     0.169 HD
BRANCH  20  23
HETATM   23  C2  UNL     1      18.825   3.011  51.367  1.00  0.00     0.029 C 
HETATM   24  C1  UNL     1      19.586   4.026  50.983  1.00  0.00     0.026 C 
BRANCH  23  25
HETATM   25  C3  UNL     1      17.365   2.821  51.314  1.00  0.00     0.316 C 
BRANCH  25  26
HETATM   26  N1  UNL     1      16.616   4.037  51.294  1.00  0.00     0.096 N 
HETATM   27  C4  UNL     1      15.901   4.247  52.535  1.00  0.00     0.299 C 
HETATM   28  C5  UNL     1      14.790   3.259  52.698  1.00  0.00     0.198 C 
HETATM   29  O1  UNL     1      14.443   2.582  51.558  1.00  0.00    -0.388 OA
HETATM   30  C6  UNL     1      14.488   3.298  50.389  1.00  0.00     0.198 C 
HETATM   31  C7  UNL     1      15.700   4.148  50.203  1.00  0.00     0.299 C 
ENDBRANCH  25  26
ENDBRANCH  23  25
ENDBRANCH  20  23
ENDBRANCH   1  19
TORSDOF 7
ENDMDL
MODEL 7
REMARK VINA RESULT:      -7.7      3.987      8.456
REMARK  7 active torsions:
REMARK  status: ('A' for Active; 'I' for Inactive)
REMARK    1  A    between atoms: C2_2  and  C3_3 
REMARK    2  A    between atoms: C2_2  and  C8_10 
REMARK    3  A    between atoms: C3_3  and  N1_4 
REMARK       I    between atoms: C8_10  and  N2_12 
REMARK    4  A    between atoms: N2_12  and  C9_13 
REMARK    5  A    between atoms: C16_22  and  N5_23 
REMARK    6  A    between atoms: N5_23  and  C17_24 
REMARK    7  A    between atoms: C17_24  and  C18_25 
ROOT
HETATM    1  C9  UNL     1      24.328   3.360  50.686  1.00  0.00     0.036 A 
HETATM    2  C10 UNL     1      25.672   3.043  50.671  1.00  0.00     0.032 A 
HETATM    3  C11 UNL     1      26.138   1.976  51.414  1.00  0.00     0.035 A 
HETATM    4  C12 UNL     1      25.193   1.283  52.142  1.00  0.00     0.069 A 
HETATM    5  N3  UNL     1      25.682   0.235  52.864  1.00  0.00    -0.259 NA
HETATM    6  C13 UNL     1      24.861  -0.519  53.613  1.00  0.00     0.142 A 
HETATM    7  C14 UNL     1      23.506  -0.279  53.691  1.00  0.00     0.089 A 
HETATM    8  C15 UNL     1      22.616  -1.067  54.481  1.00  0.00     0.103 C 
HETATM    9  N4  UNL     1      21.874  -1.710  55.113  1.00  0.00    -0.191 NA
HETATM   10  C16 UNL     1      23.007   0.778  52.963  1.00  0.00     0.063 A 
HETATM   11  C20 UNL     1      23.839   1.562  52.188  1.00  0.00     0.023 A 
HETATM   12  C21 UNL     1      23.414   2.635  51.432  1.00  0.00     0.045 A 
ENDROOT
BRANCH  10  13
HETATM   13  N5  UNL     1      21.631   1.140  52.950  1.00  0.00    -0.384 N 
HETATM   14  H17 UNL     1      21.411   1.860  53.650  1.00  0.00     0.160 HD
BRANCH  13  15
HETATM   15  C17 UNL     1      20.940   0.361  51.922  1.00  0.00     0.149 C 
BRANCH  15  16
HETATM   16  C18 UNL     1      19.555   0.020  52.380  1.00  0.00     0.022 C 
HETATM   17  C19 UNL     1      18.934  -0.831  53.185  1.00  0.00     0.186 C 
HETATM   18  F1  UNL     1      17.585  -0.933  53.433  1.00  0.00    -0.220 F 
ENDBRANCH  15  16
ENDBRANCH  13  15
ENDBRANCH  10  13
BRANCH   1  19
HETATM   19  N2  UNL     1      23.934   4.472  49.894  1.00  0.00    -0.323 N 
HETATM   20  C8  UNL     1      23.685   5.551  50.788  1.00  0.00     0.253 C 
HETATM   21  O2  UNL     1      23.795   5.525  52.060  1.00  0.00    -0.268 OA
HETATM   22  H13 UNL     1      23.748   4.835  48.933  1.00  0.00     0.169 HD
BRANCH  20  23
HETATM   23  C2  UNL     1      23.261   6.941  50.645  1.00  0.00     0.029 C 
HETATM   24  C1  UNL     1      21.942   7.032  50.723  1.00  0.00     0.026 C 
BRANCH  23  25
HETATM   25  C3  UNL     1      24.294   7.972  50.446  1.00  0.00     0.316 C 
BRANCH  25  26
HETATM   26  N1  UNL     1      25.111   7.768  49.293  1.00  0.00     0.096 N 
HETATM   27  C4  UNL     1      26.512   7.649  49.642  1.00  0.00     0.299 C 
HETATM   28  C5  UNL     1      27.065   8.951  50.126  1.00  0.00     0.198 C 
HETATM   29  O1  UNL     1      26.292  10.049  49.852  1.00  0.00    -0.388 OA
HETATM   30  C6  UNL     1      25.640  10.047  48.644  1.00  0.00     0.198 C 
HETATM   31  C7  UNL     1      24.965   8.766  48.281  1.00  0.00     0.299 C 
ENDBRANCH  25  26
ENDBRANCH  23  25
ENDBRANCH  20  23
ENDBRANCH   1  19
TORSDOF 7
ENDMDL
MODEL 8
REMARK VINA RESULT:      -7.7      3.104      7.645
REMARK  7 active torsions:
REMARK  status: ('A' for Active; 'I' for Inactive)
REMARK    1  A    between atoms: C2_2  and  C3_3 
REMARK    2  A    between atoms: C2_2  and  C8_10 
REMARK    3  A    between atoms: C3_3  and  N1_4 
REMARK       I    between atoms: C8_10  and  N2_12 
REMARK    4  A    between atoms: N2_12  and  C9_13 
REMARK    5  A    between atoms: C16_22  and  N5_23 
REMARK    6  A    between atoms: N5_23  and  C17_24 
REMARK    7  A    between atoms: C17_24  and  C18_25 
ROOT
HETATM    1  C9  UNL     1      24.407   4.088  50.903  1.00  0.00     0.036 A 
HETATM    2  C10 UNL     1      23.289   3.641  50.228  1.00  0.00     0.032 A 
HETATM    3  C11 UNL     1      22.709   2.436  50.573  1.00  0.00     0.035 A 
HETATM    4  C12 UNL     1      23.313   1.744  51.603  1.00  0.00     0.069 A 
HETATM    5  N3  UNL     1      22.719   0.560  51.921  1.00  0.00    -0.259 NA
HETATM    6  C13 UNL     1      23.211  -0.207  52.907  1.00  0.00     0.142 A 
HETATM    7  C14 UNL     1      24.323   0.156  53.637  1.00  0.00     0.089 A 
HETATM    8  C15 UNL     1      24.864  -0.644  54.689  1.00  0.00     0.103 C 
HETATM    9  N4  UNL     1      25.310  -1.282  55.559  1.00  0.00    -0.191 NA
HETATM   10  C16 UNL     1      24.927   1.352  53.319  1.00  0.00     0.063 A 
HETATM   11  C20 UNL     1      24.431   2.151  52.308  1.00  0.00     0.023 A 
HETATM   12  C21 UNL     1      24.979   3.360  51.932  1.00  0.00     0.045 A 
ENDROOT
BRANCH  10  13
HETATM   13  N5  UNL     1      26.079   1.850  53.989  1.00  0.00    -0.384 N 
HETATM   14  H17 UNL     1      25.885   2.095  54.968  1.00  0.00     0.160 HD
BRANCH  13  15
HETATM   15  C17 UNL     1      27.208   1.857  53.059  1.00  0.00     0.149 C 
BRANCH  15  16
HETATM   16  C18 UNL     1      28.201   0.806  53.447  1.00  0.00     0.022 C 
HETATM   17  C19 UNL     1      28.555   0.086  54.503  1.00  0.00     0.186 C 
HETATM   18  F1  UNL     1      29.553  -0.857  54.591  1.00  0.00    -0.220 F 
ENDBRANCH  15  16
ENDBRANCH  13  15
ENDBRANCH  10  13
BRANCH   1  19
HETATM   19  N2  UNL     1      24.940   5.337  50.485  1.00  0.00    -0.323 N 
HETATM   20  C8  UNL     1      25.994   5.055  49.572  1.00  0.00     0.253 C 
HETATM   21  O2  UNL     1      26.388   3.898  49.199  1.00  0.00    -0.268 OA
HETATM   22  H13 UNL     1      24.886   6.377  50.562  1.00  0.00     0.169 HD
BRANCH  20  23
HETATM   23  C2  UNL     1      26.933   5.854  48.791  1.00  0.00     0.029 C 
HETATM   24  C1  UNL     1      27.998   5.134  48.469  1.00  0.00     0.026 C 
BRANCH  23  25
HETATM   25  C3  UNL     1      26.584   7.254  48.493  1.00  0.00     0.316 C 
BRANCH  25  26
HETATM   26  N1  UNL     1      26.966   8.182  49.511  1.00  0.00     0.096 N 
HETATM   27  C4  UNL     1      25.918   9.144  49.779  1.00  0.00     0.299 C 
HETATM   28  C5  UNL     1      25.731  10.081  48.629  1.00  0.00     0.198 C 
HETATM   29  O1  UNL     1      26.749  10.086  47.712  1.00  0.00    -0.388 OA
HETATM   30  C6  UNL     1      28.019   9.943  48.212  1.00  0.00     0.198 C 
HETATM   31  C7  UNL     1      28.184   8.879  49.246  1.00  0.00     0.299 C 
ENDBRANCH  25  26
ENDBRANCH  23  25
ENDBRANCH  20  23
ENDBRANCH   1  19
TORSDOF 7
ENDMDL
MODEL 9
REMARK VINA RESULT:      -7.6      3.104      6.941
REMARK  7 active torsions:
REMARK  status: ('A' for Active; 'I' for Inactive)
REMARK    1  A    between atoms: C2_2  and  C3_3 
REMARK    2  A    between atoms: C2_2  and  C8_10 
REMARK    3  A    between atoms: C3_3  and  N1_4 
REMARK       I    between atoms: C8_10  and  N2_12 
REMARK    4  A    between atoms: N2_12  and  C9_13 
REMARK    5  A    between atoms: C16_22  and  N5_23 
REMARK    6  A    between atoms: N5_23  and  C17_24 
REMARK    7  A    between atoms: C17_24  and  C18_25 
ROOT
HETATM    1  C9  UNL     1      22.410   0.670  51.933  1.00  0.00     0.036 A 
HETATM    2  C10 UNL     1      22.185  -0.444  52.717  1.00  0.00     0.032 A 
HETATM    3  C11 UNL     1      23.152  -0.869  53.607  1.00  0.00     0.035 A 
HETATM    4  C12 UNL     1      24.312  -0.122  53.647  1.00  0.00     0.069 A 
HETATM    5  N3  UNL     1      25.246  -0.565  54.535  1.00  0.00    -0.259 NA
HETATM    6  C13 UNL     1      26.418   0.078  54.669  1.00  0.00     0.142 A 
HETATM    7  C14 UNL     1      26.732   1.199  53.930  1.00  0.00     0.089 A 
HETATM    8  C15 UNL     1      27.971   1.897  54.055  1.00  0.00     0.103 C 
HETATM    9  N4  UNL     1      28.975   2.484  54.157  1.00  0.00    -0.191 NA
HETATM   10  C16 UNL     1      25.790   1.650  53.032  1.00  0.00     0.063 A 
HETATM   11  C20 UNL     1      24.582   0.999  52.884  1.00  0.00     0.023 A 
HETATM   12  C21 UNL     1      23.591   1.390  52.008  1.00  0.00     0.045 A 
ENDROOT
BRANCH  10  13
HETATM   13  N5  UNL     1      25.981   2.792  52.206  1.00  0.00    -0.384 N 
HETATM   14  H17 UNL     1      25.625   3.653  52.642  1.00  0.00     0.160 HD
BRANCH  13  15
HETATM   15  C17 UNL     1      26.639   2.383  50.965  1.00  0.00     0.149 C 
BRANCH  15  16
HETATM   16  C18 UNL     1      26.421   3.415  49.902  1.00  0.00     0.022 C 
HETATM   17  C19 UNL     1      25.754   4.544  49.708  1.00  0.00     0.186 C 
HETATM   18  F1  UNL     1      25.729   5.330  48.579  1.00  0.00    -0.220 F 
ENDBRANCH  15  16
ENDBRANCH  13  15
ENDBRANCH  10  13
BRANCH   1  19
HETATM   19  N2  UNL     1      21.364   1.038  51.045  1.00  0.00    -0.323 N 
HETATM   20  C8  UNL     1      20.770   2.220  51.569  1.00  0.00     0.253 C 
HETATM   21  O2  UNL     1      21.111   2.833  52.637  1.00  0.00    -0.268 OA
HETATM   22  H13 UNL     1      20.845   0.810  50.168  1.00  0.00     0.169 HD
BRANCH  20  23
HETATM   23  C2  UNL     1      19.678   3.100  51.165  1.00  0.00     0.029 C 
HETATM   24  C1  UNL     1      18.547   2.417  51.063  1.00  0.00     0.026 C 
BRANCH  23  25
HETATM   25  C3  UNL     1      19.972   4.526  50.943  1.00  0.00     0.316 C 
BRANCH  25  26
HETATM   26  N1  UNL     1      20.768   4.787  49.786  1.00  0.00     0.096 N 
HETATM   27  C4  UNL     1      22.055   5.352  50.136  1.00  0.00     0.299 C 
HETATM   28  C5  UNL     1      21.913   6.740  50.673  1.00  0.00     0.198 C 
HETATM   29  O1  UNL     1      20.700   7.332  50.438  1.00  0.00    -0.388 OA
HETATM   30  C6  UNL     1      20.113   7.057  49.229  1.00  0.00     0.198 C 
HETATM   31  C7  UNL     1      20.140   5.624  48.813  1.00  0.00     0.299 C 
ENDBRANCH  25  26
ENDBRANCH  23  25
ENDBRANCH  20  23
ENDBRANCH   1  19
TORSDOF 7
ENDMDL
