MODEL 1
REMARK VINA RESULT:      -8.6      0.000      0.000
REMARK  6 active torsions:
REMARK  status: ('A' for Active; 'I' for Inactive)
REMARK    1  A    between atoms: C1_2  and  C2_3 
REMARK       I    between atoms: C1_2  and  N1_7 
REMARK    2  A    between atoms: C3_4  and  C4_5 
REMARK    3  A    between atoms: C4_5  and  O2_6 
REMARK    4  A    between atoms: N1_7  and  C5_8 
REMARK    5  A    between atoms: C10_15  and  N2_16 
REMARK    6  A    between atoms: N2_16  and  C11_17 
ROOT
HETATM    1  C5  UNL     1      26.117   2.837  51.161  1.00  0.00     0.065 A 
HETATM    2  C6  UNL     1      26.895   3.285  50.102  1.00  0.00     0.076 A 
HETATM    3  C7  UNL     1      26.481   4.351  49.294  1.00  0.00     0.140 A 
HETATM    4  F1  UNL     1      27.200   4.828  48.249  1.00  0.00    -0.204 F 
HETATM    5  C8  UNL     1      25.269   4.937  49.592  1.00  0.00     0.074 A 
HETATM    6 CL1  UNL     1      24.649   6.283  48.644  1.00  0.00    -0.081 Cl
HETATM    7  C9  UNL     1      24.520   4.473  50.646  1.00  0.00     0.058 A 
HETATM    8  C10 UNL     1      24.909   3.431  51.450  1.00  0.00     0.061 A 
ENDROOT
BRANCH   8   9
HETATM    9  N2  UNL     1      24.202   2.885  52.536  1.00  0.00    -0.354 N 
HETATM   10  H7  UNL     1      24.729   3.321  53.336  1.00  0.00     0.166 HD
BRANCH   9  11
HETATM   11  C11 UNL     1      23.118   2.021  52.738  1.00  0.00     0.033 A 
HETATM   12  C12 UNL     1      21.885   2.236  52.217  1.00  0.00     0.032 A 
HETATM   13  C13 UNL     1      20.787   1.410  52.396  1.00  0.00     0.035 A 
HETATM   14  C14 UNL     1      21.025   0.299  53.172  1.00  0.00     0.070 A 
HETATM   15  N3  UNL     1      20.023  -0.555  53.399  1.00  0.00    -0.241 NA
HETATM   16  C17 UNL     1      22.268   0.061  53.710  1.00  0.00     0.012 A 
HETATM   17  C15 UNL     1      20.212  -1.653  54.150  1.00  0.00     0.233 A 
HETATM   18  N4  UNL     1      21.417  -1.880  54.669  1.00  0.00    -0.253 NA
HETATM   19  C16 UNL     1      22.478  -1.072  54.489  1.00  0.00     0.132 A 
HETATM   20  C18 UNL     1      23.308   0.912  53.496  1.00  0.00     0.044 A 
ENDBRANCH   9  11
ENDBRANCH   8   9
BRANCH   1  21
HETATM   21  N1  UNL     1      26.765   1.748  51.804  1.00  0.00    -0.314 N 
HETATM   22  C1  UNL     1      27.059   1.231  53.076  1.00  0.00     0.301 C 
HETATM   23  O1  UNL     1      26.750   1.717  54.188  1.00  0.00    -0.258 OA
HETATM   24  H4  UNL     1      27.095   1.223  50.939  1.00  0.00     0.170 HD
BRANCH  22  25
HETATM   25  C2  UNL     1      27.797   0.003  53.145  1.00  0.00    -0.003 C 
HETATM   26  C3  UNL     1      28.442  -1.036  53.203  1.00  0.00    -0.071 C 
BRANCH  26  27
HETATM   27  C4  UNL     1      29.220  -2.282  53.299  1.00  0.00     0.258 C 
BRANCH  27  28
HETATM   28  O2  UNL     1      28.354  -3.293  52.893  1.00  0.00    -0.389 OA
HETATM   29  H3  UNL     1      27.440  -2.910  52.827  1.00  0.00     0.210 HD
ENDBRANCH  27  28
ENDBRANCH  26  27
ENDBRANCH  22  25
ENDBRANCH   1  21
TORSDOF 6
ENDMDL
MODEL 2
REMARK VINA RESULT:      -8.6      3.941      6.232
REMARK  6 active torsions:
REMARK  status: ('A' for Active; 'I' for Inactive)
REMARK    1  A    between atoms: C1_2  and  C2_3 
REMARK       I    between atoms: C1_2  and  N1_7 
REMARK    2  A    between atoms: C3_4  and  C4_5 
REMARK    3  A    between atoms: C4_5  and  O2_6 
REMARK    4  A    between atoms: N1_7  and  C5_8 
REMARK    5  A    between atoms: C10_15  and  N2_16 
REMARK    6  A    between atoms: N2_16  and  C11_17 
ROOT
HETATM    1  C5  UNL     1      24.030   2.721  50.098  1.00  0.00     0.065 A 
HETATM    2  C6  UNL     1      23.049   2.673  49.117  1.00  0.00     0.076 A 
HETATM    3  C7  UNL     1      21.861   1.957  49.309  1.00  0.00     0.140 A 
HETATM    4  F1  UNL     1      20.872   1.876  48.385  1.00  0.00    -0.204 F 
HETATM    5  C8  UNL     1      21.706   1.299  50.511  1.00  0.00     0.074 A 
HETATM    6 CL1  UNL     1      20.255   0.368  50.860  1.00  0.00    -0.081 Cl
HETATM    7  C9  UNL     1      22.693   1.363  51.464  1.00  0.00     0.058 A 
HETATM    8  C10 UNL     1      23.863   2.061  51.295  1.00  0.00     0.061 A 
ENDROOT
BRANCH   8   9
HETATM    9  N2  UNL     1      24.928   2.169  52.207  1.00  0.00    -0.354 N 
HETATM   10  H7  UNL     1      24.665   3.067  52.691  1.00  0.00     0.166 HD
BRANCH   9  11
HETATM   11  C11 UNL     1      26.078   1.446  52.548  1.00  0.00     0.033 A 
HETATM   12  C12 UNL     1      27.230   2.029  52.965  1.00  0.00     0.032 A 
HETATM   13  C13 UNL     1      28.389   1.352  53.306  1.00  0.00     0.035 A 
HETATM   14  C14 UNL     1      28.308  -0.018  53.197  1.00  0.00     0.070 A 
HETATM   15  N3  UNL     1      29.380  -0.753  53.506  1.00  0.00    -0.241 NA
HETATM   16  C17 UNL     1      27.150  -0.629  52.777  1.00  0.00     0.012 A 
HETATM   17  C15 UNL     1      29.343  -2.093  53.413  1.00  0.00     0.233 A 
HETATM   18  N4  UNL     1      28.220  -2.681  53.007  1.00  0.00    -0.253 NA
HETATM   19  C16 UNL     1      27.099  -2.015  52.677  1.00  0.00     0.132 A 
HETATM   20  C18 UNL     1      26.043   0.094  52.455  1.00  0.00     0.044 A 
ENDBRANCH   9  11
ENDBRANCH   8   9
BRANCH   1  21
HETATM   21  N1  UNL     1      25.125   3.505  49.643  1.00  0.00    -0.314 N 
HETATM   22  C1  UNL     1      25.465   4.813  49.263  1.00  0.00     0.301 C 
HETATM   23  O1  UNL     1      24.716   5.817  49.225  1.00  0.00    -0.258 OA
HETATM   24  H4  UNL     1      25.871   2.746  49.625  1.00  0.00     0.170 HD
BRANCH  22  25
HETATM   25  C2  UNL     1      26.820   5.062  48.864  1.00  0.00    -0.003 C 
HETATM   26  C3  UNL     1      27.971   5.292  48.518  1.00  0.00    -0.071 C 
BRANCH  26  27
HETATM   27  C4  UNL     1      29.359   5.581  48.122  1.00  0.00     0.258 C 
BRANCH  27  28
HETATM   28  O2  UNL     1      30.083   5.630  49.311  1.00  0.00    -0.389 OA
HETATM   29  H3  UNL     1      30.035   4.735  49.738  1.00  0.00     0.210 HD
ENDBRANCH  27  28
ENDBRANCH  26  27
ENDBRANCH  22  25
ENDBRANCH   1  21
TORSDOF 6
ENDMDL
MODEL 3
REMARK VINA RESULT:      -8.6      4.200      6.923
REMARK  6 active torsions:
REMARK  status: ('A' for Active; 'I' for Inactive)
REMARK    1  A    between atoms: C1_2  and  C2_3 
REMARK       I    between atoms: C1_2  and  N1_7 
REMARK    2  A    between atoms: C3_4  and  C4_5 
REMARK    3  A    between atoms: C4_5  and  O2_6 
REMARK    4  A    between atoms: N1_7  and  C5_8 
REMARK    5  A    between atoms: C10_15  and  N2_16 
REMARK    6  A    between atoms: N2_16  and  C11_17 
ROOT
HETATM    1  C5  UNL     1      23.926   4.226  51.628  1.00  0.00     0.065 A 
HETATM    2  C6  UNL     1      22.575   4.547  51.640  1.00  0.00     0.076 A 
HETATM    3  C7  UNL     1      21.618   3.649  52.125  1.00  0.00     0.140 A 
HETATM    4  F1  UNL     1      20.288   3.910  52.160  1.00  0.00    -0.204 F 
HETATM    5  C8  UNL     1      22.070   2.432  52.590  1.00  0.00     0.074 A 
HETATM    6 CL1  UNL     1      20.956   1.226  53.223  1.00  0.00    -0.081 Cl
HETATM    7  C9  UNL     1      23.412   2.141  52.567  1.00  0.00     0.058 A 
HETATM    8  C10 UNL     1      24.366   3.009  52.096  1.00  0.00     0.061 A 
ENDROOT
BRANCH   8   9
HETATM    9  N2  UNL     1      25.753   2.790  52.023  1.00  0.00    -0.354 N 
HETATM   10  H7  UNL     1      26.049   3.657  51.505  1.00  0.00     0.166 HD
BRANCH   9  11
HETATM   11  C11 UNL     1      26.671   1.813  52.430  1.00  0.00     0.033 A 
HETATM   12  C12 UNL     1      27.849   2.104  53.037  1.00  0.00     0.032 A 
HETATM   13  C13 UNL     1      28.785   1.171  53.451  1.00  0.00     0.035 A 
HETATM   14  C14 UNL     1      28.441  -0.139  53.202  1.00  0.00     0.070 A 
HETATM   15  N3  UNL     1      29.284  -1.108  53.568  1.00  0.00    -0.241 NA
HETATM   16  C17 UNL     1      27.251  -0.455  52.590  1.00  0.00     0.012 A 
HETATM   17  C15 UNL     1      28.986  -2.399  53.345  1.00  0.00     0.233 A 
HETATM   18  N4  UNL     1      27.833  -2.701  52.751  1.00  0.00    -0.253 NA
HETATM   19  C16 UNL     1      26.930  -1.788  52.352  1.00  0.00     0.132 A 
HETATM   20  C18 UNL     1      26.372   0.510  52.206  1.00  0.00     0.044 A 
ENDBRANCH   9  11
ENDBRANCH   8   9
BRANCH   1  21
HETATM   21  N1  UNL     1      24.670   5.307  51.081  1.00  0.00    -0.314 N 
HETATM   22  C1  UNL     1      24.972   5.937  49.864  1.00  0.00     0.301 C 
HETATM   23  O1  UNL     1      24.567   5.623  48.720  1.00  0.00    -0.258 OA
HETATM   24  H4  UNL     1      25.091   5.686  51.982  1.00  0.00     0.170 HD
BRANCH  22  25
HETATM   25  C2  UNL     1      25.842   7.076  49.897  1.00  0.00    -0.003 C 
HETATM   26  C3  UNL     1      26.599   8.038  49.921  1.00  0.00    -0.071 C 
BRANCH  26  27
HETATM   27  C4  UNL     1      27.507   9.196  49.925  1.00  0.00     0.258 C 
BRANCH  27  28
HETATM   28  O2  UNL     1      27.667   9.540  51.265  1.00  0.00    -0.389 OA
HETATM   29  H3  UNL     1      28.607   9.352  51.522  1.00  0.00     0.210 HD
ENDBRANCH  27  28
ENDBRANCH  26  27
ENDBRANCH  22  25
ENDBRANCH   1  21
TORSDOF 6
ENDMDL
MODEL 4
REMARK VINA RESULT:      -8.3      2.617      5.482
REMARK  6 active torsions:
REMARK  status: ('A' for Active; 'I' for Inactive)
REMARK    1  A    between atoms: C1_2  and  C2_3 
REMARK       I    between atoms: C1_2  and  N1_7 
REMARK    2  A    between atoms: C3_4  and  C4_5 
REMARK    3  A    between atoms: C4_5  and  O2_6 
REMARK    4  A    between atoms: N1_7  and  C5_8 
REMARK    5  A    between atoms: C10_15  and  N2_16 
REMARK    6  A    between atoms: N2_16  and  C11_17 
ROOT
HETATM    1  C5  UNL     1      23.963   2.781  50.859  1.00  0.00     0.065 A 
HETATM    2  C6  UNL     1      23.266   3.243  49.750  1.00  0.00     0.076 A 
HETATM    3  C7  UNL     1      23.786   4.253  48.933  1.00  0.00     0.140 A 
HETATM    4  F1  UNL     1      23.150   4.741  47.840  1.00  0.00    -0.204 F 
HETATM    5  C8  UNL     1      25.018   4.772  49.274  1.00  0.00     0.074 A 
HETATM    6 CL1  UNL     1      25.767   6.045  48.319  1.00  0.00    -0.081 Cl
HETATM    7  C9  UNL     1      25.684   4.296  50.376  1.00  0.00     0.058 A 
HETATM    8  C10 UNL     1      25.192   3.305  51.189  1.00  0.00     0.061 A 
ENDROOT
BRANCH   8   9
HETATM    9  N2  UNL     1      25.797   2.770  52.340  1.00  0.00    -0.354 N 
HETATM   10  H7  UNL     1      25.341   3.363  53.081  1.00  0.00     0.166 HD
BRANCH   9  11
HETATM   11  C11 UNL     1      26.730   1.773  52.652  1.00  0.00     0.033 A 
HETATM   12  C12 UNL     1      27.956   2.034  53.172  1.00  0.00     0.032 A 
HETATM   13  C13 UNL     1      28.907   1.079  53.490  1.00  0.00     0.035 A 
HETATM   14  C14 UNL     1      28.526  -0.220  53.238  1.00  0.00     0.070 A 
HETATM   15  N3  UNL     1      29.381  -1.208  53.515  1.00  0.00    -0.241 NA
HETATM   16  C17 UNL     1      27.288  -0.506  52.712  1.00  0.00     0.012 A 
HETATM   17  C15 UNL     1      29.048  -2.490  53.285  1.00  0.00     0.233 A 
HETATM   18  N4  UNL     1      27.848  -2.763  52.776  1.00  0.00    -0.253 NA
HETATM   19  C16 UNL     1      26.930  -1.828  52.470  1.00  0.00     0.132 A 
HETATM   20  C18 UNL     1      26.395   0.479  52.421  1.00  0.00     0.044 A 
ENDBRANCH   9  11
ENDBRANCH   8   9
BRANCH   1  21
HETATM   21  N1  UNL     1      23.208   1.767  51.510  1.00  0.00    -0.314 N 
HETATM   22  C1  UNL     1      22.191   0.828  51.282  1.00  0.00     0.301 C 
HETATM   23  O1  UNL     1      21.570   0.618  50.214  1.00  0.00    -0.258 OA
HETATM   24  H4  UNL     1      23.648   1.834  52.477  1.00  0.00     0.170 HD
BRANCH  22  25
HETATM   25  C2  UNL     1      21.791  -0.006  52.379  1.00  0.00    -0.003 C 
HETATM   26  C3  UNL     1      21.439  -0.727  53.303  1.00  0.00    -0.071 C 
BRANCH  26  27
HETATM   27  C4  UNL     1      21.033  -1.611  54.408  1.00  0.00     0.258 C 
BRANCH  27  28
HETATM   28  O2  UNL     1      22.180  -1.799  55.175  1.00  0.00    -0.389 OA
HETATM   29  H3  UNL     1      22.518  -0.906  55.450  1.00  0.00     0.210 HD
ENDBRANCH  27  28
ENDBRANCH  26  27
ENDBRANCH  22  25
ENDBRANCH   1  21
TORSDOF 6
ENDMDL
MODEL 5
REMARK VINA RESULT:      -8.2      3.192      6.537
REMARK  6 active torsions:
REMARK  status: ('A' for Active; 'I' for Inactive)
REMARK    1  A    between atoms: C1_2  and  C2_3 
REMARK       I    between atoms: C1_2  and  N1_7 
REMARK    2  A    between atoms: C3_4  and  C4_5 
REMARK    3  A    between atoms: C4_5  and  O2_6 
REMARK    4  A    between atoms: N1_7  and  C5_8 
REMARK    5  A    between atoms: C10_15  and  N2_16 
REMARK    6  A    between atoms: N2_16  and  C11_17 
ROOT
HETATM    1  C5  UNL     1      24.115   1.058  52.317  1.00  0.00     0.065 A 
HETATM    2  C6  UNL     1      23.207   0.559  53.242  1.00  0.00     0.076 A 
HETATM    3  C7  UNL     1      21.875   0.992  53.261  1.00  0.00     0.140 A 
HETATM    4  F1  UNL     1      20.948   0.539  54.141  1.00  0.00    -0.204 F 
HETATM    5  C8  UNL     1      21.503   1.935  52.326  1.00  0.00     0.074 A 
HETATM    6 CL1  UNL     1      19.856   2.550  52.259  1.00  0.00    -0.081 Cl
HETATM    7  C9  UNL     1      22.422   2.411  51.424  1.00  0.00     0.058 A 
HETATM    8  C10 UNL     1      23.731   1.998  51.387  1.00  0.00     0.061 A 
ENDROOT
BRANCH   8   9
HETATM    9  N2  UNL     1      24.738   2.440  50.512  1.00  0.00    -0.354 N 
HETATM   10  H7  UNL     1      25.239   1.531  50.334  1.00  0.00     0.166 HD
BRANCH   9  11
HETATM   11  C11 UNL     1      25.145   3.644  49.924  1.00  0.00     0.033 A 
HETATM   12  C12 UNL     1      24.314   4.699  49.731  1.00  0.00     0.032 A 
HETATM   13  C13 UNL     1      24.675   5.904  49.150  1.00  0.00     0.035 A 
HETATM   14  C14 UNL     1      25.993   5.981  48.758  1.00  0.00     0.070 A 
HETATM   15  N3  UNL     1      26.430   7.107  48.188  1.00  0.00    -0.241 NA
HETATM   16  C17 UNL     1      26.852   4.924  48.944  1.00  0.00     0.012 A 
HETATM   17  C15 UNL     1      27.709   7.224  47.790  1.00  0.00     0.233 A 
HETATM   18  N4  UNL     1      28.537   6.198  47.973  1.00  0.00    -0.253 NA
HETATM   19  C16 UNL     1      28.178   5.031  48.538  1.00  0.00     0.132 A 
HETATM   20  C18 UNL     1      26.435   3.764  49.522  1.00  0.00     0.044 A 
ENDBRANCH   9  11
ENDBRANCH   8   9
BRANCH   1  21
HETATM   21  N1  UNL     1      25.387   0.458  52.524  1.00  0.00    -0.314 N 
HETATM   22  C1  UNL     1      26.757   0.760  52.569  1.00  0.00     0.301 C 
HETATM   23  O1  UNL     1      27.299   1.876  52.398  1.00  0.00    -0.258 OA
HETATM   24  H4  UNL     1      25.068  -0.544  52.689  1.00  0.00     0.170 HD
BRANCH  22  25
HETATM   25  C2  UNL     1      27.669  -0.313  52.840  1.00  0.00    -0.003 C 
HETATM   26  C3  UNL     1      28.451  -1.221  53.089  1.00  0.00    -0.071 C 
BRANCH  26  27
HETATM   27  C4  UNL     1      29.374  -2.325  53.400  1.00  0.00     0.258 C 
BRANCH  27  28
HETATM   28  O2  UNL     1      28.599  -3.481  53.358  1.00  0.00    -0.389 OA
HETATM   29  H3  UNL     1      28.874  -4.009  52.563  1.00  0.00     0.210 HD
ENDBRANCH  27  28
ENDBRANCH  26  27
ENDBRANCH  22  25
ENDBRANCH   1  21
TORSDOF 6
ENDMDL
MODEL 6
REMARK VINA RESULT:      -8.2      3.400      6.367
REMARK  6 active torsions:
REMARK  status: ('A' for Active; 'I' for Inactive)
REMARK    1  A    between atoms: C1_2  and  C2_3 
REMARK       I    between atoms: C1_2  and  N1_7 
REMARK    2  A    between atoms: C3_4  and  C4_5 
REMARK    3  A    between atoms: C4_5  and  O2_6 
REMARK    4  A    between atoms: N1_7  and  C5_8 
REMARK    5  A    between atoms: C10_15  and  N2_16 
REMARK    6  A    between atoms: N2_16  and  C11_17 
ROOT
HETATM    1  C5  UNL     1      21.838   3.386  51.528  1.00  0.00     0.065 A 
HETATM    2  C6  UNL     1      21.133   4.580  51.463  1.00  0.00     0.076 A 
HETATM    3  C7  UNL     1      21.789   5.806  51.301  1.00  0.00     0.140 A 
HETATM    4  F1  UNL     1      21.151   7.000  51.232  1.00  0.00    -0.204 F 
HETATM    5  C8  UNL     1      23.165   5.779  51.209  1.00  0.00     0.074 A 
HETATM    6 CL1  UNL     1      24.094   7.259  51.004  1.00  0.00    -0.081 Cl
HETATM    7  C9  UNL     1      23.837   4.583  51.276  1.00  0.00     0.058 A 
HETATM    8  C10 UNL     1      23.211   3.371  51.433  1.00  0.00     0.061 A 
ENDROOT
BRANCH   8   9
HETATM    9  N2  UNL     1      23.818   2.106  51.526  1.00  0.00    -0.354 N 
HETATM   10  H7  UNL     1      23.374   1.629  50.699  1.00  0.00     0.166 HD
BRANCH   9  11
HETATM   11  C11 UNL     1      24.741   1.457  52.356  1.00  0.00     0.033 A 
HETATM   12  C12 UNL     1      24.496   0.265  52.955  1.00  0.00     0.032 A 
HETATM   13  C13 UNL     1      25.378  -0.407  53.786  1.00  0.00     0.035 A 
HETATM   14  C14 UNL     1      26.582   0.231  53.982  1.00  0.00     0.070 A 
HETATM   15  N3  UNL     1      27.495  -0.345  54.768  1.00  0.00    -0.241 NA
HETATM   16  C17 UNL     1      26.851   1.439  53.383  1.00  0.00     0.012 A 
HETATM   17  C15 UNL     1      28.684   0.243  54.986  1.00  0.00     0.233 A 
HETATM   18  N4  UNL     1      28.941   1.413  54.404  1.00  0.00    -0.253 NA
HETATM   19  C16 UNL     1      28.078   2.058  53.599  1.00  0.00     0.132 A 
HETATM   20  C18 UNL     1      25.941   2.049  52.576  1.00  0.00     0.044 A 
ENDBRANCH   9  11
ENDBRANCH   8   9
BRANCH   1  21
HETATM   21  N1  UNL     1      20.932   2.304  51.701  1.00  0.00    -0.314 N 
HETATM   22  C1  UNL     1      20.748   0.952  51.370  1.00  0.00     0.301 C 
HETATM   23  O1  UNL     1      21.507   0.222  50.692  1.00  0.00    -0.258 OA
HETATM   24  H4  UNL     1      20.197   2.801  52.289  1.00  0.00     0.170 HD
BRANCH  22  25
HETATM   25  C2  UNL     1      19.563   0.301  51.848  1.00  0.00    -0.003 C 
HETATM   26  C3  UNL     1      18.548  -0.261  52.239  1.00  0.00    -0.071 C 
BRANCH  26  27
HETATM   27  C4  UNL     1      17.342  -0.958  52.713  1.00  0.00     0.258 C 
BRANCH  27  28
HETATM   28  O2  UNL     1      17.590  -1.269  54.046  1.00  0.00    -0.389 OA
HETATM   29  H3  UNL     1      18.570  -1.391  54.158  1.00  0.00     0.210 HD
ENDBRANCH  27  28
ENDBRANCH  26  27
ENDBRANCH  22  25
ENDBRANCH   1  21
TORSDOF 6
ENDMDL
MODEL 7
REMARK VINA RESULT:      -8.1      3.571      6.355
REMARK  6 active torsions:
REMARK  status: ('A' for Active; 'I' for Inactive)
REMARK    1  A    between atoms: C1_2  and  C2_3 
REMARK       I    between atoms: C1_2  and  N1_7 
REMARK    2  A    between atoms: C3_4  and  C4_5 
REMARK    3  A    between atoms: C4_5  and  O2_6 
REMARK    4  A    between atoms: N1_7  and  C5_8 
REMARK    5  A    between atoms: C10_15  and  N2_16 
REMARK    6  A    between atoms: N2_16  and  C11_17 
ROOT
HETATM    1  C5  UNL     1      23.380   0.021  52.970  1.00  0.00     0.065 A 
HETATM    2  C6  UNL     1      22.777  -0.818  53.898  1.00  0.00     0.076 A 
HETATM    3  C7  UNL     1      21.390  -1.009  53.912  1.00  0.00     0.140 A 
HETATM    4  F1  UNL     1      20.750  -1.815  54.795  1.00  0.00    -0.204 F 
HETATM    5  C8  UNL     1      20.648  -0.330  52.970  1.00  0.00     0.074 A 
HETATM    6 CL1  UNL     1      18.898  -0.495  52.896  1.00  0.00    -0.081 Cl
HETATM    7  C9  UNL     1      21.271   0.493  52.064  1.00  0.00     0.058 A 
HETATM    8  C10 UNL     1      22.629   0.693  52.032  1.00  0.00     0.061 A 
ENDROOT
BRANCH   8   9
HETATM    9  N2  UNL     1      23.346   1.524  51.154  1.00  0.00    -0.354 N 
HETATM   10  H7  UNL     1      23.618   0.823  50.418  1.00  0.00     0.166 HD
BRANCH   9  11
HETATM   11  C11 UNL     1      23.713   2.873  51.071  1.00  0.00     0.033 A 
HETATM   12  C12 UNL     1      23.121   3.854  51.798  1.00  0.00     0.032 A 
HETATM   13  C13 UNL     1      23.451   5.198  51.742  1.00  0.00     0.035 A 
HETATM   14  C14 UNL     1      24.465   5.506  50.864  1.00  0.00     0.070 A 
HETATM   15  N3  UNL     1      24.850   6.779  50.745  1.00  0.00    -0.241 NA
HETATM   16  C17 UNL     1      25.079   4.527  50.118  1.00  0.00     0.012 A 
HETATM   17  C15 UNL     1      25.836   7.123  49.899  1.00  0.00     0.233 A 
HETATM   18  N4  UNL     1      26.428   6.172  49.179  1.00  0.00    -0.253 NA
HETATM   19  C16 UNL     1      26.101   4.869  49.239  1.00  0.00     0.132 A 
HETATM   20  C18 UNL     1      24.708   3.221  50.218  1.00  0.00     0.044 A 
ENDBRANCH   9  11
ENDBRANCH   8   9
BRANCH   1  21
HETATM   21  N1  UNL     1      24.786   0.038  53.183  1.00  0.00    -0.314 N 
HETATM   22  C1  UNL     1      25.837   0.889  53.557  1.00  0.00     0.301 C 
HETATM   23  O1  UNL     1      25.767   2.104  53.855  1.00  0.00    -0.258 OA
HETATM   24  H4  UNL     1      24.996  -0.980  52.954  1.00  0.00     0.170 HD
BRANCH  22  25
HETATM   25  C2  UNL     1      27.159   0.335  53.614  1.00  0.00    -0.003 C 
HETATM   26  C3  UNL     1      28.294  -0.121  53.662  1.00  0.00    -0.071 C 
BRANCH  26  27
HETATM   27  C4  UNL     1      29.659  -0.664  53.744  1.00  0.00     0.258 C 
BRANCH  27  28
HETATM   28  O2  UNL     1      30.499   0.378  53.363  1.00  0.00    -0.389 OA
HETATM   29  H3  UNL     1      31.228   0.449  54.034  1.00  0.00     0.210 HD
ENDBRANCH  27  28
ENDBRANCH  26  27
ENDBRANCH  22  25
ENDBRANCH   1  21
TORSDOF 6
ENDMDL
MODEL 8
REMARK VINA RESULT:      -8.1      4.148      6.881
REMARK  6 active torsions:
REMARK  status: ('A' for Active; 'I' for Inactive)
REMARK    1  A    between atoms: C1_2  and  C2_3 
REMARK       I    between atoms: C1_2  and  N1_7 
REMARK    2  A    between atoms: C3_4  and  C4_5 
REMARK    3  A    between atoms: C4_5  and  O2_6 
REMARK    4  A    between atoms: N1_7  and  C5_8 
REMARK    5  A    between atoms: C10_15  and  N2_16 
REMARK    6  A    between atoms: N2_16  and  C11_17 
ROOT
HETATM    1  C5  UNL     1      21.740   2.945  51.604  1.00  0.00     0.065 A 
HETATM    2  C6  UNL     1      20.413   3.348  51.680  1.00  0.00     0.076 A 
HETATM    3  C7  UNL     1      19.377   2.419  51.831  1.00  0.00     0.140 A 
HETATM    4  F1  UNL     1      18.067   2.757  51.910  1.00  0.00    -0.204 F 
HETATM    5  C8  UNL     1      19.727   1.087  51.899  1.00  0.00     0.074 A 
HETATM    6 CL1  UNL     1      18.508  -0.168  52.088  1.00  0.00    -0.081 Cl
HETATM    7  C9  UNL     1      21.047   0.716  51.821  1.00  0.00     0.058 A 
HETATM    8  C10 UNL     1      22.077   1.612  51.675  1.00  0.00     0.061 A 
ENDROOT
BRANCH   8   9
HETATM    9  N2  UNL     1      23.449   1.321  51.573  1.00  0.00    -0.354 N 
HETATM   10  H7  UNL     1      23.601   1.507  50.548  1.00  0.00     0.166 HD
BRANCH   9  11
HETATM   11  C11 UNL     1      24.486   0.904  52.418  1.00  0.00     0.033 A 
HETATM   12  C12 UNL     1      24.431  -0.229  53.163  1.00  0.00     0.032 A 
HETATM   13  C13 UNL     1      25.430  -0.674  54.012  1.00  0.00     0.035 A 
HETATM   14  C14 UNL     1      26.543   0.134  54.064  1.00  0.00     0.070 A 
HETATM   15  N3  UNL     1      27.559  -0.218  54.857  1.00  0.00    -0.241 NA
HETATM   16  C17 UNL     1      26.620   1.286  53.316  1.00  0.00     0.012 A 
HETATM   17  C15 UNL     1      28.664   0.543  54.937  1.00  0.00     0.233 A 
HETATM   18  N4  UNL     1      28.734   1.657  54.212  1.00  0.00    -0.253 NA
HETATM   19  C16 UNL     1      27.758   2.082  53.389  1.00  0.00     0.132 A 
HETATM   20  C18 UNL     1      25.602   1.670  52.499  1.00  0.00     0.044 A 
ENDBRANCH   9  11
ENDBRANCH   8   9
BRANCH   1  21
HETATM   21  N1  UNL     1      22.578   4.082  51.447  1.00  0.00    -0.314 N 
HETATM   22  C1  UNL     1      23.432   4.933  52.164  1.00  0.00     0.301 C 
HETATM   23  O1  UNL     1      23.719   4.878  53.383  1.00  0.00    -0.258 OA
HETATM   24  H4  UNL     1      22.427   4.251  50.407  1.00  0.00     0.170 HD
BRANCH  22  25
HETATM   25  C2  UNL     1      24.069   6.001  51.449  1.00  0.00    -0.003 C 
HETATM   26  C3  UNL     1      24.622   6.916  50.853  1.00  0.00    -0.071 C 
BRANCH  26  27
HETATM   27  C4  UNL     1      25.306   8.001  50.131  1.00  0.00     0.258 C 
BRANCH  27  28
HETATM   28  O2  UNL     1      26.569   8.095  50.710  1.00  0.00    -0.389 OA
HETATM   29  H3  UNL     1      26.985   7.194  50.690  1.00  0.00     0.210 HD
ENDBRANCH  27  28
ENDBRANCH  26  27
ENDBRANCH  22  25
ENDBRANCH   1  21
TORSDOF 6
ENDMDL
MODEL 9
REMARK VINA RESULT:      -8.0      3.060      5.720
REMARK  6 active torsions:
REMARK  status: ('A' for Active; 'I' for Inactive)
REMARK    1  A    between atoms: C1_2  and  C2_3 
REMARK       I    between atoms: C1_2  and  N1_7 
REMARK    2  A    between atoms: C3_4  and  C4_5 
REMARK    3  A    between atoms: C4_5  and  O2_6 
REMARK    4  A    between atoms: N1_7  and  C5_8 
REMARK    5  A    between atoms: C10_15  and  N2_16 
REMARK    6  A    between atoms: N2_16  and  C11_17 
ROOT
HETATM    1  C5  UNL     1      22.726   3.900  51.561  1.00  0.00     0.065 A 
HETATM    2  C6  UNL     1      21.877   4.992  51.681  1.00  0.00     0.076 A 
HETATM    3  C7  UNL     1      22.228   6.247  51.169  1.00  0.00     0.140 A 
HETATM    4  F1  UNL     1      21.440   7.346  51.260  1.00  0.00    -0.204 F 
HETATM    5  C8  UNL     1      23.452   6.355  50.542  1.00  0.00     0.074 A 
HETATM    6 CL1  UNL     1      23.997   7.883  49.862  1.00  0.00    -0.081 Cl
HETATM    7  C9  UNL     1      24.271   5.257  50.437  1.00  0.00     0.058 A 
HETATM    8  C10 UNL     1      23.944   4.019  50.931  1.00  0.00     0.061 A 
ENDROOT
BRANCH   8   9
HETATM    9  N2  UNL     1      24.724   2.850  50.880  1.00  0.00    -0.354 N 
HETATM   10  H7  UNL     1      24.681   2.645  49.849  1.00  0.00     0.166 HD
BRANCH   9  11
HETATM   11  C11 UNL     1      25.431   2.036  51.775  1.00  0.00     0.033 A 
HETATM   12  C12 UNL     1      25.005   0.808  52.162  1.00  0.00     0.032 A 
HETATM   13  C13 UNL     1      25.671  -0.025  53.046  1.00  0.00     0.035 A 
HETATM   14  C14 UNL     1      26.852   0.484  53.538  1.00  0.00     0.070 A 
HETATM   15  N3  UNL     1      27.562  -0.252  54.397  1.00  0.00    -0.241 NA
HETATM   16  C17 UNL     1      27.302   1.726  53.158  1.00  0.00     0.012 A 
HETATM   17  C15 UNL     1      28.720   0.207  54.901  1.00  0.00     0.233 A 
HETATM   18  N4  UNL     1      29.152   1.411  54.531  1.00  0.00    -0.253 NA
HETATM   19  C16 UNL     1      28.499   2.214  53.671  1.00  0.00     0.132 A 
HETATM   20  C18 UNL     1      26.600   2.498  52.284  1.00  0.00     0.044 A 
ENDBRANCH   9  11
ENDBRANCH   8   9
BRANCH   1  21
HETATM   21  N1  UNL     1      22.130   2.761  52.169  1.00  0.00    -0.314 N 
HETATM   22  C1  UNL     1      20.898   2.273  52.632  1.00  0.00     0.301 C 
HETATM   23  O1  UNL     1      19.790   2.857  52.614  1.00  0.00    -0.258 OA
HETATM   24  H4  UNL     1      22.997   2.149  52.250  1.00  0.00     0.170 HD
BRANCH  22  25
HETATM   25  C2  UNL     1      20.871   0.955  53.196  1.00  0.00    -0.003 C 
HETATM   26  C3  UNL     1      20.866  -0.170  53.678  1.00  0.00    -0.071 C 
BRANCH  26  27
HETATM   27  C4  UNL     1      20.862  -1.513  54.282  1.00  0.00     0.258 C 
BRANCH  27  28
HETATM   28  O2  UNL     1      21.893  -1.504  55.216  1.00  0.00    -0.389 OA
HETATM   29  H3  UNL     1      22.069  -0.561  55.474  1.00  0.00     0.210 HD
ENDBRANCH  27  28
ENDBRANCH  26  27
ENDBRANCH  22  25
ENDBRANCH   1  21
TORSDOF 6
ENDMDL
