MODEL 1
REMARK VINA RESULT:      -8.2      0.000      0.000
REMARK  1 active torsions:
REMARK  status: ('A' for Active; 'I' for Inactive)
REMARK       I    between atoms: C2_2  and  N1_4 
REMARK    1  A    between atoms: N1_4  and  C3_5 
ROOT
HETATM    1  C3  UNL     1      24.645   3.474  51.821  1.00  0.00     0.031 C 
HETATM    2  C4  UNL     1      23.328   3.267  51.663  1.00  0.00     0.006 C 
HETATM    3  C5  UNL     1      22.779   2.091  52.324  1.00  0.00     0.056 C 
HETATM    4  C6  UNL     1      22.360   0.978  51.471  1.00  0.00    -0.021 C 
HETATM    5  C7  UNL     1      21.321   0.161  51.336  1.00  0.00     0.013 C 
HETATM    6  P1  UNL     1      20.294   0.801  52.691  1.00  0.00    -0.022 P 
HETATM    7  C8  UNL     1      20.771   0.615  54.266  1.00  0.00    -0.011 C 
HETATM    8  C9  UNL     1      21.642  -0.344  54.391  1.00  0.00     0.015 C 
HETATM    9  C10 UNL     1      22.512  -1.153  53.547  1.00  0.00     0.018 C 
HETATM   10  C11 UNL     1      23.863  -1.097  53.520  1.00  0.00     0.090 C 
HETATM   11  N2  UNL     1      24.650  -0.238  54.305  1.00  0.00    -0.350 N 
HETATM   12  C12 UNL     1      25.770   0.601  53.939  1.00  0.00     0.136 C 
HETATM   13  N3  UNL     1      26.522  -0.275  54.449  1.00  0.00    -0.224 NA
HETATM   14  C13 UNL     1      27.939  -0.174  54.510  1.00  0.00     0.229 C 
HETATM   15  N4  UNL     1      28.374   0.905  54.018  1.00  0.00    -0.278 NA
HETATM   16  C14 UNL     1      27.699   1.996  53.443  1.00  0.00     0.192 C 
HETATM   17  C15 UNL     1      26.226   1.804  53.267  1.00  0.00     0.010 C 
HETATM   18  C16 UNL     1      25.604   2.689  52.547  1.00  0.00     0.042 C 
HETATM   19  H13 UNL     1      24.179  -0.386  55.217  1.00  0.00     0.166 HD
ENDROOT
BRANCH   1  20
HETATM   20  N1  UNL     1      24.848   4.662  51.076  1.00  0.00    -0.328 N 
HETATM   21  C2  UNL     1      25.523   4.473  49.840  1.00  0.00     0.218 C 
HETATM   22  C1  UNL     1      25.783   5.662  48.986  1.00  0.00     0.117 C 
HETATM   23  O1  UNL     1      25.912   3.341  49.435  1.00  0.00    -0.274 OA
HETATM   24  H4  UNL     1      24.557   5.627  51.339  1.00  0.00     0.169 HD
ENDBRANCH   1  20
TORSDOF 1
ENDMDL
MODEL 2
REMARK VINA RESULT:      -8.2      2.712      5.317
REMARK  1 active torsions:
REMARK  status: ('A' for Active; 'I' for Inactive)
REMARK       I    between atoms: C2_2  and  N1_4 
REMARK    1  A    between atoms: N1_4  and  C3_5 
ROOT
HETATM    1  C3  UNL     1      25.442   0.672  52.841  1.00  0.00     0.031 C 
HETATM    2  C4  UNL     1      25.648   1.785  52.119  1.00  0.00     0.006 C 
HETATM    3  C5  UNL     1      24.465   2.573  51.803  1.00  0.00     0.056 C 
HETATM    4  C6  UNL     1      24.016   2.577  50.409  1.00  0.00    -0.021 C 
HETATM    5  C7  UNL     1      23.627   3.453  49.490  1.00  0.00     0.013 C 
HETATM    6  P1  UNL     1      23.776   4.970  50.479  1.00  0.00    -0.022 P 
HETATM    7  C8  UNL     1      22.766   5.237  51.764  1.00  0.00    -0.011 C 
HETATM    8  C9  UNL     1      21.687   4.513  51.682  1.00  0.00     0.015 C 
HETATM    9  C10 UNL     1      21.191   3.363  50.937  1.00  0.00     0.018 C 
HETATM   10  C11 UNL     1      20.936   2.138  51.450  1.00  0.00     0.090 C 
HETATM   11  N2  UNL     1      21.114   1.775  52.795  1.00  0.00    -0.350 N 
HETATM   12  C12 UNL     1      21.738   0.605  53.374  1.00  0.00     0.136 C 
HETATM   13  N3  UNL     1      20.578   0.158  53.585  1.00  0.00    -0.224 NA
HETATM   14  C13 UNL     1      20.303  -1.088  54.214  1.00  0.00     0.229 C 
HETATM   15  N4  UNL     1      21.351  -1.699  54.566  1.00  0.00    -0.278 NA
HETATM   16  C14 UNL     1      22.708  -1.350  54.447  1.00  0.00     0.192 C 
HETATM   17  C15 UNL     1      22.971  -0.105  53.662  1.00  0.00     0.010 C 
HETATM   18  C16 UNL     1      24.209   0.133  53.343  1.00  0.00     0.042 C 
HETATM   19  H13 UNL     1      20.671   2.600  53.239  1.00  0.00     0.166 HD
ENDROOT
BRANCH   1  20
HETATM   20  N1  UNL     1      26.756   0.157  52.970  1.00  0.00    -0.328 N 
HETATM   21  C2  UNL     1      27.357   0.388  54.238  1.00  0.00     0.218 C 
HETATM   22  C1  UNL     1      28.736  -0.116  54.469  1.00  0.00     0.117 C 
HETATM   23  O1  UNL     1      26.771   1.001  55.175  1.00  0.00    -0.274 OA
HETATM   24  H4  UNL     1      27.303  -0.358  52.250  1.00  0.00     0.169 HD
ENDBRANCH   1  20
TORSDOF 1
ENDMDL
MODEL 3
REMARK VINA RESULT:      -7.0      2.118      5.231
REMARK  1 active torsions:
REMARK  status: ('A' for Active; 'I' for Inactive)
REMARK       I    between atoms: C2_2  and  N1_4 
REMARK    1  A    between atoms: N1_4  and  C3_5 
ROOT
HETATM    1  C3  UNL     1      25.230   1.352  51.828  1.00  0.00     0.031 C 
HETATM    2  C4  UNL     1      24.066   0.775  52.168  1.00  0.00     0.006 C 
HETATM    3  C5  UNL     1      22.868   1.344  51.567  1.00  0.00     0.056 C 
HETATM    4  C6  UNL     1      21.966   2.089  52.449  1.00  0.00    -0.021 C 
HETATM    5  C7  UNL     1      20.667   2.164  52.713  1.00  0.00     0.013 C 
HETATM    6  P1  UNL     1      20.077   0.916  51.530  1.00  0.00    -0.022 P 
HETATM    7  C8  UNL     1      20.188   1.186  49.900  1.00  0.00    -0.011 C 
HETATM    8  C9  UNL     1      20.313   2.453  49.633  1.00  0.00     0.015 C 
HETATM    9  C10 UNL     1      20.625   3.696  50.328  1.00  0.00     0.018 C 
HETATM   10  C11 UNL     1      21.747   4.434  50.165  1.00  0.00     0.090 C 
HETATM   11  N2  UNL     1      22.802   4.114  49.293  1.00  0.00    -0.350 N 
HETATM   12  C12 UNL     1      24.232   4.118  49.513  1.00  0.00     0.136 C 
HETATM   13  N3  UNL     1      24.270   5.211  48.885  1.00  0.00    -0.224 NA
HETATM   14  C13 UNL     1      25.462   5.943  48.625  1.00  0.00     0.229 C 
HETATM   15  N4  UNL     1      26.494   5.369  49.072  1.00  0.00    -0.278 NA
HETATM   16  C14 UNL     1      26.650   4.153  49.759  1.00  0.00     0.192 C 
HETATM   17  C15 UNL     1      25.372   3.475  50.138  1.00  0.00     0.010 C 
HETATM   18  C16 UNL     1      25.465   2.470  50.958  1.00  0.00     0.042 C 
HETATM   19  H13 UNL     1      22.243   3.871  48.455  1.00  0.00     0.166 HD
ENDROOT
BRANCH   1  20
HETATM   20  N1  UNL     1      26.166   0.581  52.561  1.00  0.00    -0.328 N 
HETATM   21  C2  UNL     1      26.597   1.179  53.777  1.00  0.00     0.218 C 
HETATM   22  C1  UNL     1      27.580   0.445  54.616  1.00  0.00     0.117 C 
HETATM   23  O1  UNL     1      26.182   2.304  54.174  1.00  0.00    -0.274 OA
HETATM   24  H4  UNL     1      26.553  -0.351  52.303  1.00  0.00     0.169 HD
ENDBRANCH   1  20
TORSDOF 1
ENDMDL
MODEL 4
REMARK VINA RESULT:      -6.9      3.314      5.747
REMARK  1 active torsions:
REMARK  status: ('A' for Active; 'I' for Inactive)
REMARK       I    between atoms: C2_2  and  N1_4 
REMARK    1  A    between atoms: N1_4  and  C3_5 
ROOT
HETATM    1  C3  UNL     1      19.792   2.045  51.985  1.00  0.00     0.031 C 
HETATM    2  C4  UNL     1      20.356   3.050  51.297  1.00  0.00     0.006 C 
HETATM    3  C5  UNL     1      21.812   3.091  51.298  1.00  0.00     0.056 C 
HETATM    4  C6  UNL     1      22.451   4.167  52.058  1.00  0.00    -0.021 C 
HETATM    5  C7  UNL     1      23.416   5.065  51.896  1.00  0.00     0.013 C 
HETATM    6  P1  UNL     1      23.914   4.626  50.205  1.00  0.00    -0.022 P 
HETATM    7  C8  UNL     1      24.641   3.172  49.894  1.00  0.00    -0.011 C 
HETATM    8  C9  UNL     1      25.158   2.657  50.972  1.00  0.00     0.015 C 
HETATM    9  C10 UNL     1      25.095   2.842  52.416  1.00  0.00     0.018 C 
HETATM   10  C11 UNL     1      24.552   1.976  53.302  1.00  0.00     0.090 C 
HETATM   11  N2  UNL     1      23.952   0.750  52.966  1.00  0.00    -0.350 N 
HETATM   12  C12 UNL     1      22.702   0.168  53.404  1.00  0.00     0.136 C 
HETATM   13  N3  UNL     1      23.378  -0.568  54.174  1.00  0.00    -0.224 NA
HETATM   14  C13 UNL     1      22.817  -1.550  55.037  1.00  0.00     0.229 C 
HETATM   15  N4  UNL     1      21.560  -1.628  54.936  1.00  0.00    -0.278 NA
HETATM   16  C14 UNL     1      20.654  -0.926  54.125  1.00  0.00     0.192 C 
HETATM   17  C15 UNL     1      21.253   0.191  53.331  1.00  0.00     0.010 C 
HETATM   18  C16 UNL     1      20.423   0.999  52.741  1.00  0.00     0.042 C 
HETATM   19  H13 UNL     1      24.673   0.399  52.309  1.00  0.00     0.166 HD
ENDROOT
BRANCH   1  20
HETATM   20  N1  UNL     1      18.411   2.289  51.785  1.00  0.00    -0.328 N 
HETATM   21  C2  UNL     1      17.810   1.486  50.778  1.00  0.00     0.218 C 
HETATM   22  C1  UNL     1      16.362   1.670  50.495  1.00  0.00     0.117 C 
HETATM   23  O1  UNL     1      18.452   0.623  50.114  1.00  0.00    -0.274 OA
HETATM   24  H4  UNL     1      17.814   2.977  52.291  1.00  0.00     0.169 HD
ENDBRANCH   1  20
TORSDOF 1
ENDMDL
MODEL 5
REMARK VINA RESULT:      -6.9      2.708      3.832
REMARK  1 active torsions:
REMARK  status: ('A' for Active; 'I' for Inactive)
REMARK       I    between atoms: C2_2  and  N1_4 
REMARK    1  A    between atoms: N1_4  and  C3_5 
ROOT
HETATM    1  C3  UNL     1      25.632   5.088  49.606  1.00  0.00     0.031 C 
HETATM    2  C4  UNL     1      24.510   5.540  49.025  1.00  0.00     0.006 C 
HETATM    3  C5  UNL     1      23.299   4.772  49.282  1.00  0.00     0.056 C 
HETATM    4  C6  UNL     1      22.746   4.001  48.167  1.00  0.00    -0.021 C 
HETATM    5  C7  UNL     1      21.570   3.786  47.590  1.00  0.00     0.013 C 
HETATM    6  P1  UNL     1      20.546   4.838  48.661  1.00  0.00    -0.022 P 
HETATM    7  C8  UNL     1      20.310   4.440  50.251  1.00  0.00    -0.011 C 
HETATM    8  C9  UNL     1      20.551   3.180  50.468  1.00  0.00     0.015 C 
HETATM    9  C10 UNL     1      21.193   2.054  49.802  1.00  0.00     0.018 C 
HETATM   10  C11 UNL     1      22.340   1.453  50.193  1.00  0.00     0.090 C 
HETATM   11  N2  UNL     1      23.104   1.825  51.312  1.00  0.00    -0.350 N 
HETATM   12  C12 UNL     1      24.531   2.021  51.448  1.00  0.00     0.136 C 
HETATM   13  N3  UNL     1      24.578   0.890  52.004  1.00  0.00    -0.224 NA
HETATM   14  C13 UNL     1      25.770   0.296  52.506  1.00  0.00     0.229 C 
HETATM   15  N4  UNL     1      26.784   1.034  52.356  1.00  0.00    -0.278 NA
HETATM   16  C14 UNL     1      26.919   2.316  51.798  1.00  0.00     0.192 C 
HETATM   17  C15 UNL     1      25.681   2.858  51.157  1.00  0.00     0.010 C 
HETATM   18  C16 UNL     1      25.817   3.936  50.443  1.00  0.00     0.042 C 
HETATM   19  H13 UNL     1      22.335   1.919  52.001  1.00  0.00     0.166 HD
ENDROOT
BRANCH   1  20
HETATM   20  N1  UNL     1      26.592   6.033  49.168  1.00  0.00    -0.328 N 
HETATM   21  C2  UNL     1      27.767   5.462  48.605  1.00  0.00     0.218 C 
HETATM   22  C1  UNL     1      28.833   6.375  48.117  1.00  0.00     0.117 C 
HETATM   23  O1  UNL     1      27.943   4.215  48.503  1.00  0.00    -0.274 OA
HETATM   24  H4  UNL     1      26.520   7.071  49.215  1.00  0.00     0.169 HD
ENDBRANCH   1  20
TORSDOF 1
ENDMDL
MODEL 6
REMARK VINA RESULT:      -6.8      2.605      5.193
REMARK  1 active torsions:
REMARK  status: ('A' for Active; 'I' for Inactive)
REMARK       I    between atoms: C2_2  and  N1_4 
REMARK    1  A    between atoms: N1_4  and  C3_5 
ROOT
HETATM    1  C3  UNL     1      22.240   0.862  53.087  1.00  0.00     0.031 C 
HETATM    2  C4  UNL     1      21.763   1.921  52.416  1.00  0.00     0.006 C 
HETATM    3  C5  UNL     1      22.718   2.633  51.577  1.00  0.00     0.056 C 
HETATM    4  C6  UNL     1      23.133   3.966  52.018  1.00  0.00    -0.021 C 
HETATM    5  C7  UNL     1      23.288   5.182  51.507  1.00  0.00     0.013 C 
HETATM    6  P1  UNL     1      22.793   4.822  49.796  1.00  0.00    -0.022 P 
HETATM    7  C8  UNL     1      23.727   3.845  48.839  1.00  0.00    -0.011 C 
HETATM    8  C9  UNL     1      24.947   3.764  49.287  1.00  0.00     0.015 C 
HETATM    9  C10 UNL     1      25.694   4.073  50.499  1.00  0.00     0.018 C 
HETATM   10  C11 UNL     1      26.243   3.169  51.343  1.00  0.00     0.090 C 
HETATM   11  N2  UNL     1      26.176   1.775  51.183  1.00  0.00    -0.350 N 
HETATM   12  C12 UNL     1      25.859   0.737  52.141  1.00  0.00     0.136 C 
HETATM   13  N3  UNL     1      27.096   0.499  52.209  1.00  0.00    -0.224 NA
HETATM   14  C13 UNL     1      27.670  -0.518  53.022  1.00  0.00     0.229 C 
HETATM   15  N4  UNL     1      26.803  -1.182  53.658  1.00  0.00    -0.278 NA
HETATM   16  C14 UNL     1      25.402  -1.085  53.685  1.00  0.00     0.192 C 
HETATM   17  C15 UNL     1      24.836   0.077  52.931  1.00  0.00     0.010 C 
HETATM   18  C16 UNL     1      23.573   0.329  53.109  1.00  0.00     0.042 C 
HETATM   19  H13 UNL     1      26.415   1.721  50.176  1.00  0.00     0.166 HD
ENDROOT
BRANCH   1  20
HETATM   20  N1  UNL     1      21.090   0.411  53.782  1.00  0.00    -0.328 N 
HETATM   21  C2  UNL     1      20.116  -0.221  52.961  1.00  0.00     0.218 C 
HETATM   22  C1  UNL     1      18.873  -0.728  53.600  1.00  0.00     0.117 C 
HETATM   23  O1  UNL     1      20.261  -0.371  51.715  1.00  0.00    -0.274 OA
HETATM   24  H4  UNL     1      20.898   0.495  54.802  1.00  0.00     0.169 HD
ENDBRANCH   1  20
TORSDOF 1
ENDMDL
MODEL 7
REMARK VINA RESULT:      -6.8      9.561     12.272
REMARK  1 active torsions:
REMARK  status: ('A' for Active; 'I' for Inactive)
REMARK       I    between atoms: C2_2  and  N1_4 
REMARK    1  A    between atoms: N1_4  and  C3_5 
ROOT
HETATM    1  C3  UNL     1      31.407   7.589  48.510  1.00  0.00     0.031 C 
HETATM    2  C4  UNL     1      31.428   6.273  48.775  1.00  0.00     0.006 C 
HETATM    3  C5  UNL     1      32.340   5.470  47.972  1.00  0.00     0.056 C 
HETATM    4  C6  UNL     1      31.746   4.564  46.988  1.00  0.00    -0.021 C 
HETATM    5  C7  UNL     1      31.868   3.302  46.593  1.00  0.00     0.013 C 
HETATM    6  P1  UNL     1      33.190   2.789  47.729  1.00  0.00    -0.022 P 
HETATM    7  C8  UNL     1      34.714   3.421  47.585  1.00  0.00    -0.011 C 
HETATM    8  C9  UNL     1      34.913   3.921  46.400  1.00  0.00     0.015 C 
HETATM    9  C10 UNL     1      34.138   4.313  45.230  1.00  0.00     0.018 C 
HETATM   10  C11 UNL     1      33.958   5.579  44.788  1.00  0.00     0.090 C 
HETATM   11  N2  UNL     1      34.492   6.728  45.396  1.00  0.00    -0.350 N 
HETATM   12  C12 UNL     1      33.868   7.993  45.718  1.00  0.00     0.136 C 
HETATM   13  N3  UNL     1      34.441   8.472  44.702  1.00  0.00    -0.224 NA
HETATM   14  C13 UNL     1      34.333   9.829  44.289  1.00  0.00     0.229 C 
HETATM   15  N4  UNL     1      33.615  10.520  45.065  1.00  0.00    -0.278 NA
HETATM   16  C14 UNL     1      32.932  10.175  46.244  1.00  0.00     0.192 C 
HETATM   17  C15 UNL     1      32.950   8.717  46.578  1.00  0.00     0.010 C 
HETATM   18  C16 UNL     1      32.154   8.326  47.529  1.00  0.00     0.042 C 
HETATM   19  H13 UNL     1      35.460   6.389  45.547  1.00  0.00     0.166 HD
ENDROOT
BRANCH   1  20
HETATM   20  N1  UNL     1      30.447   8.062  49.438  1.00  0.00    -0.328 N 
HETATM   21  C2  UNL     1      29.267   8.591  48.847  1.00  0.00     0.218 C 
HETATM   22  C1  UNL     1      28.200   9.113  49.741  1.00  0.00     0.117 C 
HETATM   23  O1  UNL     1      29.087   8.638  47.597  1.00  0.00    -0.274 OA
HETATM   24  H4  UNL     1      30.520   8.056  50.477  1.00  0.00     0.169 HD
ENDBRANCH   1  20
TORSDOF 1
ENDMDL
MODEL 8
REMARK VINA RESULT:      -6.6      3.502      5.783
REMARK  1 active torsions:
REMARK  status: ('A' for Active; 'I' for Inactive)
REMARK       I    between atoms: C2_2  and  N1_4 
REMARK    1  A    between atoms: N1_4  and  C3_5 
ROOT
HETATM    1  C3  UNL     1      21.233   1.972  49.099  1.00  0.00     0.031 C 
HETATM    2  C4  UNL     1      22.311   2.659  48.689  1.00  0.00     0.006 C 
HETATM    3  C5  UNL     1      23.426   2.721  49.623  1.00  0.00     0.056 C 
HETATM    4  C6  UNL     1      23.697   4.012  50.258  1.00  0.00    -0.021 C 
HETATM    5  C7  UNL     1      24.735   4.801  50.510  1.00  0.00     0.013 C 
HETATM    6  P1  UNL     1      26.041   3.775  49.773  1.00  0.00    -0.022 P 
HETATM    7  C8  UNL     1      26.449   2.320  50.452  1.00  0.00    -0.011 C 
HETATM    8  C9  UNL     1      26.068   2.250  51.694  1.00  0.00     0.015 C 
HETATM    9  C10 UNL     1      25.185   2.956  52.613  1.00  0.00     0.018 C 
HETATM   10  C11 UNL     1      24.035   2.471  53.135  1.00  0.00     0.090 C 
HETATM   11  N2  UNL     1      23.502   1.199  52.867  1.00  0.00    -0.350 N 
HETATM   12  C12 UNL     1      22.152   0.801  52.532  1.00  0.00     0.136 C 
HETATM   13  N3  UNL     1      22.029   0.413  53.727  1.00  0.00    -0.224 NA
HETATM   14  C13 UNL     1      20.853  -0.188  54.254  1.00  0.00     0.229 C 
HETATM   15  N4  UNL     1      19.941  -0.318  53.390  1.00  0.00    -0.278 NA
HETATM   16  C14 UNL     1      19.906   0.020  52.026  1.00  0.00     0.192 C 
HETATM   17  C15 UNL     1      21.100   0.772  51.533  1.00  0.00     0.010 C 
HETATM   18  C16 UNL     1      21.013   1.291  50.344  1.00  0.00     0.042 C 
HETATM   19  H13 UNL     1      24.369   0.641  52.976  1.00  0.00     0.166 HD
ENDROOT
BRANCH   1  20
HETATM   20  N1  UNL     1      20.361   2.103  47.990  1.00  0.00    -0.328 N 
HETATM   21  C2  UNL     1      19.343   3.083  48.153  1.00  0.00     0.218 C 
HETATM   22  C1  UNL     1      18.378   3.293  47.043  1.00  0.00     0.117 C 
HETATM   23  O1  UNL     1      19.224   3.780  49.200  1.00  0.00    -0.274 OA
HETATM   24  H4  UNL     1      20.395   1.569  47.096  1.00  0.00     0.169 HD
ENDBRANCH   1  20
TORSDOF 1
ENDMDL
MODEL 9
REMARK VINA RESULT:      -6.4      4.324      6.760
REMARK  1 active torsions:
REMARK  status: ('A' for Active; 'I' for Inactive)
REMARK       I    between atoms: C2_2  and  N1_4 
REMARK    1  A    between atoms: N1_4  and  C3_5 
ROOT
HETATM    1  C3  UNL     1      22.576   7.172  50.737  1.00  0.00     0.031 C 
HETATM    2  C4  UNL     1      22.280   5.898  51.039  1.00  0.00     0.006 C 
HETATM    3  C5  UNL     1      23.359   4.933  50.883  1.00  0.00     0.056 C 
HETATM    4  C6  UNL     1      23.248   3.976  49.781  1.00  0.00    -0.021 C 
HETATM    5  C7  UNL     1      23.387   2.672  49.575  1.00  0.00     0.013 C 
HETATM    6  P1  UNL     1      23.843   2.178  51.263  1.00  0.00    -0.022 P 
HETATM    7  C8  UNL     1      25.289   2.654  51.915  1.00  0.00    -0.011 C 
HETATM    8  C9  UNL     1      26.139   2.996  50.992  1.00  0.00     0.015 C 
HETATM    9  C10 UNL     1      26.146   3.320  49.571  1.00  0.00     0.018 C 
HETATM   10  C11 UNL     1      26.393   4.538  49.038  1.00  0.00     0.090 C 
HETATM   11  N2  UNL     1      26.682   5.697  49.778  1.00  0.00    -0.350 N 
HETATM   12  C12 UNL     1      26.157   7.040  49.656  1.00  0.00     0.136 C 
HETATM   13  N3  UNL     1      27.233   7.349  49.075  1.00  0.00    -0.224 NA
HETATM   14  C13 UNL     1      27.539   8.655  48.599  1.00  0.00     0.229 C 
HETATM   15  N4  UNL     1      26.622   9.489  48.841  1.00  0.00    -0.278 NA
HETATM   16  C14 UNL     1      25.387   9.341  49.495  1.00  0.00     0.192 C 
HETATM   17  C15 UNL     1      25.033   7.935  49.861  1.00  0.00     0.010 C 
HETATM   18  C16 UNL     1      23.815   7.726  50.265  1.00  0.00     0.042 C 
HETATM   19  H13 UNL     1      27.375   5.295  50.435  1.00  0.00     0.166 HD
ENDROOT
BRANCH   1  20
HETATM   20  N1  UNL     1      21.347   7.829  50.991  1.00  0.00    -0.328 N 
HETATM   21  C2  UNL     1      20.737   8.401  49.841  1.00  0.00     0.218 C 
HETATM   22  C1  UNL     1      19.442   9.113  50.007  1.00  0.00     0.117 C 
HETATM   23  O1  UNL     1      21.246   8.331  48.687  1.00  0.00    -0.274 OA
HETATM   24  H4  UNL     1      20.864   7.927  51.908  1.00  0.00     0.169 HD
ENDBRANCH   1  20
TORSDOF 1
ENDMDL
