MODEL 1
REMARK VINA RESULT:      -7.3      0.000      0.000
REMARK  5 active torsions:
REMARK  status: ('A' for Active; 'I' for Inactive)
REMARK    1  A    between atoms: C2_2  and  C3_3 
REMARK    2  A    between atoms: N1_7  and  C7_8 
REMARK    3  A    between atoms: C8_9  and  C9_10 
REMARK    4  A    between atoms: C10_11  and  N2_12 
REMARK    5  A    between atoms: C14_16  and  O1_17 
ROOT
HETATM    1  C7  UNL     1      24.111   0.528  52.983  1.00  0.00     0.133 A 
HETATM    2  C8  UNL     1      23.246   1.415  52.508  1.00  0.00     0.008 A 
HETATM    3  C16 UNL     1      21.904   1.093  53.058  1.00  0.00     0.090 A 
HETATM    4  C17 UNL     1      22.204  -0.104  53.900  1.00  0.00     0.096 A 
HETATM    5  N3  UNL     1      23.456  -0.402  53.840  1.00  0.00    -0.247 NA
ENDROOT
BRANCH   2   6
HETATM    6  C9  UNL     1      23.414   2.545  51.600  1.00  0.00     0.034 A 
HETATM    7  C10 UNL     1      23.903   3.759  52.036  1.00  0.00     0.039 A 
HETATM    8  C11 UNL     1      24.072   4.891  51.251  1.00  0.00     0.030 A 
HETATM    9  C12 UNL     1      23.715   4.776  49.917  1.00  0.00     0.005 A 
HETATM   10  C13 UNL     1      23.219   3.594  49.405  1.00  0.00     0.038 A 
HETATM   11  C14 UNL     1      23.081   2.518  50.254  1.00  0.00     0.081 A 
BRANCH   7  12
HETATM   12  N2  UNL     1      24.304   3.971  53.384  1.00  0.00    -0.398 N 
HETATM   13  H9  UNL     1      24.041   3.275  54.138  1.00  0.00     0.156 HD
HETATM   14  H10 UNL     1      24.829   4.631  54.022  1.00  0.00     0.156 HD
ENDBRANCH   7  12
BRANCH  11  15
HETATM   15  O1  UNL     1      22.585   1.359  49.736  1.00  0.00    -0.355 OA
HETATM   16  C15 UNL     1      21.424   1.141  49.011  1.00  0.00     0.210 C 
ENDBRANCH  11  15
ENDBRANCH   2   6
BRANCH   1  17
HETATM   17  N1  UNL     1      25.506   0.354  52.786  1.00  0.00    -0.361 N 
HETATM   18  C6  UNL     1      26.083   0.943  51.568  1.00  0.00     0.151 C 
HETATM   19  C5  UNL     1      26.983   2.032  52.069  1.00  0.00    -0.010 C 
HETATM   20  C4  UNL     1      27.547   1.898  53.272  1.00  0.00    -0.019 C 
HETATM   21  C3  UNL     1      27.395   0.752  54.227  1.00  0.00     0.048 C 
HETATM   22  C18 UNL     1      26.544  -0.320  53.581  1.00  0.00     0.137 C 
BRANCH  21  23
HETATM   23  C2  UNL     1      28.716   0.199  54.625  1.00  0.00    -0.027 C 
HETATM   24  C1  UNL     1      29.490  -0.524  53.828  1.00  0.00     0.007 C 
ENDBRANCH  21  23
ENDBRANCH   1  17
TORSDOF 5
ENDMDL
MODEL 2
REMARK VINA RESULT:      -7.1      2.277      4.325
REMARK  5 active torsions:
REMARK  status: ('A' for Active; 'I' for Inactive)
REMARK    1  A    between atoms: C2_2  and  C3_3 
REMARK    2  A    between atoms: N1_7  and  C7_8 
REMARK    3  A    between atoms: C8_9  and  C9_10 
REMARK    4  A    between atoms: C10_11  and  N2_12 
REMARK    5  A    between atoms: C14_16  and  O1_17 
ROOT
HETATM    1  C7  UNL     1      25.845   3.681  50.075  1.00  0.00     0.133 A 
HETATM    2  C8  UNL     1      25.118   4.719  49.683  1.00  0.00     0.008 A 
HETATM    3  C16 UNL     1      25.978   5.595  48.845  1.00  0.00     0.090 A 
HETATM    4  C17 UNL     1      27.271   4.847  48.857  1.00  0.00     0.096 A 
HETATM    5  N3  UNL     1      27.169   3.771  49.559  1.00  0.00    -0.247 NA
ENDROOT
BRANCH   2   6
HETATM    6  C9  UNL     1      23.732   5.089  49.946  1.00  0.00     0.034 A 
HETATM    7  C10 UNL     1      23.392   5.943  50.974  1.00  0.00     0.039 A 
HETATM    8  C11 UNL     1      22.102   6.328  51.311  1.00  0.00     0.030 A 
HETATM    9  C12 UNL     1      21.079   5.803  50.538  1.00  0.00     0.005 A 
HETATM   10  C13 UNL     1      21.338   4.942  49.491  1.00  0.00     0.038 A 
HETATM   11  C14 UNL     1      22.649   4.609  49.225  1.00  0.00     0.081 A 
BRANCH   7  12
HETATM   12  N2  UNL     1      24.371   6.539  51.816  1.00  0.00    -0.398 N 
HETATM   13  H9  UNL     1      24.200   6.630  52.857  1.00  0.00     0.156 HD
HETATM   14  H10 UNL     1      25.328   6.987  51.822  1.00  0.00     0.156 HD
ENDBRANCH   7  12
BRANCH  11  15
HETATM   15  O1  UNL     1      22.890   3.755  48.191  1.00  0.00    -0.355 OA
HETATM   16  C15 UNL     1      22.365   2.496  47.944  1.00  0.00     0.210 C 
ENDBRANCH  11  15
ENDBRANCH   2   6
BRANCH   1  17
HETATM   17  N1  UNL     1      25.544   2.555  50.886  1.00  0.00    -0.361 N 
HETATM   18  C6  UNL     1      26.667   1.942  51.612  1.00  0.00     0.151 C 
HETATM   19  C5  UNL     1      26.367   2.204  53.056  1.00  0.00    -0.010 C 
HETATM   20  C4  UNL     1      25.093   2.310  53.440  1.00  0.00    -0.019 C 
HETATM   21  C3  UNL     1      23.869   2.196  52.580  1.00  0.00     0.048 C 
HETATM   22  C18 UNL     1      24.288   1.842  51.169  1.00  0.00     0.137 C 
BRANCH  21  23
HETATM   23  C2  UNL     1      22.926   1.177  53.112  1.00  0.00    -0.027 C 
HETATM   24  C1  UNL     1      23.270  -0.062  53.428  1.00  0.00     0.007 C 
ENDBRANCH  21  23
ENDBRANCH   1  17
TORSDOF 5
ENDMDL
MODEL 3
REMARK VINA RESULT:      -7.0      1.796      3.142
REMARK  5 active torsions:
REMARK  status: ('A' for Active; 'I' for Inactive)
REMARK    1  A    between atoms: C2_2  and  C3_3 
REMARK    2  A    between atoms: N1_7  and  C7_8 
REMARK    3  A    between atoms: C8_9  and  C9_10 
REMARK    4  A    between atoms: C10_11  and  N2_12 
REMARK    5  A    between atoms: C14_16  and  O1_17 
ROOT
HETATM    1  C7  UNL     1      25.815   2.925  51.164  1.00  0.00     0.133 A 
HETATM    2  C8  UNL     1      24.758   3.533  50.643  1.00  0.00     0.008 A 
HETATM    3  C16 UNL     1      25.193   4.245  49.413  1.00  0.00     0.090 A 
HETATM    4  C17 UNL     1      26.649   3.910  49.372  1.00  0.00     0.096 A 
HETATM    5  N3  UNL     1      26.974   3.165  50.371  1.00  0.00    -0.247 NA
ENDROOT
BRANCH   2   6
HETATM    6  C9  UNL     1      23.366   3.601  51.074  1.00  0.00     0.034 A 
HETATM    7  C10 UNL     1      22.950   4.490  52.043  1.00  0.00     0.039 A 
HETATM    8  C11 UNL     1      21.656   4.606  52.532  1.00  0.00     0.030 A 
HETATM    9  C12 UNL     1      20.712   3.751  51.988  1.00  0.00     0.005 A 
HETATM   10  C13 UNL     1      21.050   2.833  51.012  1.00  0.00     0.038 A 
HETATM   11  C14 UNL     1      22.359   2.782  50.586  1.00  0.00     0.081 A 
BRANCH   7  12
HETATM   12  N2  UNL     1      23.843   5.413  52.653  1.00  0.00    -0.398 N 
HETATM   13  H9  UNL     1      23.948   6.394  52.267  1.00  0.00     0.156 HD
HETATM   14  H10 UNL     1      24.537   5.533  53.443  1.00  0.00     0.156 HD
ENDBRANCH   7  12
BRANCH  11  15
HETATM   15  O1  UNL     1      22.679   1.869  49.626  1.00  0.00    -0.355 OA
HETATM   16  C15 UNL     1      22.001   1.534  48.464  1.00  0.00     0.210 C 
ENDBRANCH  11  15
ENDBRANCH   2   6
BRANCH   1  17
HETATM   17  N1  UNL     1      25.981   2.123  52.323  1.00  0.00    -0.361 N 
HETATM   18  C6  UNL     1      24.787   1.421  52.820  1.00  0.00     0.151 C 
HETATM   19  C5  UNL     1      25.091  -0.031  52.606  1.00  0.00    -0.010 C 
HETATM   20  C4  UNL     1      26.362  -0.435  52.640  1.00  0.00    -0.019 C 
HETATM   21  C3  UNL     1      27.580   0.408  52.876  1.00  0.00     0.048 C 
HETATM   22  C18 UNL     1      27.149   1.829  53.169  1.00  0.00     0.137 C 
BRANCH  21  23
HETATM   23  C2  UNL     1      28.401  -0.127  53.994  1.00  0.00    -0.027 C 
HETATM   24  C1  UNL     1      29.530  -0.801  53.833  1.00  0.00     0.007 C 
ENDBRANCH  21  23
ENDBRANCH   1  17
TORSDOF 5
ENDMDL
MODEL 4
REMARK VINA RESULT:      -6.8      8.545      9.970
REMARK  5 active torsions:
REMARK  status: ('A' for Active; 'I' for Inactive)
REMARK    1  A    between atoms: C2_2  and  C3_3 
REMARK    2  A    between atoms: N1_7  and  C7_8 
REMARK    3  A    between atoms: C8_9  and  C9_10 
REMARK    4  A    between atoms: C10_11  and  N2_12 
REMARK    5  A    between atoms: C14_16  and  O1_17 
ROOT
HETATM    1  C7  UNL     1      30.109   6.040  48.225  1.00  0.00     0.133 A 
HETATM    2  C8  UNL     1      29.624   7.261  48.037  1.00  0.00     0.008 A 
HETATM    3  C16 UNL     1      28.142   7.184  48.100  1.00  0.00     0.090 A 
HETATM    4  C17 UNL     1      27.927   5.727  48.355  1.00  0.00     0.096 A 
HETATM    5  N3  UNL     1      29.054   5.105  48.421  1.00  0.00    -0.247 NA
ENDROOT
BRANCH   2   6
HETATM    6  C9  UNL     1      30.282   8.539  47.790  1.00  0.00     0.034 A 
HETATM    7  C10 UNL     1      30.323   9.530  48.748  1.00  0.00     0.039 A 
HETATM    8  C11 UNL     1      30.903  10.782  48.591  1.00  0.00     0.030 A 
HETATM    9  C12 UNL     1      31.487  11.042  47.362  1.00  0.00     0.005 A 
HETATM   10  C13 UNL     1      31.488  10.100  46.352  1.00  0.00     0.038 A 
HETATM   11  C14 UNL     1      30.888   8.883  46.590  1.00  0.00     0.081 A 
BRANCH   7  12
HETATM   12  N2  UNL     1      29.760   9.354  50.041  1.00  0.00    -0.398 N 
HETATM   13  H9  UNL     1      29.508   8.386  50.390  1.00  0.00     0.156 HD
HETATM   14  H10 UNL     1      29.450   9.868  50.912  1.00  0.00     0.156 HD
ENDBRANCH   7  12
BRANCH  11  15
HETATM   15  O1  UNL     1      30.892   7.965  45.584  1.00  0.00    -0.355 OA
HETATM   16  C15 UNL     1      31.483   8.030  44.331  1.00  0.00     0.210 C 
ENDBRANCH  11  15
ENDBRANCH   2   6
BRANCH   1  17
HETATM   17  N1  UNL     1      31.435   5.533  48.257  1.00  0.00    -0.361 N 
HETATM   18  C6  UNL     1      31.727   4.385  47.383  1.00  0.00     0.151 C 
HETATM   19  C5  UNL     1      32.687   4.924  46.367  1.00  0.00    -0.010 C 
HETATM   20  C4  UNL     1      33.496   5.928  46.713  1.00  0.00    -0.019 C 
HETATM   21  C3  UNL     1      33.577   6.615  48.043  1.00  0.00     0.048 C 
HETATM   22  C18 UNL     1      32.634   5.932  49.011  1.00  0.00     0.137 C 
BRANCH  21  23
HETATM   23  C2  UNL     1      34.964   6.605  48.576  1.00  0.00    -0.027 C 
HETATM   24  C1  UNL     1      35.509   5.580  49.215  1.00  0.00     0.007 C 
ENDBRANCH  21  23
ENDBRANCH   1  17
TORSDOF 5
ENDMDL
MODEL 5
REMARK VINA RESULT:      -6.7      2.648      4.305
REMARK  5 active torsions:
REMARK  status: ('A' for Active; 'I' for Inactive)
REMARK    1  A    between atoms: C2_2  and  C3_3 
REMARK    2  A    between atoms: N1_7  and  C7_8 
REMARK    3  A    between atoms: C8_9  and  C9_10 
REMARK    4  A    between atoms: C10_11  and  N2_12 
REMARK    5  A    between atoms: C14_16  and  O1_17 
ROOT
HETATM    1  C7  UNL     1      23.983   3.365  50.200  1.00  0.00     0.133 A 
HETATM    2  C8  UNL     1      23.899   4.522  49.557  1.00  0.00     0.008 A 
HETATM    3  C16 UNL     1      22.979   4.344  48.403  1.00  0.00     0.090 A 
HETATM    4  C17 UNL     1      22.592   2.908  48.547  1.00  0.00     0.096 A 
HETATM    5  N3  UNL     1      23.173   2.379  49.569  1.00  0.00    -0.247 NA
ENDROOT
BRANCH   2   6
HETATM    6  C9  UNL     1      24.531   5.815  49.797  1.00  0.00     0.034 A 
HETATM    7  C10 UNL     1      23.892   6.817  50.496  1.00  0.00     0.039 A 
HETATM    8  C11 UNL     1      24.406   8.081  50.749  1.00  0.00     0.030 A 
HETATM    9  C12 UNL     1      25.672   8.343  50.251  1.00  0.00     0.005 A 
HETATM   10  C13 UNL     1      26.378   7.391  49.542  1.00  0.00     0.038 A 
HETATM   11  C14 UNL     1      25.792   6.161  49.333  1.00  0.00     0.081 A 
BRANCH   7  12
HETATM   12  N2  UNL     1      22.595   6.640  51.053  1.00  0.00    -0.398 N 
HETATM   13  H9  UNL     1      22.351   7.067  51.990  1.00  0.00     0.156 HD
HETATM   14  H10 UNL     1      21.651   6.194  50.886  1.00  0.00     0.156 HD
ENDBRANCH   7  12
BRANCH  11  15
HETATM   15  O1  UNL     1      26.497   5.233  48.628  1.00  0.00    -0.355 OA
HETATM   16  C15 UNL     1      27.866   5.016  48.576  1.00  0.00     0.210 C 
ENDBRANCH  11  15
ENDBRANCH   2   6
BRANCH   1  17
HETATM   17  N1  UNL     1      24.712   2.962  51.350  1.00  0.00    -0.361 N 
HETATM   18  C6  UNL     1      24.022   3.072  52.645  1.00  0.00     0.151 C 
HETATM   19  C5  UNL     1      23.848   1.654  53.098  1.00  0.00    -0.010 C 
HETATM   20  C4  UNL     1      24.742   0.740  52.711  1.00  0.00    -0.019 C 
HETATM   21  C3  UNL     1      25.949   0.955  51.847  1.00  0.00     0.048 C 
HETATM   22  C18 UNL     1      26.072   2.430  51.527  1.00  0.00     0.137 C 
BRANCH  21  23
HETATM   23  C2  UNL     1      27.184   0.462  52.510  1.00  0.00    -0.027 C 
HETATM   24  C1  UNL     1      27.365  -0.787  52.913  1.00  0.00     0.007 C 
ENDBRANCH  21  23
ENDBRANCH   1  17
TORSDOF 5
ENDMDL
MODEL 6
REMARK VINA RESULT:      -6.7      2.020      4.350
REMARK  5 active torsions:
REMARK  status: ('A' for Active; 'I' for Inactive)
REMARK    1  A    between atoms: C2_2  and  C3_3 
REMARK    2  A    between atoms: N1_7  and  C7_8 
REMARK    3  A    between atoms: C8_9  and  C9_10 
REMARK    4  A    between atoms: C10_11  and  N2_12 
REMARK    5  A    between atoms: C14_16  and  O1_17 
ROOT
HETATM    1  C7  UNL     1      23.134   2.043  50.547  1.00  0.00     0.133 A 
HETATM    2  C8  UNL     1      22.261   1.160  51.015  1.00  0.00     0.008 A 
HETATM    3  C16 UNL     1      21.401   0.717  49.887  1.00  0.00     0.090 A 
HETATM    4  C17 UNL     1      21.965   1.508  48.751  1.00  0.00     0.096 A 
HETATM    5  N3  UNL     1      22.941   2.248  49.151  1.00  0.00    -0.247 NA
ENDROOT
BRANCH   2   6
HETATM    6  C9  UNL     1      22.044   0.625  52.355  1.00  0.00     0.034 A 
HETATM    7  C10 UNL     1      20.909   0.921  53.079  1.00  0.00     0.039 A 
HETATM    8  C11 UNL     1      20.631   0.479  54.365  1.00  0.00     0.030 A 
HETATM    9  C12 UNL     1      21.587  -0.331  54.958  1.00  0.00     0.005 A 
HETATM   10  C13 UNL     1      22.750  -0.673  54.298  1.00  0.00     0.038 A 
HETATM   11  C14 UNL     1      22.948  -0.189  53.023  1.00  0.00     0.081 A 
BRANCH   7  12
HETATM   12  N2  UNL     1      19.869   1.735  52.552  1.00  0.00    -0.398 N 
HETATM   13  H9  UNL     1      19.615   1.684  51.524  1.00  0.00     0.156 HD
HETATM   14  H10 UNL     1      19.150   2.469  52.805  1.00  0.00     0.156 HD
ENDBRANCH   7  12
BRANCH  11  15
HETATM   15  O1  UNL     1      24.102  -0.531  52.385  1.00  0.00    -0.355 OA
HETATM   16  C15 UNL     1      25.289  -1.019  52.909  1.00  0.00     0.210 C 
ENDBRANCH  11  15
ENDBRANCH   2   6
BRANCH   1  17
HETATM   17  N1  UNL     1      24.170   2.786  51.172  1.00  0.00    -0.361 N 
HETATM   18  C6  UNL     1      23.757   3.834  52.118  1.00  0.00     0.151 C 
HETATM   19  C5  UNL     1      24.237   3.346  53.451  1.00  0.00    -0.010 C 
HETATM   20  C4  UNL     1      25.320   2.567  53.500  1.00  0.00    -0.019 C 
HETATM   21  C3  UNL     1      26.157   2.098  52.348  1.00  0.00     0.048 C 
HETATM   22  C18 UNL     1      25.636   2.723  51.071  1.00  0.00     0.137 C 
BRANCH  21  23
HETATM   23  C2  UNL     1      27.591   2.438  52.545  1.00  0.00    -0.027 C 
HETATM   24  C1  UNL     1      28.295   2.100  53.615  1.00  0.00     0.007 C 
ENDBRANCH  21  23
ENDBRANCH   1  17
TORSDOF 5
ENDMDL
MODEL 7
REMARK VINA RESULT:      -6.7      8.954     10.615
REMARK  5 active torsions:
REMARK  status: ('A' for Active; 'I' for Inactive)
REMARK    1  A    between atoms: C2_2  and  C3_3 
REMARK    2  A    between atoms: N1_7  and  C7_8 
REMARK    3  A    between atoms: C8_9  and  C9_10 
REMARK    4  A    between atoms: C10_11  and  N2_12 
REMARK    5  A    between atoms: C14_16  and  O1_17 
ROOT
HETATM    1  C7  UNL     1      33.261   6.286  47.312  1.00  0.00     0.133 A 
HETATM    2  C8  UNL     1      32.418   7.287  47.527  1.00  0.00     0.008 A 
HETATM    3  C16 UNL     1      33.174   8.402  48.156  1.00  0.00     0.090 A 
HETATM    4  C17 UNL     1      34.550   7.825  48.233  1.00  0.00     0.096 A 
HETATM    5  N3  UNL     1      34.572   6.631  47.751  1.00  0.00    -0.247 NA
ENDROOT
BRANCH   2   6
HETATM    6  C9  UNL     1      30.989   7.426  47.267  1.00  0.00     0.034 A 
HETATM    7  C10 UNL     1      30.043   6.891  48.116  1.00  0.00     0.039 A 
HETATM    8  C11 UNL     1      28.668   6.953  47.935  1.00  0.00     0.030 A 
HETATM    9  C12 UNL     1      28.224   7.614  46.801  1.00  0.00     0.005 A 
HETATM   10  C13 UNL     1      29.109   8.177  45.903  1.00  0.00     0.038 A 
HETATM   11  C14 UNL     1      30.459   8.068  46.158  1.00  0.00     0.081 A 
BRANCH   7  12
HETATM   12  N2  UNL     1      30.400   6.203  49.308  1.00  0.00    -0.398 N 
HETATM   13  H9  UNL     1      30.064   6.552  50.250  1.00  0.00     0.156 HD
HETATM   14  H10 UNL     1      30.938   5.374  49.684  1.00  0.00     0.156 HD
ENDBRANCH   7  12
BRANCH  11  15
HETATM   15  O1  UNL     1      31.322   8.625  45.262  1.00  0.00    -0.355 OA
HETATM   16  C15 UNL     1      31.065   9.186  44.021  1.00  0.00     0.210 C 
ENDBRANCH  11  15
ENDBRANCH   2   6
BRANCH   1  17
HETATM   17  N1  UNL     1      33.087   4.993  46.753  1.00  0.00    -0.361 N 
HETATM   18  C6  UNL     1      33.695   4.753  45.435  1.00  0.00     0.151 C 
HETATM   19  C5  UNL     1      34.773   3.747  45.698  1.00  0.00    -0.010 C 
HETATM   20  C4  UNL     1      34.620   2.887  46.707  1.00  0.00    -0.019 C 
HETATM   21  C3  UNL     1      33.459   2.789  47.652  1.00  0.00     0.048 C 
HETATM   22  C18 UNL     1      32.399   3.786  47.237  1.00  0.00     0.137 C 
BRANCH  21  23
HETATM   23  C2  UNL     1      32.897   1.413  47.680  1.00  0.00    -0.027 C 
HETATM   24  C1  UNL     1      32.200   0.875  46.690  1.00  0.00     0.007 C 
ENDBRANCH  21  23
ENDBRANCH   1  17
TORSDOF 5
ENDMDL
MODEL 8
REMARK VINA RESULT:      -6.6      9.273     11.252
REMARK  5 active torsions:
REMARK  status: ('A' for Active; 'I' for Inactive)
REMARK    1  A    between atoms: C2_2  and  C3_3 
REMARK    2  A    between atoms: N1_7  and  C7_8 
REMARK    3  A    between atoms: C8_9  and  C9_10 
REMARK    4  A    between atoms: C10_11  and  N2_12 
REMARK    5  A    between atoms: C14_16  and  O1_17 
ROOT
HETATM    1  C7  UNL     1      32.512   4.771  47.828  1.00  0.00     0.133 A 
HETATM    2  C8  UNL     1      33.540   5.271  47.156  1.00  0.00     0.008 A 
HETATM    3  C16 UNL     1      34.402   4.142  46.720  1.00  0.00     0.090 A 
HETATM    4  C17 UNL     1      33.657   2.968  47.269  1.00  0.00     0.096 A 
HETATM    5  N3  UNL     1      32.595   3.351  47.889  1.00  0.00    -0.247 NA
ENDROOT
BRANCH   2   6
HETATM    6  C9  UNL     1      33.911   6.644  46.828  1.00  0.00     0.034 A 
HETATM    7  C10 UNL     1      34.751   7.381  47.637  1.00  0.00     0.039 A 
HETATM    8  C11 UNL     1      35.136   8.696  47.417  1.00  0.00     0.030 A 
HETATM    9  C12 UNL     1      34.626   9.307  46.283  1.00  0.00     0.005 A 
HETATM   10  C13 UNL     1      33.779   8.636  45.423  1.00  0.00     0.038 A 
HETATM   11  C14 UNL     1      33.445   7.331  45.717  1.00  0.00     0.081 A 
BRANCH   7  12
HETATM   12  N2  UNL     1      35.331   6.838  48.816  1.00  0.00    -0.398 N 
HETATM   13  H9  UNL     1      36.146   7.324  49.286  1.00  0.00     0.156 HD
HETATM   14  H10 UNL     1      35.268   6.038  49.505  1.00  0.00     0.156 HD
ENDBRANCH   7  12
BRANCH  11  15
HETATM   15  O1  UNL     1      32.606   6.682  44.862  1.00  0.00    -0.355 OA
HETATM   16  C15 UNL     1      32.824   6.262  43.559  1.00  0.00     0.210 C 
ENDBRANCH  11  15
ENDBRANCH   2   6
BRANCH   1  17
HETATM   17  N1  UNL     1      31.401   5.381  48.469  1.00  0.00    -0.361 N 
HETATM   18  C6  UNL     1      31.680   6.135  49.702  1.00  0.00     0.151 C 
HETATM   19  C5  UNL     1      31.384   7.559  49.343  1.00  0.00    -0.010 C 
HETATM   20  C4  UNL     1      30.464   7.811  48.409  1.00  0.00    -0.019 C 
HETATM   21  C3  UNL     1      29.651   6.813  47.638  1.00  0.00     0.048 C 
HETATM   22  C18 UNL     1      29.967   5.421  48.145  1.00  0.00     0.137 C 
BRANCH  21  23
HETATM   23  C2  UNL     1      28.196   7.091  47.757  1.00  0.00    -0.027 C 
HETATM   24  C1  UNL     1      27.338   6.306  48.391  1.00  0.00     0.007 C 
ENDBRANCH  21  23
ENDBRANCH   1  17
TORSDOF 5
ENDMDL
MODEL 9
REMARK VINA RESULT:      -6.5      2.347      3.925
REMARK  5 active torsions:
REMARK  status: ('A' for Active; 'I' for Inactive)
REMARK    1  A    between atoms: C2_2  and  C3_3 
REMARK    2  A    between atoms: N1_7  and  C7_8 
REMARK    3  A    between atoms: C8_9  and  C9_10 
REMARK    4  A    between atoms: C10_11  and  N2_12 
REMARK    5  A    between atoms: C14_16  and  O1_17 
ROOT
HETATM    1  C7  UNL     1      25.901   3.070  51.029  1.00  0.00     0.133 A 
HETATM    2  C8  UNL     1      24.858   3.681  50.483  1.00  0.00     0.008 A 
HETATM    3  C16 UNL     1      25.300   4.298  49.205  1.00  0.00     0.090 A 
HETATM    4  C17 UNL     1      26.742   3.908  49.167  1.00  0.00     0.096 A 
HETATM    5  N3  UNL     1      27.055   3.216  50.208  1.00  0.00    -0.247 NA
ENDROOT
BRANCH   2   6
HETATM    6  C9  UNL     1      23.476   3.827  50.927  1.00  0.00     0.034 A 
HETATM    7  C10 UNL     1      22.527   2.859  50.673  1.00  0.00     0.039 A 
HETATM    8  C11 UNL     1      21.188   2.925  51.035  1.00  0.00     0.030 A 
HETATM    9  C12 UNL     1      20.787   4.067  51.710  1.00  0.00     0.005 A 
HETATM   10  C13 UNL     1      21.678   5.081  52.002  1.00  0.00     0.038 A 
HETATM   11  C14 UNL     1      22.989   4.936  51.604  1.00  0.00     0.081 A 
BRANCH   7  12
HETATM   12  N2  UNL     1      22.844   1.650  49.995  1.00  0.00    -0.398 N 
HETATM   13  H9  UNL     1      22.864   0.730  50.520  1.00  0.00     0.156 HD
HETATM   14  H10 UNL     1      23.103   1.245  49.054  1.00  0.00     0.156 HD
ENDBRANCH   7  12
BRANCH  11  15
HETATM   15  O1  UNL     1      23.857   5.945  51.896  1.00  0.00    -0.355 OA
HETATM   16  C15 UNL     1      24.064   7.149  51.240  1.00  0.00     0.210 C 
ENDBRANCH  11  15
ENDBRANCH   2   6
BRANCH   1  17
HETATM   17  N1  UNL     1      26.055   2.337  52.236  1.00  0.00    -0.361 N 
HETATM   18  C6  UNL     1      24.824   1.996  52.966  1.00  0.00     0.151 C 
HETATM   19  C5  UNL     1      24.737   0.503  52.872  1.00  0.00    -0.010 C 
HETATM   20  C4  UNL     1      25.864  -0.204  52.775  1.00  0.00    -0.019 C 
HETATM   21  C3  UNL     1      27.269   0.321  52.747  1.00  0.00     0.048 C 
HETATM   22  C18 UNL     1      27.240   1.822  52.940  1.00  0.00     0.137 C 
BRANCH  21  23
HETATM   23  C2  UNL     1      28.108  -0.321  53.794  1.00  0.00    -0.027 C 
HETATM   24  C1  UNL     1      29.333  -0.779  53.588  1.00  0.00     0.007 C 
ENDBRANCH  21  23
ENDBRANCH   1  17
TORSDOF 5
ENDMDL
