MODEL 1
REMARK VINA RESULT:      -8.7      0.000      0.000
REMARK  4 active torsions:
REMARK  status: ('A' for Active; 'I' for Inactive)
REMARK    1  A    between atoms: C13_17  and  C14_18 
REMARK    2  A    between atoms: C14_18  and  O3_19 
REMARK    3  A    between atoms: O3_19  and  C15_20 
REMARK    4  A    between atoms: C15_20  and  C16_21 
ROOT
HETATM    1  O1  UNL     1      22.529  -1.222  54.355  1.00  0.00    -0.269 OA
HETATM    2  C1  UNL     1      23.189  -0.343  53.756  1.00  0.00     0.241 C 
HETATM    3  C2  UNL     1      24.586  -0.037  53.388  1.00  0.00     0.076 C 
HETATM    4  C3  UNL     1      24.943   1.032  52.705  1.00  0.00     0.037 C 
HETATM    5  C4  UNL     1      24.221   2.152  52.133  1.00  0.00     0.054 C 
HETATM    6  C5  UNL     1      23.608   2.458  50.995  1.00  0.00     0.036 C 
HETATM    7  C6  UNL     1      22.228   3.083  51.005  1.00  0.00     0.060 C 
HETATM    8  C7  UNL     1      22.026   3.456  49.526  1.00  0.00     0.062 C 
HETATM    9  C8  UNL     1      22.278   2.254  48.619  1.00  0.00     0.170 C 
HETATM   10  O2  UNL     1      21.075   1.656  48.254  1.00  0.00    -0.389 OA
HETATM   11  C9  UNL     1      20.260   1.391  49.337  1.00  0.00     0.187 C 
HETATM   12  C10 UNL     1      21.031   1.051  50.587  1.00  0.00     0.144 C 
HETATM   13  N1  UNL     1      21.197   2.214  51.389  1.00  0.00    -0.396 N 
HETATM   14  C11 UNL     1      20.639   2.202  52.670  1.00  0.00     0.137 C 
HETATM   15  C12 UNL     1      20.621   0.872  53.408  1.00  0.00     0.142 C 
HETATM   16  N2  UNL     1      21.915   0.262  53.582  1.00  0.00    -0.356 N 
HETATM   17  C13 UNL     1      22.345   4.344  51.765  1.00  0.00     0.082 C 
HETATM   18  C22 UNL     1      23.504   4.330  52.738  1.00  0.00     0.099 C 
HETATM   19  N3  UNL     1      24.136   3.222  53.064  1.00  0.00    -0.265 NA
HETATM   20  H16 UNL     1      22.433   1.006  53.113  1.00  0.00     0.162 HD
ENDROOT
BRANCH  17  21
HETATM   21  C14 UNL     1      22.575   5.594  50.942  1.00  0.00     0.180 C 
BRANCH  21  22
HETATM   22  O3  UNL     1      23.728   6.271  51.204  1.00  0.00    -0.386 OA
BRANCH  22  23
HETATM   23  C15 UNL     1      24.360   6.851  50.125  1.00  0.00     0.206 C 
BRANCH  23  24
HETATM   24  C16 UNL     1      25.516   6.073  49.615  1.00  0.00    -0.032 A 
HETATM   25  C17 UNL     1      26.539   6.810  49.000  1.00  0.00     0.009 A 
HETATM   26  C18 UNL     1      27.699   6.292  48.461  1.00  0.00     0.004 A 
HETATM   27  C19 UNL     1      27.879   4.929  48.527  1.00  0.00     0.042 A 
HETATM   28  C20 UNL     1      26.899   4.169  49.124  1.00  0.00     0.117 A 
HETATM   29  F1  UNL     1      27.011   2.819  49.224  1.00  0.00    -0.206 F 
HETATM   30  C21 UNL     1      25.763   4.717  49.647  1.00  0.00     0.051 A 
ENDBRANCH  23  24
ENDBRANCH  22  23
ENDBRANCH  21  22
ENDBRANCH  17  21
TORSDOF 4
ENDMDL
MODEL 2
REMARK VINA RESULT:      -8.6      6.586     10.009
REMARK  4 active torsions:
REMARK  status: ('A' for Active; 'I' for Inactive)
REMARK    1  A    between atoms: C13_17  and  C14_18 
REMARK    2  A    between atoms: C14_18  and  O3_19 
REMARK    3  A    between atoms: O3_19  and  C15_20 
REMARK    4  A    between atoms: C15_20  and  C16_21 
ROOT
HETATM    1  O1  UNL     1      26.172   7.185  49.432  1.00  0.00    -0.269 OA
HETATM    2  C1  UNL     1      27.228   6.646  49.030  1.00  0.00     0.241 C 
HETATM    3  C2  UNL     1      27.704   5.352  48.502  1.00  0.00     0.076 C 
HETATM    4  C3  UNL     1      28.953   5.124  48.147  1.00  0.00     0.037 C 
HETATM    5  C4  UNL     1      30.162   5.924  48.135  1.00  0.00     0.054 C 
HETATM    6  C5  UNL     1      30.789   6.757  47.312  1.00  0.00     0.036 C 
HETATM    7  C6  UNL     1      31.310   8.090  47.811  1.00  0.00     0.060 C 
HETATM    8  C7  UNL     1      32.132   8.591  46.610  1.00  0.00     0.062 C 
HETATM    9  C8  UNL     1      31.302   8.564  45.328  1.00  0.00     0.170 C 
HETATM   10  O2  UNL     1      30.797   9.829  45.046  1.00  0.00    -0.389 OA
HETATM   11  C9  UNL     1      30.157  10.403  46.126  1.00  0.00     0.187 C 
HETATM   12  C10 UNL     1      29.468   9.393  47.008  1.00  0.00     0.144 C 
HETATM   13  N1  UNL     1      30.315   9.035  48.094  1.00  0.00    -0.396 N 
HETATM   14  C11 UNL     1      29.862   9.311  49.386  1.00  0.00     0.137 C 
HETATM   15  C12 UNL     1      28.366   9.202  49.637  1.00  0.00     0.142 C 
HETATM   16  N2  UNL     1      27.795   7.914  49.330  1.00  0.00    -0.356 N 
HETATM   17  C13 UNL     1      32.261   7.786  48.898  1.00  0.00     0.082 C 
HETATM   18  C22 UNL     1      31.989   6.448  49.552  1.00  0.00     0.099 C 
HETATM   19  N3  UNL     1      30.867   5.787  49.360  1.00  0.00    -0.265 NA
HETATM   20  H16 UNL     1      28.675   7.491  49.034  1.00  0.00     0.162 HD
ENDROOT
BRANCH  17  21
HETATM   21  C14 UNL     1      33.720   7.708  48.500  1.00  0.00     0.180 C 
BRANCH  21  22
HETATM   22  O3  UNL     1      34.362   6.553  48.833  1.00  0.00    -0.386 OA
BRANCH  22  23
HETATM   23  C15 UNL     1      34.851   5.797  47.789  1.00  0.00     0.206 C 
BRANCH  23  24
HETATM   24  C16 UNL     1      34.055   4.577  47.505  1.00  0.00    -0.032 A 
HETATM   25  C17 UNL     1      33.242   4.617  46.363  1.00  0.00     0.009 A 
HETATM   26  C18 UNL     1      32.427   3.598  45.913  1.00  0.00     0.004 A 
HETATM   27  C19 UNL     1      32.401   2.433  46.645  1.00  0.00     0.042 A 
HETATM   28  C20 UNL     1      33.185   2.352  47.774  1.00  0.00     0.117 A 
HETATM   29  F1  UNL     1      33.208   1.232  48.542  1.00  0.00    -0.206 F 
HETATM   30  C21 UNL     1      33.980   3.382  48.188  1.00  0.00     0.051 A 
ENDBRANCH  23  24
ENDBRANCH  22  23
ENDBRANCH  21  22
ENDBRANCH  17  21
TORSDOF 4
ENDMDL
MODEL 3
REMARK VINA RESULT:      -8.1      2.400      5.710
REMARK  4 active torsions:
REMARK  status: ('A' for Active; 'I' for Inactive)
REMARK    1  A    between atoms: C13_17  and  C14_18 
REMARK    2  A    between atoms: C14_18  and  O3_19 
REMARK    3  A    between atoms: O3_19  and  C15_20 
REMARK    4  A    between atoms: C15_20  and  C16_21 
ROOT
HETATM    1  O1  UNL     1      24.460   7.575  49.011  1.00  0.00    -0.269 OA
HETATM    2  C1  UNL     1      23.814   6.947  49.881  1.00  0.00     0.241 C 
HETATM    3  C2  UNL     1      22.771   7.183  50.900  1.00  0.00     0.076 C 
HETATM    4  C3  UNL     1      22.286   6.237  51.680  1.00  0.00     0.037 C 
HETATM    5  C4  UNL     1      22.541   4.817  51.823  1.00  0.00     0.054 C 
HETATM    6  C5  UNL     1      22.105   3.675  51.302  1.00  0.00     0.036 C 
HETATM    7  C6  UNL     1      23.082   2.614  50.839  1.00  0.00     0.060 C 
HETATM    8  C7  UNL     1      22.155   1.424  50.535  1.00  0.00     0.062 C 
HETATM    9  C8  UNL     1      21.024   1.837  49.595  1.00  0.00     0.170 C 
HETATM   10  O2  UNL     1      21.320   1.473  48.285  1.00  0.00    -0.389 OA
HETATM   11  C9  UNL     1      22.574   1.888  47.884  1.00  0.00     0.187 C 
HETATM   12  C10 UNL     1      22.994   3.191  48.516  1.00  0.00     0.144 C 
HETATM   13  N1  UNL     1      23.785   2.939  49.671  1.00  0.00    -0.396 N 
HETATM   14  C11 UNL     1      25.099   3.416  49.672  1.00  0.00     0.137 C 
HETATM   15  C12 UNL     1      25.363   4.728  48.949  1.00  0.00     0.142 C 
HETATM   16  N2  UNL     1      24.581   5.844  49.420  1.00  0.00    -0.356 N 
HETATM   17  C13 UNL     1      23.893   2.249  52.018  1.00  0.00     0.082 C 
HETATM   18  C22 UNL     1      23.947   3.355  53.051  1.00  0.00     0.099 C 
HETATM   19  N3  UNL     1      23.560   4.584  52.786  1.00  0.00    -0.265 NA
HETATM   20  H16 UNL     1      24.088   5.315  50.140  1.00  0.00     0.162 HD
ENDROOT
BRANCH  17  21
HETATM   21  C14 UNL     1      23.419   1.042  52.800  1.00  0.00     0.180 C 
BRANCH  21  22
HETATM   22  O3  UNL     1      24.374   0.396  53.526  1.00  0.00    -0.386 OA
BRANCH  22  23
HETATM   23  C15 UNL     1      25.326  -0.299  52.812  1.00  0.00     0.206 C 
BRANCH  23  24
HETATM   24  C16 UNL     1      26.722   0.092  53.131  1.00  0.00    -0.032 A 
HETATM   25  C17 UNL     1      27.671  -0.942  53.139  1.00  0.00     0.009 A 
HETATM   26  C18 UNL     1      29.018  -0.803  53.405  1.00  0.00     0.004 A 
HETATM   27  C19 UNL     1      29.484   0.460  53.691  1.00  0.00     0.042 A 
HETATM   28  C20 UNL     1      28.585   1.503  53.693  1.00  0.00     0.117 A 
HETATM   29  F1  UNL     1      28.976   2.775  53.966  1.00  0.00    -0.206 F 
HETATM   30  C21 UNL     1      27.258   1.328  53.424  1.00  0.00     0.051 A 
ENDBRANCH  23  24
ENDBRANCH  22  23
ENDBRANCH  21  22
ENDBRANCH  17  21
TORSDOF 4
ENDMDL
MODEL 4
REMARK VINA RESULT:      -8.1      2.672      5.926
REMARK  4 active torsions:
REMARK  status: ('A' for Active; 'I' for Inactive)
REMARK    1  A    between atoms: C13_17  and  C14_18 
REMARK    2  A    between atoms: C14_18  and  O3_19 
REMARK    3  A    between atoms: O3_19  and  C15_20 
REMARK    4  A    between atoms: C15_20  and  C16_21 
ROOT
HETATM    1  O1  UNL     1      19.288   4.610  48.319  1.00  0.00    -0.269 OA
HETATM    2  C1  UNL     1      20.081   3.675  48.575  1.00  0.00     0.241 C 
HETATM    3  C2  UNL     1      20.459   2.344  48.060  1.00  0.00     0.076 C 
HETATM    4  C3  UNL     1      21.398   1.593  48.600  1.00  0.00     0.037 C 
HETATM    5  C4  UNL     1      22.291   1.750  49.732  1.00  0.00     0.054 C 
HETATM    6  C5  UNL     1      23.495   2.255  49.981  1.00  0.00     0.036 C 
HETATM    7  C6  UNL     1      23.719   3.165  51.171  1.00  0.00     0.060 C 
HETATM    8  C7  UNL     1      25.251   3.312  51.188  1.00  0.00     0.062 C 
HETATM    9  C8  UNL     1      25.774   3.751  49.821  1.00  0.00     0.170 C 
HETATM   10  O2  UNL     1      26.008   5.122  49.805  1.00  0.00    -0.389 OA
HETATM   11  C9  UNL     1      24.931   5.854  50.264  1.00  0.00     0.187 C 
HETATM   12  C10 UNL     1      23.604   5.217  49.939  1.00  0.00     0.144 C 
HETATM   13  N1  UNL     1      23.153   4.441  51.043  1.00  0.00    -0.396 N 
HETATM   14  C11 UNL     1      21.945   4.809  51.642  1.00  0.00     0.137 C 
HETATM   15  C12 UNL     1      20.865   5.382  50.736  1.00  0.00     0.142 C 
HETATM   16  N2  UNL     1      20.472   4.521  49.649  1.00  0.00    -0.356 N 
HETATM   17  C13 UNL     1      23.338   2.391  52.368  1.00  0.00     0.082 C 
HETATM   18  C22 UNL     1      22.351   1.287  52.056  1.00  0.00     0.099 C 
HETATM   19  N3  UNL     1      21.701   1.226  50.913  1.00  0.00    -0.265 NA
HETATM   20  H16 UNL     1      21.108   3.761  49.896  1.00  0.00     0.162 HD
ENDROOT
BRANCH  17  21
HETATM   21  C14 UNL     1      24.467   1.679  53.083  1.00  0.00     0.180 C 
BRANCH  21  22
HETATM   22  O3  UNL     1      24.725   0.408  52.665  1.00  0.00    -0.386 OA
BRANCH  22  23
HETATM   23  C15 UNL     1      25.261  -0.451  53.599  1.00  0.00     0.206 C 
BRANCH  23  24
HETATM   24  C16 UNL     1      26.736  -0.352  53.732  1.00  0.00    -0.032 A 
HETATM   25  C17 UNL     1      27.486  -1.354  53.097  1.00  0.00     0.009 A 
HETATM   26  C18 UNL     1      28.862  -1.453  53.089  1.00  0.00     0.004 A 
HETATM   27  C19 UNL     1      29.574  -0.487  53.762  1.00  0.00     0.042 A 
HETATM   28  C20 UNL     1      28.877   0.515  54.398  1.00  0.00     0.117 A 
HETATM   29  F1  UNL     1      29.515   1.501  55.081  1.00  0.00    -0.206 F 
HETATM   30  C21 UNL     1      27.513   0.581  54.385  1.00  0.00     0.051 A 
ENDBRANCH  23  24
ENDBRANCH  22  23
ENDBRANCH  21  22
ENDBRANCH  17  21
TORSDOF 4
ENDMDL
MODEL 5
REMARK VINA RESULT:      -8.0      3.089      5.864
REMARK  4 active torsions:
REMARK  status: ('A' for Active; 'I' for Inactive)
REMARK    1  A    between atoms: C13_17  and  C14_18 
REMARK    2  A    between atoms: C14_18  and  O3_19 
REMARK    3  A    between atoms: O3_19  and  C15_20 
REMARK    4  A    between atoms: C15_20  and  C16_21 
ROOT
HETATM    1  O1  UNL     1      21.209   7.321  48.588  1.00  0.00    -0.269 OA
HETATM    2  C1  UNL     1      22.105   6.979  49.393  1.00  0.00     0.241 C 
HETATM    3  C2  UNL     1      22.876   7.533  50.523  1.00  0.00     0.076 C 
HETATM    4  C3  UNL     1      23.787   6.850  51.189  1.00  0.00     0.037 C 
HETATM    5  C4  UNL     1      24.307   5.500  51.092  1.00  0.00     0.054 C 
HETATM    6  C5  UNL     1      24.025   4.294  51.571  1.00  0.00     0.036 C 
HETATM    7  C6  UNL     1      23.980   3.089  50.653  1.00  0.00     0.060 C 
HETATM    8  C7  UNL     1      23.847   1.923  51.647  1.00  0.00     0.062 C 
HETATM    9  C8  UNL     1      22.684   2.153  52.610  1.00  0.00     0.170 C 
HETATM   10  O2  UNL     1      21.559   1.448  52.195  1.00  0.00    -0.389 OA
HETATM   11  C9  UNL     1      21.251   1.666  50.866  1.00  0.00     0.187 C 
HETATM   12  C10 UNL     1      21.598   3.058  50.402  1.00  0.00     0.144 C 
HETATM   13  N1  UNL     1      22.880   3.060  49.785  1.00  0.00    -0.396 N 
HETATM   14  C11 UNL     1      22.951   3.437  48.441  1.00  0.00     0.137 C 
HETATM   15  C12 UNL     1      21.973   4.501  47.965  1.00  0.00     0.142 C 
HETATM   16  N2  UNL     1      22.041   5.748  48.685  1.00  0.00    -0.356 N 
HETATM   17  C13 UNL     1      25.315   2.987  50.031  1.00  0.00     0.082 C 
HETATM   18  C22 UNL     1      26.042   4.314  49.995  1.00  0.00     0.099 C 
HETATM   19  N3  UNL     1      25.433   5.457  50.226  1.00  0.00    -0.265 NA
HETATM   20  H16 UNL     1      22.792   5.453  49.311  1.00  0.00     0.162 HD
ENDROOT
BRANCH  17  21
HETATM   21  C14 UNL     1      26.293   2.053  50.711  1.00  0.00     0.180 C 
BRANCH  21  22
HETATM   22  O3  UNL     1      27.242   2.650  51.484  1.00  0.00    -0.386 OA
BRANCH  22  23
HETATM   23  C15 UNL     1      27.325   2.227  52.793  1.00  0.00     0.206 C 
BRANCH  23  24
HETATM   24  C16 UNL     1      27.882   0.860  52.950  1.00  0.00    -0.032 A 
HETATM   25  C17 UNL     1      29.178   0.773  53.478  1.00  0.00     0.009 A 
HETATM   26  C18 UNL     1      29.882  -0.391  53.709  1.00  0.00     0.004 A 
HETATM   27  C19 UNL     1      29.266  -1.581  53.396  1.00  0.00     0.042 A 
HETATM   28  C20 UNL     1      27.992  -1.540  52.876  1.00  0.00     0.117 A 
HETATM   29  F1  UNL     1      27.324  -2.676  52.545  1.00  0.00    -0.206 F 
HETATM   30  C21 UNL     1      27.326  -0.368  52.661  1.00  0.00     0.051 A 
ENDBRANCH  23  24
ENDBRANCH  22  23
ENDBRANCH  21  22
ENDBRANCH  17  21
TORSDOF 4
ENDMDL
MODEL 6
REMARK VINA RESULT:      -7.8      2.772      5.754
REMARK  4 active torsions:
REMARK  status: ('A' for Active; 'I' for Inactive)
REMARK    1  A    between atoms: C13_17  and  C14_18 
REMARK    2  A    between atoms: C14_18  and  O3_19 
REMARK    3  A    between atoms: O3_19  and  C15_20 
REMARK    4  A    between atoms: C15_20  and  C16_21 
ROOT
HETATM    1  O1  UNL     1      22.566   5.836  47.561  1.00  0.00    -0.269 OA
HETATM    2  C1  UNL     1      22.856   5.559  48.747  1.00  0.00     0.241 C 
HETATM    3  C2  UNL     1      23.300   6.230  49.985  1.00  0.00     0.076 C 
HETATM    4  C3  UNL     1      23.510   5.597  51.123  1.00  0.00     0.037 C 
HETATM    5  C4  UNL     1      23.403   4.213  51.543  1.00  0.00     0.054 C 
HETATM    6  C5  UNL     1      22.479   3.398  52.038  1.00  0.00     0.036 C 
HETATM    7  C6  UNL     1      22.277   2.014  51.454  1.00  0.00     0.060 C 
HETATM    8  C7  UNL     1      21.298   1.375  52.455  1.00  0.00     0.062 C 
HETATM    9  C8  UNL     1      20.075   2.265  52.669  1.00  0.00     0.170 C 
HETATM   10  O2  UNL     1      19.006   1.819  51.898  1.00  0.00    -0.389 OA
HETATM   11  C9  UNL     1      19.345   1.627  50.573  1.00  0.00     0.187 C 
HETATM   12  C10 UNL     1      20.397   2.593  50.088  1.00  0.00     0.144 C 
HETATM   13  N1  UNL     1      21.686   1.999  50.184  1.00  0.00    -0.396 N 
HETATM   14  C11 UNL     1      22.410   1.831  49.000  1.00  0.00     0.137 C 
HETATM   15  C12 UNL     1      22.235   2.889  47.922  1.00  0.00     0.142 C 
HETATM   16  N2  UNL     1      22.548   4.233  48.340  1.00  0.00    -0.356 N 
HETATM   17  C13 UNL     1      23.567   1.310  51.591  1.00  0.00     0.082 C 
HETATM   18  C22 UNL     1      24.742   2.261  51.669  1.00  0.00     0.099 C 
HETATM   19  N3  UNL     1      24.638   3.536  51.358  1.00  0.00    -0.265 NA
HETATM   20  H16 UNL     1      22.806   3.976  49.294  1.00  0.00     0.162 HD
ENDROOT
BRANCH  17  21
HETATM   21  C14 UNL     1      23.720   0.439  52.820  1.00  0.00     0.180 C 
BRANCH  21  22
HETATM   22  O3  UNL     1      24.861   0.628  53.540  1.00  0.00    -0.386 OA
BRANCH  22  23
HETATM   23  C15 UNL     1      25.634  -0.489  53.775  1.00  0.00     0.206 C 
BRANCH  23  24
HETATM   24  C16 UNL     1      27.092  -0.217  53.806  1.00  0.00    -0.032 A 
HETATM   25  C17 UNL     1      27.923  -1.215  53.276  1.00  0.00     0.009 A 
HETATM   26  C18 UNL     1      29.300  -1.169  53.202  1.00  0.00     0.004 A 
HETATM   27  C19 UNL     1      29.927  -0.045  53.690  1.00  0.00     0.042 A 
HETATM   28  C20 UNL     1      29.148   0.960  54.218  1.00  0.00     0.117 A 
HETATM   29  F1  UNL     1      29.700   2.097  54.717  1.00  0.00    -0.206 F 
HETATM   30  C21 UNL     1      27.786   0.879  54.275  1.00  0.00     0.051 A 
ENDBRANCH  23  24
ENDBRANCH  22  23
ENDBRANCH  21  22
ENDBRANCH  17  21
TORSDOF 4
ENDMDL
MODEL 7
REMARK VINA RESULT:      -7.7      2.823      6.669
REMARK  4 active torsions:
REMARK  status: ('A' for Active; 'I' for Inactive)
REMARK    1  A    between atoms: C13_17  and  C14_18 
REMARK    2  A    between atoms: C14_18  and  O3_19 
REMARK    3  A    between atoms: O3_19  and  C15_20 
REMARK    4  A    between atoms: C15_20  and  C16_21 
ROOT
HETATM    1  O1  UNL     1      27.917   2.495  52.304  1.00  0.00    -0.269 OA
HETATM    2  C1  UNL     1      26.693   2.330  52.507  1.00  0.00     0.241 C 
HETATM    3  C2  UNL     1      25.779   1.854  53.564  1.00  0.00     0.076 C 
HETATM    4  C3  UNL     1      24.467   1.826  53.436  1.00  0.00     0.037 C 
HETATM    5  C4  UNL     1      23.548   2.193  52.377  1.00  0.00     0.054 C 
HETATM    6  C5  UNL     1      22.889   3.272  51.968  1.00  0.00     0.036 C 
HETATM    7  C6  UNL     1      22.894   3.672  50.506  1.00  0.00     0.060 C 
HETATM    8  C7  UNL     1      21.853   4.805  50.472  1.00  0.00     0.062 C 
HETATM    9  C8  UNL     1      22.167   5.868  51.523  1.00  0.00     0.170 C 
HETATM   10  O2  UNL     1      22.825   6.949  50.943  1.00  0.00    -0.389 OA
HETATM   11  C9  UNL     1      23.909   6.567  50.178  1.00  0.00     0.187 C 
HETATM   12  C10 UNL     1      24.602   5.338  50.710  1.00  0.00     0.144 C 
HETATM   13  N1  UNL     1      24.117   4.178  50.045  1.00  0.00    -0.396 N 
HETATM   14  C11 UNL     1      25.034   3.422  49.310  1.00  0.00     0.137 C 
HETATM   15  C12 UNL     1      26.457   3.347  49.841  1.00  0.00     0.142 C 
HETATM   16  N2  UNL     1      26.573   2.835  51.183  1.00  0.00    -0.356 N 
HETATM   17  C13 UNL     1      22.327   2.532  49.759  1.00  0.00     0.082 C 
HETATM   18  C22 UNL     1      22.488   1.218  50.494  1.00  0.00     0.099 C 
HETATM   19  N3  UNL     1      23.291   1.084  51.528  1.00  0.00    -0.265 NA
HETATM   20  H16 UNL     1      25.572   2.684  51.313  1.00  0.00     0.162 HD
ENDROOT
BRANCH  17  21
HETATM   21  C14 UNL     1      20.845   2.605  49.462  1.00  0.00     0.180 C 
BRANCH  21  22
HETATM   22  O3  UNL     1      20.144   1.453  49.659  1.00  0.00    -0.386 OA
BRANCH  22  23
HETATM   23  C15 UNL     1      18.969   1.562  50.371  1.00  0.00     0.206 C 
BRANCH  23  24
HETATM   24  C16 UNL     1      18.808   0.531  51.428  1.00  0.00    -0.032 A 
HETATM   25  C17 UNL     1      17.576  -0.136  51.463  1.00  0.00     0.009 A 
HETATM   26  C18 UNL     1      17.216  -1.127  52.354  1.00  0.00     0.004 A 
HETATM   27  C19 UNL     1      18.143  -1.500  53.300  1.00  0.00     0.042 A 
HETATM   28  C20 UNL     1      19.366  -0.869  53.300  1.00  0.00     0.117 A 
HETATM   29  F1  UNL     1      20.329  -1.188  54.205  1.00  0.00    -0.206 F 
HETATM   30  C21 UNL     1      19.688   0.107  52.401  1.00  0.00     0.051 A 
ENDBRANCH  23  24
ENDBRANCH  22  23
ENDBRANCH  21  22
ENDBRANCH  17  21
TORSDOF 4
ENDMDL
MODEL 8
REMARK VINA RESULT:      -7.4      3.196      6.493
REMARK  4 active torsions:
REMARK  status: ('A' for Active; 'I' for Inactive)
REMARK    1  A    between atoms: C13_17  and  C14_18 
REMARK    2  A    between atoms: C14_18  and  O3_19 
REMARK    3  A    between atoms: O3_19  and  C15_20 
REMARK    4  A    between atoms: C15_20  and  C16_21 
ROOT
HETATM    1  O1  UNL     1      23.368   9.194  47.434  1.00  0.00    -0.269 OA
HETATM    2  C1  UNL     1      23.967   8.579  48.346  1.00  0.00     0.241 C 
HETATM    3  C2  UNL     1      24.893   8.844  49.465  1.00  0.00     0.076 C 
HETATM    4  C3  UNL     1      25.339   7.908  50.280  1.00  0.00     0.037 C 
HETATM    5  C4  UNL     1      25.129   6.477  50.385  1.00  0.00     0.054 C 
HETATM    6  C5  UNL     1      24.282   5.641  50.975  1.00  0.00     0.036 C 
HETATM    7  C6  UNL     1      23.666   4.493  50.202  1.00  0.00     0.060 C 
HETATM    8  C7  UNL     1      22.960   3.693  51.311  1.00  0.00     0.062 C 
HETATM    9  C8  UNL     1      22.045   4.593  52.139  1.00  0.00     0.170 C 
HETATM   10  O2  UNL     1      20.725   4.471  51.715  1.00  0.00    -0.389 OA
HETATM   11  C9  UNL     1      20.586   4.620  50.349  1.00  0.00     0.187 C 
HETATM   12  C10 UNL     1      21.581   5.586  49.757  1.00  0.00     0.144 C 
HETATM   13  N1  UNL     1      22.707   4.878  49.254  1.00  0.00    -0.396 N 
HETATM   14  C11 UNL     1      22.976   4.978  47.886  1.00  0.00     0.137 C 
HETATM   15  C12 UNL     1      22.657   6.302  47.209  1.00  0.00     0.142 C 
HETATM   16  N2  UNL     1      23.317   7.447  47.783  1.00  0.00    -0.356 N 
HETATM   17  C13 UNL     1      24.787   3.669  49.711  1.00  0.00     0.082 C 
HETATM   18  C22 UNL     1      26.074   4.456  49.583  1.00  0.00     0.099 C 
HETATM   19  N3  UNL     1      26.102   5.771  49.627  1.00  0.00    -0.265 NA
HETATM   20  H16 UNL     1      23.815   6.918  48.500  1.00  0.00     0.162 HD
ENDROOT
BRANCH  17  21
HETATM   21  C14 UNL     1      25.168   2.485  50.575  1.00  0.00     0.180 C 
BRANCH  21  22
HETATM   22  O3  UNL     1      26.275   2.651  51.350  1.00  0.00    -0.386 OA
BRANCH  22  23
HETATM   23  C15 UNL     1      26.209   2.152  52.634  1.00  0.00     0.206 C 
BRANCH  23  24
HETATM   24  C16 UNL     1      26.986   0.903  52.835  1.00  0.00    -0.032 A 
HETATM   25  C17 UNL     1      26.325  -0.296  52.533  1.00  0.00     0.009 A 
HETATM   26  C18 UNL     1      26.858  -1.564  52.643  1.00  0.00     0.004 A 
HETATM   27  C19 UNL     1      28.154  -1.674  53.090  1.00  0.00     0.042 A 
HETATM   28  C20 UNL     1      28.839  -0.520  53.398  1.00  0.00     0.117 A 
HETATM   29  F1  UNL     1      30.122  -0.555  53.844  1.00  0.00    -0.206 F 
HETATM   30  C21 UNL     1      28.280   0.719  53.276  1.00  0.00     0.051 A 
ENDBRANCH  23  24
ENDBRANCH  22  23
ENDBRANCH  21  22
ENDBRANCH  17  21
TORSDOF 4
ENDMDL
MODEL 9
REMARK VINA RESULT:      -7.3      3.778      8.256
REMARK  4 active torsions:
REMARK  status: ('A' for Active; 'I' for Inactive)
REMARK    1  A    between atoms: C13_17  and  C14_18 
REMARK    2  A    between atoms: C14_18  and  O3_19 
REMARK    3  A    between atoms: O3_19  and  C15_20 
REMARK    4  A    between atoms: C15_20  and  C16_21 
ROOT
HETATM    1  O1  UNL     1      23.649   5.647  48.798  1.00  0.00    -0.269 OA
HETATM    2  C1  UNL     1      23.217   4.482  48.948  1.00  0.00     0.241 C 
HETATM    3  C2  UNL     1      22.868   3.295  48.142  1.00  0.00     0.076 C 
HETATM    4  C3  UNL     1      22.429   2.165  48.659  1.00  0.00     0.037 C 
HETATM    5  C4  UNL     1      22.160   1.709  50.009  1.00  0.00     0.054 C 
HETATM    6  C5  UNL     1      22.817   1.128  51.007  1.00  0.00     0.036 C 
HETATM    7  C6  UNL     1      22.710   1.666  52.419  1.00  0.00     0.060 C 
HETATM    8  C7  UNL     1      23.427   0.580  53.240  1.00  0.00     0.062 C 
HETATM    9  C8  UNL     1      24.815   0.290  52.670  1.00  0.00     0.170 C 
HETATM   10  O2  UNL     1      25.792   0.967  53.394  1.00  0.00    -0.389 OA
HETATM   11  C9  UNL     1      25.508   2.310  53.548  1.00  0.00     0.187 C 
HETATM   12  C10 UNL     1      24.766   2.894  52.373  1.00  0.00     0.144 C 
HETATM   13  N1  UNL     1      23.366   2.886  52.629  1.00  0.00    -0.396 N 
HETATM   14  C11 UNL     1      22.707   4.118  52.660  1.00  0.00     0.137 C 
HETATM   15  C12 UNL     1      23.213   5.202  51.719  1.00  0.00     0.142 C 
HETATM   16  N2  UNL     1      23.215   4.837  50.325  1.00  0.00    -0.356 N 
HETATM   17  C13 UNL     1      21.279   1.615  52.779  1.00  0.00     0.082 C 
HETATM   18  C22 UNL     1      20.374   1.647  51.566  1.00  0.00     0.099 C 
HETATM   19  N3  UNL     1      20.812   1.975  50.370  1.00  0.00    -0.265 NA
HETATM   20  H16 UNL     1      22.836   3.900  50.473  1.00  0.00     0.162 HD
ENDROOT
BRANCH  17  21
HETATM   21  C14 UNL     1      20.830   0.384  53.537  1.00  0.00     0.180 C 
BRANCH  21  22
HETATM   22  O3  UNL     1      19.586  -0.079  53.230  1.00  0.00    -0.386 OA
BRANCH  22  23
HETATM   23  C15 UNL     1      19.191  -1.245  53.851  1.00  0.00     0.206 C 
BRANCH  23  24
HETATM   24  C16 UNL     1      17.919  -1.804  53.328  1.00  0.00    -0.032 A 
HETATM   25  C17 UNL     1      17.641  -3.137  53.666  1.00  0.00     0.009 A 
HETATM   26  C18 UNL     1      16.520  -3.850  53.292  1.00  0.00     0.004 A 
HETATM   27  C19 UNL     1      15.584  -3.205  52.517  1.00  0.00     0.042 A 
HETATM   28  C20 UNL     1      15.819  -1.895  52.163  1.00  0.00     0.117 A 
HETATM   29  F1  UNL     1      14.937  -1.198  51.400  1.00  0.00    -0.206 F 
HETATM   30  C21 UNL     1      16.940  -1.221  52.552  1.00  0.00     0.051 A 
ENDBRANCH  23  24
ENDBRANCH  22  23
ENDBRANCH  21  22
ENDBRANCH  17  21
TORSDOF 4
ENDMDL
