MODEL 1
REMARK VINA RESULT:      -8.1      0.000      0.000
REMARK  5 active torsions:
REMARK  status: ('A' for Active; 'I' for Inactive)
REMARK    1  A    between atoms: C4_4  and  S1_5 
REMARK    2  A    between atoms: S1_5  and  C5_6 
REMARK    3  A    between atoms: C5_6  and  C6_7 
REMARK    4  A    between atoms: N1_9  and  C8_10 
REMARK    5  A    between atoms: C12_14  and  C13_15 
ROOT
HETATM    1  C6  UNL     1      23.673   2.666  51.768  1.00  0.00     0.079 A 
HETATM    2  C7  UNL     1      24.750   1.824  51.591  1.00  0.00     0.143 A 
HETATM    3  N1  UNL     1      25.522   1.975  52.662  1.00  0.00    -0.247 N 
HETATM    4  N4  UNL     1      24.949   2.866  53.459  1.00  0.00     0.009 NA
HETATM    5  N5  UNL     1      23.819   3.304  52.936  1.00  0.00    -0.162 NA
ENDROOT
BRANCH   3   6
HETATM    6  C8  UNL     1      26.760   1.358  53.019  1.00  0.00     0.055 A 
HETATM    7  C9  UNL     1      27.766   2.220  53.454  1.00  0.00     0.031 A 
HETATM    8  C10 UNL     1      29.034   1.838  53.847  1.00  0.00     0.003 A 
HETATM    9  C11 UNL     1      29.269   0.470  53.779  1.00  0.00     0.015 A 
HETATM   10  C12 UNL     1      28.305  -0.422  53.354  1.00  0.00     0.015 A 
HETATM   11  C14 UNL     1      27.052   0.012  52.974  1.00  0.00     0.046 A 
BRANCH  10  12
HETATM   12  C13 UNL     1      28.534  -1.852  53.277  1.00  0.00     0.174 A 
HETATM   13  N2  UNL     1      27.827  -2.920  52.708  1.00  0.00    -0.153 NA
HETATM   14  N3  UNL     1      29.042  -3.112  53.391  1.00  0.00    -0.257 N 
HETATM   15  H10 UNL     1      29.789  -3.754  53.734  1.00  0.00     0.191 HD
ENDBRANCH  10  12
ENDBRANCH   3   6
BRANCH   1  16
HETATM   16  C5  UNL     1      22.527   2.879  50.869  1.00  0.00     0.141 C 
BRANCH  16  17
HETATM   17  S1  UNL     1      21.465   1.411  50.711  1.00  0.00    -0.124 SA
BRANCH  17  18
HETATM   18  C4  UNL     1      21.398   0.628  52.310  1.00  0.00     0.000 A 
HETATM   19  C3  UNL     1      20.698   1.006  53.436  1.00  0.00     0.018 A 
HETATM   20  C2  UNL     1      20.790   0.244  54.582  1.00  0.00     0.001 A 
HETATM   21  C1  UNL     1      21.578  -0.905  54.629  1.00  0.00     0.000 A 
HETATM   22  C16 UNL     1      22.293  -1.301  53.497  1.00  0.00     0.001 A 
HETATM   23  C15 UNL     1      22.192  -0.521  52.340  1.00  0.00     0.018 A 
ENDBRANCH  17  18
ENDBRANCH  16  17
ENDBRANCH   1  16
TORSDOF 5
ENDMDL
MODEL 2
REMARK VINA RESULT:      -7.8      3.545      8.205
REMARK  5 active torsions:
REMARK  status: ('A' for Active; 'I' for Inactive)
REMARK    1  A    between atoms: C4_4  and  S1_5 
REMARK    2  A    between atoms: S1_5  and  C5_6 
REMARK    3  A    between atoms: C5_6  and  C6_7 
REMARK    4  A    between atoms: N1_9  and  C8_10 
REMARK    5  A    between atoms: C12_14  and  C13_15 
ROOT
HETATM    1  C6  UNL     1      23.343  -0.906  54.469  1.00  0.00     0.079 A 
HETATM    2  C7  UNL     1      22.529  -0.454  53.453  1.00  0.00     0.143 A 
HETATM    3  N1  UNL     1      21.295  -0.837  53.764  1.00  0.00    -0.247 N 
HETATM    4  N4  UNL     1      21.347  -1.492  54.915  1.00  0.00     0.009 NA
HETATM    5  N5  UNL     1      22.586  -1.549  55.367  1.00  0.00    -0.162 NA
ENDROOT
BRANCH   3   6
HETATM    6  C8  UNL     1      20.055  -0.646  53.081  1.00  0.00     0.055 A 
HETATM    7  C9  UNL     1      18.965  -1.351  53.591  1.00  0.00     0.031 A 
HETATM    8  C10 UNL     1      17.679  -1.313  53.087  1.00  0.00     0.003 A 
HETATM    9  C11 UNL     1      17.520  -0.488  51.980  1.00  0.00     0.015 A 
HETATM   10  C12 UNL     1      18.569   0.229  51.439  1.00  0.00     0.015 A 
HETATM   11  C14 UNL     1      19.835   0.156  51.982  1.00  0.00     0.046 A 
BRANCH  10  12
HETATM   12  C13 UNL     1      18.420   1.093  50.284  1.00  0.00     0.174 A 
HETATM   13  N2  UNL     1      18.470   2.481  50.097  1.00  0.00    -0.153 NA
HETATM   14  N3  UNL     1      18.231   1.594  49.030  1.00  0.00    -0.257 N 
HETATM   15  H10 UNL     1      18.045   1.437  48.017  1.00  0.00     0.191 HD
ENDBRANCH  10  12
ENDBRANCH   3   6
BRANCH   1  16
HETATM   16  C5  UNL     1      24.800  -0.747  54.607  1.00  0.00     0.141 C 
BRANCH  16  17
HETATM   17  S1  UNL     1      25.566   0.057  53.167  1.00  0.00    -0.124 SA
BRANCH  17  18
HETATM   18  C4  UNL     1      27.332  -0.106  53.341  1.00  0.00     0.000 A 
HETATM   19  C3  UNL     1      28.269   0.857  53.649  1.00  0.00     0.018 A 
HETATM   20  C2  UNL     1      29.601   0.508  53.734  1.00  0.00     0.001 A 
HETATM   21  C1  UNL     1      30.024  -0.802  53.515  1.00  0.00     0.000 A 
HETATM   22  C16 UNL     1      29.086  -1.789  53.203  1.00  0.00     0.001 A 
HETATM   23  C15 UNL     1      27.739  -1.425  53.119  1.00  0.00     0.018 A 
ENDBRANCH  17  18
ENDBRANCH  16  17
ENDBRANCH   1  16
TORSDOF 5
ENDMDL
MODEL 3
REMARK VINA RESULT:      -7.5      1.758      2.232
REMARK  5 active torsions:
REMARK  status: ('A' for Active; 'I' for Inactive)
REMARK    1  A    between atoms: C4_4  and  S1_5 
REMARK    2  A    between atoms: S1_5  and  C5_6 
REMARK    3  A    between atoms: C5_6  and  C6_7 
REMARK    4  A    between atoms: N1_9  and  C8_10 
REMARK    5  A    between atoms: C12_14  and  C13_15 
ROOT
HETATM    1  C6  UNL     1      24.821   3.549  50.848  1.00  0.00     0.079 A 
HETATM    2  C7  UNL     1      25.176   2.734  51.901  1.00  0.00     0.143 A 
HETATM    3  N1  UNL     1      26.457   2.429  51.722  1.00  0.00    -0.247 N 
HETATM    4  N4  UNL     1      26.870   3.027  50.614  1.00  0.00     0.009 NA
HETATM    5  N5  UNL     1      25.890   3.717  50.060  1.00  0.00    -0.162 NA
ENDROOT
BRANCH   3   6
HETATM    6  C8  UNL     1      27.345   1.623  52.498  1.00  0.00     0.055 A 
HETATM    7  C9  UNL     1      28.197   2.315  53.359  1.00  0.00     0.031 A 
HETATM    8  C10 UNL     1      29.130   1.736  54.197  1.00  0.00     0.003 A 
HETATM    9  C11 UNL     1      29.179   0.348  54.133  1.00  0.00     0.015 A 
HETATM   10  C12 UNL     1      28.356  -0.379  53.297  1.00  0.00     0.015 A 
HETATM   11  C14 UNL     1      27.438   0.249  52.479  1.00  0.00     0.046 A 
BRANCH  10  12
HETATM   12  C13 UNL     1      28.394  -1.826  53.217  1.00  0.00     0.174 A 
HETATM   13  N2  UNL     1      29.334  -2.795  53.591  1.00  0.00    -0.153 NA
HETATM   14  N3  UNL     1      28.108  -3.140  52.992  1.00  0.00    -0.257 N 
HETATM   15  H10 UNL     1      27.455  -3.871  52.637  1.00  0.00     0.191 HD
ENDBRANCH  10  12
ENDBRANCH   3   6
BRANCH   1  16
HETATM   16  C5  UNL     1      23.510   4.162  50.572  1.00  0.00     0.141 C 
BRANCH  16  17
HETATM   17  S1  UNL     1      22.474   3.155  49.469  1.00  0.00    -0.124 SA
BRANCH  17  18
HETATM   18  C4  UNL     1      21.440   2.130  50.496  1.00  0.00     0.000 A 
HETATM   19  C3  UNL     1      20.786   0.959  50.179  1.00  0.00     0.018 A 
HETATM   20  C2  UNL     1      20.029   0.321  51.139  1.00  0.00     0.001 A 
HETATM   21  C1  UNL     1      19.908   0.835  52.429  1.00  0.00     0.000 A 
HETATM   22  C16 UNL     1      20.565   2.021  52.765  1.00  0.00     0.001 A 
HETATM   23  C15 UNL     1      21.330   2.660  51.784  1.00  0.00     0.018 A 
ENDBRANCH  17  18
ENDBRANCH  16  17
ENDBRANCH   1  16
TORSDOF 5
ENDMDL
MODEL 4
REMARK VINA RESULT:      -7.5      4.288      7.049
REMARK  5 active torsions:
REMARK  status: ('A' for Active; 'I' for Inactive)
REMARK    1  A    between atoms: C4_4  and  S1_5 
REMARK    2  A    between atoms: S1_5  and  C5_6 
REMARK    3  A    between atoms: C5_6  and  C6_7 
REMARK    4  A    between atoms: N1_9  and  C8_10 
REMARK    5  A    between atoms: C12_14  and  C13_15 
ROOT
HETATM    1  C6  UNL     1      24.031   3.199  49.948  1.00  0.00     0.079 A 
HETATM    2  C7  UNL     1      24.281   2.517  51.119  1.00  0.00     0.143 A 
HETATM    3  N1  UNL     1      23.262   1.682  51.290  1.00  0.00    -0.247 N 
HETATM    4  N4  UNL     1      22.426   1.842  50.274  1.00  0.00     0.009 NA
HETATM    5  N5  UNL     1      22.872   2.763  49.440  1.00  0.00    -0.162 NA
ENDROOT
BRANCH   3   6
HETATM    6  C8  UNL     1      22.991   0.735  52.325  1.00  0.00     0.055 A 
HETATM    7  C9  UNL     1      21.705   0.196  52.333  1.00  0.00     0.031 A 
HETATM    8  C10 UNL     1      21.232  -0.733  53.240  1.00  0.00     0.003 A 
HETATM    9  C11 UNL     1      22.158  -1.123  54.200  1.00  0.00     0.015 A 
HETATM   10  C12 UNL     1      23.442  -0.616  54.232  1.00  0.00     0.015 A 
HETATM   11  C14 UNL     1      23.865   0.310  53.301  1.00  0.00     0.046 A 
BRANCH  10  12
HETATM   12  C13 UNL     1      24.420  -1.011  55.227  1.00  0.00     0.174 A 
HETATM   13  N2  UNL     1      25.812  -0.884  55.324  1.00  0.00    -0.153 NA
HETATM   14  N3  UNL     1      25.050  -1.510  56.329  1.00  0.00    -0.257 N 
HETATM   15  H10 UNL     1      25.003  -1.997  57.249  1.00  0.00     0.191 HD
ENDBRANCH  10  12
ENDBRANCH   3   6
BRANCH   1  16
HETATM   16  C5  UNL     1      24.851   4.241  49.307  1.00  0.00     0.141 C 
BRANCH  16  17
HETATM   17  S1  UNL     1      26.636   3.981  49.538  1.00  0.00    -0.124 SA
BRANCH  17  18
HETATM   18  C4  UNL     1      27.482   5.294  48.681  1.00  0.00     0.000 A 
HETATM   19  C3  UNL     1      28.796   5.359  48.267  1.00  0.00     0.018 A 
HETATM   20  C2  UNL     1      29.248   6.485  47.612  1.00  0.00     0.001 A 
HETATM   21  C1  UNL     1      28.404   7.565  47.358  1.00  0.00     0.000 A 
HETATM   22  C16 UNL     1      27.071   7.514  47.771  1.00  0.00     0.001 A 
HETATM   23  C15 UNL     1      26.623   6.368  48.434  1.00  0.00     0.018 A 
ENDBRANCH  17  18
ENDBRANCH  16  17
ENDBRANCH   1  16
TORSDOF 5
ENDMDL
MODEL 5
REMARK VINA RESULT:      -7.4      3.954      7.436
REMARK  5 active torsions:
REMARK  status: ('A' for Active; 'I' for Inactive)
REMARK    1  A    between atoms: C4_4  and  S1_5 
REMARK    2  A    between atoms: S1_5  and  C5_6 
REMARK    3  A    between atoms: C5_6  and  C6_7 
REMARK    4  A    between atoms: N1_9  and  C8_10 
REMARK    5  A    between atoms: C12_14  and  C13_15 
ROOT
HETATM    1  C6  UNL     1      25.864   1.905  51.706  1.00  0.00     0.079 A 
HETATM    2  C7  UNL     1      24.512   1.653  51.789  1.00  0.00     0.143 A 
HETATM    3  N1  UNL     1      24.362   0.730  52.734  1.00  0.00    -0.247 N 
HETATM    4  N4  UNL     1      25.562   0.430  53.208  1.00  0.00     0.009 NA
HETATM    5  N5  UNL     1      26.498   1.133  52.597  1.00  0.00    -0.162 NA
ENDROOT
BRANCH   3   6
HETATM    6  C8  UNL     1      23.188   0.095  53.244  1.00  0.00     0.055 A 
HETATM    7  C9  UNL     1      23.378  -0.732  54.351  1.00  0.00     0.031 A 
HETATM    8  C10 UNL     1      22.385  -1.440  55.002  1.00  0.00     0.003 A 
HETATM    9  C11 UNL     1      21.115  -1.276  54.462  1.00  0.00     0.015 A 
HETATM   10  C12 UNL     1      20.878  -0.469  53.368  1.00  0.00     0.015 A 
HETATM   11  C14 UNL     1      21.906   0.219  52.755  1.00  0.00     0.046 A 
BRANCH  10  12
HETATM   12  C13 UNL     1      19.559  -0.287  52.792  1.00  0.00     0.174 A 
HETATM   13  N2  UNL     1      18.311  -0.880  53.019  1.00  0.00    -0.153 NA
HETATM   14  N3  UNL     1      18.491   0.128  52.054  1.00  0.00    -0.257 N 
HETATM   15  H10 UNL     1      18.094   0.744  51.313  1.00  0.00     0.191 HD
ENDBRANCH  10  12
ENDBRANCH   3   6
BRANCH   1  16
HETATM   16  C5  UNL     1      26.561   2.846  50.812  1.00  0.00     0.141 C 
BRANCH  16  17
HETATM   17  S1  UNL     1      25.428   3.775  49.736  1.00  0.00    -0.124 SA
BRANCH  17  18
HETATM   18  C4  UNL     1      26.357   5.109  49.008  1.00  0.00     0.000 A 
HETATM   19  C3  UNL     1      25.941   6.382  48.680  1.00  0.00     0.018 A 
HETATM   20  C2  UNL     1      26.838   7.267  48.118  1.00  0.00     0.001 A 
HETATM   21  C1  UNL     1      28.161   6.903  47.873  1.00  0.00     0.000 A 
HETATM   22  C16 UNL     1      28.597   5.617  48.199  1.00  0.00     0.001 A 
HETATM   23  C15 UNL     1      27.680   4.728  48.768  1.00  0.00     0.018 A 
ENDBRANCH  17  18
ENDBRANCH  16  17
ENDBRANCH   1  16
TORSDOF 5
ENDMDL
MODEL 6
REMARK VINA RESULT:      -7.4      3.859      6.116
REMARK  5 active torsions:
REMARK  status: ('A' for Active; 'I' for Inactive)
REMARK    1  A    between atoms: C4_4  and  S1_5 
REMARK    2  A    between atoms: S1_5  and  C5_6 
REMARK    3  A    between atoms: C5_6  and  C6_7 
REMARK    4  A    between atoms: N1_9  and  C8_10 
REMARK    5  A    between atoms: C12_14  and  C13_15 
ROOT
HETATM    1  C6  UNL     1      23.702   4.901  51.084  1.00  0.00     0.079 A 
HETATM    2  C7  UNL     1      24.251   3.636  51.096  1.00  0.00     0.143 A 
HETATM    3  N1  UNL     1      24.168   3.205  52.350  1.00  0.00    -0.247 N 
HETATM    4  N4  UNL     1      23.597   4.157  53.074  1.00  0.00     0.009 NA
HETATM    5  N5  UNL     1      23.303   5.204  52.325  1.00  0.00    -0.162 NA
ENDROOT
BRANCH   3   6
HETATM    6  C8  UNL     1      24.576   1.972  52.945  1.00  0.00     0.055 A 
HETATM    7  C9  UNL     1      23.582   1.001  53.069  1.00  0.00     0.031 A 
HETATM    8  C10 UNL     1      23.757  -0.258  53.613  1.00  0.00     0.003 A 
HETATM    9  C11 UNL     1      25.049  -0.519  54.055  1.00  0.00     0.015 A 
HETATM   10  C12 UNL     1      26.064   0.410  53.953  1.00  0.00     0.015 A 
HETATM   11  C14 UNL     1      25.837   1.655  53.400  1.00  0.00     0.046 A 
BRANCH  10  12
HETATM   12  C13 UNL     1      27.416   0.154  54.409  1.00  0.00     0.174 A 
HETATM   13  N2  UNL     1      28.406   0.946  55.007  1.00  0.00    -0.153 NA
HETATM   14  N3  UNL     1      28.615  -0.416  54.719  1.00  0.00    -0.257 N 
HETATM   15  H10 UNL     1      29.237  -1.253  54.735  1.00  0.00     0.191 HD
ENDBRANCH  10  12
ENDBRANCH   3   6
BRANCH   1  16
HETATM   16  C5  UNL     1      23.552   5.817  49.941  1.00  0.00     0.141 C 
BRANCH  16  17
HETATM   17  S1  UNL     1      24.789   7.149  49.932  1.00  0.00    -0.124 SA
BRANCH  17  18
HETATM   18  C4  UNL     1      26.292   6.477  49.251  1.00  0.00     0.000 A 
HETATM   19  C3  UNL     1      26.654   5.159  49.073  1.00  0.00     0.018 A 
HETATM   20  C2  UNL     1      27.881   4.858  48.520  1.00  0.00     0.001 A 
HETATM   21  C1  UNL     1      28.769   5.862  48.135  1.00  0.00     0.000 A 
HETATM   22  C16 UNL     1      28.417   7.202  48.308  1.00  0.00     0.001 A 
HETATM   23  C15 UNL     1      27.170   7.495  48.870  1.00  0.00     0.018 A 
ENDBRANCH  17  18
ENDBRANCH  16  17
ENDBRANCH   1  16
TORSDOF 5
ENDMDL
MODEL 7
REMARK VINA RESULT:      -7.3      4.355      6.643
REMARK  5 active torsions:
REMARK  status: ('A' for Active; 'I' for Inactive)
REMARK    1  A    between atoms: C4_4  and  S1_5 
REMARK    2  A    between atoms: S1_5  and  C5_6 
REMARK    3  A    between atoms: C5_6  and  C6_7 
REMARK    4  A    between atoms: N1_9  and  C8_10 
REMARK    5  A    between atoms: C12_14  and  C13_15 
ROOT
HETATM    1  C6  UNL     1      24.683   2.127  51.292  1.00  0.00     0.079 A 
HETATM    2  C7  UNL     1      25.757   2.956  51.055  1.00  0.00     0.143 A 
HETATM    3  N1  UNL     1      25.437   3.688  49.993  1.00  0.00    -0.247 N 
HETATM    4  N4  UNL     1      24.226   3.327  49.596  1.00  0.00     0.009 NA
HETATM    5  N5  UNL     1      23.742   2.374  50.372  1.00  0.00    -0.162 NA
ENDROOT
BRANCH   3   6
HETATM    6  C8  UNL     1      26.164   4.707  49.305  1.00  0.00     0.055 A 
HETATM    7  C9  UNL     1      25.423   5.823  48.914  1.00  0.00     0.031 A 
HETATM    8  C10 UNL     1      25.924   6.920  48.240  1.00  0.00     0.003 A 
HETATM    9  C11 UNL     1      27.282   6.850  47.956  1.00  0.00     0.015 A 
HETATM   10  C12 UNL     1      28.056   5.767  48.322  1.00  0.00     0.015 A 
HETATM   11  C14 UNL     1      27.507   4.695  48.996  1.00  0.00     0.046 A 
BRANCH  10  12
HETATM   12  C13 UNL     1      29.474   5.677  48.032  1.00  0.00     0.174 A 
HETATM   13  N2  UNL     1      30.517   6.612  47.986  1.00  0.00    -0.153 NA
HETATM   14  N3  UNL     1      30.729   5.246  47.716  1.00  0.00    -0.257 N 
HETATM   15  H10 UNL     1      31.376   4.471  47.460  1.00  0.00     0.191 HD
ENDBRANCH  10  12
ENDBRANCH   3   6
BRANCH   1  16
HETATM   16  C5  UNL     1      24.528   1.117  52.353  1.00  0.00     0.141 C 
BRANCH  16  17
HETATM   17  S1  UNL     1      25.861   1.176  53.588  1.00  0.00    -0.124 SA
BRANCH  17  18
HETATM   18  C4  UNL     1      26.911  -0.236  53.308  1.00  0.00     0.000 A 
HETATM   19  C3  UNL     1      26.599  -1.455  52.745  1.00  0.00     0.018 A 
HETATM   20  C2  UNL     1      27.578  -2.419  52.623  1.00  0.00     0.001 A 
HETATM   21  C1  UNL     1      28.882  -2.188  53.058  1.00  0.00     0.000 A 
HETATM   22  C16 UNL     1      29.214  -0.958  53.631  1.00  0.00     0.001 A 
HETATM   23  C15 UNL     1      28.214   0.012  53.750  1.00  0.00     0.018 A 
ENDBRANCH  17  18
ENDBRANCH  16  17
ENDBRANCH   1  16
TORSDOF 5
ENDMDL
MODEL 8
REMARK VINA RESULT:      -7.3      4.030      6.622
REMARK  5 active torsions:
REMARK  status: ('A' for Active; 'I' for Inactive)
REMARK    1  A    between atoms: C4_4  and  S1_5 
REMARK    2  A    between atoms: S1_5  and  C5_6 
REMARK    3  A    between atoms: C5_6  and  C6_7 
REMARK    4  A    between atoms: N1_9  and  C8_10 
REMARK    5  A    between atoms: C12_14  and  C13_15 
ROOT
HETATM    1  C6  UNL     1      23.137   4.624  50.182  1.00  0.00     0.079 A 
HETATM    2  C7  UNL     1      23.435   3.287  50.338  1.00  0.00     0.143 A 
HETATM    3  N1  UNL     1      23.331   3.030  51.637  1.00  0.00    -0.247 N 
HETATM    4  N4  UNL     1      22.986   4.153  52.251  1.00  0.00     0.009 NA
HETATM    5  N5  UNL     1      22.861   5.142  51.385  1.00  0.00    -0.162 NA
ENDROOT
BRANCH   3   6
HETATM    6  C8  UNL     1      23.524   1.820  52.371  1.00  0.00     0.055 A 
HETATM    7  C9  UNL     1      24.848   1.404  52.518  1.00  0.00     0.031 A 
HETATM    8  C10 UNL     1      25.260   0.268  53.188  1.00  0.00     0.003 A 
HETATM    9  C11 UNL     1      24.227  -0.482  53.737  1.00  0.00     0.015 A 
HETATM   10  C12 UNL     1      22.903  -0.112  53.617  1.00  0.00     0.015 A 
HETATM   11  C14 UNL     1      22.544   1.035  52.938  1.00  0.00     0.046 A 
BRANCH  10  12
HETATM   12  C13 UNL     1      21.814  -0.883  54.183  1.00  0.00     0.174 A 
HETATM   13  N2  UNL     1      21.749  -1.970  55.065  1.00  0.00    -0.153 NA
HETATM   14  N3  UNL     1      20.591  -1.384  54.519  1.00  0.00    -0.257 N 
HETATM   15  H10 UNL     1      19.553  -1.356  54.435  1.00  0.00     0.191 HD
ENDBRANCH  10  12
ENDBRANCH   3   6
BRANCH   1  16
HETATM   16  C5  UNL     1      23.109   5.412  48.938  1.00  0.00     0.141 C 
BRANCH  16  17
HETATM   17  S1  UNL     1      24.230   6.843  48.980  1.00  0.00    -0.124 SA
BRANCH  17  18
HETATM   18  C4  UNL     1      25.884   6.233  48.725  1.00  0.00     0.000 A 
HETATM   19  C3  UNL     1      26.409   4.992  49.016  1.00  0.00     0.018 A 
HETATM   20  C2  UNL     1      27.733   4.729  48.732  1.00  0.00     0.001 A 
HETATM   21  C1  UNL     1      28.557   5.694  48.154  1.00  0.00     0.000 A 
HETATM   22  C16 UNL     1      28.040   6.955  47.852  1.00  0.00     0.001 A 
HETATM   23  C15 UNL     1      26.696   7.211  48.145  1.00  0.00     0.018 A 
ENDBRANCH  17  18
ENDBRANCH  16  17
ENDBRANCH   1  16
TORSDOF 5
ENDMDL
MODEL 9
REMARK VINA RESULT:      -7.3      4.584      7.334
REMARK  5 active torsions:
REMARK  status: ('A' for Active; 'I' for Inactive)
REMARK    1  A    between atoms: C4_4  and  S1_5 
REMARK    2  A    between atoms: S1_5  and  C5_6 
REMARK    3  A    between atoms: C5_6  and  C6_7 
REMARK    4  A    between atoms: N1_9  and  C8_10 
REMARK    5  A    between atoms: C12_14  and  C13_15 
ROOT
HETATM    1  C6  UNL     1      26.211   3.346  50.211  1.00  0.00     0.079 A 
HETATM    2  C7  UNL     1      24.904   2.933  50.356  1.00  0.00     0.143 A 
HETATM    3  N1  UNL     1      24.909   2.005  51.308  1.00  0.00    -0.247 N 
HETATM    4  N4  UNL     1      26.157   1.855  51.728  1.00  0.00     0.009 NA
HETATM    5  N5  UNL     1      26.973   2.662  51.073  1.00  0.00    -0.162 NA
ENDROOT
BRANCH   3   6
HETATM    6  C8  UNL     1      23.845   1.237  51.872  1.00  0.00     0.055 A 
HETATM    7  C9  UNL     1      22.633   1.281  51.183  1.00  0.00     0.031 A 
HETATM    8  C10 UNL     1      21.479   0.616  51.550  1.00  0.00     0.003 A 
HETATM    9  C11 UNL     1      21.596  -0.143  52.709  1.00  0.00     0.015 A 
HETATM   10  C12 UNL     1      22.775  -0.217  53.424  1.00  0.00     0.015 A 
HETATM   11  C14 UNL     1      23.901   0.467  53.013  1.00  0.00     0.046 A 
BRANCH  10  12
HETATM   12  C13 UNL     1      22.914  -1.003  54.634  1.00  0.00     0.174 A 
HETATM   13  N2  UNL     1      22.109  -1.957  55.271  1.00  0.00    -0.153 NA
HETATM   14  N3  UNL     1      23.356  -1.566  55.795  1.00  0.00    -0.257 N 
HETATM   15  H10 UNL     1      24.086  -1.648  56.535  1.00  0.00     0.191 HD
ENDBRANCH  10  12
ENDBRANCH   3   6
BRANCH   1  16
HETATM   16  C5  UNL     1      26.749   4.358  49.286  1.00  0.00     0.141 C 
BRANCH  16  17
HETATM   17  S1  UNL     1      25.659   5.801  49.101  1.00  0.00    -0.124 SA
BRANCH  17  18
HETATM   18  C4  UNL     1      26.654   7.257  49.352  1.00  0.00     0.000 A 
HETATM   19  C3  UNL     1      26.443   8.321  50.203  1.00  0.00     0.018 A 
HETATM   20  C2  UNL     1      27.353   9.356  50.238  1.00  0.00     0.001 A 
HETATM   21  C1  UNL     1      28.487   9.354  49.427  1.00  0.00     0.000 A 
HETATM   22  C16 UNL     1      28.715   8.284  48.559  1.00  0.00     0.001 A 
HETATM   23  C15 UNL     1      27.786   7.239  48.532  1.00  0.00     0.018 A 
ENDBRANCH  17  18
ENDBRANCH  16  17
ENDBRANCH   1  16
TORSDOF 5
ENDMDL
