MODEL 1
REMARK VINA RESULT:      -7.8      0.000      0.000
REMARK  4 active torsions:
REMARK  status: ('A' for Active; 'I' for Inactive)
REMARK    1  A    between atoms: C4_5  and  N1_6 
REMARK    2  A    between atoms: N1_6  and  C5_7 
REMARK    3  A    between atoms: C6_8  and  C7_9 
REMARK    4  A    between atoms: C7_9  and  C8_10 
ROOT
HETATM    1  C5  UNL     1      24.125   0.144  52.924  1.00  0.00     0.148 A 
HETATM    2  C6  UNL     1      24.251   1.531  52.485  1.00  0.00    -0.050 A 
HETATM    3  C9  UNL     1      23.014   2.055  52.558  1.00  0.00     0.037 A 
HETATM    4  C10 UNL     1      22.023   1.076  53.036  1.00  0.00     0.068 A 
HETATM    5  N2  UNL     1      20.712   0.999  53.305  1.00  0.00    -0.242 NA
HETATM    6  C11 UNL     1      20.127  -0.111  53.747  1.00  0.00     0.233 A 
HETATM    7  N3  UNL     1      20.809  -1.238  53.958  1.00  0.00    -0.253 NA
HETATM    8  C12 UNL     1      22.139  -1.255  53.714  1.00  0.00     0.130 A 
HETATM    9  C13 UNL     1      22.723  -0.091  53.256  1.00  0.00     0.015 A 
ENDROOT
BRANCH   1  10
HETATM   10  N1  UNL     1      25.052  -0.321  53.897  1.00  0.00    -0.377 N 
HETATM   11  H3  UNL     1      24.572  -0.615  54.802  1.00  0.00     0.160 HD
BRANCH  10  12
HETATM   12  C4  UNL     1      26.460  -0.464  53.894  1.00  0.00     0.028 A 
HETATM   13  C3  UNL     1      27.106  -1.326  52.998  1.00  0.00     0.032 A 
HETATM   14  C2  UNL     1      28.476  -1.434  53.009  1.00  0.00     0.044 A 
HETATM   15  C1  UNL     1      29.253  -0.729  53.868  1.00  0.00     0.116 A 
HETATM   16  F1  UNL     1      30.597  -0.872  53.839  1.00  0.00    -0.206 F 
HETATM   17  C15 UNL     1      28.664   0.129  54.766  1.00  0.00     0.044 A 
HETATM   18  C14 UNL     1      27.292   0.232  54.746  1.00  0.00     0.032 A 
ENDBRANCH  10  12
ENDBRANCH   1  10
BRANCH   2  19
HETATM   19  C7  UNL     1      25.344   2.418  52.018  1.00  0.00     0.047 C 
BRANCH  19  20
HETATM   20  C8  UNL     1      24.941   3.125  50.744  1.00  0.00     0.089 C 
HETATM   21 BR1  UNL     1      26.447   3.528  49.645  1.00  0.00    -0.096 Br
ENDBRANCH  19  20
ENDBRANCH   2  19
TORSDOF 4
ENDMDL
MODEL 2
REMARK VINA RESULT:      -7.6      3.307      6.008
REMARK  4 active torsions:
REMARK  status: ('A' for Active; 'I' for Inactive)
REMARK    1  A    between atoms: C4_5  and  N1_6 
REMARK    2  A    between atoms: N1_6  and  C5_7 
REMARK    3  A    between atoms: C6_8  and  C7_9 
REMARK    4  A    between atoms: C7_9  and  C8_10 
ROOT
HETATM    1  C5  UNL     1      25.214   1.434  52.920  1.00  0.00     0.148 A 
HETATM    2  C6  UNL     1      25.348   2.213  51.692  1.00  0.00    -0.050 A 
HETATM    3  C9  UNL     1      26.661   2.474  51.562  1.00  0.00     0.037 A 
HETATM    4  C10 UNL     1      27.453   1.902  52.664  1.00  0.00     0.068 A 
HETATM    5  N2  UNL     1      28.728   1.824  53.072  1.00  0.00    -0.242 NA
HETATM    6  C11 UNL     1      29.096   1.187  54.181  1.00  0.00     0.233 A 
HETATM    7  N3  UNL     1      28.216   0.574  54.974  1.00  0.00    -0.253 NA
HETATM    8  C12 UNL     1      26.905   0.600  54.642  1.00  0.00     0.130 A 
HETATM    9  C13 UNL     1      26.549   1.266  53.487  1.00  0.00     0.015 A 
ENDROOT
BRANCH   1  10
HETATM   10  N1  UNL     1      24.440   0.242  52.856  1.00  0.00    -0.377 N 
HETATM   11  H3  UNL     1      25.029  -0.605  52.584  1.00  0.00     0.160 HD
BRANCH  10  12
HETATM   12  C4  UNL     1      23.070  -0.029  53.080  1.00  0.00     0.028 A 
HETATM   13  C3  UNL     1      22.085   0.387  52.175  1.00  0.00     0.032 A 
HETATM   14  C2  UNL     1      20.762   0.097  52.412  1.00  0.00     0.044 A 
HETATM   15  C1  UNL     1      20.354  -0.588  53.509  1.00  0.00     0.116 A 
HETATM   16  F1  UNL     1      19.040  -0.846  53.696  1.00  0.00    -0.206 F 
HETATM   17  C15 UNL     1      21.285  -1.016  54.424  1.00  0.00     0.044 A 
HETATM   18  C14 UNL     1      22.607  -0.724  54.178  1.00  0.00     0.032 A 
ENDBRANCH  10  12
ENDBRANCH   1  10
BRANCH   2  19
HETATM   19  C7  UNL     1      24.440   2.734  50.641  1.00  0.00     0.047 C 
BRANCH  19  20
HETATM   20  C8  UNL     1      24.155   4.201  50.872  1.00  0.00     0.089 C 
HETATM   21 BR1  UNL     1      22.953   4.472  52.329  1.00  0.00    -0.096 Br
ENDBRANCH  19  20
ENDBRANCH   2  19
TORSDOF 4
ENDMDL
MODEL 3
REMARK VINA RESULT:      -7.4      3.605      6.173
REMARK  4 active torsions:
REMARK  status: ('A' for Active; 'I' for Inactive)
REMARK    1  A    between atoms: C4_5  and  N1_6 
REMARK    2  A    between atoms: N1_6  and  C5_7 
REMARK    3  A    between atoms: C6_8  and  C7_9 
REMARK    4  A    between atoms: C7_9  and  C8_10 
ROOT
HETATM    1  C5  UNL     1      25.034   0.937  52.115  1.00  0.00     0.148 A 
HETATM    2  C6  UNL     1      26.348   0.544  52.616  1.00  0.00    -0.050 A 
HETATM    3  C9  UNL     1      27.222   1.416  52.083  1.00  0.00     0.037 A 
HETATM    4  C10 UNL     1      26.559   2.410  51.221  1.00  0.00     0.068 A 
HETATM    5  N2  UNL     1      26.869   3.470  50.460  1.00  0.00    -0.242 NA
HETATM    6  C11 UNL     1      25.959   4.169  49.787  1.00  0.00     0.233 A 
HETATM    7  N3  UNL     1      24.660   3.865  49.822  1.00  0.00    -0.253 NA
HETATM    8  C12 UNL     1      24.254   2.811  50.565  1.00  0.00     0.130 A 
HETATM    9  C13 UNL     1      25.216   2.101  51.254  1.00  0.00     0.015 A 
ENDROOT
BRANCH   1  10
HETATM   10  N1  UNL     1      23.982   1.059  53.065  1.00  0.00    -0.377 N 
HETATM   11  H3  UNL     1      24.109   1.907  53.699  1.00  0.00     0.160 HD
BRANCH  10  12
HETATM   12  C4  UNL     1      22.826   0.287  53.326  1.00  0.00     0.028 A 
HETATM   13  C3  UNL     1      22.854  -0.796  54.213  1.00  0.00     0.032 A 
HETATM   14  C2  UNL     1      21.711  -1.521  54.457  1.00  0.00     0.044 A 
HETATM   15  C1  UNL     1      20.527  -1.230  53.863  1.00  0.00     0.116 A 
HETATM   16  F1  UNL     1      19.432  -1.974  54.136  1.00  0.00    -0.206 F 
HETATM   17  C15 UNL     1      20.451  -0.176  52.984  1.00  0.00     0.044 A 
HETATM   18  C14 UNL     1      21.600   0.544  52.748  1.00  0.00     0.032 A 
ENDBRANCH  10  12
ENDBRANCH   1  10
BRANCH   2  19
HETATM   19  C7  UNL     1      26.891  -0.509  53.508  1.00  0.00     0.047 C 
BRANCH  19  20
HETATM   20  C8  UNL     1      28.122  -0.007  54.227  1.00  0.00     0.089 C 
HETATM   21 BR1  UNL     1      29.703  -0.900  53.642  1.00  0.00    -0.096 Br
ENDBRANCH  19  20
ENDBRANCH   2  19
TORSDOF 4
ENDMDL
MODEL 4
REMARK VINA RESULT:      -7.4      3.621      6.293
REMARK  4 active torsions:
REMARK  status: ('A' for Active; 'I' for Inactive)
REMARK    1  A    between atoms: C4_5  and  N1_6 
REMARK    2  A    between atoms: N1_6  and  C5_7 
REMARK    3  A    between atoms: C6_8  and  C7_9 
REMARK    4  A    between atoms: C7_9  and  C8_10 
ROOT
HETATM    1  C5  UNL     1      25.463   1.098  52.351  1.00  0.00     0.148 A 
HETATM    2  C6  UNL     1      24.416   0.232  52.884  1.00  0.00    -0.050 A 
HETATM    3  C9  UNL     1      24.970  -0.422  53.921  1.00  0.00     0.037 A 
HETATM    4  C10 UNL     1      26.377  -0.040  54.131  1.00  0.00     0.068 A 
HETATM    5  N2  UNL     1      27.401  -0.322  54.950  1.00  0.00    -0.242 NA
HETATM    6  C11 UNL     1      28.596   0.249  54.837  1.00  0.00     0.233 A 
HETATM    7  N3  UNL     1      28.867   1.153  53.894  1.00  0.00    -0.253 NA
HETATM    8  C12 UNL     1      27.895   1.501  53.021  1.00  0.00     0.130 A 
HETATM    9  C13 UNL     1      26.662   0.895  53.158  1.00  0.00     0.015 A 
ENDROOT
BRANCH   1  10
HETATM   10  N1  UNL     1      25.129   2.461  52.116  1.00  0.00    -0.377 N 
HETATM   11  H3  UNL     1      24.506   2.859  52.885  1.00  0.00     0.160 HD
BRANCH  10  12
HETATM   12  C4  UNL     1      25.455   3.368  51.081  1.00  0.00     0.028 A 
HETATM   13  C3  UNL     1      24.683   4.511  50.839  1.00  0.00     0.032 A 
HETATM   14  C2  UNL     1      25.032   5.381  49.834  1.00  0.00     0.044 A 
HETATM   15  C1  UNL     1      26.116   5.181  49.044  1.00  0.00     0.116 A 
HETATM   16  F1  UNL     1      26.416   6.067  48.068  1.00  0.00    -0.206 F 
HETATM   17  C15 UNL     1      26.903   4.072  49.244  1.00  0.00     0.044 A 
HETATM   18  C14 UNL     1      26.547   3.208  50.253  1.00  0.00     0.032 A 
ENDBRANCH  10  12
ENDBRANCH   1  10
BRANCH   2  19
HETATM   19  C7  UNL     1      22.997  -0.063  52.569  1.00  0.00     0.047 C 
BRANCH  19  20
HETATM   20  C8  UNL     1      22.384  -0.922  53.652  1.00  0.00     0.089 C 
HETATM   21 BR1  UNL     1      20.946  -0.035  54.537  1.00  0.00    -0.096 Br
ENDBRANCH  19  20
ENDBRANCH   2  19
TORSDOF 4
ENDMDL
MODEL 5
REMARK VINA RESULT:      -7.2      3.976      6.756
REMARK  4 active torsions:
REMARK  status: ('A' for Active; 'I' for Inactive)
REMARK    1  A    between atoms: C4_5  and  N1_6 
REMARK    2  A    between atoms: N1_6  and  C5_7 
REMARK    3  A    between atoms: C6_8  and  C7_9 
REMARK    4  A    between atoms: C7_9  and  C8_10 
ROOT
HETATM    1  C5  UNL     1      25.435   1.572  52.726  1.00  0.00     0.148 A 
HETATM    2  C6  UNL     1      24.503   0.489  53.027  1.00  0.00    -0.050 A 
HETATM    3  C9  UNL     1      25.146  -0.324  53.883  1.00  0.00     0.037 A 
HETATM    4  C10 UNL     1      26.504   0.157  54.193  1.00  0.00     0.068 A 
HETATM    5  N2  UNL     1      27.567  -0.193  54.931  1.00  0.00    -0.242 NA
HETATM    6  C11 UNL     1      28.688   0.523  54.970  1.00  0.00     0.233 A 
HETATM    7  N3  UNL     1      28.837   1.650  54.272  1.00  0.00    -0.253 NA
HETATM    8  C12 UNL     1      27.816   2.081  53.498  1.00  0.00     0.130 A 
HETATM    9  C13 UNL     1      26.663   1.322  53.474  1.00  0.00     0.015 A 
ENDROOT
BRANCH   1  10
HETATM   10  N1  UNL     1      24.942   2.903  52.820  1.00  0.00    -0.377 N 
HETATM   11  H3  UNL     1      25.350   3.425  53.655  1.00  0.00     0.160 HD
BRANCH  10  12
HETATM   12  C4  UNL     1      24.033   3.651  52.034  1.00  0.00     0.028 A 
HETATM   13  C3  UNL     1      23.932   3.457  50.650  1.00  0.00     0.032 A 
HETATM   14  C2  UNL     1      23.030   4.189  49.915  1.00  0.00     0.044 A 
HETATM   15  C1  UNL     1      22.214   5.114  50.478  1.00  0.00     0.116 A 
HETATM   16  F1  UNL     1      21.345   5.808  49.710  1.00  0.00    -0.206 F 
HETATM   17  C15 UNL     1      22.279   5.338  51.832  1.00  0.00     0.044 A 
HETATM   18  C14 UNL     1      23.183   4.600  52.561  1.00  0.00     0.032 A 
ENDBRANCH  10  12
ENDBRANCH   1  10
BRANCH   2  19
HETATM   19  C7  UNL     1      23.122   0.116  52.637  1.00  0.00     0.047 C 
BRANCH  19  20
HETATM   20  C8  UNL     1      22.164   0.377  53.777  1.00  0.00     0.089 C 
HETATM   21 BR1  UNL     1      21.407  -1.237  54.456  1.00  0.00    -0.096 Br
ENDBRANCH  19  20
ENDBRANCH   2  19
TORSDOF 4
ENDMDL
MODEL 6
REMARK VINA RESULT:      -7.1      3.064      4.993
REMARK  4 active torsions:
REMARK  status: ('A' for Active; 'I' for Inactive)
REMARK    1  A    between atoms: C4_5  and  N1_6 
REMARK    2  A    between atoms: N1_6  and  C5_7 
REMARK    3  A    between atoms: C6_8  and  C7_9 
REMARK    4  A    between atoms: C7_9  and  C8_10 
ROOT
HETATM    1  C5  UNL     1      24.469   1.352  52.360  1.00  0.00     0.148 A 
HETATM    2  C6  UNL     1      25.519   0.360  52.574  1.00  0.00    -0.050 A 
HETATM    3  C9  UNL     1      24.940  -0.651  53.245  1.00  0.00     0.037 A 
HETATM    4  C10 UNL     1      23.513  -0.399  53.509  1.00  0.00     0.068 A 
HETATM    5  N2  UNL     1      22.463  -0.991  54.096  1.00  0.00    -0.242 NA
HETATM    6  C11 UNL     1      21.254  -0.437  54.146  1.00  0.00     0.233 A 
HETATM    7  N3  UNL     1      20.997   0.758  53.612  1.00  0.00    -0.253 NA
HETATM    8  C12 UNL     1      21.997   1.431  52.998  1.00  0.00     0.130 A 
HETATM    9  C13 UNL     1      23.241   0.835  52.958  1.00  0.00     0.015 A 
ENDROOT
BRANCH   1  10
HETATM   10  N1  UNL     1      24.317   1.871  51.044  1.00  0.00    -0.377 N 
HETATM   11  H3  UNL     1      23.602   1.320  50.476  1.00  0.00     0.160 HD
BRANCH  10  12
HETATM   12  C4  UNL     1      24.921   2.952  50.360  1.00  0.00     0.028 A 
HETATM   13  C3  UNL     1      26.292   2.963  50.076  1.00  0.00     0.032 A 
HETATM   14  C2  UNL     1      26.848   4.021  49.398  1.00  0.00     0.044 A 
HETATM   15  C1  UNL     1      26.115   5.083  48.981  1.00  0.00     0.116 A 
HETATM   16  F1  UNL     1      26.711   6.100  48.318  1.00  0.00    -0.206 F 
HETATM   17  C15 UNL     1      24.765   5.116  49.237  1.00  0.00     0.044 A 
HETATM   18  C14 UNL     1      24.217   4.051  49.915  1.00  0.00     0.032 A 
ENDBRANCH  10  12
ENDBRANCH   1  10
BRANCH   2  19
HETATM   19  C7  UNL     1      26.958   0.227  52.244  1.00  0.00     0.047 C 
BRANCH  19  20
HETATM   20  C8  UNL     1      27.784   1.164  53.096  1.00  0.00     0.089 C 
HETATM   21 BR1  UNL     1      29.149   0.240  54.055  1.00  0.00    -0.096 Br
ENDBRANCH  19  20
ENDBRANCH   2  19
TORSDOF 4
ENDMDL
MODEL 7
REMARK VINA RESULT:      -7.1      3.546      5.116
REMARK  4 active torsions:
REMARK  status: ('A' for Active; 'I' for Inactive)
REMARK    1  A    between atoms: C4_5  and  N1_6 
REMARK    2  A    between atoms: N1_6  and  C5_7 
REMARK    3  A    between atoms: C6_8  and  C7_9 
REMARK    4  A    between atoms: C7_9  and  C8_10 
ROOT
HETATM    1  C5  UNL     1      22.918   0.328  52.475  1.00  0.00     0.148 A 
HETATM    2  C6  UNL     1      21.475   0.112  52.406  1.00  0.00    -0.050 A 
HETATM    3  C9  UNL     1      21.160  -0.628  53.484  1.00  0.00     0.037 A 
HETATM    4  C10 UNL     1      22.340  -0.937  54.309  1.00  0.00     0.068 A 
HETATM    5  N2  UNL     1      22.655  -1.593  55.436  1.00  0.00    -0.242 NA
HETATM    6  C11 UNL     1      23.896  -1.667  55.908  1.00  0.00     0.233 A 
HETATM    7  N3  UNL     1      24.928  -1.090  55.290  1.00  0.00    -0.253 NA
HETATM    8  C12 UNL     1      24.706  -0.406  54.144  1.00  0.00     0.130 A 
HETATM    9  C13 UNL     1      23.410  -0.343  53.675  1.00  0.00     0.015 A 
ENDROOT
BRANCH   1  10
HETATM   10  N1  UNL     1      23.389   1.659  52.302  1.00  0.00    -0.377 N 
HETATM   11  H3  UNL     1      22.930   2.339  52.983  1.00  0.00     0.160 HD
BRANCH  10  12
HETATM   12  C4  UNL     1      24.327   2.240  51.417  1.00  0.00     0.028 A 
HETATM   13  C3  UNL     1      25.704   2.167  51.660  1.00  0.00     0.032 A 
HETATM   14  C2  UNL     1      26.593   2.729  50.775  1.00  0.00     0.044 A 
HETATM   15  C1  UNL     1      26.190   3.370  49.650  1.00  0.00     0.116 A 
HETATM   16  F1  UNL     1      27.106   3.907  48.812  1.00  0.00    -0.206 F 
HETATM   17  C15 UNL     1      24.849   3.467  49.370  1.00  0.00     0.044 A 
HETATM   18  C14 UNL     1      23.967   2.899  50.260  1.00  0.00     0.032 A 
ENDBRANCH  10  12
ENDBRANCH   1  10
BRANCH   2  19
HETATM   19  C7  UNL     1      20.371   0.494  51.493  1.00  0.00     0.047 C 
BRANCH  19  20
HETATM   20  C8  UNL     1      19.045   0.015  52.039  1.00  0.00     0.089 C 
HETATM   21 BR1  UNL     1      17.676   0.037  50.711  1.00  0.00    -0.096 Br
ENDBRANCH  19  20
ENDBRANCH   2  19
TORSDOF 4
ENDMDL
MODEL 8
REMARK VINA RESULT:      -7.0      2.998      4.188
REMARK  4 active torsions:
REMARK  status: ('A' for Active; 'I' for Inactive)
REMARK    1  A    between atoms: C4_5  and  N1_6 
REMARK    2  A    between atoms: N1_6  and  C5_7 
REMARK    3  A    between atoms: C6_8  and  C7_9 
REMARK    4  A    between atoms: C7_9  and  C8_10 
ROOT
HETATM    1  C5  UNL     1      24.649   2.173  51.741  1.00  0.00     0.148 A 
HETATM    2  C6  UNL     1      23.637   1.281  52.302  1.00  0.00    -0.050 A 
HETATM    3  C9  UNL     1      22.518   1.498  51.589  1.00  0.00     0.037 A 
HETATM    4  C10 UNL     1      22.713   2.517  50.544  1.00  0.00     0.068 A 
HETATM    5  N2  UNL     1      22.020   3.129  49.573  1.00  0.00    -0.242 NA
HETATM    6  C11 UNL     1      22.552   4.052  48.776  1.00  0.00     0.233 A 
HETATM    7  N3  UNL     1      23.825   4.438  48.885  1.00  0.00    -0.253 NA
HETATM    8  C12 UNL     1      24.601   3.874  49.837  1.00  0.00     0.130 A 
HETATM    9  C13 UNL     1      24.027   2.920  50.652  1.00  0.00     0.015 A 
ENDROOT
BRANCH   1  10
HETATM   10  N1  UNL     1      25.917   1.609  51.429  1.00  0.00    -0.377 N 
HETATM   11  H3  UNL     1      26.147   1.690  50.390  1.00  0.00     0.160 HD
BRANCH  10  12
HETATM   12  C4  UNL     1      26.909   0.975  52.214  1.00  0.00     0.028 A 
HETATM   13  C3  UNL     1      26.969  -0.419  52.328  1.00  0.00     0.032 A 
HETATM   14  C2  UNL     1      27.952  -1.008  53.088  1.00  0.00     0.044 A 
HETATM   15  C1  UNL     1      28.890  -0.285  53.749  1.00  0.00     0.116 A 
HETATM   16  F1  UNL     1      29.836  -0.912  54.484  1.00  0.00    -0.206 F 
HETATM   17  C15 UNL     1      28.870   1.087  53.666  1.00  0.00     0.044 A 
HETATM   18  C14 UNL     1      27.883   1.667  52.902  1.00  0.00     0.032 A 
ENDBRANCH  10  12
ENDBRANCH   1  10
BRANCH   2  19
HETATM   19  C7  UNL     1      23.573   0.272  53.387  1.00  0.00     0.047 C 
BRANCH  19  20
HETATM   20  C8  UNL     1      22.580  -0.814  53.038  1.00  0.00     0.089 C 
HETATM   21 BR1  UNL     1      21.442  -1.238  54.509  1.00  0.00    -0.096 Br
ENDBRANCH  19  20
ENDBRANCH   2  19
TORSDOF 4
ENDMDL
MODEL 9
REMARK VINA RESULT:      -7.0      3.197      4.604
REMARK  4 active torsions:
REMARK  status: ('A' for Active; 'I' for Inactive)
REMARK    1  A    between atoms: C4_5  and  N1_6 
REMARK    2  A    between atoms: N1_6  and  C5_7 
REMARK    3  A    between atoms: C6_8  and  C7_9 
REMARK    4  A    between atoms: C7_9  and  C8_10 
ROOT
HETATM    1  C5  UNL     1      22.318   2.229  51.932  1.00  0.00     0.148 A 
HETATM    2  C6  UNL     1      21.320   1.261  52.379  1.00  0.00    -0.050 A 
HETATM    3  C9  UNL     1      20.838   0.686  51.263  1.00  0.00     0.037 A 
HETATM    4  C10 UNL     1      21.468   1.222  50.044  1.00  0.00     0.068 A 
HETATM    5  N2  UNL     1      21.418   1.063  48.714  1.00  0.00    -0.242 NA
HETATM    6  C11 UNL     1      22.177   1.758  47.872  1.00  0.00     0.233 A 
HETATM    7  N3  UNL     1      23.052   2.673  48.293  1.00  0.00    -0.253 NA
HETATM    8  C12 UNL     1      23.172   2.902  49.621  1.00  0.00     0.130 A 
HETATM    9  C13 UNL     1      22.374   2.168  50.474  1.00  0.00     0.015 A 
ENDROOT
BRANCH   1  10
HETATM   10  N1  UNL     1      23.585   2.208  52.577  1.00  0.00    -0.377 N 
HETATM   11  H3  UNL     1      23.775   3.107  53.118  1.00  0.00     0.160 HD
BRANCH  10  12
HETATM   12  C4  UNL     1      24.618   1.244  52.637  1.00  0.00     0.028 A 
HETATM   13  C3  UNL     1      24.549   0.151  53.511  1.00  0.00     0.032 A 
HETATM   14  C2  UNL     1      25.563  -0.777  53.537  1.00  0.00     0.044 A 
HETATM   15  C1  UNL     1      26.655  -0.683  52.739  1.00  0.00     0.116 A 
HETATM   16  F1  UNL     1      27.625  -1.623  52.804  1.00  0.00    -0.206 F 
HETATM   17  C15 UNL     1      26.766   0.372  51.865  1.00  0.00     0.044 A 
HETATM   18  C14 UNL     1      25.746   1.295  51.845  1.00  0.00     0.032 A 
ENDBRANCH  10  12
ENDBRANCH   1  10
BRANCH   2  19
HETATM   19  C7  UNL     1      20.767   0.805  53.677  1.00  0.00     0.047 C 
BRANCH  19  20
HETATM   20  C8  UNL     1      20.313  -0.634  53.580  1.00  0.00     0.089 C 
HETATM   21 BR1  UNL     1      21.520  -1.823  54.456  1.00  0.00    -0.096 Br
ENDBRANCH  19  20
ENDBRANCH   2  19
TORSDOF 4
ENDMDL
