MODEL 1
REMARK VINA RESULT:      -6.6      0.000      0.000
REMARK  6 active torsions:
REMARK  status: ('A' for Active; 'I' for Inactive)
REMARK    1  A    between atoms: O1_2  and  C2_3 
REMARK    2  A    between atoms: C5_9  and  N4_10 
REMARK    3  A    between atoms: N4_10  and  C6_11 
REMARK    4  A    between atoms: C7_12  and  C8_13 
REMARK    5  A    between atoms: C9_14  and  C10_15 
REMARK    6  A    between atoms: C13_19  and  O2_20 
ROOT
HETATM    1  C10 UNL     1      19.825   0.286  51.287  1.00  0.00    -0.061 C 
HETATM    2  C11 UNL     1      20.526   0.624  50.330  1.00  0.00     0.009 C 
HETATM    3 CL1  UNL     1      21.511   1.121  48.990  1.00  0.00    -0.023 Cl
ENDROOT
BRANCH   1   4
HETATM    4  C9  UNL     1      19.040  -0.086  52.384  1.00  0.00     0.066 C 
HETATM    5  C8  UNL     1      19.545  -0.699  53.429  1.00  0.00     0.010 C 
BRANCH   5   6
HETATM    6  C7  UNL     1      20.650  -1.285  54.165  1.00  0.00     0.017 C 
HETATM    7  C6  UNL     1      21.985  -1.450  54.099  1.00  0.00     0.085 C 
BRANCH   7   8
HETATM    8  N4  UNL     1      22.701  -0.935  53.011  1.00  0.00    -0.374 N 
HETATM    9  H7  UNL     1      22.744  -1.477  52.138  1.00  0.00     0.161 HD
BRANCH   8  10
HETATM   10  C5  UNL     1      23.263   0.324  53.367  1.00  0.00     0.254 A 
HETATM   11  N3  UNL     1      23.380   1.230  52.214  1.00  0.00    -0.090 NA
HETATM   12  N2  UNL     1      24.450   1.594  51.841  1.00  0.00    -0.188 NA
HETATM   13  N1  UNL     1      25.509   2.085  51.304  1.00  0.00    -0.087 NA
HETATM   14  C4  UNL     1      26.766   1.920  51.635  1.00  0.00     0.159 A 
HETATM   15  C3  UNL     1      27.513   1.197  52.646  1.00  0.00     0.061 A 
HETATM   16  C2  UNL     1      27.357   0.390  53.691  1.00  0.00     0.099 A 
HETATM   17  C13 UNL     1      25.964  -0.022  54.109  1.00  0.00     0.088 A 
HETATM   18  C12 UNL     1      24.673   0.063  53.865  1.00  0.00     0.106 A 
BRANCH  16  19
HETATM   19  O1  UNL     1      28.399  -0.090  54.408  1.00  0.00    -0.353 OA
HETATM   20  C1  UNL     1      29.620  -0.473  53.845  1.00  0.00     0.210 C 
ENDBRANCH  16  19
BRANCH  17  21
HETATM   21  O2  UNL     1      25.976  -0.845  55.218  1.00  0.00    -0.357 OA
HETATM   22  C14 UNL     1      25.022  -1.076  56.184  1.00  0.00     0.209 C 
ENDBRANCH  17  21
ENDBRANCH   8  10
ENDBRANCH   7   8
ENDBRANCH   5   6
ENDBRANCH   1   4
TORSDOF 6
ENDMDL
MODEL 2
REMARK VINA RESULT:      -6.2      3.870      6.207
REMARK  6 active torsions:
REMARK  status: ('A' for Active; 'I' for Inactive)
REMARK    1  A    between atoms: O1_2  and  C2_3 
REMARK    2  A    between atoms: C5_9  and  N4_10 
REMARK    3  A    between atoms: N4_10  and  C6_11 
REMARK    4  A    between atoms: C7_12  and  C8_13 
REMARK    5  A    between atoms: C9_14  and  C10_15 
REMARK    6  A    between atoms: C13_19  and  O2_20 
ROOT
HETATM    1  C10 UNL     1      26.398   6.339  48.560  1.00  0.00    -0.061 C 
HETATM    2  C11 UNL     1      27.581   6.009  48.434  1.00  0.00     0.009 C 
HETATM    3 CL1  UNL     1      29.243   5.552  48.237  1.00  0.00    -0.023 Cl
ENDROOT
BRANCH   1   4
HETATM    4  C9  UNL     1      25.062   6.729  48.693  1.00  0.00     0.066 C 
HETATM    5  C8  UNL     1      24.090   5.858  48.836  1.00  0.00     0.010 C 
BRANCH   5   6
HETATM    6  C7  UNL     1      23.587   4.502  48.946  1.00  0.00     0.017 C 
HETATM    7  C6  UNL     1      24.001   3.247  49.207  1.00  0.00     0.085 C 
BRANCH   7   8
HETATM    8  N4  UNL     1      25.349   2.999  49.491  1.00  0.00    -0.374 N 
HETATM    9  H7  UNL     1      25.990   2.770  48.719  1.00  0.00     0.161 HD
BRANCH   8  10
HETATM   10  C5  UNL     1      25.570   3.123  50.892  1.00  0.00     0.254 A 
HETATM   11  N3  UNL     1      26.962   2.833  51.268  1.00  0.00    -0.090 NA
HETATM   12  N2  UNL     1      27.214   1.906  51.971  1.00  0.00    -0.188 NA
HETATM   13  N1  UNL     1      27.671   0.961  52.713  1.00  0.00    -0.087 NA
HETATM   14  C4  UNL     1      27.027   0.007  53.338  1.00  0.00     0.159 A 
HETATM   15  C3  UNL     1      25.650  -0.420  53.498  1.00  0.00     0.061 A 
HETATM   16  C2  UNL     1      24.407  -0.110  53.144  1.00  0.00     0.099 A 
HETATM   17  C13 UNL     1      24.165   1.087  52.253  1.00  0.00     0.088 A 
HETATM   18  C12 UNL     1      24.704   2.080  51.577  1.00  0.00     0.106 A 
BRANCH  16  19
HETATM   19  O1  UNL     1      23.330  -0.825  53.544  1.00  0.00    -0.353 OA
HETATM   20  C1  UNL     1      23.011  -1.065  54.884  1.00  0.00     0.210 C 
ENDBRANCH  16  19
BRANCH  17  21
HETATM   21  O2  UNL     1      22.823   1.280  51.994  1.00  0.00    -0.357 OA
HETATM   22  C14 UNL     1      21.983   2.328  52.299  1.00  0.00     0.209 C 
ENDBRANCH  17  21
ENDBRANCH   8  10
ENDBRANCH   7   8
ENDBRANCH   5   6
ENDBRANCH   1   4
TORSDOF 6
ENDMDL
MODEL 3
REMARK VINA RESULT:      -6.0      4.496      7.558
REMARK  6 active torsions:
REMARK  status: ('A' for Active; 'I' for Inactive)
REMARK    1  A    between atoms: O1_2  and  C2_3 
REMARK    2  A    between atoms: C5_9  and  N4_10 
REMARK    3  A    between atoms: N4_10  and  C6_11 
REMARK    4  A    between atoms: C7_12  and  C8_13 
REMARK    5  A    between atoms: C9_14  and  C10_15 
REMARK    6  A    between atoms: C13_19  and  O2_20 
ROOT
HETATM    1  C10 UNL     1      28.996   7.031  47.247  1.00  0.00    -0.061 C 
HETATM    2  C11 UNL     1      28.797   8.070  46.613  1.00  0.00     0.009 C 
HETATM    3 CL1  UNL     1      28.507   9.540  45.738  1.00  0.00    -0.023 Cl
ENDROOT
BRANCH   1   4
HETATM    4  C9  UNL     1      29.228   5.863  47.982  1.00  0.00     0.066 C 
HETATM    5  C8  UNL     1      28.252   5.176  48.528  1.00  0.00     0.010 C 
BRANCH   5   6
HETATM    6  C7  UNL     1      26.849   4.946  48.820  1.00  0.00     0.017 C 
HETATM    7  C6  UNL     1      26.032   4.047  49.401  1.00  0.00     0.085 C 
BRANCH   7   8
HETATM    8  N4  UNL     1      26.563   2.882  49.968  1.00  0.00    -0.374 N 
HETATM    9  H7  UNL     1      26.970   2.165  49.351  1.00  0.00     0.161 HD
BRANCH   8  10
HETATM   10  C5  UNL     1      26.419   2.934  51.383  1.00  0.00     0.254 A 
HETATM   11  N3  UNL     1      27.553   2.312  52.085  1.00  0.00    -0.090 NA
HETATM   12  N2  UNL     1      27.386   1.345  52.758  1.00  0.00    -0.188 NA
HETATM   13  N1  UNL     1      27.396   0.310  53.519  1.00  0.00    -0.087 NA
HETATM   14  C4  UNL     1      26.406  -0.468  53.882  1.00  0.00     0.159 A 
HETATM   15  C3  UNL     1      24.978  -0.552  53.646  1.00  0.00     0.061 A 
HETATM   16  C2  UNL     1      23.982   0.052  53.005  1.00  0.00     0.099 A 
HETATM   17  C13 UNL     1      24.271   1.281  52.175  1.00  0.00     0.088 A 
HETATM   18  C12 UNL     1      25.185   2.123  51.739  1.00  0.00     0.106 A 
BRANCH  16  19
HETATM   19  O1  UNL     1      22.703  -0.388  53.056  1.00  0.00    -0.353 OA
HETATM   20  C1  UNL     1      21.808  -0.058  54.079  1.00  0.00     0.210 C 
ENDBRANCH  16  19
BRANCH  17  21
HETATM   21  O2  UNL     1      23.130   1.794  51.591  1.00  0.00    -0.357 OA
HETATM   22  C14 UNL     1      22.644   3.082  51.530  1.00  0.00     0.209 C 
ENDBRANCH  17  21
ENDBRANCH   8  10
ENDBRANCH   7   8
ENDBRANCH   5   6
ENDBRANCH   1   4
TORSDOF 6
ENDMDL
MODEL 4
REMARK VINA RESULT:      -5.8      3.882      7.049
REMARK  6 active torsions:
REMARK  status: ('A' for Active; 'I' for Inactive)
REMARK    1  A    between atoms: O1_2  and  C2_3 
REMARK    2  A    between atoms: C5_9  and  N4_10 
REMARK    3  A    between atoms: N4_10  and  C6_11 
REMARK    4  A    between atoms: C7_12  and  C8_13 
REMARK    5  A    between atoms: C9_14  and  C10_15 
REMARK    6  A    between atoms: C13_19  and  O2_20 
ROOT
HETATM    1  C10 UNL     1      26.115   6.384  49.301  1.00  0.00    -0.061 C 
HETATM    2  C11 UNL     1      25.287   7.171  49.767  1.00  0.00     0.009 C 
HETATM    3 CL1  UNL     1      24.120   8.287  50.402  1.00  0.00    -0.023 Cl
ENDROOT
BRANCH   1   4
HETATM    4  C9  UNL     1      27.043   5.489  48.757  1.00  0.00     0.066 C 
HETATM    5  C8  UNL     1      27.044   4.212  49.062  1.00  0.00     0.010 C 
BRANCH   5   6
HETATM    6  C7  UNL     1      26.516   3.059  49.767  1.00  0.00     0.017 C 
HETATM    7  C6  UNL     1      25.666   2.736  50.760  1.00  0.00     0.085 C 
BRANCH   7   8
HETATM    8  N4  UNL     1      24.974   3.742  51.445  1.00  0.00    -0.374 N 
HETATM    9  H7  UNL     1      24.874   4.668  51.008  1.00  0.00     0.161 HD
BRANCH   8  10
HETATM   10  C5  UNL     1      24.519   3.238  52.697  1.00  0.00     0.254 A 
HETATM   11  N3  UNL     1      25.243   2.025  53.108  1.00  0.00    -0.090 NA
HETATM   12  N2  UNL     1      24.666   0.991  53.222  1.00  0.00    -0.188 NA
HETATM   13  N1  UNL     1      24.216  -0.200  53.396  1.00  0.00    -0.087 NA
HETATM   14  C4  UNL     1      22.995  -0.659  53.260  1.00  0.00     0.159 A 
HETATM   15  C3  UNL     1      21.695  -0.129  52.895  1.00  0.00     0.061 A 
HETATM   16  C2  UNL     1      21.081   0.995  52.540  1.00  0.00     0.099 A 
HETATM   17  C13 UNL     1      21.880   2.272  52.423  1.00  0.00     0.088 A 
HETATM   18  C12 UNL     1      23.064   2.841  52.519  1.00  0.00     0.106 A 
BRANCH  16  19
HETATM   19  O1  UNL     1      19.756   1.053  52.269  1.00  0.00    -0.353 OA
HETATM   20  C1  UNL     1      19.098   0.164  51.414  1.00  0.00     0.210 C 
ENDBRANCH  16  19
BRANCH  17  21
HETATM   21  O2  UNL     1      21.092   3.348  52.063  1.00  0.00    -0.357 OA
HETATM   22  C14 UNL     1      21.182   4.221  51.001  1.00  0.00     0.209 C 
ENDBRANCH  17  21
ENDBRANCH   8  10
ENDBRANCH   7   8
ENDBRANCH   5   6
ENDBRANCH   1   4
TORSDOF 6
ENDMDL
MODEL 5
REMARK VINA RESULT:      -5.8      3.104      5.187
REMARK  6 active torsions:
REMARK  status: ('A' for Active; 'I' for Inactive)
REMARK    1  A    between atoms: O1_2  and  C2_3 
REMARK    2  A    between atoms: C5_9  and  N4_10 
REMARK    3  A    between atoms: N4_10  and  C6_11 
REMARK    4  A    between atoms: C7_12  and  C8_13 
REMARK    5  A    between atoms: C9_14  and  C10_15 
REMARK    6  A    between atoms: C13_19  and  O2_20 
ROOT
HETATM    1  C10 UNL     1      22.261   3.382  47.714  1.00  0.00    -0.061 C 
HETATM    2  C11 UNL     1      21.910   3.605  46.552  1.00  0.00     0.009 C 
HETATM    3 CL1  UNL     1      21.435   3.909  44.911  1.00  0.00    -0.023 Cl
ENDROOT
BRANCH   1   4
HETATM    4  C9  UNL     1      22.665   3.112  49.026  1.00  0.00     0.066 C 
HETATM    5  C8  UNL     1      23.892   3.328  49.438  1.00  0.00     0.010 C 
BRANCH   5   6
HETATM    6  C7  UNL     1      25.260   3.764  49.228  1.00  0.00     0.017 C 
HETATM    7  C6  UNL     1      26.525   3.440  49.556  1.00  0.00     0.085 C 
BRANCH   7   8
HETATM    8  N4  UNL     1      26.777   2.327  50.367  1.00  0.00    -0.374 N 
HETATM    9  H7  UNL     1      27.038   1.434  49.926  1.00  0.00     0.161 HD
BRANCH   8  10
HETATM   10  C5  UNL     1      26.605   2.688  51.734  1.00  0.00     0.254 A 
HETATM   11  N3  UNL     1      27.818   2.450  52.532  1.00  0.00    -0.090 NA
HETATM   12  N2  UNL     1      27.808   1.656  53.418  1.00  0.00    -0.188 NA
HETATM   13  N1  UNL     1      27.983   0.847  54.401  1.00  0.00    -0.087 NA
HETATM   14  C4  UNL     1      27.135   0.022  54.963  1.00  0.00     0.159 A 
HETATM   15  C3  UNL     1      25.745  -0.355  54.791  1.00  0.00     0.061 A 
HETATM   16  C2  UNL     1      24.671  -0.097  54.053  1.00  0.00     0.099 A 
HETATM   17  C13 UNL     1      24.758   0.932  52.949  1.00  0.00     0.088 A 
HETATM   18  C12 UNL     1      25.522   1.788  52.303  1.00  0.00     0.106 A 
BRANCH  16  19
HETATM   19  O1  UNL     1      23.484  -0.720  54.240  1.00  0.00    -0.353 OA
HETATM   20  C1  UNL     1      23.166  -1.458  55.384  1.00  0.00     0.210 C 
ENDBRANCH  16  19
BRANCH  17  21
HETATM   21  O2  UNL     1      23.555   1.093  52.290  1.00  0.00    -0.357 OA
HETATM   22  C14 UNL     1      22.516   1.972  52.503  1.00  0.00     0.209 C 
ENDBRANCH  17  21
ENDBRANCH   8  10
ENDBRANCH   7   8
ENDBRANCH   5   6
ENDBRANCH   1   4
TORSDOF 6
ENDMDL
MODEL 6
REMARK VINA RESULT:      -5.8      3.725      5.549
REMARK  6 active torsions:
REMARK  status: ('A' for Active; 'I' for Inactive)
REMARK    1  A    between atoms: O1_2  and  C2_3 
REMARK    2  A    between atoms: C5_9  and  N4_10 
REMARK    3  A    between atoms: N4_10  and  C6_11 
REMARK    4  A    between atoms: C7_12  and  C8_13 
REMARK    5  A    between atoms: C9_14  and  C10_15 
REMARK    6  A    between atoms: C13_19  and  O2_20 
ROOT
HETATM    1  C10 UNL     1      25.321   6.962  50.125  1.00  0.00    -0.061 C 
HETATM    2  C11 UNL     1      26.134   7.108  49.207  1.00  0.00     0.009 C 
HETATM    3 CL1  UNL     1      27.282   7.333  47.926  1.00  0.00    -0.023 Cl
ENDROOT
BRANCH   1   4
HETATM    4  C9  UNL     1      24.413   6.802  51.177  1.00  0.00     0.066 C 
HETATM    5  C8  UNL     1      23.412   5.956  51.113  1.00  0.00     0.010 C 
BRANCH   5   6
HETATM    6  C7  UNL     1      22.624   4.946  50.431  1.00  0.00     0.017 C 
HETATM    7  C6  UNL     1      22.186   3.681  50.579  1.00  0.00     0.085 C 
BRANCH   7   8
HETATM    8  N4  UNL     1      22.512   2.957  51.732  1.00  0.00    -0.374 N 
HETATM    9  H7  UNL     1      22.269   3.346  52.653  1.00  0.00     0.161 HD
BRANCH   8  10
HETATM   10  C5  UNL     1      23.160   1.744  51.363  1.00  0.00     0.254 A 
HETATM   11  N3  UNL     1      22.758   0.613  52.214  1.00  0.00    -0.090 NA
HETATM   12  N2  UNL     1      23.559   0.067  52.904  1.00  0.00    -0.188 NA
HETATM   13  N1  UNL     1      24.276  -0.636  53.706  1.00  0.00    -0.087 NA
HETATM   14  C4  UNL     1      25.554  -0.544  53.980  1.00  0.00     0.159 A 
HETATM   15  C3  UNL     1      26.672   0.286  53.573  1.00  0.00     0.061 A 
HETATM   16  C2  UNL     1      26.991   1.302  52.777  1.00  0.00     0.099 A 
HETATM   17  C13 UNL     1      25.920   1.940  51.923  1.00  0.00     0.088 A 
HETATM   18  C12 UNL     1      24.649   1.948  51.577  1.00  0.00     0.106 A 
BRANCH  16  19
HETATM   19  O1  UNL     1      28.245   1.804  52.695  1.00  0.00    -0.353 OA
HETATM   20  C1  UNL     1      28.905   2.425  53.760  1.00  0.00     0.210 C 
ENDBRANCH  16  19
BRANCH  17  21
HETATM   21  O2  UNL     1      26.418   2.967  51.145  1.00  0.00    -0.357 OA
HETATM   22  C14 UNL     1      26.159   3.321  49.839  1.00  0.00     0.209 C 
ENDBRANCH  17  21
ENDBRANCH   8  10
ENDBRANCH   7   8
ENDBRANCH   5   6
ENDBRANCH   1   4
TORSDOF 6
ENDMDL
MODEL 7
REMARK VINA RESULT:      -5.7      3.712      6.737
REMARK  6 active torsions:
REMARK  status: ('A' for Active; 'I' for Inactive)
REMARK    1  A    between atoms: O1_2  and  C2_3 
REMARK    2  A    between atoms: C5_9  and  N4_10 
REMARK    3  A    between atoms: N4_10  and  C6_11 
REMARK    4  A    between atoms: C7_12  and  C8_13 
REMARK    5  A    between atoms: C9_14  and  C10_15 
REMARK    6  A    between atoms: C13_19  and  O2_20 
ROOT
HETATM    1  C10 UNL     1      26.800   4.310  49.162  1.00  0.00    -0.061 C 
HETATM    2  C11 UNL     1      27.589   5.099  48.635  1.00  0.00     0.009 C 
HETATM    3 CL1  UNL     1      28.698   6.221  47.913  1.00  0.00    -0.023 Cl
ENDROOT
BRANCH   1   4
HETATM    4  C9  UNL     1      25.916   3.416  49.776  1.00  0.00     0.066 C 
HETATM    5  C8  UNL     1      24.639   3.377  49.474  1.00  0.00     0.010 C 
BRANCH   5   6
HETATM    6  C7  UNL     1      23.480   3.837  48.731  1.00  0.00     0.017 C 
HETATM    7  C6  UNL     1      22.139   3.913  48.823  1.00  0.00     0.085 C 
BRANCH   7   8
HETATM    8  N4  UNL     1      21.486   3.432  49.964  1.00  0.00    -0.374 N 
HETATM    9  H7  UNL     1      21.156   4.102  50.672  1.00  0.00     0.161 HD
BRANCH   8  10
HETATM   10  C5  UNL     1      21.409   2.012  49.903  1.00  0.00     0.254 A 
HETATM   11  N3  UNL     1      20.051   1.537  49.594  1.00  0.00    -0.090 NA
HETATM   12  N2  UNL     1      19.449   0.883  50.385  1.00  0.00    -0.188 NA
HETATM   13  N1  UNL     1      18.656   0.175  51.108  1.00  0.00    -0.087 NA
HETATM   14  C4  UNL     1      18.839  -0.319  52.307  1.00  0.00     0.159 A 
HETATM   15  C3  UNL     1      19.891  -0.326  53.306  1.00  0.00     0.061 A 
HETATM   16  C2  UNL     1      21.125   0.113  53.534  1.00  0.00     0.099 A 
HETATM   17  C13 UNL     1      21.829   0.932  52.478  1.00  0.00     0.088 A 
HETATM   18  C12 UNL     1      21.755   1.484  51.284  1.00  0.00     0.106 A 
BRANCH  16  19
HETATM   19  O1  UNL     1      21.791  -0.137  54.686  1.00  0.00    -0.353 OA
HETATM   20  C1  UNL     1      22.291  -1.395  55.037  1.00  0.00     0.210 C 
ENDBRANCH  16  19
BRANCH  17  21
HETATM   21  O2  UNL     1      23.105   1.294  52.864  1.00  0.00    -0.357 OA
HETATM   22  C14 UNL     1      24.339   0.896  52.400  1.00  0.00     0.209 C 
ENDBRANCH  17  21
ENDBRANCH   8  10
ENDBRANCH   7   8
ENDBRANCH   5   6
ENDBRANCH   1   4
TORSDOF 6
ENDMDL
MODEL 8
REMARK VINA RESULT:      -5.7      4.235      6.606
REMARK  6 active torsions:
REMARK  status: ('A' for Active; 'I' for Inactive)
REMARK    1  A    between atoms: O1_2  and  C2_3 
REMARK    2  A    between atoms: C5_9  and  N4_10 
REMARK    3  A    between atoms: N4_10  and  C6_11 
REMARK    4  A    between atoms: C7_12  and  C8_13 
REMARK    5  A    between atoms: C9_14  and  C10_15 
REMARK    6  A    between atoms: C13_19  and  O2_20 
ROOT
HETATM    1  C10 UNL     1      24.753  -0.276  54.195  1.00  0.00    -0.061 C 
HETATM    2  C11 UNL     1      23.697  -0.251  53.557  1.00  0.00     0.009 C 
HETATM    3 CL1  UNL     1      22.202  -0.207  52.677  1.00  0.00    -0.023 Cl
ENDROOT
BRANCH   1   4
HETATM    4  C9  UNL     1      25.946  -0.287  54.925  1.00  0.00     0.066 C 
HETATM    5  C8  UNL     1      27.011   0.372  54.533  1.00  0.00     0.010 C 
BRANCH   5   6
HETATM    6  C7  UNL     1      27.718   1.238  53.608  1.00  0.00     0.017 C 
HETATM    7  C6  UNL     1      27.501   2.235  52.729  1.00  0.00     0.085 C 
BRANCH   7   8
HETATM    8  N4  UNL     1      26.203   2.718  52.525  1.00  0.00    -0.374 N 
HETATM    9  H7  UNL     1      25.648   3.023  53.337  1.00  0.00     0.161 HD
BRANCH   8  10
HETATM   10  C5  UNL     1      25.896   2.683  51.135  1.00  0.00     0.254 A 
HETATM   11  N3  UNL     1      27.069   2.969  50.296  1.00  0.00    -0.090 NA
HETATM   12  N2  UNL     1      27.089   3.935  49.600  1.00  0.00    -0.188 NA
HETATM   13  N1  UNL     1      27.287   4.918  48.796  1.00  0.00    -0.087 NA
HETATM   14  C4  UNL     1      26.503   5.925  48.501  1.00  0.00     0.159 A 
HETATM   15  C3  UNL     1      25.181   6.389  48.876  1.00  0.00     0.061 A 
HETATM   16  C2  UNL     1      24.138   6.082  49.641  1.00  0.00     0.099 A 
HETATM   17  C13 UNL     1      24.184   4.834  50.492  1.00  0.00     0.088 A 
HETATM   18  C12 UNL     1      24.886   3.787  50.870  1.00  0.00     0.106 A 
BRANCH  16  19
HETATM   19  O1  UNL     1      23.022   6.844  49.700  1.00  0.00    -0.353 OA
HETATM   20  C1  UNL     1      22.065   6.901  48.681  1.00  0.00     0.210 C 
ENDBRANCH  16  19
BRANCH  17  21
HETATM   21  O2  UNL     1      23.019   4.651  51.211  1.00  0.00    -0.357 OA
HETATM   22  C14 UNL     1      22.808   4.197  52.494  1.00  0.00     0.209 C 
ENDBRANCH  17  21
ENDBRANCH   8  10
ENDBRANCH   7   8
ENDBRANCH   5   6
ENDBRANCH   1   4
TORSDOF 6
ENDMDL
MODEL 9
REMARK VINA RESULT:      -5.7      9.563     12.466
REMARK  6 active torsions:
REMARK  status: ('A' for Active; 'I' for Inactive)
REMARK    1  A    between atoms: O1_2  and  C2_3 
REMARK    2  A    between atoms: C5_9  and  N4_10 
REMARK    3  A    between atoms: N4_10  and  C6_11 
REMARK    4  A    between atoms: C7_12  and  C8_13 
REMARK    5  A    between atoms: C9_14  and  C10_15 
REMARK    6  A    between atoms: C13_19  and  O2_20 
ROOT
HETATM    1  C10 UNL     1      33.903   3.258  46.526  1.00  0.00    -0.061 C 
HETATM    2  C11 UNL     1      33.614   2.483  47.443  1.00  0.00     0.009 C 
HETATM    3 CL1  UNL     1      33.192   1.386  48.719  1.00  0.00    -0.023 Cl
ENDROOT
BRANCH   1   4
HETATM    4  C9  UNL     1      34.227   4.122  45.475  1.00  0.00     0.066 C 
HETATM    5  C8  UNL     1      33.654   5.294  45.331  1.00  0.00     0.010 C 
BRANCH   5   6
HETATM    6  C7  UNL     1      32.723   6.328  45.743  1.00  0.00     0.017 C 
HETATM    7  C6  UNL     1      32.366   7.049  46.823  1.00  0.00     0.085 C 
BRANCH   7   8
HETATM    8  N4  UNL     1      33.026   6.857  48.042  1.00  0.00    -0.374 N 
HETATM    9  H7  UNL     1      34.052   6.933  48.074  1.00  0.00     0.161 HD
BRANCH   8  10
HETATM   10  C5  UNL     1      32.071   6.576  49.060  1.00  0.00     0.254 A 
HETATM   11  N3  UNL     1      31.381   5.295  48.841  1.00  0.00    -0.090 NA
HETATM   12  N2  UNL     1      30.208   5.270  48.644  1.00  0.00    -0.188 NA
HETATM   13  N1  UNL     1      28.962   5.052  48.418  1.00  0.00    -0.087 NA
HETATM   14  C4  UNL     1      27.969   5.902  48.327  1.00  0.00     0.159 A 
HETATM   15  C3  UNL     1      27.786   7.337  48.422  1.00  0.00     0.061 A 
HETATM   16  C2  UNL     1      28.450   8.468  48.639  1.00  0.00     0.099 A 
HETATM   17  C13 UNL     1      29.939   8.419  48.890  1.00  0.00     0.088 A 
HETATM   18  C12 UNL     1      31.011   7.662  48.994  1.00  0.00     0.106 A 
BRANCH  16  19
HETATM   19  O1  UNL     1      27.850   9.682  48.642  1.00  0.00    -0.353 OA
HETATM   20  C1  UNL     1      27.344  10.302  47.495  1.00  0.00     0.210 C 
ENDBRANCH  16  19
BRANCH  17  21
HETATM   21  O2  UNL     1      30.472   9.673  49.113  1.00  0.00    -0.357 OA
HETATM   22  C14 UNL     1      31.238  10.488  48.309  1.00  0.00     0.209 C 
ENDBRANCH  17  21
ENDBRANCH   8  10
ENDBRANCH   7   8
ENDBRANCH   5   6
ENDBRANCH   1   4
TORSDOF 6
ENDMDL
