MODEL 1
REMARK VINA RESULT:      -8.2      0.000      0.000
REMARK  8 active torsions:
REMARK  status: ('A' for Active; 'I' for Inactive)
REMARK    1  A    between atoms: O1_2  and  C2_3 
REMARK    2  A    between atoms: C6_9  and  N3_10 
REMARK    3  A    between atoms: N3_10  and  C8_12 
REMARK    4  A    between atoms: C16_22  and  O3_23 
REMARK    5  A    between atoms: O3_23  and  C17_24 
REMARK    6  A    between atoms: C17_24  and  C18_25 
REMARK    7  A    between atoms: C19_26  and  C20_27 
REMARK    8  A    between atoms: C20_27  and  C21_28 
REMARK       I    between atoms: C21_28  and  N4_29 
ROOT
HETATM    1  C2  UNL     1      20.109   0.192  52.142  1.00  0.00     0.102 C 
HETATM    2  C3  UNL     1      20.412  -0.575  53.176  1.00  0.00     0.069 C 
HETATM    3  C4  UNL     1      21.739  -0.624  53.802  1.00  0.00     0.072 A 
HETATM    4  N1  UNL     1      21.779  -1.474  54.839  1.00  0.00    -0.241 NA
HETATM    5  C5  UNL     1      22.948  -1.605  55.498  1.00  0.00     0.235 A 
HETATM    6  N2  UNL     1      24.067  -0.922  55.160  1.00  0.00    -0.224 NA
HETATM    7  C6  UNL     1      24.097  -0.053  54.130  1.00  0.00     0.142 A 
HETATM    8  C14 UNL     1      22.890   0.062  53.473  1.00  0.00     0.041 A 
HETATM    9  C15 UNL     1      22.977   1.042  52.336  1.00  0.00     0.216 C 
HETATM   10  O2  UNL     1      21.793   1.746  52.194  1.00  0.00    -0.350 OA
HETATM   11  C16 UNL     1      20.907   1.191  51.308  1.00  0.00     0.318 C 
ENDROOT
BRANCH  11  12
HETATM   12  O3  UNL     1      21.548   0.457  50.316  1.00  0.00    -0.351 OA
BRANCH  12  13
HETATM   13  C17 UNL     1      21.321   1.044  49.096  1.00  0.00     0.198 C 
BRANCH  13  14
HETATM   14  C18 UNL     1      22.213   2.128  48.711  1.00  0.00    -0.004 C 
HETATM   15  C19 UNL     1      23.324   2.872  48.916  1.00  0.00    -0.019 C 
BRANCH  15  16
HETATM   16  C20 UNL     1      24.514   3.120  49.753  1.00  0.00     0.129 C 
BRANCH  16  17
HETATM   17  C21 UNL     1      24.401   4.405  50.525  1.00  0.00     0.218 C 
HETATM   18  N4  UNL     1      25.630   5.122  50.449  1.00  0.00    -0.370 N 
HETATM   19  H22 UNL     1      25.800   5.562  49.515  1.00  0.00     0.159 HD
HETATM   20  H23 UNL     1      25.914   4.922  51.424  1.00  0.00     0.159 HD
HETATM   21  O4  UNL     1      23.239   4.460  51.012  1.00  0.00    -0.274 OA
ENDBRANCH  16  17
ENDBRANCH  15  16
ENDBRANCH  13  14
ENDBRANCH  12  13
ENDBRANCH  11  12
BRANCH   1  22
HETATM   22  O1  UNL     1      18.776   0.036  51.754  1.00  0.00    -0.355 OA
HETATM   23  C1  UNL     1      17.859  -0.830  52.348  1.00  0.00     0.209 C 
ENDBRANCH   1  22
BRANCH   7  24
HETATM   24  N3  UNL     1      25.254   0.681  53.745  1.00  0.00    -0.336 N 
HETATM   25  C7  UNL     1      25.397   2.102  53.516  1.00  0.00     0.158 C 
BRANCH  24  26
HETATM   26  C8  UNL     1      26.436  -0.103  53.560  1.00  0.00     0.035 A 
HETATM   27  C9  UNL     1      26.395  -1.250  52.793  1.00  0.00     0.033 A 
HETATM   28  C10 UNL     1      27.506  -2.041  52.581  1.00  0.00     0.044 A 
HETATM   29  C11 UNL     1      28.723  -1.709  53.137  1.00  0.00     0.116 A 
HETATM   30  F1  UNL     1      29.829  -2.473  52.942  1.00  0.00    -0.206 F 
HETATM   31  C12 UNL     1      28.782  -0.568  53.905  1.00  0.00     0.044 A 
HETATM   32  C13 UNL     1      27.673   0.207  54.106  1.00  0.00     0.033 A 
ENDBRANCH  24  26
ENDBRANCH   7  24
TORSDOF 8
ENDMDL
MODEL 2
REMARK VINA RESULT:      -8.0      3.178      7.360
REMARK  8 active torsions:
REMARK  status: ('A' for Active; 'I' for Inactive)
REMARK    1  A    between atoms: O1_2  and  C2_3 
REMARK    2  A    between atoms: C6_9  and  N3_10 
REMARK    3  A    between atoms: N3_10  and  C8_12 
REMARK    4  A    between atoms: C16_22  and  O3_23 
REMARK    5  A    between atoms: O3_23  and  C17_24 
REMARK    6  A    between atoms: C17_24  and  C18_25 
REMARK    7  A    between atoms: C19_26  and  C20_27 
REMARK    8  A    between atoms: C20_27  and  C21_28 
REMARK       I    between atoms: C21_28  and  N4_29 
ROOT
HETATM    1  C2  UNL     1      27.102   1.312  53.138  1.00  0.00     0.102 C 
HETATM    2  C3  UNL     1      27.285   1.850  51.944  1.00  0.00     0.069 C 
HETATM    3  C4  UNL     1      26.268   2.632  51.230  1.00  0.00     0.072 A 
HETATM    4  N1  UNL     1      26.709   3.074  50.043  1.00  0.00    -0.241 NA
HETATM    5  C5  UNL     1      25.863   3.808  49.293  1.00  0.00     0.235 A 
HETATM    6  N2  UNL     1      24.602   4.113  49.684  1.00  0.00    -0.224 NA
HETATM    7  C6  UNL     1      24.096   3.701  50.863  1.00  0.00     0.142 A 
HETATM    8  C14 UNL     1      24.981   2.952  51.611  1.00  0.00     0.041 A 
HETATM    9  C15 UNL     1      24.368   2.520  52.914  1.00  0.00     0.216 C 
HETATM   10  O2  UNL     1      25.311   2.506  53.927  1.00  0.00    -0.350 OA
HETATM   11  C16 UNL     1      25.926   1.295  54.111  1.00  0.00     0.318 C 
ENDROOT
BRANCH  11  12
HETATM   12  O3  UNL     1      25.114   0.231  53.733  1.00  0.00    -0.351 OA
BRANCH  12  13
HETATM   13  C17 UNL     1      25.236  -0.785  54.648  1.00  0.00     0.198 C 
BRANCH  13  14
HETATM   14  C18 UNL     1      24.017  -1.220  55.313  1.00  0.00    -0.004 C 
HETATM   15  C19 UNL     1      22.683  -1.442  55.307  1.00  0.00    -0.019 C 
BRANCH  15  16
HETATM   16  C20 UNL     1      21.420  -1.391  54.544  1.00  0.00     0.129 C 
BRANCH  16  17
HETATM   17  C21 UNL     1      21.329  -0.158  53.689  1.00  0.00     0.218 C 
HETATM   18  N4  UNL     1      22.126  -0.322  52.519  1.00  0.00    -0.370 N 
HETATM   19  H22 UNL     1      21.709  -0.980  51.819  1.00  0.00     0.159 HD
HETATM   20  H23 UNL     1      22.875   0.321  52.826  1.00  0.00     0.159 HD
HETATM   21  O4  UNL     1      20.566   0.659  54.274  1.00  0.00    -0.274 OA
ENDBRANCH  16  17
ENDBRANCH  15  16
ENDBRANCH  13  14
ENDBRANCH  12  13
ENDBRANCH  11  12
BRANCH   1  22
HETATM   22  O1  UNL     1      28.237   0.624  53.576  1.00  0.00    -0.355 OA
HETATM   23  C1  UNL     1      29.107   1.055  54.575  1.00  0.00     0.209 C 
ENDBRANCH   1  22
BRANCH   7  24
HETATM   24  N3  UNL     1      22.777   3.999  51.308  1.00  0.00    -0.336 N 
HETATM   25  C7  UNL     1      22.315   5.116  52.102  1.00  0.00     0.158 C 
BRANCH  24  26
HETATM   26  C8  UNL     1      21.775   3.059  50.909  1.00  0.00     0.035 A 
HETATM   27  C9  UNL     1      20.565   3.014  51.572  1.00  0.00     0.033 A 
HETATM   28  C10 UNL     1      19.563   2.128  51.227  1.00  0.00     0.044 A 
HETATM   29  C11 UNL     1      19.737   1.240  50.188  1.00  0.00     0.116 A 
HETATM   30  F1  UNL     1      18.765   0.360  49.832  1.00  0.00    -0.206 F 
HETATM   31  C12 UNL     1      20.937   1.272  49.516  1.00  0.00     0.044 A 
HETATM   32  C13 UNL     1      21.922   2.155  49.868  1.00  0.00     0.033 A 
ENDBRANCH  24  26
ENDBRANCH   7  24
TORSDOF 8
ENDMDL
MODEL 3
REMARK VINA RESULT:      -7.9      3.482      6.475
REMARK  8 active torsions:
REMARK  status: ('A' for Active; 'I' for Inactive)
REMARK    1  A    between atoms: O1_2  and  C2_3 
REMARK    2  A    between atoms: C6_9  and  N3_10 
REMARK    3  A    between atoms: N3_10  and  C8_12 
REMARK    4  A    between atoms: C16_22  and  O3_23 
REMARK    5  A    between atoms: O3_23  and  C17_24 
REMARK    6  A    between atoms: C17_24  and  C18_25 
REMARK    7  A    between atoms: C19_26  and  C20_27 
REMARK    8  A    between atoms: C20_27  and  C21_28 
REMARK       I    between atoms: C21_28  and  N4_29 
ROOT
HETATM    1  C2  UNL     1      21.472   0.637  53.238  1.00  0.00     0.102 C 
HETATM    2  C3  UNL     1      20.470   1.486  53.072  1.00  0.00     0.069 C 
HETATM    3  C4  UNL     1      20.433   2.518  52.029  1.00  0.00     0.072 A 
HETATM    4  N1  UNL     1      19.303   3.239  52.071  1.00  0.00    -0.241 NA
HETATM    5  C5  UNL     1      19.151   4.220  51.158  1.00  0.00     0.235 A 
HETATM    6  N2  UNL     1      20.080   4.503  50.215  1.00  0.00    -0.224 NA
HETATM    7  C6  UNL     1      21.237   3.818  50.117  1.00  0.00     0.142 A 
HETATM    8  C14 UNL     1      21.368   2.821  51.061  1.00  0.00     0.041 A 
HETATM    9  C15 UNL     1      22.672   2.090  50.908  1.00  0.00     0.216 C 
HETATM   10  O2  UNL     1      22.527   0.747  51.206  1.00  0.00    -0.350 OA
HETATM   11  C16 UNL     1      22.796   0.425  52.511  1.00  0.00     0.318 C 
ENDROOT
BRANCH  11  12
HETATM   12  O3  UNL     1      23.711   1.298  53.089  1.00  0.00    -0.351 OA
BRANCH  12  13
HETATM   13  C17 UNL     1      24.751   0.581  53.627  1.00  0.00     0.198 C 
BRANCH  13  14
HETATM   14  C18 UNL     1      25.832   0.213  52.724  1.00  0.00    -0.004 C 
HETATM   15  C19 UNL     1      27.041  -0.350  52.498  1.00  0.00    -0.019 C 
BRANCH  15  16
HETATM   16  C20 UNL     1      28.210  -1.049  53.067  1.00  0.00     0.129 C 
BRANCH  16  17
HETATM   17  C21 UNL     1      28.942  -0.199  54.067  1.00  0.00     0.218 C 
HETATM   18  N4  UNL     1      30.092   0.380  53.456  1.00  0.00    -0.370 N 
HETATM   19  H22 UNL     1      29.866   1.154  52.789  1.00  0.00     0.159 HD
HETATM   20  H23 UNL     1      30.772  -0.231  53.941  1.00  0.00     0.159 HD
HETATM   21  O4  UNL     1      28.310  -0.257  55.156  1.00  0.00    -0.274 OA
ENDBRANCH  16  17
ENDBRANCH  15  16
ENDBRANCH  13  14
ENDBRANCH  12  13
ENDBRANCH  11  12
BRANCH   1  22
HETATM   22  O1  UNL     1      21.241  -0.234  54.306  1.00  0.00    -0.355 OA
HETATM   23  C1  UNL     1      21.337  -1.623  54.250  1.00  0.00     0.209 C 
ENDBRANCH   1  22
BRANCH   7  24
HETATM   24  N3  UNL     1      22.237   4.087  49.140  1.00  0.00    -0.336 N 
HETATM   25  C7  UNL     1      22.370   3.555  47.802  1.00  0.00     0.158 C 
BRANCH  24  26
HETATM   26  C8  UNL     1      23.249   5.014  49.547  1.00  0.00     0.035 A 
HETATM   27  C9  UNL     1      24.536   4.890  49.064  1.00  0.00     0.033 A 
HETATM   28  C10 UNL     1      25.549   5.758  49.422  1.00  0.00     0.044 A 
HETATM   29  C11 UNL     1      25.308   6.800  50.291  1.00  0.00     0.116 A 
HETATM   30  F1  UNL     1      26.289   7.665  50.657  1.00  0.00    -0.206 F 
HETATM   31  C12 UNL     1      24.030   6.937  50.782  1.00  0.00     0.044 A 
HETATM   32  C13 UNL     1      23.035   6.071  50.419  1.00  0.00     0.033 A 
ENDBRANCH  24  26
ENDBRANCH   7  24
TORSDOF 8
ENDMDL
MODEL 4
REMARK VINA RESULT:      -7.7      1.817      2.329
REMARK  8 active torsions:
REMARK  status: ('A' for Active; 'I' for Inactive)
REMARK    1  A    between atoms: O1_2  and  C2_3 
REMARK    2  A    between atoms: C6_9  and  N3_10 
REMARK    3  A    between atoms: N3_10  and  C8_12 
REMARK    4  A    between atoms: C16_22  and  O3_23 
REMARK    5  A    between atoms: O3_23  and  C17_24 
REMARK    6  A    between atoms: C17_24  and  C18_25 
REMARK    7  A    between atoms: C19_26  and  C20_27 
REMARK    8  A    between atoms: C20_27  and  C21_28 
REMARK       I    between atoms: C21_28  and  N4_29 
ROOT
HETATM    1  C2  UNL     1      21.380   1.662  52.614  1.00  0.00     0.102 C 
HETATM    2  C3  UNL     1      21.487   0.846  53.650  1.00  0.00     0.069 C 
HETATM    3  C4  UNL     1      22.698   0.081  53.970  1.00  0.00     0.072 A 
HETATM    4  N1  UNL     1      22.551  -0.662  55.077  1.00  0.00    -0.241 NA
HETATM    5  C5  UNL     1      23.599  -1.411  55.475  1.00  0.00     0.235 A 
HETATM    6  N2  UNL     1      24.779  -1.443  54.811  1.00  0.00    -0.224 NA
HETATM    7  C6  UNL     1      24.995  -0.722  53.692  1.00  0.00     0.142 A 
HETATM    8  C14 UNL     1      23.908   0.035  53.307  1.00  0.00     0.041 A 
HETATM    9  C15 UNL     1      24.201   0.818  52.058  1.00  0.00     0.216 C 
HETATM   10  O2  UNL     1      23.576   2.052  52.087  1.00  0.00    -0.350 OA
HETATM   11  C16 UNL     1      22.337   2.073  51.500  1.00  0.00     0.318 C 
ENDROOT
BRANCH  11  12
HETATM   12  O3  UNL     1      22.215   1.116  50.498  1.00  0.00    -0.351 OA
BRANCH  12  13
HETATM   13  C17 UNL     1      21.929   1.736  49.308  1.00  0.00     0.198 C 
BRANCH  13  14
HETATM   14  C18 UNL     1      22.960   2.599  48.750  1.00  0.00    -0.004 C 
HETATM   15  C19 UNL     1      23.628   3.775  48.724  1.00  0.00    -0.019 C 
BRANCH  15  16
HETATM   16  C20 UNL     1      23.786   5.125  49.298  1.00  0.00     0.129 C 
BRANCH  16  17
HETATM   17  C21 UNL     1      24.298   5.079  50.710  1.00  0.00     0.218 C 
HETATM   18  N4  UNL     1      25.458   4.253  50.775  1.00  0.00    -0.370 N 
HETATM   19  H22 UNL     1      26.309   4.695  50.357  1.00  0.00     0.159 HD
HETATM   20  H23 UNL     1      24.983   3.466  51.250  1.00  0.00     0.159 HD
HETATM   21  O4  UNL     1      23.538   5.794  51.419  1.00  0.00    -0.274 OA
ENDBRANCH  16  17
ENDBRANCH  15  16
ENDBRANCH  13  14
ENDBRANCH  12  13
ENDBRANCH  11  12
BRANCH   1  22
HETATM   22  O1  UNL     1      20.117   2.258  52.554  1.00  0.00    -0.355 OA
HETATM   23  C1  UNL     1      19.817   3.448  51.894  1.00  0.00     0.209 C 
ENDBRANCH   1  22
BRANCH   7  24
HETATM   24  N3  UNL     1      26.219  -0.731  52.967  1.00  0.00    -0.336 N 
HETATM   25  C7  UNL     1      26.588  -1.517  51.811  1.00  0.00     0.158 C 
BRANCH  24  26
HETATM   26  C8  UNL     1      27.221   0.167  53.457  1.00  0.00     0.035 A 
HETATM   27  C9  UNL     1      28.255  -0.308  54.238  1.00  0.00     0.033 A 
HETATM   28  C10 UNL     1      29.248   0.513  54.735  1.00  0.00     0.044 A 
HETATM   29  C11 UNL     1      29.243   1.864  54.463  1.00  0.00     0.116 A 
HETATM   30  F1  UNL     1      30.209   2.691  54.941  1.00  0.00    -0.206 F 
HETATM   31  C12 UNL     1      28.219   2.355  53.685  1.00  0.00     0.044 A 
HETATM   32  C13 UNL     1      27.242   1.530  53.200  1.00  0.00     0.033 A 
ENDBRANCH  24  26
ENDBRANCH   7  24
TORSDOF 8
ENDMDL
MODEL 5
REMARK VINA RESULT:      -7.6      1.616      2.146
REMARK  8 active torsions:
REMARK  status: ('A' for Active; 'I' for Inactive)
REMARK    1  A    between atoms: O1_2  and  C2_3 
REMARK    2  A    between atoms: C6_9  and  N3_10 
REMARK    3  A    between atoms: N3_10  and  C8_12 
REMARK    4  A    between atoms: C16_22  and  O3_23 
REMARK    5  A    between atoms: O3_23  and  C17_24 
REMARK    6  A    between atoms: C17_24  and  C18_25 
REMARK    7  A    between atoms: C19_26  and  C20_27 
REMARK    8  A    between atoms: C20_27  and  C21_28 
REMARK       I    between atoms: C21_28  and  N4_29 
ROOT
HETATM    1  C2  UNL     1      19.991  -0.075  52.824  1.00  0.00     0.102 C 
HETATM    2  C3  UNL     1      20.511  -0.812  53.793  1.00  0.00     0.069 C 
HETATM    3  C4  UNL     1      21.929  -0.786  54.173  1.00  0.00     0.072 A 
HETATM    4  N1  UNL     1      22.196  -1.618  55.190  1.00  0.00    -0.241 NA
HETATM    5  C5  UNL     1      23.468  -1.682  55.632  1.00  0.00     0.235 A 
HETATM    6  N2  UNL     1      24.474  -0.950  55.097  1.00  0.00    -0.224 NA
HETATM    7  C6  UNL     1      24.276  -0.095  54.073  1.00  0.00     0.142 A 
HETATM    8  C14 UNL     1      22.967  -0.049  53.641  1.00  0.00     0.041 A 
HETATM    9  C15 UNL     1      22.801   0.917  52.501  1.00  0.00     0.216 C 
HETATM   10  O2  UNL     1      21.577   1.560  52.569  1.00  0.00    -0.350 OA
HETATM   11  C16 UNL     1      20.577   0.949  51.857  1.00  0.00     0.318 C 
ENDROOT
BRANCH  11  12
HETATM   12  O3  UNL     1      21.068   0.234  50.770  1.00  0.00    -0.351 OA
BRANCH  12  13
HETATM   13  C17 UNL     1      20.726   0.879  49.608  1.00  0.00     0.198 C 
BRANCH  13  14
HETATM   14  C18 UNL     1      21.819   1.393  48.795  1.00  0.00    -0.004 C 
HETATM   15  C19 UNL     1      22.282   2.204  47.817  1.00  0.00    -0.019 C 
BRANCH  15  16
HETATM   16  C20 UNL     1      21.968   3.229  46.802  1.00  0.00     0.129 C 
BRANCH  16  17
HETATM   17  C21 UNL     1      20.713   3.986  47.136  1.00  0.00     0.218 C 
HETATM   18  N4  UNL     1      21.049   5.226  47.753  1.00  0.00    -0.370 N 
HETATM   19  H22 UNL     1      21.437   5.933  47.086  1.00  0.00     0.159 HD
HETATM   20  H23 UNL     1      20.759   4.938  48.703  1.00  0.00     0.159 HD
HETATM   21  O4  UNL     1      19.732   3.286  46.765  1.00  0.00    -0.274 OA
ENDBRANCH  16  17
ENDBRANCH  15  16
ENDBRANCH  13  14
ENDBRANCH  12  13
ENDBRANCH  11  12
BRANCH   1  22
HETATM   22  O1  UNL     1      18.620  -0.303  52.681  1.00  0.00    -0.355 OA
HETATM   23  C1  UNL     1      17.917  -1.371  53.235  1.00  0.00     0.209 C 
ENDBRANCH   1  22
BRANCH   7  24
HETATM   24  N3  UNL     1      25.307   0.690  53.484  1.00  0.00    -0.336 N 
HETATM   25  C7  UNL     1      25.209   1.967  52.812  1.00  0.00     0.158 C 
BRANCH  24  26
HETATM   26  C8  UNL     1      26.621   0.131  53.574  1.00  0.00     0.035 A 
HETATM   27  C9  UNL     1      27.556   0.692  54.421  1.00  0.00     0.033 A 
HETATM   28  C10 UNL     1      28.837   0.192  54.547  1.00  0.00     0.044 A 
HETATM   29  C11 UNL     1      29.237  -0.908  53.819  1.00  0.00     0.116 A 
HETATM   30  F1  UNL     1      30.492  -1.417  53.927  1.00  0.00    -0.206 F 
HETATM   31  C12 UNL     1      28.317  -1.480  52.970  1.00  0.00     0.044 A 
HETATM   32  C13 UNL     1      27.051  -0.974  52.855  1.00  0.00     0.033 A 
ENDBRANCH  24  26
ENDBRANCH   7  24
TORSDOF 8
ENDMDL
MODEL 6
REMARK VINA RESULT:      -7.5      2.123      2.494
REMARK  8 active torsions:
REMARK  status: ('A' for Active; 'I' for Inactive)
REMARK    1  A    between atoms: O1_2  and  C2_3 
REMARK    2  A    between atoms: C6_9  and  N3_10 
REMARK    3  A    between atoms: N3_10  and  C8_12 
REMARK    4  A    between atoms: C16_22  and  O3_23 
REMARK    5  A    between atoms: O3_23  and  C17_24 
REMARK    6  A    between atoms: C17_24  and  C18_25 
REMARK    7  A    between atoms: C19_26  and  C20_27 
REMARK    8  A    between atoms: C20_27  and  C21_28 
REMARK       I    between atoms: C21_28  and  N4_29 
ROOT
HETATM    1  C2  UNL     1      20.929   3.128  52.212  1.00  0.00     0.102 C 
HETATM    2  C3  UNL     1      21.088   1.968  52.829  1.00  0.00     0.069 C 
HETATM    3  C4  UNL     1      22.374   1.270  52.947  1.00  0.00     0.072 A 
HETATM    4  N1  UNL     1      22.266   0.120  53.628  1.00  0.00    -0.241 NA
HETATM    5  C5  UNL     1      23.384  -0.613  53.804  1.00  0.00     0.235 A 
HETATM    6  N2  UNL     1      24.595  -0.239  53.327  1.00  0.00    -0.224 NA
HETATM    7  C6  UNL     1      24.775   0.903  52.634  1.00  0.00     0.142 A 
HETATM    8  C14 UNL     1      23.616   1.633  52.469  1.00  0.00     0.041 A 
HETATM    9  C15 UNL     1      23.871   2.895  51.692  1.00  0.00     0.216 C 
HETATM   10  O2  UNL     1      23.075   3.930  52.150  1.00  0.00    -0.350 OA
HETATM   11  C16 UNL     1      21.885   4.067  51.483  1.00  0.00     0.318 C 
ENDROOT
BRANCH  11  12
HETATM   12  O3  UNL     1      21.965   3.612  50.171  1.00  0.00    -0.351 OA
BRANCH  12  13
HETATM   13  C17 UNL     1      21.912   4.682  49.313  1.00  0.00     0.198 C 
BRANCH  13  14
HETATM   14  C18 UNL     1      23.165   5.094  48.697  1.00  0.00    -0.004 C 
HETATM   15  C19 UNL     1      24.468   5.443  48.792  1.00  0.00    -0.019 C 
BRANCH  15  16
HETATM   16  C20 UNL     1      25.632   5.667  49.672  1.00  0.00     0.129 C 
BRANCH  16  17
HETATM   17  C21 UNL     1      25.554   6.988  50.384  1.00  0.00     0.218 C 
HETATM   18  N4  UNL     1      26.688   7.783  50.049  1.00  0.00    -0.370 N 
HETATM   19  H22 UNL     1      26.654   8.172  49.079  1.00  0.00     0.159 HD
HETATM   20  H23 UNL     1      27.154   7.668  50.966  1.00  0.00     0.159 HD
HETATM   21  O4  UNL     1      24.495   6.993  51.069  1.00  0.00    -0.274 OA
ENDBRANCH  16  17
ENDBRANCH  15  16
ENDBRANCH  13  14
ENDBRANCH  12  13
ENDBRANCH  11  12
BRANCH   1  22
HETATM   22  O1  UNL     1      19.600   3.558  52.253  1.00  0.00    -0.355 OA
HETATM   23  C1  UNL     1      18.534   2.950  51.592  1.00  0.00     0.209 C 
ENDBRANCH   1  22
BRANCH   7  24
HETATM   24  N3  UNL     1      26.031   1.328  52.117  1.00  0.00    -0.336 N 
HETATM   25  C7  UNL     1      26.312   2.345  51.128  1.00  0.00     0.158 C 
BRANCH  24  26
HETATM   26  C8  UNL     1      27.170   0.650  52.657  1.00  0.00     0.035 A 
HETATM   27  C9  UNL     1      27.269  -0.723  52.560  1.00  0.00     0.033 A 
HETATM   28  C10 UNL     1      28.347  -1.426  53.061  1.00  0.00     0.044 A 
HETATM   29  C11 UNL     1      29.384  -0.771  53.688  1.00  0.00     0.116 A 
HETATM   30  F1  UNL     1      30.453  -1.442  54.189  1.00  0.00    -0.206 F 
HETATM   31  C12 UNL     1      29.301   0.599  53.793  1.00  0.00     0.044 A 
HETATM   32  C13 UNL     1      28.228   1.283  53.292  1.00  0.00     0.033 A 
ENDBRANCH  24  26
ENDBRANCH   7  24
TORSDOF 8
ENDMDL
MODEL 7
REMARK VINA RESULT:      -7.0      3.183      6.822
REMARK  8 active torsions:
REMARK  status: ('A' for Active; 'I' for Inactive)
REMARK    1  A    between atoms: O1_2  and  C2_3 
REMARK    2  A    between atoms: C6_9  and  N3_10 
REMARK    3  A    between atoms: N3_10  and  C8_12 
REMARK    4  A    between atoms: C16_22  and  O3_23 
REMARK    5  A    between atoms: O3_23  and  C17_24 
REMARK    6  A    between atoms: C17_24  and  C18_25 
REMARK    7  A    between atoms: C19_26  and  C20_27 
REMARK    8  A    between atoms: C20_27  and  C21_28 
REMARK       I    between atoms: C21_28  and  N4_29 
ROOT
HETATM    1  C2  UNL     1      22.341   0.183  53.587  1.00  0.00     0.102 C 
HETATM    2  C3  UNL     1      23.661   0.152  53.509  1.00  0.00     0.069 C 
HETATM    3  C4  UNL     1      24.446   0.949  52.559  1.00  0.00     0.072 A 
HETATM    4  N1  UNL     1      25.765   0.742  52.691  1.00  0.00    -0.241 NA
HETATM    5  C5  UNL     1      26.592   1.421  51.872  1.00  0.00     0.235 A 
HETATM    6  N2  UNL     1      26.152   2.292  50.933  1.00  0.00    -0.224 NA
HETATM    7  C6  UNL     1      24.842   2.546  50.746  1.00  0.00     0.142 A 
HETATM    8  C14 UNL     1      24.017   1.840  51.596  1.00  0.00     0.041 A 
HETATM    9  C15 UNL     1      22.570   2.160  51.347  1.00  0.00     0.216 C 
HETATM   10  O2  UNL     1      21.849   2.155  52.528  1.00  0.00    -0.350 OA
HETATM   11  C16 UNL     1      21.264   0.952  52.829  1.00  0.00     0.318 C 
ENDROOT
BRANCH  11  12
HETATM   12  O3  UNL     1      20.974   0.210  51.689  1.00  0.00    -0.351 OA
BRANCH  12  13
HETATM   13  C17 UNL     1      19.737   0.568  51.214  1.00  0.00     0.198 C 
BRANCH  13  14
HETATM   14  C18 UNL     1      18.581   0.035  51.920  1.00  0.00    -0.004 C 
HETATM   15  C19 UNL     1      18.011  -0.897  52.717  1.00  0.00    -0.019 C 
BRANCH  15  16
HETATM   16  C20 UNL     1      18.187  -2.139  53.495  1.00  0.00     0.129 C 
BRANCH  16  17
HETATM   17  C21 UNL     1      16.989  -3.041  53.393  1.00  0.00     0.218 C 
HETATM   18  N4  UNL     1      15.884  -2.317  52.859  1.00  0.00    -0.370 N 
HETATM   19  H22 UNL     1      15.969  -2.120  51.835  1.00  0.00     0.159 HD
HETATM   20  H23 UNL     1      15.374  -2.254  53.757  1.00  0.00     0.159 HD
HETATM   21  O4  UNL     1      17.329  -4.180  53.815  1.00  0.00    -0.274 OA
ENDBRANCH  16  17
ENDBRANCH  15  16
ENDBRANCH  13  14
ENDBRANCH  12  13
ENDBRANCH  11  12
BRANCH   1  22
HETATM   22  O1  UNL     1      21.861  -0.676  54.580  1.00  0.00    -0.355 OA
HETATM   23  C1  UNL     1      22.640  -1.551  55.335  1.00  0.00     0.209 C 
ENDBRANCH   1  22
BRANCH   7  24
HETATM   24  N3  UNL     1      24.341   3.453  49.769  1.00  0.00    -0.336 N 
HETATM   25  C7  UNL     1      23.466   3.193  48.647  1.00  0.00     0.158 C 
BRANCH  24  26
HETATM   26  C8  UNL     1      24.767   4.810  49.927  1.00  0.00     0.035 A 
HETATM   27  C9  UNL     1      25.777   5.316  49.133  1.00  0.00     0.033 A 
HETATM   28  C10 UNL     1      26.224   6.618  49.242  1.00  0.00     0.044 A 
HETATM   29  C11 UNL     1      25.669   7.478  50.165  1.00  0.00     0.116 A 
HETATM   30  F1  UNL     1      26.094   8.762  50.290  1.00  0.00    -0.206 F 
HETATM   31  C12 UNL     1      24.661   6.989  50.965  1.00  0.00     0.044 A 
HETATM   32  C13 UNL     1      24.227   5.697  50.846  1.00  0.00     0.033 A 
ENDBRANCH  24  26
ENDBRANCH   7  24
TORSDOF 8
ENDMDL
MODEL 8
REMARK VINA RESULT:      -6.8      3.861      6.972
REMARK  8 active torsions:
REMARK  status: ('A' for Active; 'I' for Inactive)
REMARK    1  A    between atoms: O1_2  and  C2_3 
REMARK    2  A    between atoms: C6_9  and  N3_10 
REMARK    3  A    between atoms: N3_10  and  C8_12 
REMARK    4  A    between atoms: C16_22  and  O3_23 
REMARK    5  A    between atoms: O3_23  and  C17_24 
REMARK    6  A    between atoms: C17_24  and  C18_25 
REMARK    7  A    between atoms: C19_26  and  C20_27 
REMARK    8  A    between atoms: C20_27  and  C21_28 
REMARK       I    between atoms: C21_28  and  N4_29 
ROOT
HETATM    1  C2  UNL     1      20.810   0.354  52.738  1.00  0.00     0.102 C 
HETATM    2  C3  UNL     1      19.939   1.343  52.616  1.00  0.00     0.069 C 
HETATM    3  C4  UNL     1      20.169   2.544  51.804  1.00  0.00     0.072 A 
HETATM    4  N1  UNL     1      19.127   3.388  51.841  1.00  0.00    -0.241 NA
HETATM    5  C5  UNL     1      19.219   4.530  51.130  1.00  0.00     0.235 A 
HETATM    6  N2  UNL     1      20.306   4.856  50.392  1.00  0.00    -0.224 NA
HETATM    7  C6  UNL     1      21.387   4.055  50.311  1.00  0.00     0.142 A 
HETATM    8  C14 UNL     1      21.268   2.894  51.046  1.00  0.00     0.041 A 
HETATM    9  C15 UNL     1      22.497   2.038  50.921  1.00  0.00     0.216 C 
HETATM   10  O2  UNL     1      22.170   0.693  50.925  1.00  0.00    -0.350 OA
HETATM   11  C16 UNL     1      22.201   0.106  52.163  1.00  0.00     0.318 C 
ENDROOT
BRANCH  11  12
HETATM   12  O3  UNL     1      23.102   0.732  53.017  1.00  0.00    -0.351 OA
BRANCH  12  13
HETATM   13  C17 UNL     1      23.820  -0.219  53.700  1.00  0.00     0.198 C 
BRANCH  13  14
HETATM   14  C18 UNL     1      25.090  -0.627  53.118  1.00  0.00    -0.004 C 
HETATM   15  C19 UNL     1      26.368  -0.359  52.767  1.00  0.00    -0.019 C 
BRANCH  15  16
HETATM   16  C20 UNL     1      27.464   0.630  52.731  1.00  0.00     0.129 C 
BRANCH  16  17
HETATM   17  C21 UNL     1      27.951   0.981  54.109  1.00  0.00     0.218 C 
HETATM   18  N4  UNL     1      28.231  -0.210  54.839  1.00  0.00    -0.370 N 
HETATM   19  H22 UNL     1      29.104  -0.695  54.527  1.00  0.00     0.159 HD
HETATM   20  H23 UNL     1      27.400  -0.141  55.451  1.00  0.00     0.159 HD
HETATM   21  O4  UNL     1      27.963   2.239  54.202  1.00  0.00    -0.274 OA
ENDBRANCH  16  17
ENDBRANCH  15  16
ENDBRANCH  13  14
ENDBRANCH  12  13
ENDBRANCH  11  12
BRANCH   1  22
HETATM   22  O1  UNL     1      20.329  -0.659  53.572  1.00  0.00    -0.355 OA
HETATM   23  C1  UNL     1      19.033  -1.171  53.554  1.00  0.00     0.209 C 
ENDBRANCH   1  22
BRANCH   7  24
HETATM   24  N3  UNL     1      22.548   4.363  49.547  1.00  0.00    -0.336 N 
HETATM   25  C7  UNL     1      23.909   4.556  49.995  1.00  0.00     0.158 C 
BRANCH  24  26
HETATM   26  C8  UNL     1      22.329   4.500  48.139  1.00  0.00     0.035 A 
HETATM   27  C9  UNL     1      22.440   5.737  47.537  1.00  0.00     0.033 A 
HETATM   28  C10 UNL     1      22.241   5.924  46.184  1.00  0.00     0.044 A 
HETATM   29  C11 UNL     1      21.918   4.862  45.367  1.00  0.00     0.116 A 
HETATM   30  F1  UNL     1      21.718   5.023  44.033  1.00  0.00    -0.206 F 
HETATM   31  C12 UNL     1      21.803   3.621  45.951  1.00  0.00     0.044 A 
HETATM   32  C13 UNL     1      22.003   3.450  47.293  1.00  0.00     0.033 A 
ENDBRANCH  24  26
ENDBRANCH   7  24
TORSDOF 8
ENDMDL
MODEL 9
REMARK VINA RESULT:      -6.8     22.454     25.164
REMARK  8 active torsions:
REMARK  status: ('A' for Active; 'I' for Inactive)
REMARK    1  A    between atoms: O1_2  and  C2_3 
REMARK    2  A    between atoms: C6_9  and  N3_10 
REMARK    3  A    between atoms: N3_10  and  C8_12 
REMARK    4  A    between atoms: C16_22  and  O3_23 
REMARK    5  A    between atoms: O3_23  and  C17_24 
REMARK    6  A    between atoms: C17_24  and  C18_25 
REMARK    7  A    between atoms: C19_26  and  C20_27 
REMARK    8  A    between atoms: C20_27  and  C21_28 
REMARK       I    between atoms: C21_28  and  N4_29 
ROOT
HETATM    1  C2  UNL     1      43.991   5.530  68.584  1.00  0.00     0.102 C 
HETATM    2  C3  UNL     1      42.899   5.637  69.324  1.00  0.00     0.069 C 
HETATM    3  C4  UNL     1      42.100   4.494  69.780  1.00  0.00     0.072 A 
HETATM    4  N1  UNL     1      41.050   4.873  70.524  1.00  0.00    -0.241 NA
HETATM    5  C5  UNL     1      40.240   3.908  71.003  1.00  0.00     0.235 A 
HETATM    6  N2  UNL     1      40.439   2.590  70.767  1.00  0.00    -0.224 NA
HETATM    7  C6  UNL     1      41.473   2.140  70.028  1.00  0.00     0.142 A 
HETATM    8  C14 UNL     1      42.287   3.146  69.550  1.00  0.00     0.041 A 
HETATM    9  C15 UNL     1      43.421   2.591  68.735  1.00  0.00     0.216 C 
HETATM   10  O2  UNL     1      44.573   3.338  68.913  1.00  0.00    -0.350 OA
HETATM   11  C16 UNL     1      44.745   4.341  67.996  1.00  0.00     0.318 C 
ENDROOT
BRANCH  11  12
HETATM   12  O3  UNL     1      44.139   4.049  66.779  1.00  0.00    -0.351 OA
BRANCH  12  13
HETATM   13  C17 UNL     1      45.104   3.801  65.836  1.00  0.00     0.198 C 
BRANCH  13  14
HETATM   14  C18 UNL     1      45.033   4.571  64.603  1.00  0.00    -0.004 C 
HETATM   15  C19 UNL     1      45.104   5.748  63.940  1.00  0.00    -0.019 C 
BRANCH  15  16
HETATM   16  C20 UNL     1      45.326   7.205  64.019  1.00  0.00     0.129 C 
BRANCH  16  17
HETATM   17  C21 UNL     1      44.547   7.833  65.141  1.00  0.00     0.218 C 
HETATM   18  N4  UNL     1      45.392   8.707  65.884  1.00  0.00    -0.370 N 
HETATM   19  H22 UNL     1      45.614   9.599  65.384  1.00  0.00     0.159 HD
HETATM   20  H23 UNL     1      45.474   8.081  66.704  1.00  0.00     0.159 HD
HETATM   21  O4  UNL     1      43.367   7.390  65.084  1.00  0.00    -0.274 OA
ENDBRANCH  16  17
ENDBRANCH  15  16
ENDBRANCH  13  14
ENDBRANCH  12  13
ENDBRANCH  11  12
BRANCH   1  22
HETATM   22  O1  UNL     1      44.548   6.779  68.298  1.00  0.00    -0.355 OA
HETATM   23  C1  UNL     1      45.085   7.657  69.238  1.00  0.00     0.209 C 
ENDBRANCH   1  22
BRANCH   7  24
HETATM   24  N3  UNL     1      41.714   0.764  69.757  1.00  0.00    -0.336 N 
HETATM   25  C7  UNL     1      42.757  -0.097  70.272  1.00  0.00     0.158 C 
BRANCH  24  26
HETATM   26  C8  UNL     1      40.793   0.153  68.849  1.00  0.00     0.035 A 
HETATM   27  C9  UNL     1      41.136  -0.017  67.523  1.00  0.00     0.033 A 
HETATM   28  C10 UNL     1      40.286  -0.602  66.605  1.00  0.00     0.044 A 
HETATM   29  C11 UNL     1      39.039  -1.047  66.987  1.00  0.00     0.116 A 
HETATM   30  F1  UNL     1      38.186  -1.625  66.101  1.00  0.00    -0.206 F 
HETATM   31  C12 UNL     1      38.680  -0.885  68.305  1.00  0.00     0.044 A 
HETATM   32  C13 UNL     1      39.532  -0.304  69.204  1.00  0.00     0.033 A 
ENDBRANCH  24  26
ENDBRANCH   7  24
TORSDOF 8
ENDMDL
