MODEL 1
REMARK VINA RESULT:      -8.9      0.000      0.000
REMARK  6 active torsions:
REMARK  status: ('A' for Active; 'I' for Inactive)
REMARK       I    between atoms: N1_1  and  C1_2 
REMARK    1  A    between atoms: C1_2  and  C2_4 
REMARK    2  A    between atoms: C4_6  and  C5_7 
REMARK    3  A    between atoms: C10_13  and  O2_14 
REMARK    4  A    between atoms: O2_14  and  C11_15 
REMARK    5  A    between atoms: C11_15  and  C12_16 
REMARK    6  A    between atoms: C12_16  and  C13_17 
ROOT
HETATM    1  C5  UNL     1      24.783  -0.764  54.160  1.00  0.00    -0.035 A 
HETATM    2  C6  UNL     1      24.193  -1.264  55.299  1.00  0.00     0.124 A 
HETATM    3  N2  UNL     1      22.844  -1.262  55.358  1.00  0.00    -0.260 NA
HETATM    4  C7  UNL     1      22.104  -0.783  54.330  1.00  0.00     0.067 A 
HETATM    5  C8  UNL     1      20.739  -0.835  54.515  1.00  0.00     0.035 A 
HETATM    6  C9  UNL     1      19.960  -0.356  53.488  1.00  0.00     0.039 A 
HETATM    7  C10 UNL     1      20.404   0.169  52.300  1.00  0.00     0.069 A 
HETATM    8  C19 UNL     1      21.801   0.196  52.172  1.00  0.00     0.050 A 
HETATM    9  C20 UNL     1      22.660  -0.273  53.172  1.00  0.00    -0.004 A 
HETATM   10  C21 UNL     1      24.034  -0.276  53.112  1.00  0.00     0.023 A 
ENDROOT
BRANCH   7  11
HETATM   11  O2  UNL     1      19.858   0.681  51.186  1.00  0.00    -0.351 OA
BRANCH  11  12
HETATM   12  C11 UNL     1      20.380   0.999  49.937  1.00  0.00     0.180 C 
BRANCH  12  13
HETATM   13  C12 UNL     1      20.510   2.464  49.726  1.00  0.00     0.069 C 
BRANCH  13  14
HETATM   14  C13 UNL     1      21.898   2.962  49.984  1.00  0.00    -0.010 A 
HETATM   15  C14 UNL     1      22.945   2.842  49.091  1.00  0.00     0.042 A 
HETATM   16 CL1  UNL     1      22.607   2.058  47.560  1.00  0.00    -0.084 Cl
HETATM   17  C15 UNL     1      24.200   3.323  49.397  1.00  0.00     0.027 A 
HETATM   18  C16 UNL     1      24.469   3.941  50.598  1.00  0.00     0.046 A 
HETATM   19  C17 UNL     1      23.445   4.075  51.513  1.00  0.00     0.138 A 
HETATM   20  F1  UNL     1      23.642   4.672  52.714  1.00  0.00    -0.204 F 
HETATM   21  C18 UNL     1      22.197   3.591  51.195  1.00  0.00     0.080 A 
HETATM   22 CL2  UNL     1      20.874   3.757  52.355  1.00  0.00    -0.080 Cl
ENDBRANCH  13  14
ENDBRANCH  12  13
ENDBRANCH  11  12
ENDBRANCH   7  11
BRANCH   1  23
HETATM   23  C4  UNL     1      26.250  -0.775  54.115  1.00  0.00     0.033 A 
HETATM   24  C2  UNL     1      26.973  -1.281  52.918  1.00  0.00     0.081 A 
HETATM   25  C3  UNL     1      26.824   0.207  53.065  1.00  0.00     0.024 A 
BRANCH  24  26
HETATM   26  C1  UNL     1      28.361  -1.776  53.049  1.00  0.00     0.199 C 
HETATM   27  N1  UNL     1      28.575  -3.201  53.034  1.00  0.00    -0.272 NA
HETATM   28  H1  UNL     1      29.273  -3.430  52.293  1.00  0.00     0.127 HD
HETATM   29  H2  UNL     1      29.216  -3.709  52.400  1.00  0.00     0.127 HD
HETATM   30  O1  UNL     1      29.356  -1.004  53.171  1.00  0.00    -0.280 OA
ENDBRANCH  24  26
ENDBRANCH   1  23
TORSDOF 6
ENDMDL
MODEL 2
REMARK VINA RESULT:      -8.9      3.306      4.230
REMARK  6 active torsions:
REMARK  status: ('A' for Active; 'I' for Inactive)
REMARK       I    between atoms: N1_1  and  C1_2 
REMARK    1  A    between atoms: C1_2  and  C2_4 
REMARK    2  A    between atoms: C4_6  and  C5_7 
REMARK    3  A    between atoms: C10_13  and  O2_14 
REMARK    4  A    between atoms: O2_14  and  C11_15 
REMARK    5  A    between atoms: C11_15  and  C12_16 
REMARK    6  A    between atoms: C12_16  and  C13_17 
ROOT
HETATM    1  C5  UNL     1      24.980   0.032  53.461  1.00  0.00    -0.035 A 
HETATM    2  C6  UNL     1      23.750  -0.550  53.673  1.00  0.00     0.124 A 
HETATM    3  N2  UNL     1      22.655   0.162  53.332  1.00  0.00    -0.260 NA
HETATM    4  C7  UNL     1      22.768   1.403  52.801  1.00  0.00     0.067 A 
HETATM    5  C8  UNL     1      21.576   2.023  52.497  1.00  0.00     0.035 A 
HETATM    6  C9  UNL     1      21.659   3.285  51.956  1.00  0.00     0.039 A 
HETATM    7  C10 UNL     1      22.808   3.987  51.689  1.00  0.00     0.069 A 
HETATM    8  C19 UNL     1      23.987   3.303  52.020  1.00  0.00     0.050 A 
HETATM    9  C20 UNL     1      23.985   2.018  52.574  1.00  0.00    -0.004 A 
HETATM   10  C21 UNL     1      25.101   1.293  52.921  1.00  0.00     0.023 A 
ENDROOT
BRANCH   7  11
HETATM   11  O2  UNL     1      23.132   5.186  51.181  1.00  0.00    -0.351 OA
BRANCH  11  12
HETATM   12  C11 UNL     1      24.327   5.725  50.716  1.00  0.00     0.180 C 
BRANCH  12  13
HETATM   13  C12 UNL     1      24.541   5.478  49.266  1.00  0.00     0.069 C 
BRANCH  13  14
HETATM   14  C13 UNL     1      25.955   5.725  48.843  1.00  0.00    -0.010 A 
HETATM   15  C14 UNL     1      26.958   4.777  48.893  1.00  0.00     0.042 A 
HETATM   16 CL1  UNL     1      26.528   3.186  49.491  1.00  0.00    -0.084 Cl
HETATM   17  C15 UNL     1      28.241   5.076  48.488  1.00  0.00     0.027 A 
HETATM   18  C16 UNL     1      28.583   6.324  48.017  1.00  0.00     0.046 A 
HETATM   19  C17 UNL     1      27.604   7.294  47.955  1.00  0.00     0.138 A 
HETATM   20  F1  UNL     1      27.873   8.543  47.501  1.00  0.00    -0.204 F 
HETATM   21  C18 UNL     1      26.327   6.983  48.362  1.00  0.00     0.080 A 
HETATM   22 CL2  UNL     1      25.062   8.214  48.286  1.00  0.00    -0.080 Cl
ENDBRANCH  13  14
ENDBRANCH  12  13
ENDBRANCH  11  12
ENDBRANCH   7  11
BRANCH   1  23
HETATM   23  C4  UNL     1      26.159  -0.757  53.839  1.00  0.00     0.033 A 
HETATM   24  C2  UNL     1      27.465  -0.552  53.158  1.00  0.00     0.081 A 
HETATM   25  C3  UNL     1      27.267   0.100  54.497  1.00  0.00     0.024 A 
BRANCH  24  26
HETATM   26  C1  UNL     1      28.469  -1.639  53.145  1.00  0.00     0.199 C 
HETATM   27  N1  UNL     1      28.024  -2.967  52.804  1.00  0.00    -0.272 NA
HETATM   28  H1  UNL     1      28.606  -3.326  52.016  1.00  0.00     0.127 HD
HETATM   29  H2  UNL     1      28.421  -3.564  52.059  1.00  0.00     0.127 HD
HETATM   30  O1  UNL     1      29.690  -1.448  53.416  1.00  0.00    -0.280 OA
ENDBRANCH  24  26
ENDBRANCH   1  23
TORSDOF 6
ENDMDL
MODEL 3
REMARK VINA RESULT:      -8.9      1.979      2.399
REMARK  6 active torsions:
REMARK  status: ('A' for Active; 'I' for Inactive)
REMARK       I    between atoms: N1_1  and  C1_2 
REMARK    1  A    between atoms: C1_2  and  C2_4 
REMARK    2  A    between atoms: C4_6  and  C5_7 
REMARK    3  A    between atoms: C10_13  and  O2_14 
REMARK    4  A    between atoms: O2_14  and  C11_15 
REMARK    5  A    between atoms: C11_15  and  C12_16 
REMARK    6  A    between atoms: C12_16  and  C13_17 
ROOT
HETATM    1  C5  UNL     1      25.034  -0.002  53.596  1.00  0.00    -0.035 A 
HETATM    2  C6  UNL     1      24.208  -0.890  54.247  1.00  0.00     0.124 A 
HETATM    3  N2  UNL     1      22.880  -0.649  54.214  1.00  0.00    -0.260 NA
HETATM    4  C7  UNL     1      22.385   0.429  53.561  1.00  0.00     0.067 A 
HETATM    5  C8  UNL     1      21.014   0.563  53.602  1.00  0.00     0.035 A 
HETATM    6  C9  UNL     1      20.481   1.649  52.949  1.00  0.00     0.039 A 
HETATM    7  C10 UNL     1      21.176   2.612  52.261  1.00  0.00     0.069 A 
HETATM    8  C19 UNL     1      22.566   2.421  52.255  1.00  0.00     0.050 A 
HETATM    9  C20 UNL     1      23.182   1.342  52.897  1.00  0.00    -0.004 A 
HETATM   10  C21 UNL     1      24.535   1.096  52.931  1.00  0.00     0.023 A 
ENDROOT
BRANCH   7  11
HETATM   11  O2  UNL     1      20.890   3.724  51.565  1.00  0.00    -0.351 OA
BRANCH  11  12
HETATM   12  C11 UNL     1      21.509   4.965  51.468  1.00  0.00     0.180 C 
BRANCH  12  13
HETATM   13  C12 UNL     1      21.900   5.302  50.074  1.00  0.00     0.069 C 
BRANCH  13  14
HETATM   14  C13 UNL     1      23.378   5.213  49.853  1.00  0.00    -0.010 A 
HETATM   15  C14 UNL     1      24.023   4.103  49.345  1.00  0.00     0.042 A 
HETATM   16 CL1  UNL     1      23.030   2.718  48.934  1.00  0.00    -0.084 Cl
HETATM   17  C15 UNL     1      25.390   4.092  49.170  1.00  0.00     0.027 A 
HETATM   18  C16 UNL     1      26.173   5.178  49.491  1.00  0.00     0.046 A 
HETATM   19  C17 UNL     1      25.560   6.303  50.002  1.00  0.00     0.138 A 
HETATM   20  F1  UNL     1      26.272   7.406  50.338  1.00  0.00    -0.204 F 
HETATM   21  C18 UNL     1      24.195   6.302  50.171  1.00  0.00     0.080 A 
HETATM   22 CL2  UNL     1      23.394   7.736  50.823  1.00  0.00    -0.080 Cl
ENDBRANCH  13  14
ENDBRANCH  12  13
ENDBRANCH  11  12
ENDBRANCH   7  11
BRANCH   1  23
HETATM   23  C4  UNL     1      26.475  -0.281  53.644  1.00  0.00     0.033 A 
HETATM   24  C2  UNL     1      27.086  -1.298  52.748  1.00  0.00     0.081 A 
HETATM   25  C3  UNL     1      27.211   0.146  52.351  1.00  0.00     0.024 A 
BRANCH  24  26
HETATM   26  C1  UNL     1      28.361  -1.945  53.128  1.00  0.00     0.199 C 
HETATM   27  N1  UNL     1      28.427  -3.384  53.091  1.00  0.00    -0.272 NA
HETATM   28  H1  UNL     1      29.232  -3.670  52.493  1.00  0.00     0.127 HD
HETATM   29  H2  UNL     1      29.127  -3.944  52.574  1.00  0.00     0.127 HD
HETATM   30  O1  UNL     1      29.384  -1.289  53.479  1.00  0.00    -0.280 OA
ENDBRANCH  24  26
ENDBRANCH   1  23
TORSDOF 6
ENDMDL
MODEL 4
REMARK VINA RESULT:      -8.9      5.321      6.842
REMARK  6 active torsions:
REMARK  status: ('A' for Active; 'I' for Inactive)
REMARK       I    between atoms: N1_1  and  C1_2 
REMARK    1  A    between atoms: C1_2  and  C2_4 
REMARK    2  A    between atoms: C4_6  and  C5_7 
REMARK    3  A    between atoms: C10_13  and  O2_14 
REMARK    4  A    between atoms: O2_14  and  C11_15 
REMARK    5  A    between atoms: C11_15  and  C12_16 
REMARK    6  A    between atoms: C12_16  and  C13_17 
ROOT
HETATM    1  C5  UNL     1      25.989   0.546  52.183  1.00  0.00    -0.035 A 
HETATM    2  C6  UNL     1      24.628   0.643  52.370  1.00  0.00     0.124 A 
HETATM    3  N2  UNL     1      23.986   1.669  51.772  1.00  0.00    -0.260 NA
HETATM    4  C7  UNL     1      24.662   2.568  51.018  1.00  0.00     0.067 A 
HETATM    5  C8  UNL     1      23.892   3.568  50.464  1.00  0.00     0.035 A 
HETATM    6  C9  UNL     1      24.550   4.497  49.692  1.00  0.00     0.039 A 
HETATM    7  C10 UNL     1      25.895   4.528  49.419  1.00  0.00     0.069 A 
HETATM    8  C19 UNL     1      26.625   3.485  50.011  1.00  0.00     0.050 A 
HETATM    9  C20 UNL     1      26.027   2.504  50.808  1.00  0.00    -0.004 A 
HETATM   10  C21 UNL     1      26.680   1.458  51.417  1.00  0.00     0.023 A 
ENDROOT
BRANCH   7  11
HETATM   11  O2  UNL     1      26.739   5.302  48.719  1.00  0.00    -0.351 OA
BRANCH  11  12
HETATM   12  C11 UNL     1      28.115   5.262  48.517  1.00  0.00     0.180 C 
BRANCH  12  13
HETATM   13  C12 UNL     1      28.610   6.411  47.716  1.00  0.00     0.069 C 
BRANCH  13  14
HETATM   14  C13 UNL     1      29.871   6.998  48.271  1.00  0.00    -0.010 A 
HETATM   15  C14 UNL     1      31.100   6.372  48.237  1.00  0.00     0.042 A 
HETATM   16 CL1  UNL     1      31.172   4.787  47.490  1.00  0.00    -0.084 Cl
HETATM   17  C15 UNL     1      32.220   6.973  48.770  1.00  0.00     0.027 A 
HETATM   18  C16 UNL     1      32.168   8.217  49.357  1.00  0.00     0.046 A 
HETATM   19  C17 UNL     1      30.954   8.870  49.408  1.00  0.00     0.138 A 
HETATM   20  F1  UNL     1      30.833  10.097  49.972  1.00  0.00    -0.204 F 
HETATM   21  C18 UNL     1      29.844   8.259  48.872  1.00  0.00     0.080 A 
HETATM   22 CL2  UNL     1      28.281   9.084  48.928  1.00  0.00    -0.080 Cl
ENDBRANCH  13  14
ENDBRANCH  12  13
ENDBRANCH  11  12
ENDBRANCH   7  11
BRANCH   1  23
HETATM   23  C4  UNL     1      26.669  -0.576  52.842  1.00  0.00     0.033 A 
HETATM   24  C2  UNL     1      28.129  -0.528  53.116  1.00  0.00     0.081 A 
HETATM   25  C3  UNL     1      27.196  -0.213  54.251  1.00  0.00     0.024 A 
BRANCH  24  26
HETATM   26  C1  UNL     1      28.892  -1.785  53.277  1.00  0.00     0.199 C 
HETATM   27  N1  UNL     1      28.247  -3.020  52.906  1.00  0.00    -0.272 NA
HETATM   28  H1  UNL     1      28.852  -3.524  52.222  1.00  0.00     0.127 HD
HETATM   29  H2  UNL     1      28.620  -3.720  52.242  1.00  0.00     0.127 HD
HETATM   30  O1  UNL     1      30.076  -1.817  53.722  1.00  0.00    -0.280 OA
ENDBRANCH  24  26
ENDBRANCH   1  23
TORSDOF 6
ENDMDL
MODEL 5
REMARK VINA RESULT:      -8.7      1.576      2.208
REMARK  6 active torsions:
REMARK  status: ('A' for Active; 'I' for Inactive)
REMARK       I    between atoms: N1_1  and  C1_2 
REMARK    1  A    between atoms: C1_2  and  C2_4 
REMARK    2  A    between atoms: C4_6  and  C5_7 
REMARK    3  A    between atoms: C10_13  and  O2_14 
REMARK    4  A    between atoms: O2_14  and  C11_15 
REMARK    5  A    between atoms: C11_15  and  C12_16 
REMARK    6  A    between atoms: C12_16  and  C13_17 
ROOT
HETATM    1  C5  UNL     1      25.049  -0.434  53.896  1.00  0.00    -0.035 A 
HETATM    2  C6  UNL     1      24.494  -1.180  54.912  1.00  0.00     0.124 A 
HETATM    3  N2  UNL     1      23.153  -1.130  55.064  1.00  0.00    -0.260 NA
HETATM    4  C7  UNL     1      22.388  -0.372  54.243  1.00  0.00     0.067 A 
HETATM    5  C8  UNL     1      21.035  -0.406  54.503  1.00  0.00     0.035 A 
HETATM    6  C9  UNL     1      20.231   0.354  53.687  1.00  0.00     0.039 A 
HETATM    7  C10 UNL     1      20.640   1.143  52.641  1.00  0.00     0.069 A 
HETATM    8  C19 UNL     1      22.027   1.136  52.426  1.00  0.00     0.050 A 
HETATM    9  C20 UNL     1      22.909   0.389  53.214  1.00  0.00    -0.004 A 
HETATM   10  C21 UNL     1      24.274   0.338  53.060  1.00  0.00     0.023 A 
ENDROOT
BRANCH   7  11
HETATM   11  O2  UNL     1      20.066   1.946  51.731  1.00  0.00    -0.351 OA
BRANCH  11  12
HETATM   12  C11 UNL     1      19.580   3.248  51.791  1.00  0.00     0.180 C 
BRANCH  12  13
HETATM   13  C12 UNL     1      19.952   4.053  50.598  1.00  0.00     0.069 C 
BRANCH  13  14
HETATM   14  C13 UNL     1      21.343   3.767  50.123  1.00  0.00    -0.010 A 
HETATM   15  C14 UNL     1      22.486   4.252  50.726  1.00  0.00     0.042 A 
HETATM   16 CL1  UNL     1      22.277   5.264  52.142  1.00  0.00    -0.084 Cl
HETATM   17  C15 UNL     1      23.736   3.948  50.231  1.00  0.00     0.027 A 
HETATM   18  C16 UNL     1      23.905   3.153  49.120  1.00  0.00     0.046 A 
HETATM   19  C17 UNL     1      22.782   2.653  48.493  1.00  0.00     0.138 A 
HETATM   20  F1  UNL     1      22.877   1.864  47.394  1.00  0.00    -0.204 F 
HETATM   21  C18 UNL     1      21.540   2.963  48.997  1.00  0.00     0.080 A 
HETATM   22 CL2  UNL     1      20.093   2.329  48.206  1.00  0.00    -0.080 Cl
ENDBRANCH  13  14
ENDBRANCH  12  13
ENDBRANCH  11  12
ENDBRANCH   7  11
BRANCH   1  23
HETATM   23  C4  UNL     1      26.508  -0.501  53.748  1.00  0.00     0.033 A 
HETATM   24  C2  UNL     1      27.141  -1.529  52.879  1.00  0.00     0.081 A 
HETATM   25  C3  UNL     1      26.982  -0.144  52.318  1.00  0.00     0.024 A 
BRANCH  24  26
HETATM   26  C1  UNL     1      28.541  -1.938  53.121  1.00  0.00     0.199 C 
HETATM   27  N1  UNL     1      28.808  -3.335  53.354  1.00  0.00    -0.272 NA
HETATM   28  H1  UNL     1      29.533  -3.658  52.677  1.00  0.00     0.127 HD
HETATM   29  H2  UNL     1      29.484  -3.917  52.829  1.00  0.00     0.127 HD
HETATM   30  O1  UNL     1      29.504  -1.117  53.129  1.00  0.00    -0.280 OA
ENDBRANCH  24  26
ENDBRANCH   1  23
TORSDOF 6
ENDMDL
MODEL 6
REMARK VINA RESULT:      -8.7      3.266      4.244
REMARK  6 active torsions:
REMARK  status: ('A' for Active; 'I' for Inactive)
REMARK       I    between atoms: N1_1  and  C1_2 
REMARK    1  A    between atoms: C1_2  and  C2_4 
REMARK    2  A    between atoms: C4_6  and  C5_7 
REMARK    3  A    between atoms: C10_13  and  O2_14 
REMARK    4  A    between atoms: O2_14  and  C11_15 
REMARK    5  A    between atoms: C11_15  and  C12_16 
REMARK    6  A    between atoms: C12_16  and  C13_17 
ROOT
HETATM    1  C5  UNL     1      25.138   0.303  53.343  1.00  0.00    -0.035 A 
HETATM    2  C6  UNL     1      23.985  -0.450  53.346  1.00  0.00     0.124 A 
HETATM    3  N2  UNL     1      22.828   0.175  53.040  1.00  0.00    -0.260 NA
HETATM    4  C7  UNL     1      22.809   1.496  52.742  1.00  0.00     0.067 A 
HETATM    5  C8  UNL     1      21.567   2.015  52.448  1.00  0.00     0.035 A 
HETATM    6  C9  UNL     1      21.515   3.354  52.142  1.00  0.00     0.039 A 
HETATM    7  C10 UNL     1      22.575   4.226  52.099  1.00  0.00     0.069 A 
HETATM    8  C19 UNL     1      23.812   3.638  52.406  1.00  0.00     0.050 A 
HETATM    9  C20 UNL     1      23.945   2.284  52.729  1.00  0.00    -0.004 A 
HETATM   10  C21 UNL     1      25.123   1.646  53.040  1.00  0.00     0.023 A 
ENDROOT
BRANCH   7  11
HETATM   11  O2  UNL     1      22.768   5.527  51.833  1.00  0.00    -0.351 OA
BRANCH  11  12
HETATM   12  C11 UNL     1      23.793   6.221  51.198  1.00  0.00     0.180 C 
BRANCH  12  13
HETATM   13  C12 UNL     1      23.879   5.914  49.747  1.00  0.00     0.069 C 
BRANCH  13  14
HETATM   14  C13 UNL     1      25.222   6.236  49.169  1.00  0.00    -0.010 A 
HETATM   15  C14 UNL     1      25.609   7.496  48.758  1.00  0.00     0.042 A 
HETATM   16 CL1  UNL     1      24.442   8.791  48.936  1.00  0.00    -0.084 Cl
HETATM   17  C15 UNL     1      26.864   7.718  48.233  1.00  0.00     0.027 A 
HETATM   18  C16 UNL     1      27.784   6.704  48.093  1.00  0.00     0.046 A 
HETATM   19  C17 UNL     1      27.428   5.433  48.492  1.00  0.00     0.138 A 
HETATM   20  F1  UNL     1      28.286   4.389  48.382  1.00  0.00    -0.204 F 
HETATM   21  C18 UNL     1      26.173   5.224  49.016  1.00  0.00     0.080 A 
HETATM   22 CL2  UNL     1      25.702   3.601  49.534  1.00  0.00    -0.080 Cl
ENDBRANCH  13  14
ENDBRANCH  12  13
ENDBRANCH  11  12
ENDBRANCH   7  11
BRANCH   1  23
HETATM   23  C4  UNL     1      26.385  -0.395  53.679  1.00  0.00     0.033 A 
HETATM   24  C2  UNL     1      27.654   0.357  53.864  1.00  0.00     0.081 A 
HETATM   25  C3  UNL     1      26.900  -0.052  55.098  1.00  0.00     0.024 A 
BRANCH  24  26
HETATM   26  C1  UNL     1      28.952  -0.329  53.681  1.00  0.00     0.199 C 
HETATM   27  N1  UNL     1      30.110   0.479  53.391  1.00  0.00    -0.272 NA
HETATM   28  H1  UNL     1      30.854   0.265  54.089  1.00  0.00     0.127 HD
HETATM   29  H2  UNL     1      30.998   0.474  53.921  1.00  0.00     0.127 HD
HETATM   30  O1  UNL     1      29.082  -1.585  53.769  1.00  0.00    -0.280 OA
ENDBRANCH  24  26
ENDBRANCH   1  23
TORSDOF 6
ENDMDL
MODEL 7
REMARK VINA RESULT:      -8.7      4.207      7.916
REMARK  6 active torsions:
REMARK  status: ('A' for Active; 'I' for Inactive)
REMARK       I    between atoms: N1_1  and  C1_2 
REMARK    1  A    between atoms: C1_2  and  C2_4 
REMARK    2  A    between atoms: C4_6  and  C5_7 
REMARK    3  A    between atoms: C10_13  and  O2_14 
REMARK    4  A    between atoms: O2_14  and  C11_15 
REMARK    5  A    between atoms: C11_15  and  C12_16 
REMARK    6  A    between atoms: C12_16  and  C13_17 
ROOT
HETATM    1  C5  UNL     1      18.272  -0.239  52.263  1.00  0.00    -0.035 A 
HETATM    2  C6  UNL     1      18.148  -1.274  53.162  1.00  0.00     0.124 A 
HETATM    3  N2  UNL     1      19.250  -1.638  53.853  1.00  0.00    -0.260 NA
HETATM    4  C7  UNL     1      20.431  -1.004  53.663  1.00  0.00     0.067 A 
HETATM    5  C8  UNL     1      21.478  -1.470  54.428  1.00  0.00     0.035 A 
HETATM    6  C9  UNL     1      22.692  -0.846  54.258  1.00  0.00     0.039 A 
HETATM    7  C10 UNL     1      22.965   0.193  53.403  1.00  0.00     0.069 A 
HETATM    8  C19 UNL     1      21.859   0.623  52.653  1.00  0.00     0.050 A 
HETATM    9  C20 UNL     1      20.594   0.038  52.770  1.00  0.00    -0.004 A 
HETATM   10  C21 UNL     1      19.472   0.409  52.066  1.00  0.00     0.023 A 
ENDROOT
BRANCH   7  11
HETATM   11  O2  UNL     1      24.028   0.942  53.074  1.00  0.00    -0.351 OA
BRANCH  11  12
HETATM   12  C11 UNL     1      25.348   0.956  53.512  1.00  0.00     0.180 C 
BRANCH  12  13
HETATM   13  C12 UNL     1      26.319   0.702  52.415  1.00  0.00     0.069 C 
BRANCH  13  14
HETATM   14  C13 UNL     1      27.616   0.145  52.913  1.00  0.00    -0.010 A 
HETATM   15  C14 UNL     1      28.650   0.910  53.414  1.00  0.00     0.042 A 
HETATM   16 CL1  UNL     1      28.409   2.646  53.468  1.00  0.00    -0.084 Cl
HETATM   17  C15 UNL     1      29.819   0.327  53.853  1.00  0.00     0.027 A 
HETATM   18  C16 UNL     1      30.012  -1.035  53.814  1.00  0.00     0.046 A 
HETATM   19  C17 UNL     1      28.999  -1.828  53.317  1.00  0.00     0.138 A 
HETATM   20  F1  UNL     1      29.124  -3.177  53.250  1.00  0.00    -0.204 F 
HETATM   21  C18 UNL     1      27.836  -1.235  52.882  1.00  0.00     0.080 A 
HETATM   22 CL2  UNL     1      26.528  -2.238  52.245  1.00  0.00    -0.080 Cl
ENDBRANCH  13  14
ENDBRANCH  12  13
ENDBRANCH  11  12
ENDBRANCH   7  11
BRANCH   1  23
HETATM   23  C4  UNL     1      17.064   0.142  51.521  1.00  0.00     0.033 A 
HETATM   24  C2  UNL     1      17.111   1.200  50.478  1.00  0.00     0.081 A 
HETATM   25  C3  UNL     1      17.141  -0.231  50.020  1.00  0.00     0.024 A 
BRANCH  24  26
HETATM   26  C1  UNL     1      15.879   1.936  50.118  1.00  0.00     0.199 C 
HETATM   27  N1  UNL     1      14.975   1.324  49.178  1.00  0.00    -0.272 NA
HETATM   28  H1  UNL     1      14.024   1.279  49.604  1.00  0.00     0.127 HD
HETATM   29  H2  UNL     1      13.967   1.150  49.333  1.00  0.00     0.127 HD
HETATM   30  O1  UNL     1      15.592   3.070  50.600  1.00  0.00    -0.280 OA
ENDBRANCH  24  26
ENDBRANCH   1  23
TORSDOF 6
ENDMDL
MODEL 8
REMARK VINA RESULT:      -8.6      0.969      1.943
REMARK  6 active torsions:
REMARK  status: ('A' for Active; 'I' for Inactive)
REMARK       I    between atoms: N1_1  and  C1_2 
REMARK    1  A    between atoms: C1_2  and  C2_4 
REMARK    2  A    between atoms: C4_6  and  C5_7 
REMARK    3  A    between atoms: C10_13  and  O2_14 
REMARK    4  A    between atoms: O2_14  and  C11_15 
REMARK    5  A    between atoms: C11_15  and  C12_16 
REMARK    6  A    between atoms: C12_16  and  C13_17 
ROOT
HETATM    1  C5  UNL     1      24.235  -0.781  54.208  1.00  0.00    -0.035 A 
HETATM    2  C6  UNL     1      23.520  -1.249  55.287  1.00  0.00     0.124 A 
HETATM    3  N2  UNL     1      22.172  -1.218  55.206  1.00  0.00    -0.260 NA
HETATM    4  C7  UNL     1      21.553  -0.743  54.099  1.00  0.00     0.067 A 
HETATM    5  C8  UNL     1      20.175  -0.764  54.141  1.00  0.00     0.035 A 
HETATM    6  C9  UNL     1      19.517  -0.287  53.032  1.00  0.00     0.039 A 
HETATM    7  C10 UNL     1      20.093   0.208  51.889  1.00  0.00     0.069 A 
HETATM    8  C19 UNL     1      21.497   0.204  51.907  1.00  0.00     0.050 A 
HETATM    9  C20 UNL     1      22.237  -0.264  52.997  1.00  0.00    -0.004 A 
HETATM   10  C21 UNL     1      23.609  -0.296  53.081  1.00  0.00     0.023 A 
ENDROOT
BRANCH   7  11
HETATM   11  O2  UNL     1      19.677   0.711  50.717  1.00  0.00    -0.351 OA
BRANCH  11  12
HETATM   12  C11 UNL     1      20.350   1.122  49.571  1.00  0.00     0.180 C 
BRANCH  12  13
HETATM   13  C12 UNL     1      20.529   2.596  49.509  1.00  0.00     0.069 C 
BRANCH  13  14
HETATM   14  C13 UNL     1      21.831   3.043  50.098  1.00  0.00    -0.010 A 
HETATM   15  C14 UNL     1      21.971   3.566  51.368  1.00  0.00     0.042 A 
HETATM   16 CL1  UNL     1      20.519   3.707  52.341  1.00  0.00    -0.084 Cl
HETATM   17  C15 UNL     1      23.203   3.959  51.844  1.00  0.00     0.027 A 
HETATM   18  C16 UNL     1      24.346   3.849  51.084  1.00  0.00     0.046 A 
HETATM   19  C17 UNL     1      24.240   3.331  49.810  1.00  0.00     0.138 A 
HETATM   20  F1  UNL     1      25.326   3.196  49.009  1.00  0.00    -0.204 F 
HETATM   21  C18 UNL     1      23.005   2.942  49.346  1.00  0.00     0.080 A 
HETATM   22 CL2  UNL     1      22.854   2.275  47.717  1.00  0.00    -0.080 Cl
ENDBRANCH  13  14
ENDBRANCH  12  13
ENDBRANCH  11  12
ENDBRANCH   7  11
BRANCH   1  23
HETATM   23  C4  UNL     1      25.699  -0.821  54.316  1.00  0.00     0.033 A 
HETATM   24  C2  UNL     1      26.554  -0.815  53.099  1.00  0.00     0.081 A 
HETATM   25  C3  UNL     1      26.371   0.486  53.831  1.00  0.00     0.024 A 
BRANCH  24  26
HETATM   26  C1  UNL     1      27.925  -1.367  53.159  1.00  0.00     0.199 C 
HETATM   27  N1  UNL     1      28.082  -2.797  53.083  1.00  0.00    -0.272 NA
HETATM   28  H1  UNL     1      28.743  -3.024  52.308  1.00  0.00     0.127 HD
HETATM   29  H2  UNL     1      28.679  -3.305  52.407  1.00  0.00     0.127 HD
HETATM   30  O1  UNL     1      28.953  -0.638  53.271  1.00  0.00    -0.280 OA
ENDBRANCH  24  26
ENDBRANCH   1  23
TORSDOF 6
ENDMDL
MODEL 9
REMARK VINA RESULT:      -8.3      5.981      8.477
REMARK  6 active torsions:
REMARK  status: ('A' for Active; 'I' for Inactive)
REMARK       I    between atoms: N1_1  and  C1_2 
REMARK    1  A    between atoms: C1_2  and  C2_4 
REMARK    2  A    between atoms: C4_6  and  C5_7 
REMARK    3  A    between atoms: C10_13  and  O2_14 
REMARK    4  A    between atoms: O2_14  and  C11_15 
REMARK    5  A    between atoms: C11_15  and  C12_16 
REMARK    6  A    between atoms: C12_16  and  C13_17 
ROOT
HETATM    1  C5  UNL     1      30.228   6.346  47.854  1.00  0.00    -0.035 A 
HETATM    2  C6  UNL     1      29.686   7.583  47.588  1.00  0.00     0.124 A 
HETATM    3  N2  UNL     1      28.357   7.737  47.770  1.00  0.00    -0.260 NA
HETATM    4  C7  UNL     1      27.589   6.707  48.199  1.00  0.00     0.067 A 
HETATM    5  C8  UNL     1      26.249   6.993  48.344  1.00  0.00     0.035 A 
HETATM    6  C9  UNL     1      25.444   5.966  48.778  1.00  0.00     0.039 A 
HETATM    7  C10 UNL     1      25.840   4.687  49.081  1.00  0.00     0.069 A 
HETATM    8  C19 UNL     1      27.215   4.459  48.914  1.00  0.00     0.050 A 
HETATM    9  C20 UNL     1      28.097   5.452  48.476  1.00  0.00    -0.004 A 
HETATM   10  C21 UNL     1      29.451   5.296  48.290  1.00  0.00     0.023 A 
ENDROOT
BRANCH   7  11
HETATM   11  O2  UNL     1      25.262   3.554  49.509  1.00  0.00    -0.351 OA
BRANCH  11  12
HETATM   12  C11 UNL     1      24.137   3.301  50.287  1.00  0.00     0.180 C 
BRANCH  12  13
HETATM   13  C12 UNL     1      24.435   3.307  51.743  1.00  0.00     0.069 C 
BRANCH  13  14
HETATM   14  C13 UNL     1      24.558   1.928  52.311  1.00  0.00    -0.010 A 
HETATM   15  C14 UNL     1      23.490   1.163  52.737  1.00  0.00     0.042 A 
HETATM   16 CL1  UNL     1      21.892   1.869  52.593  1.00  0.00    -0.084 Cl
HETATM   17  C15 UNL     1      23.680  -0.101  53.252  1.00  0.00     0.027 A 
HETATM   18  C16 UNL     1      24.933  -0.660  53.365  1.00  0.00     0.046 A 
HETATM   19  C17 UNL     1      26.022   0.078  52.950  1.00  0.00     0.138 A 
HETATM   20  F1  UNL     1      27.283  -0.412  53.034  1.00  0.00    -0.204 F 
HETATM   21  C18 UNL     1      25.820   1.339  52.437  1.00  0.00     0.080 A 
HETATM   22 CL2  UNL     1      27.204   2.296  51.899  1.00  0.00    -0.080 Cl
ENDBRANCH  13  14
ENDBRANCH  12  13
ENDBRANCH  11  12
ENDBRANCH   7  11
BRANCH   1  23
HETATM   23  C4  UNL     1      31.674   6.199  47.649  1.00  0.00     0.033 A 
HETATM   24  C2  UNL     1      32.351   4.899  47.899  1.00  0.00     0.081 A 
HETATM   25  C3  UNL     1      32.019   5.249  46.476  1.00  0.00     0.024 A 
BRANCH  24  26
HETATM   26  C1  UNL     1      33.798   4.868  48.204  1.00  0.00     0.199 C 
HETATM   27  N1  UNL     1      34.448   3.583  48.275  1.00  0.00    -0.272 NA
HETATM   28  H1  UNL     1      35.264   3.581  47.627  1.00  0.00     0.127 HD
HETATM   29  H2  UNL     1      35.285   3.299  47.739  1.00  0.00     0.127 HD
HETATM   30  O1  UNL     1      34.480   5.916  48.400  1.00  0.00    -0.280 OA
ENDBRANCH  24  26
ENDBRANCH   1  23
TORSDOF 6
ENDMDL
