MODEL 1
REMARK VINA RESULT:      -8.2      0.000      0.000
REMARK  6 active torsions:
REMARK  status: ('A' for Active; 'I' for Inactive)
REMARK    1  A    between atoms: C7_7  and  N1_8 
REMARK    2  A    between atoms: N1_8  and  C8_9 
REMARK    3  A    between atoms: C12_15  and  O1_16 
REMARK    4  A    between atoms: O1_16  and  C13_17 
REMARK    5  A    between atoms: C13_17  and  C14_18 
REMARK    6  A    between atoms: C14_18  and  O2_19 
ROOT
HETATM    1  C1  UNL     1      14.280  -0.643  50.664  1.00  0.00     0.018 C 
HETATM    2  C2  UNL     1      15.126  -1.116  51.373  1.00  0.00    -0.078 C 
HETATM    3  C3  UNL     1      16.128  -1.671  52.205  1.00  0.00     0.019 A 
HETATM    4  C4  UNL     1      15.939  -2.990  52.620  1.00  0.00     0.021 A 
HETATM    5  C5  UNL     1      16.863  -3.618  53.457  1.00  0.00     0.004 A 
HETATM    6  C6  UNL     1      17.959  -2.815  53.826  1.00  0.00     0.029 A 
HETATM    7  C7  UNL     1      18.200  -1.527  53.460  1.00  0.00     0.035 A 
HETATM    8  C21 UNL     1      17.239  -1.002  52.639  1.00  0.00     0.050 A 
ENDROOT
BRANCH   7   9
HETATM    9  N1  UNL     1      19.248  -0.672  53.832  1.00  0.00    -0.341 N 
HETATM   10  H5  UNL     1      19.140   0.364  53.873  1.00  0.00     0.167 HD
BRANCH   9  11
HETATM   11  C8  UNL     1      20.517  -1.067  54.171  1.00  0.00     0.135 A 
HETATM   12  N2  UNL     1      21.357  -1.946  54.844  1.00  0.00    -0.225 NA
HETATM   13  C9  UNL     1      22.699  -1.652  54.745  1.00  0.00     0.230 A 
HETATM   14  N3  UNL     1      23.233  -0.731  54.149  1.00  0.00    -0.265 NA
HETATM   15  C10 UNL     1      22.630   0.341  53.362  1.00  0.00     0.111 A 
HETATM   16  C11 UNL     1      23.220   1.324  52.755  1.00  0.00     0.090 A 
HETATM   17  C18 UNL     1      21.501  -0.370  53.766  1.00  0.00     0.008 A 
HETATM   18  C17 UNL     1      21.183   0.879  52.976  1.00  0.00     0.096 A 
HETATM   19  C16 UNL     1      22.559   1.324  52.737  1.00  0.00     0.120 A 
HETATM   20  C12 UNL     1      24.267   1.501  52.671  1.00  0.00     0.134 A 
HETATM   21  C19 UNL     1      23.591   2.702  51.939  1.00  0.00     0.147 A 
HETATM   22  O3  UNL     1      22.080   2.649  51.917  1.00  0.00    -0.368 OA
HETATM   23  C20 UNL     1      24.058   2.418  50.616  1.00  0.00     0.041 C 
BRANCH  20  24
HETATM   24  O1  UNL     1      25.562   0.885  52.997  1.00  0.00    -0.371 OA
BRANCH  24  25
HETATM   25  C13 UNL     1      26.228   1.323  54.181  1.00  0.00     0.195 C 
BRANCH  25  26
HETATM   26  C14 UNL     1      26.893   0.239  54.957  1.00  0.00     0.193 C 
BRANCH  26  27
HETATM   27  O2  UNL     1      27.412  -0.771  54.140  1.00  0.00    -0.394 OA
HETATM   28  C15 UNL     1      28.751  -0.512  53.831  1.00  0.00     0.201 C 
ENDBRANCH  26  27
ENDBRANCH  25  26
ENDBRANCH  24  25
ENDBRANCH  20  24
ENDBRANCH   9  11
ENDBRANCH   7   9
TORSDOF 6
ENDMDL
MODEL 2
REMARK VINA RESULT:      -8.1      4.466      9.677
REMARK  6 active torsions:
REMARK  status: ('A' for Active; 'I' for Inactive)
REMARK    1  A    between atoms: C7_7  and  N1_8 
REMARK    2  A    between atoms: N1_8  and  C8_9 
REMARK    3  A    between atoms: C12_15  and  O1_16 
REMARK    4  A    between atoms: O1_16  and  C13_17 
REMARK    5  A    between atoms: C13_17  and  C14_18 
REMARK    6  A    between atoms: C14_18  and  O2_19 
ROOT
HETATM    1  C1  UNL     1      30.951   7.383  47.122  1.00  0.00     0.018 C 
HETATM    2  C2  UNL     1      29.825   7.109  47.439  1.00  0.00    -0.078 C 
HETATM    3  C3  UNL     1      28.499   6.779  47.810  1.00  0.00     0.019 A 
HETATM    4  C4  UNL     1      27.499   7.671  47.418  1.00  0.00     0.021 A 
HETATM    5  C5  UNL     1      26.163   7.443  47.753  1.00  0.00     0.004 A 
HETATM    6  C6  UNL     1      25.939   6.269  48.499  1.00  0.00     0.029 A 
HETATM    7  C7  UNL     1      26.866   5.364  48.913  1.00  0.00     0.035 A 
HETATM    8  C21 UNL     1      28.144   5.676  48.533  1.00  0.00     0.050 A 
ENDROOT
BRANCH   7   9
HETATM    9  N1  UNL     1      26.703   4.208  49.690  1.00  0.00    -0.341 N 
HETATM   10  H5  UNL     1      27.509   3.688  50.100  1.00  0.00     0.167 HD
BRANCH   9  11
HETATM   11  C8  UNL     1      25.504   3.616  49.998  1.00  0.00     0.135 A 
HETATM   12  N2  UNL     1      24.120   3.579  49.868  1.00  0.00    -0.225 NA
HETATM   13  C9  UNL     1      23.499   2.590  50.600  1.00  0.00     0.230 A 
HETATM   14  N3  UNL     1      24.005   1.758  51.335  1.00  0.00    -0.265 NA
HETATM   15  C10 UNL     1      25.410   1.544  51.671  1.00  0.00     0.111 A 
HETATM   16  C11 UNL     1      25.920   0.663  52.474  1.00  0.00     0.090 A 
HETATM   17  C18 UNL     1      25.499   2.629  50.800  1.00  0.00     0.008 A 
HETATM   18  C17 UNL     1      26.826   2.216  51.394  1.00  0.00     0.096 A 
HETATM   19  C16 UNL     1      26.344   1.096  52.208  1.00  0.00     0.120 A 
HETATM   20  C12 UNL     1      25.411  -0.110  52.999  1.00  0.00     0.134 A 
HETATM   21  C19 UNL     1      26.903  -0.238  53.436  1.00  0.00     0.147 A 
HETATM   22  O3  UNL     1      27.831   0.766  52.789  1.00  0.00    -0.368 OA
HETATM   23  C20 UNL     1      27.173  -1.518  52.856  1.00  0.00     0.041 C 
BRANCH  20  24
HETATM   24  O1  UNL     1      24.079  -0.721  53.128  1.00  0.00    -0.371 OA
BRANCH  24  25
HETATM   25  C13 UNL     1      23.262  -0.309  54.224  1.00  0.00     0.195 C 
BRANCH  25  26
HETATM   26  C14 UNL     1      22.566  -1.420  54.931  1.00  0.00     0.193 C 
BRANCH  26  27
HETATM   27  O2  UNL     1      21.193  -1.189  55.083  1.00  0.00    -0.394 OA
HETATM   28  C15 UNL     1      20.569  -1.109  53.835  1.00  0.00     0.201 C 
ENDBRANCH  26  27
ENDBRANCH  25  26
ENDBRANCH  24  25
ENDBRANCH  20  24
ENDBRANCH   9  11
ENDBRANCH   7   9
TORSDOF 6
ENDMDL
MODEL 3
REMARK VINA RESULT:      -8.0      2.381      8.614
REMARK  6 active torsions:
REMARK  status: ('A' for Active; 'I' for Inactive)
REMARK    1  A    between atoms: C7_7  and  N1_8 
REMARK    2  A    between atoms: N1_8  and  C8_9 
REMARK    3  A    between atoms: C12_15  and  O1_16 
REMARK    4  A    between atoms: O1_16  and  C13_17 
REMARK    5  A    between atoms: C13_17  and  C14_18 
REMARK    6  A    between atoms: C14_18  and  O2_19 
ROOT
HETATM    1  C1  UNL     1      30.156  -2.021  53.759  1.00  0.00     0.018 C 
HETATM    2  C2  UNL     1      29.405  -1.094  53.621  1.00  0.00    -0.078 C 
HETATM    3  C3  UNL     1      28.516  -0.004  53.452  1.00  0.00     0.019 A 
HETATM    4  C4  UNL     1      29.040   1.271  53.672  1.00  0.00     0.021 A 
HETATM    5  C5  UNL     1      28.238   2.407  53.549  1.00  0.00     0.004 A 
HETATM    6  C6  UNL     1      26.901   2.143  53.197  1.00  0.00     0.029 A 
HETATM    7  C7  UNL     1      26.329   0.930  52.973  1.00  0.00     0.035 A 
HETATM    8  C21 UNL     1      27.197  -0.119  53.116  1.00  0.00     0.050 A 
ENDROOT
BRANCH   7   9
HETATM    9  N1  UNL     1      24.998   0.611  52.664  1.00  0.00    -0.341 N 
HETATM   10  H5  UNL     1      24.548   0.890  51.766  1.00  0.00     0.167 HD
BRANCH   9  11
HETATM   11  C8  UNL     1      24.134  -0.078  53.477  1.00  0.00     0.135 A 
HETATM   12  N2  UNL     1      23.925  -0.893  54.583  1.00  0.00    -0.225 NA
HETATM   13  C9  UNL     1      22.614  -1.264  54.787  1.00  0.00     0.230 A 
HETATM   14  N3  UNL     1      21.631  -0.970  54.128  1.00  0.00    -0.265 NA
HETATM   15  C10 UNL     1      21.527  -0.144  52.928  1.00  0.00     0.111 A 
HETATM   16  C11 UNL     1      20.469   0.135  52.232  1.00  0.00     0.090 A 
HETATM   17  C18 UNL     1      22.897  -0.086  53.183  1.00  0.00     0.008 A 
HETATM   18  C17 UNL     1      22.483   0.632  51.918  1.00  0.00     0.096 A 
HETATM   19  C16 UNL     1      21.043   0.365  51.996  1.00  0.00     0.120 A 
HETATM   20  C12 UNL     1      19.462  -0.142  52.439  1.00  0.00     0.134 A 
HETATM   21  C19 UNL     1      19.398   0.641  51.091  1.00  0.00     0.147 A 
HETATM   22  O3  UNL     1      20.734   1.157  50.605  1.00  0.00    -0.368 OA
HETATM   23  C20 UNL     1      18.638   1.764  51.549  1.00  0.00     0.041 C 
BRANCH  20  24
HETATM   24  O1  UNL     1      18.647  -0.805  53.468  1.00  0.00    -0.371 OA
BRANCH  24  25
HETATM   25  C13 UNL     1      17.552  -1.610  53.033  1.00  0.00     0.195 C 
BRANCH  25  26
HETATM   26  C14 UNL     1      16.312  -0.851  52.707  1.00  0.00     0.193 C 
BRANCH  26  27
HETATM   27  O2  UNL     1      15.616  -1.393  51.621  1.00  0.00    -0.394 OA
HETATM   28  C15 UNL     1      16.053  -0.820  50.423  1.00  0.00     0.201 C 
ENDBRANCH  26  27
ENDBRANCH  25  26
ENDBRANCH  24  25
ENDBRANCH  20  24
ENDBRANCH   9  11
ENDBRANCH   7   9
TORSDOF 6
ENDMDL
MODEL 4
REMARK VINA RESULT:      -7.9      1.820      2.333
REMARK  6 active torsions:
REMARK  status: ('A' for Active; 'I' for Inactive)
REMARK    1  A    between atoms: C7_7  and  N1_8 
REMARK    2  A    between atoms: N1_8  and  C8_9 
REMARK    3  A    between atoms: C12_15  and  O1_16 
REMARK    4  A    between atoms: O1_16  and  C13_17 
REMARK    5  A    between atoms: C13_17  and  C14_18 
REMARK    6  A    between atoms: C14_18  and  O2_19 
ROOT
HETATM    1  C1  UNL     1      15.978   0.484  49.019  1.00  0.00     0.018 C 
HETATM    2  C2  UNL     1      16.689   0.213  49.949  1.00  0.00    -0.078 C 
HETATM    3  C3  UNL     1      17.533  -0.106  51.039  1.00  0.00     0.019 A 
HETATM    4  C4  UNL     1      17.005  -0.957  52.012  1.00  0.00     0.021 A 
HETATM    5  C5  UNL     1      17.754  -1.315  53.134  1.00  0.00     0.004 A 
HETATM    6  C6  UNL     1      19.042  -0.750  53.183  1.00  0.00     0.029 A 
HETATM    7  C7  UNL     1      19.613   0.084  52.274  1.00  0.00     0.035 A 
HETATM    8  C21 UNL     1      18.801   0.373  51.210  1.00  0.00     0.050 A 
ENDROOT
BRANCH   7   9
HETATM    9  N1  UNL     1      20.871   0.707  52.295  1.00  0.00    -0.341 N 
HETATM   10  H5  UNL     1      21.045   1.635  51.854  1.00  0.00     0.167 HD
BRANCH   9  11
HETATM   11  C8  UNL     1      22.005   0.192  52.869  1.00  0.00     0.135 A 
HETATM   12  N2  UNL     1      22.601  -0.714  53.739  1.00  0.00    -0.225 NA
HETATM   13  C9  UNL     1      23.970  -0.602  53.841  1.00  0.00     0.230 A 
HETATM   14  N3  UNL     1      24.712   0.181  53.271  1.00  0.00    -0.265 NA
HETATM   15  C10 UNL     1      24.393   1.235  52.312  1.00  0.00     0.111 A 
HETATM   16  C11 UNL     1      25.201   2.071  51.736  1.00  0.00     0.090 A 
HETATM   17  C18 UNL     1      23.127   0.716  52.578  1.00  0.00     0.008 A 
HETATM   18  C17 UNL     1      23.112   1.910  51.651  1.00  0.00     0.096 A 
HETATM   19  C16 UNL     1      24.556   2.153  51.609  1.00  0.00     0.120 A 
HETATM   20  C12 UNL     1      26.262   2.107  51.812  1.00  0.00     0.134 A 
HETATM   21  C19 UNL     1      25.881   3.303  50.887  1.00  0.00     0.147 A 
HETATM   22  O3  UNL     1      24.399   3.438  50.619  1.00  0.00    -0.368 OA
HETATM   23  C20 UNL     1      26.501   2.832  49.685  1.00  0.00     0.041 C 
BRANCH  20  24
HETATM   24  O1  UNL     1      27.393   1.369  52.395  1.00  0.00    -0.371 OA
BRANCH  24  25
HETATM   25  C13 UNL     1      28.321   2.098  53.198  1.00  0.00     0.195 C 
BRANCH  25  26
HETATM   26  C14 UNL     1      28.942   1.311  54.300  1.00  0.00     0.193 C 
BRANCH  26  27
HETATM   27  O2  UNL     1      28.737  -0.067  54.163  1.00  0.00    -0.394 OA
HETATM   28  C15 UNL     1      29.868  -0.678  53.614  1.00  0.00     0.201 C 
ENDBRANCH  26  27
ENDBRANCH  25  26
ENDBRANCH  24  25
ENDBRANCH  20  24
ENDBRANCH   9  11
ENDBRANCH   7   9
TORSDOF 6
ENDMDL
MODEL 5
REMARK VINA RESULT:      -7.7      3.576      8.836
REMARK  6 active torsions:
REMARK  status: ('A' for Active; 'I' for Inactive)
REMARK    1  A    between atoms: C7_7  and  N1_8 
REMARK    2  A    between atoms: N1_8  and  C8_9 
REMARK    3  A    between atoms: C12_15  and  O1_16 
REMARK    4  A    between atoms: O1_16  and  C13_17 
REMARK    5  A    between atoms: C13_17  and  C14_18 
REMARK    6  A    between atoms: C14_18  and  O2_19 
ROOT
HETATM    1  C1  UNL     1      28.769  -2.769  53.208  1.00  0.00     0.018 C 
HETATM    2  C2  UNL     1      28.450  -1.616  53.102  1.00  0.00    -0.078 C 
HETATM    3  C3  UNL     1      28.074  -0.257  52.970  1.00  0.00     0.019 A 
HETATM    4  C4  UNL     1      28.795   0.669  53.726  1.00  0.00     0.021 A 
HETATM    5  C5  UNL     1      28.486   2.029  53.678  1.00  0.00     0.004 A 
HETATM    6  C6  UNL     1      27.414   2.356  52.826  1.00  0.00     0.029 A 
HETATM    7  C7  UNL     1      26.672   1.505  52.068  1.00  0.00     0.035 A 
HETATM    8  C21 UNL     1      27.053   0.196  52.182  1.00  0.00     0.050 A 
ENDROOT
BRANCH   7   9
HETATM    9  N1  UNL     1      25.571   1.772  51.240  1.00  0.00    -0.341 N 
HETATM   10  H5  UNL     1      25.305   1.155  50.442  1.00  0.00     0.167 HD
BRANCH   9  11
HETATM   11  C8  UNL     1      24.731   2.851  51.353  1.00  0.00     0.135 A 
HETATM   12  N2  UNL     1      24.540   4.227  51.319  1.00  0.00    -0.225 NA
HETATM   13  C9  UNL     1      23.257   4.639  51.607  1.00  0.00     0.230 A 
HETATM   14  N3  UNL     1      22.285   3.956  51.883  1.00  0.00    -0.265 NA
HETATM   15  C10 UNL     1      22.168   2.505  51.996  1.00  0.00     0.111 A 
HETATM   16  C11 UNL     1      21.125   1.803  52.314  1.00  0.00     0.090 A 
HETATM   17  C18 UNL     1      23.514   2.646  51.661  1.00  0.00     0.008 A 
HETATM   18  C17 UNL     1      23.101   1.216  51.929  1.00  0.00     0.096 A 
HETATM   19  C16 UNL     1      21.688   1.466  52.226  1.00  0.00     0.120 A 
HETATM   20  C12 UNL     1      20.136   2.154  52.498  1.00  0.00     0.134 A 
HETATM   21  C19 UNL     1      20.070   0.613  52.732  1.00  0.00     0.147 A 
HETATM   22  O3  UNL     1      21.379  -0.110  52.505  1.00  0.00    -0.368 OA
HETATM   23  C20 UNL     1      19.195   0.284  51.648  1.00  0.00     0.041 C 
BRANCH  20  24
HETATM   24  O1  UNL     1      19.332   3.385  52.451  1.00  0.00    -0.371 OA
BRANCH  24  25
HETATM   25  C13 UNL     1      18.802   3.786  51.188  1.00  0.00     0.195 C 
BRANCH  25  26
HETATM   26  C14 UNL     1      17.357   4.148  51.208  1.00  0.00     0.193 C 
BRANCH  26  27
HETATM   27  O2  UNL     1      16.707   3.717  52.371  1.00  0.00    -0.394 OA
HETATM   28  C15 UNL     1      15.373   4.135  52.370  1.00  0.00     0.201 C 
ENDBRANCH  26  27
ENDBRANCH  25  26
ENDBRANCH  24  25
ENDBRANCH  20  24
ENDBRANCH   9  11
ENDBRANCH   7   9
TORSDOF 6
ENDMDL
MODEL 6
REMARK VINA RESULT:      -7.5      6.933     10.472
REMARK  6 active torsions:
REMARK  status: ('A' for Active; 'I' for Inactive)
REMARK    1  A    between atoms: C7_7  and  N1_8 
REMARK    2  A    between atoms: N1_8  and  C8_9 
REMARK    3  A    between atoms: C12_15  and  O1_16 
REMARK    4  A    between atoms: O1_16  and  C13_17 
REMARK    5  A    between atoms: C13_17  and  C14_18 
REMARK    6  A    between atoms: C14_18  and  O2_19 
ROOT
HETATM    1  C1  UNL     1      28.181  -0.228  53.454  1.00  0.00     0.018 C 
HETATM    2  C2  UNL     1      27.344   0.440  52.909  1.00  0.00    -0.078 C 
HETATM    3  C3  UNL     1      26.362   1.233  52.267  1.00  0.00     0.019 A 
HETATM    4  C4  UNL     1      25.063   1.149  52.769  1.00  0.00     0.021 A 
HETATM    5  C5  UNL     1      24.022   1.878  52.190  1.00  0.00     0.004 A 
HETATM    6  C6  UNL     1      24.404   2.672  51.092  1.00  0.00     0.029 A 
HETATM    7  C7  UNL     1      25.647   2.795  50.555  1.00  0.00     0.035 A 
HETATM    8  C21 UNL     1      26.597   2.044  51.192  1.00  0.00     0.050 A 
ENDROOT
BRANCH   7   9
HETATM    9  N1  UNL     1      26.071   3.535  49.440  1.00  0.00    -0.341 N 
HETATM   10  H5  UNL     1      26.702   3.139  48.710  1.00  0.00     0.167 HD
BRANCH   9  11
HETATM   11  C8  UNL     1      25.736   4.838  49.173  1.00  0.00     0.135 A 
HETATM   12  N2  UNL     1      24.768   5.833  49.099  1.00  0.00    -0.225 NA
HETATM   13  C9  UNL     1      25.229   7.054  48.656  1.00  0.00     0.230 A 
HETATM   14  N3  UNL     1      26.362   7.364  48.327  1.00  0.00    -0.265 NA
HETATM   15  C10 UNL     1      27.576   6.554  48.295  1.00  0.00     0.111 A 
HETATM   16  C11 UNL     1      28.767   6.903  47.919  1.00  0.00     0.090 A 
HETATM   17  C18 UNL     1      26.641   5.628  48.756  1.00  0.00     0.008 A 
HETATM   18  C17 UNL     1      28.019   5.044  48.540  1.00  0.00     0.096 A 
HETATM   19  C16 UNL     1      28.688   6.267  48.085  1.00  0.00     0.120 A 
HETATM   20  C12 UNL     1      29.095   7.868  47.613  1.00  0.00     0.134 A 
HETATM   21  C19 UNL     1      30.349   6.950  47.472  1.00  0.00     0.147 A 
HETATM   22  O3  UNL     1      30.117   5.512  47.877  1.00  0.00    -0.368 OA
HETATM   23  C20 UNL     1      31.159   7.562  48.481  1.00  0.00     0.041 C 
BRANCH  20  24
HETATM   24  O1  UNL     1      28.620   9.255  47.498  1.00  0.00    -0.371 OA
BRANCH  24  25
HETATM   25  C13 UNL     1      28.735  10.095  48.647  1.00  0.00     0.195 C 
BRANCH  25  26
HETATM   26  C14 UNL     1      27.648  11.103  48.791  1.00  0.00     0.193 C 
BRANCH  26  27
HETATM   27  O2  UNL     1      28.125  12.363  49.174  1.00  0.00    -0.394 OA
HETATM   28  C15 UNL     1      29.489  12.477  48.889  1.00  0.00     0.201 C 
ENDBRANCH  26  27
ENDBRANCH  25  26
ENDBRANCH  24  25
ENDBRANCH  20  24
ENDBRANCH   9  11
ENDBRANCH   7   9
TORSDOF 6
ENDMDL
MODEL 7
REMARK VINA RESULT:      -7.5      4.994      8.351
REMARK  6 active torsions:
REMARK  status: ('A' for Active; 'I' for Inactive)
REMARK    1  A    between atoms: C7_7  and  N1_8 
REMARK    2  A    between atoms: N1_8  and  C8_9 
REMARK    3  A    between atoms: C12_15  and  O1_16 
REMARK    4  A    between atoms: O1_16  and  C13_17 
REMARK    5  A    between atoms: C13_17  and  C14_18 
REMARK    6  A    between atoms: C14_18  and  O2_19 
ROOT
HETATM    1  C1  UNL     1      21.881  -1.284  54.436  1.00  0.00     0.018 C 
HETATM    2  C2  UNL     1      22.951  -0.813  54.160  1.00  0.00    -0.078 C 
HETATM    3  C3  UNL     1      24.211  -0.260  53.827  1.00  0.00     0.019 A 
HETATM    4  C4  UNL     1      25.258  -0.507  54.716  1.00  0.00     0.021 A 
HETATM    5  C5  UNL     1      26.533   0.012  54.485  1.00  0.00     0.004 A 
HETATM    6  C6  UNL     1      26.648   0.779  53.310  1.00  0.00     0.029 A 
HETATM    7  C7  UNL     1      25.670   1.058  52.407  1.00  0.00     0.035 A 
HETATM    8  C21 UNL     1      24.459   0.504  52.721  1.00  0.00     0.050 A 
ENDROOT
BRANCH   7   9
HETATM    9  N1  UNL     1      25.721   1.849  51.249  1.00  0.00    -0.341 N 
HETATM   10  H5  UNL     1      26.418   1.691  50.490  1.00  0.00     0.167 HD
BRANCH   9  11
HETATM   11  C8  UNL     1      24.897   2.911  50.971  1.00  0.00     0.135 A 
HETATM   12  N2  UNL     1      23.650   3.516  51.076  1.00  0.00    -0.225 NA
HETATM   13  C9  UNL     1      23.539   4.724  50.422  1.00  0.00     0.230 A 
HETATM   14  N3  UNL     1      24.385   5.318  49.775  1.00  0.00    -0.265 NA
HETATM   15  C10 UNL     1      25.767   4.945  49.487  1.00  0.00     0.111 A 
HETATM   16  C11 UNL     1      26.642   5.586  48.776  1.00  0.00     0.090 A 
HETATM   17  C18 UNL     1      25.348   3.864  50.260  1.00  0.00     0.008 A 
HETATM   18  C17 UNL     1      26.758   3.723  49.732  1.00  0.00     0.096 A 
HETATM   19  C16 UNL     1      26.832   4.997  49.011  1.00  0.00     0.120 A 
HETATM   20  C12 UNL     1      26.532   6.537  48.312  1.00  0.00     0.134 A 
HETATM   21  C19 UNL     1      27.963   6.058  47.918  1.00  0.00     0.147 A 
HETATM   22  O3  UNL     1      28.351   4.713  48.492  1.00  0.00    -0.368 OA
HETATM   23  C20 UNL     1      28.709   7.061  48.615  1.00  0.00     0.041 C 
BRANCH  20  24
HETATM   24  O1  UNL     1      25.585   7.658  48.211  1.00  0.00    -0.371 OA
BRANCH  24  25
HETATM   25  C13 UNL     1      26.085   8.975  48.442  1.00  0.00     0.195 C 
BRANCH  25  26
HETATM   26  C14 UNL     1      26.317   9.310  49.875  1.00  0.00     0.193 C 
BRANCH  26  27
HETATM   27  O2  UNL     1      27.246  10.343  50.045  1.00  0.00    -0.394 OA
HETATM   28  C15 UNL     1      27.743  10.764  48.808  1.00  0.00     0.201 C 
ENDBRANCH  26  27
ENDBRANCH  25  26
ENDBRANCH  24  25
ENDBRANCH  20  24
ENDBRANCH   9  11
ENDBRANCH   7   9
TORSDOF 6
ENDMDL
MODEL 8
REMARK VINA RESULT:      -7.4      5.252      8.237
REMARK  6 active torsions:
REMARK  status: ('A' for Active; 'I' for Inactive)
REMARK    1  A    between atoms: C7_7  and  N1_8 
REMARK    2  A    between atoms: N1_8  and  C8_9 
REMARK    3  A    between atoms: C12_15  and  O1_16 
REMARK    4  A    between atoms: O1_16  and  C13_17 
REMARK    5  A    between atoms: C13_17  and  C14_18 
REMARK    6  A    between atoms: C14_18  and  O2_19 
ROOT
HETATM    1  C1  UNL     1      21.744  -1.097  54.417  1.00  0.00     0.018 C 
HETATM    2  C2  UNL     1      22.735  -0.636  53.919  1.00  0.00    -0.078 C 
HETATM    3  C3  UNL     1      23.899  -0.091  53.325  1.00  0.00     0.019 A 
HETATM    4  C4  UNL     1      25.079  -0.822  53.473  1.00  0.00     0.021 A 
HETATM    5  C5  UNL     1      26.282  -0.357  52.940  1.00  0.00     0.004 A 
HETATM    6  C6  UNL     1      26.186   0.876  52.267  1.00  0.00     0.029 A 
HETATM    7  C7  UNL     1      25.074   1.637  52.092  1.00  0.00     0.035 A 
HETATM    8  C21 UNL     1      23.946   1.096  52.649  1.00  0.00     0.050 A 
ENDROOT
BRANCH   7   9
HETATM    9  N1  UNL     1      24.933   2.888  51.471  1.00  0.00    -0.341 N 
HETATM   10  H5  UNL     1      24.148   3.539  51.692  1.00  0.00     0.167 HD
BRANCH   9  11
HETATM   11  C8  UNL     1      25.770   3.402  50.515  1.00  0.00     0.135 A 
HETATM   12  N2  UNL     1      26.860   3.240  49.667  1.00  0.00    -0.225 NA
HETATM   13  C9  UNL     1      27.186   4.357  48.927  1.00  0.00     0.230 A 
HETATM   14  N3  UNL     1      26.646   5.450  48.925  1.00  0.00    -0.265 NA
HETATM   15  C10 UNL     1      25.498   5.923  49.694  1.00  0.00     0.111 A 
HETATM   16  C11 UNL     1      24.955   7.101  49.690  1.00  0.00     0.090 A 
HETATM   17  C18 UNL     1      25.609   4.609  50.148  1.00  0.00     0.008 A 
HETATM   18  C17 UNL     1      24.524   5.402  50.841  1.00  0.00     0.096 A 
HETATM   19  C16 UNL     1      24.705   6.665  50.121  1.00  0.00     0.120 A 
HETATM   20  C12 UNL     1      25.214   7.933  49.078  1.00  0.00     0.134 A 
HETATM   21  C19 UNL     1      24.065   8.448  50.000  1.00  0.00     0.147 A 
HETATM   22  O3  UNL     1      23.520   7.411  50.956  1.00  0.00    -0.368 OA
HETATM   23  C20 UNL     1      23.079   8.669  48.986  1.00  0.00     0.041 C 
BRANCH  20  24
HETATM   24  O1  UNL     1      26.094   8.301  47.958  1.00  0.00    -0.371 OA
BRANCH  24  25
HETATM   25  C13 UNL     1      27.101   9.283  48.199  1.00  0.00     0.195 C 
BRANCH  25  26
HETATM   26  C14 UNL     1      28.255   8.804  49.012  1.00  0.00     0.193 C 
BRANCH  26  27
HETATM   27  O2  UNL     1      29.043   7.867  48.333  1.00  0.00    -0.394 OA
HETATM   28  C15 UNL     1      30.346   7.864  48.840  1.00  0.00     0.201 C 
ENDBRANCH  26  27
ENDBRANCH  25  26
ENDBRANCH  24  25
ENDBRANCH  20  24
ENDBRANCH   9  11
ENDBRANCH   7   9
TORSDOF 6
ENDMDL
MODEL 9
REMARK VINA RESULT:      -7.2      3.758      8.553
REMARK  6 active torsions:
REMARK  status: ('A' for Active; 'I' for Inactive)
REMARK    1  A    between atoms: C7_7  and  N1_8 
REMARK    2  A    between atoms: N1_8  and  C8_9 
REMARK    3  A    between atoms: C12_15  and  O1_16 
REMARK    4  A    between atoms: O1_16  and  C13_17 
REMARK    5  A    between atoms: C13_17  and  C14_18 
REMARK    6  A    between atoms: C14_18  and  O2_19 
ROOT
HETATM    1  C1  UNL     1      28.689  -2.756  53.074  1.00  0.00     0.018 C 
HETATM    2  C2  UNL     1      28.530  -1.574  53.213  1.00  0.00    -0.078 C 
HETATM    3  C3  UNL     1      28.338  -0.180  53.371  1.00  0.00     0.019 A 
HETATM    4  C4  UNL     1      29.437   0.557  53.813  1.00  0.00     0.021 A 
HETATM    5  C5  UNL     1      29.341   1.935  54.017  1.00  0.00     0.004 A 
HETATM    6  C6  UNL     1      28.072   2.480  53.743  1.00  0.00     0.029 A 
HETATM    7  C7  UNL     1      26.964   1.819  53.314  1.00  0.00     0.035 A 
HETATM    8  C21 UNL     1      27.161   0.475  53.142  1.00  0.00     0.050 A 
ENDROOT
BRANCH   7   9
HETATM    9  N1  UNL     1      25.671   2.305  53.069  1.00  0.00    -0.341 N 
HETATM   10  H5  UNL     1      25.466   3.320  52.947  1.00  0.00     0.167 HD
BRANCH   9  11
HETATM   11  C8  UNL     1      24.537   1.539  52.971  1.00  0.00     0.135 A 
HETATM   12  N2  UNL     1      23.705   0.561  53.504  1.00  0.00    -0.225 NA
HETATM   13  C9  UNL     1      22.620   0.237  52.718  1.00  0.00     0.230 A 
HETATM   14  N3  UNL     1      22.306   0.694  51.631  1.00  0.00    -0.265 NA
HETATM   15  C10 UNL     1      22.967   1.716  50.826  1.00  0.00     0.111 A 
HETATM   16  C11 UNL     1      22.623   2.170  49.660  1.00  0.00     0.090 A 
HETATM   17  C18 UNL     1      23.812   1.651  51.932  1.00  0.00     0.008 A 
HETATM   18  C17 UNL     1      24.294   2.596  50.854  1.00  0.00     0.096 A 
HETATM   19  C16 UNL     1      23.190   2.403  49.909  1.00  0.00     0.120 A 
HETATM   20  C12 UNL     1      21.757   1.919  49.095  1.00  0.00     0.134 A 
HETATM   21  C19 UNL     1      22.548   2.922  48.200  1.00  0.00     0.147 A 
HETATM   22  O3  UNL     1      23.828   3.435  48.821  1.00  0.00    -0.368 OA
HETATM   23  C20 UNL     1      21.598   3.993  48.211  1.00  0.00     0.041 C 
BRANCH  20  24
HETATM   24  O1  UNL     1      20.513   1.140  49.192  1.00  0.00    -0.371 OA
BRANCH  24  25
HETATM   25  C13 UNL     1      19.434   1.699  49.941  1.00  0.00     0.195 C 
BRANCH  25  26
HETATM   26  C14 UNL     1      18.496   2.540  49.146  1.00  0.00     0.193 C 
BRANCH  26  27
HETATM   27  O2  UNL     1      17.277   2.757  49.800  1.00  0.00    -0.394 OA
HETATM   28  C15 UNL     1      17.460   2.763  51.186  1.00  0.00     0.201 C 
ENDBRANCH  26  27
ENDBRANCH  25  26
ENDBRANCH  24  25
ENDBRANCH  20  24
ENDBRANCH   9  11
ENDBRANCH   7   9
TORSDOF 6
ENDMDL
