MODEL 1
REMARK VINA RESULT:      -9.0      0.000      0.000
REMARK  2 active torsions:
REMARK  status: ('A' for Active; 'I' for Inactive)
REMARK       I    between atoms: C2_2  and  N1_4 
REMARK    1  A    between atoms: N1_4  and  C3_5 
REMARK    2  A    between atoms: N5_21  and  C16_22 
ROOT
HETATM    1  C3  UNL     1      25.829  -0.016  53.694  1.00  0.00     0.012 C 
HETATM    2  C4  UNL     1      26.027   0.798  52.601  1.00  0.00     0.004 C 
HETATM    3  C5  UNL     1      24.890   1.318  51.791  1.00  0.00     0.024 C 
HETATM    4  C6  UNL     1      24.284   2.007  50.791  1.00  0.00     0.018 C 
HETATM    5  C7  UNL     1      22.810   1.992  50.680  1.00  0.00     0.125 C 
HETATM    6  N2  UNL     1      22.208   1.277  51.624  1.00  0.00    -0.381 N 
HETATM    7  C8  UNL     1      21.501   1.940  52.703  1.00  0.00     0.122 C 
HETATM    8  C9  UNL     1      20.278   1.410  53.440  1.00  0.00     0.054 C 
HETATM    9  C10 UNL     1      20.177  -0.018  53.082  1.00  0.00     0.075 C 
HETATM   10  C11 UNL     1      19.353  -1.058  53.267  1.00  0.00     0.043 C 
HETATM   11  N3  UNL     1      20.609   0.268  51.587  1.00  0.00    -0.280 NA
HETATM   12  C12 UNL     1      21.778   0.263  52.283  1.00  0.00     0.203 A 
HETATM   13  C13 UNL     1      21.794  -0.583  53.590  1.00  0.00     0.268 A 
HETATM   14  N4  UNL     1      23.073  -0.713  54.168  1.00  0.00     0.066 N 
HETATM   15  C14 UNL     1      23.317   0.032  53.161  1.00  0.00     0.290 A 
HETATM   16  C15 UNL     1      23.559  -0.805  54.409  1.00  0.00     0.277 A 
HETATM   17  N5  UNL     1      22.630  -1.585  55.255  1.00  0.00    -0.080 NA
HETATM   18  C16 UNL     1      21.389  -1.331  54.549  1.00  0.00     0.141 A 
HETATM   19  N6  UNL     1      21.818  -0.480  53.447  1.00  0.00     0.000 N 
HETATM   20  C17 UNL     1      25.070  -0.801  54.704  1.00  0.00     0.119 C 
ENDROOT
BRANCH   1  21
HETATM   21  N1  UNL     1      27.237  -0.228  54.093  1.00  0.00    -0.331 N 
HETATM   22  C2  UNL     1      27.723  -1.297  53.251  1.00  0.00     0.217 C 
HETATM   23  C1  UNL     1      29.176  -1.738  53.394  1.00  0.00     0.117 C 
HETATM   24  O1  UNL     1      27.127  -1.982  52.335  1.00  0.00    -0.274 OA
HETATM   25  H4  UNL     1      27.948   0.128  54.756  1.00  0.00     0.168 HD
ENDBRANCH   1  21
TORSDOF 2
ENDMDL
MODEL 2
REMARK VINA RESULT:      -8.9      1.760      3.609
REMARK  2 active torsions:
REMARK  status: ('A' for Active; 'I' for Inactive)
REMARK       I    between atoms: C2_2  and  N1_4 
REMARK    1  A    between atoms: N1_4  and  C3_5 
REMARK    2  A    between atoms: N5_21  and  C16_22 
ROOT
HETATM    1  C3  UNL     1      25.286  -0.015  53.083  1.00  0.00     0.012 C 
HETATM    2  C4  UNL     1      24.593  -0.739  54.028  1.00  0.00     0.004 C 
HETATM    3  C5  UNL     1      23.123  -0.584  54.215  1.00  0.00     0.024 C 
HETATM    4  C6  UNL     1      21.906  -0.820  54.766  1.00  0.00     0.018 C 
HETATM    5  C7  UNL     1      20.722  -0.089  54.265  1.00  0.00     0.125 C 
HETATM    6  N2  UNL     1      20.991   0.753  53.274  1.00  0.00    -0.381 N 
HETATM    7  C8  UNL     1      20.599   0.433  51.915  1.00  0.00     0.122 C 
HETATM    8  C9  UNL     1      20.212   1.429  50.829  1.00  0.00     0.054 C 
HETATM    9  C10 UNL     1      20.642   2.752  51.321  1.00  0.00     0.075 C 
HETATM   10  C11 UNL     1      20.566   4.042  50.970  1.00  0.00     0.043 C 
HETATM   11  N3  UNL     1      20.204   2.407  52.802  1.00  0.00    -0.280 NA
HETATM   12  C12 UNL     1      21.412   1.796  52.654  1.00  0.00     0.203 A 
HETATM   13  C13 UNL     1      22.376   2.428  51.608  1.00  0.00     0.268 A 
HETATM   14  N4  UNL     1      23.676   1.883  51.631  1.00  0.00     0.066 N 
HETATM   15  C14 UNL     1      23.088   1.192  52.528  1.00  0.00     0.290 A 
HETATM   16  C15 UNL     1      24.199   1.712  51.626  1.00  0.00     0.277 A 
HETATM   17  N5  UNL     1      24.203   2.776  50.599  1.00  0.00    -0.080 NA
HETATM   18  C16 UNL     1      22.820   3.204  50.689  1.00  0.00     0.141 A 
HETATM   19  N6  UNL     1      22.285   2.338  51.732  1.00  0.00     0.000 N 
HETATM   20  C17 UNL     1      25.495   0.959  51.979  1.00  0.00     0.119 C 
ENDROOT
BRANCH   1  21
HETATM   21  N1  UNL     1      26.647  -0.537  53.331  1.00  0.00    -0.331 N 
HETATM   22  C2  UNL     1      27.241   0.365  54.290  1.00  0.00     0.217 C 
HETATM   23  C1  UNL     1      28.654   0.080  54.786  1.00  0.00     0.117 C 
HETATM   24  O1  UNL     1      26.767   1.426  54.852  1.00  0.00    -0.274 OA
HETATM   25  H4  UNL     1      27.279  -1.306  53.045  1.00  0.00     0.168 HD
ENDBRANCH   1  21
TORSDOF 2
ENDMDL
MODEL 3
REMARK VINA RESULT:      -8.8      1.447      1.968
REMARK  2 active torsions:
REMARK  status: ('A' for Active; 'I' for Inactive)
REMARK       I    between atoms: C2_2  and  N1_4 
REMARK    1  A    between atoms: N1_4  and  C3_5 
REMARK    2  A    between atoms: N5_21  and  C16_22 
ROOT
HETATM    1  C3  UNL     1      26.879   0.993  53.292  1.00  0.00     0.012 C 
HETATM    2  C4  UNL     1      27.328   1.865  52.325  1.00  0.00     0.004 C 
HETATM    3  C5  UNL     1      26.404   2.493  51.340  1.00  0.00     0.024 C 
HETATM    4  C6  UNL     1      26.044   3.275  50.291  1.00  0.00     0.018 C 
HETATM    5  C7  UNL     1      24.625   3.342  49.881  1.00  0.00     0.125 C 
HETATM    6  N2  UNL     1      23.815   2.599  50.626  1.00  0.00    -0.381 N 
HETATM    7  C8  UNL     1      22.924   3.224  51.584  1.00  0.00     0.122 C 
HETATM    8  C9  UNL     1      21.556   2.710  52.014  1.00  0.00     0.054 C 
HETATM    9  C10 UNL     1      21.480   1.316  51.538  1.00  0.00     0.075 C 
HETATM   10  C11 UNL     1      20.599   0.309  51.473  1.00  0.00     0.043 C 
HETATM   11  N3  UNL     1      22.223   1.676  50.188  1.00  0.00    -0.280 NA
HETATM   12  C12 UNL     1      23.222   1.567  51.106  1.00  0.00     0.203 A 
HETATM   13  C13 UNL     1      22.935   0.638  52.323  1.00  0.00     0.268 A 
HETATM   14  N4  UNL     1      24.061   0.406  53.139  1.00  0.00     0.066 N 
HETATM   15  C14 UNL     1      24.536   1.202  52.261  1.00  0.00     0.290 A 
HETATM   16  C15 UNL     1      24.483   0.274  53.467  1.00  0.00     0.277 A 
HETATM   17  N5  UNL     1      23.371  -0.511  54.045  1.00  0.00    -0.080 NA
HETATM   18  C16 UNL     1      22.313  -0.149  53.121  1.00  0.00     0.141 A 
HETATM   19  N6  UNL     1      22.992   0.749  52.196  1.00  0.00     0.000 N 
HETATM   20  C17 UNL     1      25.899   0.183  54.064  1.00  0.00     0.119 C 
ENDROOT
BRANCH   1  21
HETATM   21  N1  UNL     1      28.165   0.684  53.954  1.00  0.00    -0.331 N 
HETATM   22  C2  UNL     1      28.563  -0.608  53.445  1.00  0.00     0.217 C 
HETATM   23  C1  UNL     1      29.886  -1.203  53.916  1.00  0.00     0.117 C 
HETATM   24  O1  UNL     1      27.982  -1.397  52.606  1.00  0.00    -0.274 OA
HETATM   25  H4  UNL     1      28.835   1.081  54.636  1.00  0.00     0.168 HD
ENDBRANCH   1  21
TORSDOF 2
ENDMDL
MODEL 4
REMARK VINA RESULT:      -8.5      2.352      5.552
REMARK  2 active torsions:
REMARK  status: ('A' for Active; 'I' for Inactive)
REMARK       I    between atoms: C2_2  and  N1_4 
REMARK    1  A    between atoms: N1_4  and  C3_5 
REMARK    2  A    between atoms: N5_21  and  C16_22 
ROOT
HETATM    1  C3  UNL     1      21.690   1.156  51.264  1.00  0.00     0.012 C 
HETATM    2  C4  UNL     1      22.193   2.130  50.431  1.00  0.00     0.004 C 
HETATM    3  C5  UNL     1      23.625   2.538  50.473  1.00  0.00     0.024 C 
HETATM    4  C6  UNL     1      24.733   3.237  50.118  1.00  0.00     0.018 C 
HETATM    5  C7  UNL     1      26.017   2.971  50.801  1.00  0.00     0.125 C 
HETATM    6  N2  UNL     1      25.945   2.022  51.728  1.00  0.00    -0.381 N 
HETATM    7  C8  UNL     1      26.516   0.713  51.479  1.00  0.00     0.122 C 
HETATM    8  C9  UNL     1      27.115  -0.224  52.521  1.00  0.00     0.054 C 
HETATM    9  C10 UNL     1      26.691   0.305  53.831  1.00  0.00     0.075 C 
HETATM   10  C11 UNL     1      26.891   0.073  55.135  1.00  0.00     0.043 C 
HETATM   11  N3  UNL     1      26.885   1.801  53.354  1.00  0.00    -0.280 NA
HETATM   12  C12 UNL     1      25.681   1.434  52.837  1.00  0.00     0.203 A 
HETATM   13  C13 UNL     1      24.919   0.314  53.605  1.00  0.00     0.268 A 
HETATM   14  N4  UNL     1      23.601   0.106  53.149  1.00  0.00     0.066 N 
HETATM   15  C14 UNL     1      24.010   1.020  52.357  1.00  0.00     0.290 A 
HETATM   16  C15 UNL     1      23.076   0.012  53.013  1.00  0.00     0.277 A 
HETATM   17  N5  UNL     1      23.284  -0.916  54.145  1.00  0.00    -0.080 NA
HETATM   18  C16 UNL     1      24.660  -0.595  54.472  1.00  0.00     0.141 A 
HETATM   19  N6  UNL     1      24.985   0.442  53.501  1.00  0.00     0.000 N 
HETATM   20  C17 UNL     1      21.702   0.114  52.326  1.00  0.00     0.119 C 
ENDROOT
BRANCH   1  21
HETATM   21  N1  UNL     1      20.280   1.163  50.819  1.00  0.00    -0.331 N 
HETATM   22  C2  UNL     1      19.603   2.098  51.687  1.00  0.00     0.217 C 
HETATM   23  C1  UNL     1      18.118   2.362  51.462  1.00  0.00     0.117 C 
HETATM   24  O1  UNL     1      20.047   2.806  52.669  1.00  0.00    -0.274 OA
HETATM   25  H4  UNL     1      19.655   0.728  50.117  1.00  0.00     0.168 HD
ENDBRANCH   1  21
TORSDOF 2
ENDMDL
MODEL 5
REMARK VINA RESULT:      -8.4      2.346      3.456
REMARK  2 active torsions:
REMARK  status: ('A' for Active; 'I' for Inactive)
REMARK       I    between atoms: C2_2  and  N1_4 
REMARK    1  A    between atoms: N1_4  and  C3_5 
REMARK    2  A    between atoms: N5_21  and  C16_22 
ROOT
HETATM    1  C3  UNL     1      25.976   1.006  52.258  1.00  0.00     0.012 C 
HETATM    2  C4  UNL     1      26.753   1.727  51.378  1.00  0.00     0.004 C 
HETATM    3  C5  UNL     1      26.200   2.864  50.591  1.00  0.00     0.024 C 
HETATM    4  C6  UNL     1      26.217   3.890  49.702  1.00  0.00     0.018 C 
HETATM    5  C7  UNL     1      24.983   4.665  49.455  1.00  0.00     0.125 C 
HETATM    6  N2  UNL     1      23.941   4.259  50.172  1.00  0.00    -0.381 N 
HETATM    7  C8  UNL     1      23.474   5.049  51.295  1.00  0.00     0.122 C 
HETATM    8  C9  UNL     1      22.037   5.151  51.791  1.00  0.00     0.054 C 
HETATM    9  C10 UNL     1      21.305   4.048  51.140  1.00  0.00     0.075 C 
HETATM   10  C11 UNL     1      20.055   3.581  51.031  1.00  0.00     0.043 C 
HETATM   11  N3  UNL     1      22.091   4.253  49.781  1.00  0.00    -0.280 NA
HETATM   12  C12 UNL     1      22.949   3.546  50.567  1.00  0.00     0.203 A 
HETATM   13  C13 UNL     1      22.297   2.659  51.668  1.00  0.00     0.268 A 
HETATM   14  N4  UNL     1      23.208   1.804  52.323  1.00  0.00     0.066 N 
HETATM   15  C14 UNL     1      23.973   2.432  51.516  1.00  0.00     0.290 A 
HETATM   16  C15 UNL     1      23.529   1.441  52.584  1.00  0.00     0.277 A 
HETATM   17  N5  UNL     1      22.196   1.164  53.162  1.00  0.00    -0.080 NA
HETATM   18  C16 UNL     1      21.403   2.119  52.412  1.00  0.00     0.141 A 
HETATM   19  N6  UNL     1      22.395   2.751  51.552  1.00  0.00     0.000 N 
HETATM   20  C17 UNL     1      24.755   0.615  53.011  1.00  0.00     0.119 C 
ENDROOT
BRANCH   1  21
HETATM   21  N1  UNL     1      26.988   0.037  52.733  1.00  0.00    -0.331 N 
HETATM   22  C2  UNL     1      27.648   0.680  53.846  1.00  0.00     0.217 C 
HETATM   23  C1  UNL     1      28.739  -0.084  54.588  1.00  0.00     0.117 C 
HETATM   24  O1  UNL     1      27.470   1.844  54.371  1.00  0.00    -0.274 OA
HETATM   25  H4  UNL     1      27.356  -0.908  52.527  1.00  0.00     0.168 HD
ENDBRANCH   1  21
TORSDOF 2
ENDMDL
MODEL 6
REMARK VINA RESULT:      -8.4      3.960      5.838
REMARK  2 active torsions:
REMARK  status: ('A' for Active; 'I' for Inactive)
REMARK       I    between atoms: C2_2  and  N1_4 
REMARK    1  A    between atoms: N1_4  and  C3_5 
REMARK    2  A    between atoms: N5_21  and  C16_22 
ROOT
HETATM    1  C3  UNL     1      25.351   2.265  51.808  1.00  0.00     0.012 C 
HETATM    2  C4  UNL     1      26.412   2.405  50.941  1.00  0.00     0.004 C 
HETATM    3  C5  UNL     1      26.547   3.589  50.047  1.00  0.00     0.024 C 
HETATM    4  C6  UNL     1      27.115   4.377  49.099  1.00  0.00     0.018 C 
HETATM    5  C7  UNL     1      26.464   5.649  48.719  1.00  0.00     0.125 C 
HETATM    6  N2  UNL     1      25.343   5.899  49.386  1.00  0.00    -0.381 N 
HETATM    7  C8  UNL     1      25.321   6.914  50.422  1.00  0.00     0.122 C 
HETATM    8  C9  UNL     1      24.129   7.781  50.810  1.00  0.00     0.054 C 
HETATM    9  C10 UNL     1      22.951   7.155  50.180  1.00  0.00     0.075 C 
HETATM   10  C11 UNL     1      21.643   7.387  50.014  1.00  0.00     0.043 C 
HETATM   11  N3  UNL     1      23.767   6.806  48.869  1.00  0.00    -0.280 NA
HETATM   12  C12 UNL     1      24.116   5.834  49.755  1.00  0.00     0.203 A 
HETATM   13  C13 UNL     1      23.070   5.508  50.862  1.00  0.00     0.268 A 
HETATM   14  N4  UNL     1      23.391   4.370  51.630  1.00  0.00     0.066 N 
HETATM   15  C14 UNL     1      24.392   4.442  50.841  1.00  0.00     0.290 A 
HETATM   16  C15 UNL     1      23.471   3.919  51.935  1.00  0.00     0.277 A 
HETATM   17  N5  UNL     1      22.172   4.417  52.436  1.00  0.00    -0.080 NA
HETATM   18  C16 UNL     1      22.006   5.571  51.574  1.00  0.00     0.141 A 
HETATM   19  N6  UNL     1      23.205   5.526  50.747  1.00  0.00     0.000 N 
HETATM   20  C17 UNL     1      24.083   2.624  52.497  1.00  0.00     0.119 C 
ENDROOT
BRANCH   1  21
HETATM   21  N1  UNL     1      25.705   0.962  52.412  1.00  0.00    -0.331 N 
HETATM   22  C2  UNL     1      26.418   1.279  53.628  1.00  0.00     0.217 C 
HETATM   23  C1  UNL     1      26.898   0.133  54.513  1.00  0.00     0.117 C 
HETATM   24  O1  UNL     1      26.735   2.417  54.145  1.00  0.00    -0.274 OA
HETATM   25  H4  UNL     1      25.610  -0.055  52.244  1.00  0.00     0.168 HD
ENDBRANCH   1  21
TORSDOF 2
ENDMDL
MODEL 7
REMARK VINA RESULT:      -8.2      2.324      5.338
REMARK  2 active torsions:
REMARK  status: ('A' for Active; 'I' for Inactive)
REMARK       I    between atoms: C2_2  and  N1_4 
REMARK    1  A    between atoms: N1_4  and  C3_5 
REMARK    2  A    between atoms: N5_21  and  C16_22 
ROOT
HETATM    1  C3  UNL     1      22.490   2.526  50.481  1.00  0.00     0.012 C 
HETATM    2  C4  UNL     1      23.581   3.265  50.082  1.00  0.00     0.004 C 
HETATM    3  C5  UNL     1      24.943   3.017  50.633  1.00  0.00     0.024 C 
HETATM    4  C6  UNL     1      26.278   3.206  50.789  1.00  0.00     0.018 C 
HETATM    5  C7  UNL     1      27.032   2.355  51.733  1.00  0.00     0.125 C 
HETATM    6  N2  UNL     1      26.286   1.445  52.350  1.00  0.00    -0.381 N 
HETATM    7  C8  UNL     1      26.382   0.047  51.978  1.00  0.00     0.122 C 
HETATM    8  C9  UNL     1      26.173  -1.149  52.899  1.00  0.00     0.054 C 
HETATM    9  C10 UNL     1      25.532  -0.614  54.116  1.00  0.00     0.075 C 
HETATM   10  C11 UNL     1      25.147  -1.030  55.329  1.00  0.00     0.043 C 
HETATM   11  N3  UNL     1      26.422   0.694  54.080  1.00  0.00    -0.280 NA
HETATM   12  C12 UNL     1      25.442   0.925  53.165  1.00  0.00     0.203 A 
HETATM   13  C13 UNL     1      24.099   0.172  53.393  1.00  0.00     0.268 A 
HETATM   14  N4  UNL     1      23.058   0.590  52.538  1.00  0.00     0.066 N 
HETATM   15  C14 UNL     1      24.032   1.311  52.137  1.00  0.00     0.290 A 
HETATM   16  C15 UNL     1      22.623   0.743  52.238  1.00  0.00     0.277 A 
HETATM   17  N5  UNL     1      22.050  -0.287  53.131  1.00  0.00    -0.080 NA
HETATM   18  C16 UNL     1      23.229  -0.616  53.910  1.00  0.00     0.141 A 
HETATM   19  N6  UNL     1      24.240   0.268  53.346  1.00  0.00     0.000 N 
HETATM   20  C17 UNL     1      21.733   1.485  51.226  1.00  0.00     0.119 C 
ENDROOT
BRANCH   1  21
HETATM   21  N1  UNL     1      21.446   3.177  49.660  1.00  0.00    -0.331 N 
HETATM   22  C2  UNL     1      21.350   2.386  48.455  1.00  0.00     0.217 C 
HETATM   23  C1  UNL     1      20.323   2.782  47.400  1.00  0.00     0.117 C 
HETATM   24  O1  UNL     1      22.001   1.335  48.085  1.00  0.00    -0.274 OA
HETATM   25  H4  UNL     1      20.797   3.984  49.675  1.00  0.00     0.168 HD
ENDBRANCH   1  21
TORSDOF 2
ENDMDL
MODEL 8
REMARK VINA RESULT:      -8.1      2.379      5.965
REMARK  2 active torsions:
REMARK  status: ('A' for Active; 'I' for Inactive)
REMARK       I    between atoms: C2_2  and  N1_4 
REMARK    1  A    between atoms: N1_4  and  C3_5 
REMARK    2  A    between atoms: N5_21  and  C16_22 
ROOT
HETATM    1  C3  UNL     1      23.462   2.947  50.914  1.00  0.00     0.012 C 
HETATM    2  C4  UNL     1      22.387   2.139  51.212  1.00  0.00     0.004 C 
HETATM    3  C5  UNL     1      22.535   0.903  52.031  1.00  0.00     0.024 C 
HETATM    4  C6  UNL     1      22.134  -0.226  52.667  1.00  0.00     0.018 C 
HETATM    5  C7  UNL     1      23.124  -1.049  53.393  1.00  0.00     0.125 C 
HETATM    6  N2  UNL     1      24.360  -0.564  53.350  1.00  0.00    -0.381 N 
HETATM    7  C8  UNL     1      24.941   0.061  54.522  1.00  0.00     0.122 C 
HETATM    8  C9  UNL     1      26.417   0.071  54.902  1.00  0.00     0.054 C 
HETATM    9  C10 UNL     1      27.148  -0.368  53.698  1.00  0.00     0.075 C 
HETATM   10  C11 UNL     1      28.396  -0.669  53.318  1.00  0.00     0.043 C 
HETATM   11  N3  UNL     1      26.037  -1.438  53.344  1.00  0.00    -0.280 NA
HETATM   12  C12 UNL     1      25.523  -0.258  52.902  1.00  0.00     0.203 A 
HETATM   13  C13 UNL     1      26.559   0.840  52.519  1.00  0.00     0.268 A 
HETATM   14  N4  UNL     1      25.989   1.965  51.889  1.00  0.00     0.066 N 
HETATM   15  C14 UNL     1      24.959   1.250  52.127  1.00  0.00     0.290 A 
HETATM   16  C15 UNL     1      25.807   2.409  51.620  1.00  0.00     0.277 A 
HETATM   17  N5  UNL     1      27.265   2.644  51.669  1.00  0.00    -0.080 NA
HETATM   18  C16 UNL     1      27.683   1.433  52.350  1.00  0.00     0.141 A 
HETATM   19  N6  UNL     1      26.422   0.732  52.556  1.00  0.00     0.000 N 
HETATM   20  C17 UNL     1      24.876   3.408  50.910  1.00  0.00     0.119 C 
ENDROOT
BRANCH   1  21
HETATM   21  N1  UNL     1      22.771   3.976  50.106  1.00  0.00    -0.331 N 
HETATM   22  C2  UNL     1      22.726   3.448  48.762  1.00  0.00     0.217 C 
HETATM   23  C1  UNL     1      22.037   4.269  47.677  1.00  0.00     0.117 C 
HETATM   24  O1  UNL     1      23.174   2.340  48.278  1.00  0.00    -0.274 OA
HETATM   25  H4  UNL     1      22.335   4.911  50.195  1.00  0.00     0.168 HD
ENDBRANCH   1  21
TORSDOF 2
ENDMDL
MODEL 9
REMARK VINA RESULT:      -7.8      2.730      5.730
REMARK  2 active torsions:
REMARK  status: ('A' for Active; 'I' for Inactive)
REMARK       I    between atoms: C2_2  and  N1_4 
REMARK    1  A    between atoms: N1_4  and  C3_5 
REMARK    2  A    between atoms: N5_21  and  C16_22 
ROOT
HETATM    1  C3  UNL     1      20.065   1.592  52.138  1.00  0.00     0.012 C 
HETATM    2  C4  UNL     1      20.126   2.960  51.994  1.00  0.00     0.004 C 
HETATM    3  C5  UNL     1      21.407   3.709  52.127  1.00  0.00     0.024 C 
HETATM    4  C6  UNL     1      22.220   4.796  52.145  1.00  0.00     0.018 C 
HETATM    5  C7  UNL     1      23.664   4.626  52.409  1.00  0.00     0.125 C 
HETATM    6  N2  UNL     1      24.030   3.364  52.600  1.00  0.00    -0.381 N 
HETATM    7  C8  UNL     1      24.765   2.653  51.572  1.00  0.00     0.122 C 
HETATM    8  C9  UNL     1      25.792   1.549  51.796  1.00  0.00     0.054 C 
HETATM    9  C10 UNL     1      25.631   1.126  53.201  1.00  0.00     0.075 C 
HETATM   10  C11 UNL     1      26.209   0.308  54.089  1.00  0.00     0.043 C 
HETATM   11  N3  UNL     1      25.389   2.615  53.681  1.00  0.00    -0.280 NA
HETATM   12  C12 UNL     1      24.190   2.224  53.169  1.00  0.00     0.203 A 
HETATM   13  C13 UNL     1      23.897   0.695  53.200  1.00  0.00     0.268 A 
HETATM   14  N4  UNL     1      22.575   0.362  52.841  1.00  0.00     0.066 N 
HETATM   15  C14 UNL     1      22.570   1.631  52.705  1.00  0.00     0.290 A 
HETATM   16  C15 UNL     1      22.062   0.196  52.729  1.00  0.00     0.277 A 
HETATM   17  N5  UNL     1      22.742  -1.073  53.068  1.00  0.00    -0.080 NA
HETATM   18  C16 UNL     1      24.063  -0.563  53.385  1.00  0.00     0.141 A 
HETATM   19  N6  UNL     1      23.907   0.872  53.185  1.00  0.00     0.000 N 
HETATM   20  C17 UNL     1      20.565   0.211  52.374  1.00  0.00     0.119 C 
ENDROOT
BRANCH   1  21
HETATM   21  N1  UNL     1      18.616   1.392  51.924  1.00  0.00    -0.331 N 
HETATM   22  C2  UNL     1      18.463   1.131  50.512  1.00  0.00     0.217 C 
HETATM   23  C1  UNL     1      17.068   0.846  49.967  1.00  0.00     0.117 C 
HETATM   24  O1  UNL     1      19.340   1.077  49.567  1.00  0.00    -0.274 OA
HETATM   25  H4  UNL     1      17.719   1.385  52.442  1.00  0.00     0.168 HD
ENDBRANCH   1  21
TORSDOF 2
ENDMDL
