MODEL 1
REMARK VINA RESULT:      -8.8      0.000      0.000
REMARK  6 active torsions:
REMARK  status: ('A' for Active; 'I' for Inactive)
REMARK    1  A    between atoms: O1_2  and  C2_3 
REMARK    2  A    between atoms: C6_9  and  N3_10 
REMARK    3  A    between atoms: N3_10  and  C7_11 
REMARK    4  A    between atoms: C15_21  and  O2_22 
REMARK    5  A    between atoms: O2_22  and  C16_23 
REMARK    6  A    between atoms: C16_23  and  N4_24 
ROOT
HETATM    1  C2  UNL     1      20.738   2.490  52.379  1.00  0.00     0.103 A 
HETATM    2  C3  UNL     1      20.547   1.561  53.378  1.00  0.00     0.072 A 
HETATM    3  C4  UNL     1      21.556   0.681  53.660  1.00  0.00     0.075 A 
HETATM    4  N1  UNL     1      21.325  -0.214  54.648  1.00  0.00    -0.241 NA
HETATM    5  C5  UNL     1      22.275  -1.119  54.989  1.00  0.00     0.236 A 
HETATM    6  N2  UNL     1      23.443  -1.125  54.343  1.00  0.00    -0.224 NA
HETATM    7  C6  UNL     1      23.759  -0.281  53.356  1.00  0.00     0.142 A 
HETATM    8  C13 UNL     1      22.780   0.631  53.026  1.00  0.00     0.042 A 
HETATM    9  C14 UNL     1      22.909   1.583  52.040  1.00  0.00     0.057 A 
HETATM   10  C15 UNL     1      21.938   2.502  51.700  1.00  0.00     0.105 A 
ENDROOT
BRANCH   7  11
HETATM   11  N3  UNL     1      24.981  -0.266  52.662  1.00  0.00    -0.340 N 
HETATM   12  H6  UNL     1      25.071  -0.668  51.724  1.00  0.00     0.167 HD
BRANCH  11  13
HETATM   13  C7  UNL     1      26.207   0.259  53.083  1.00  0.00     0.035 A 
HETATM   14  C8  UNL     1      26.392   1.578  53.418  1.00  0.00     0.032 A 
HETATM   15  C9  UNL     1      27.590   2.113  53.845  1.00  0.00     0.046 A 
HETATM   16  C10 UNL     1      28.711   1.328  53.963  1.00  0.00     0.138 A 
HETATM   17  F1  UNL     1      29.903   1.767  54.366  1.00  0.00    -0.204 F 
HETATM   18  C11 UNL     1      28.583  -0.001  53.640  1.00  0.00     0.074 A 
HETATM   19 CL1  UNL     1      29.959  -1.059  53.765  1.00  0.00    -0.081 Cl
HETATM   20  C12 UNL     1      27.372  -0.485  53.221  1.00  0.00     0.056 A 
ENDBRANCH  11  13
ENDBRANCH   7  11
BRANCH  10  21
HETATM   21  O2  UNL     1      22.102   3.450  50.699  1.00  0.00    -0.319 OA
BRANCH  21  22
HETATM   22  C16 UNL     1      23.186   4.319  50.788  1.00  0.00     0.447 C 
BRANCH  22  23
HETATM   23  N4  UNL     1      24.230   4.050  49.831  1.00  0.00     0.111 N 
HETATM   24  C17 UNL     1      24.492   5.154  48.949  1.00  0.00     0.275 C 
HETATM   25  C18 UNL     1      25.865   5.739  49.149  1.00  0.00     0.030 C 
HETATM   26  C19 UNL     1      26.961   4.727  48.914  1.00  0.00     0.003 C 
HETATM   27  C20 UNL     1      26.608   3.452  49.641  1.00  0.00     0.030 C 
HETATM   28  C21 UNL     1      25.415   3.605  50.538  1.00  0.00     0.275 C 
ENDBRANCH  22  23
ENDBRANCH  21  22
ENDBRANCH  10  21
BRANCH   1  29
HETATM   29  O1  UNL     1      19.754   3.408  52.046  1.00  0.00    -0.353 OA
HETATM   30  C1  UNL     1      18.479   2.944  51.581  1.00  0.00     0.210 C 
ENDBRANCH   1  29
TORSDOF 6
ENDMDL
MODEL 2
REMARK VINA RESULT:      -8.7      3.265      5.692
REMARK  6 active torsions:
REMARK  status: ('A' for Active; 'I' for Inactive)
REMARK    1  A    between atoms: O1_2  and  C2_3 
REMARK    2  A    between atoms: C6_9  and  N3_10 
REMARK    3  A    between atoms: N3_10  and  C7_11 
REMARK    4  A    between atoms: C15_21  and  O2_22 
REMARK    5  A    between atoms: O2_22  and  C16_23 
REMARK    6  A    between atoms: C16_23  and  N4_24 
ROOT
HETATM    1  C2  UNL     1      22.496  -0.072  52.998  1.00  0.00     0.103 A 
HETATM    2  C3  UNL     1      21.437   0.538  52.363  1.00  0.00     0.072 A 
HETATM    3  C4  UNL     1      21.595   1.815  51.899  1.00  0.00     0.075 A 
HETATM    4  N1  UNL     1      20.529   2.374  51.282  1.00  0.00    -0.241 NA
HETATM    5  C5  UNL     1      20.605   3.637  50.793  1.00  0.00     0.236 A 
HETATM    6  N2  UNL     1      21.739   4.329  50.924  1.00  0.00    -0.224 NA
HETATM    7  C6  UNL     1      22.840   3.859  51.518  1.00  0.00     0.142 A 
HETATM    8  C13 UNL     1      22.742   2.574  52.007  1.00  0.00     0.042 A 
HETATM    9  C14 UNL     1      23.762   1.910  52.651  1.00  0.00     0.057 A 
HETATM   10  C15 UNL     1      23.677   0.625  53.144  1.00  0.00     0.105 A 
ENDROOT
BRANCH   7  11
HETATM   11  N3  UNL     1      24.046   4.566  51.669  1.00  0.00    -0.340 N 
HETATM   12  H6  UNL     1      24.300   5.011  52.556  1.00  0.00     0.167 HD
BRANCH  11  13
HETATM   13  C7  UNL     1      25.046   4.778  50.716  1.00  0.00     0.035 A 
HETATM   14  C8  UNL     1      25.898   3.794  50.278  1.00  0.00     0.032 A 
HETATM   15  C9  UNL     1      26.885   3.981  49.333  1.00  0.00     0.046 A 
HETATM   16  C10 UNL     1      27.081   5.210  48.751  1.00  0.00     0.138 A 
HETATM   17  F1  UNL     1      28.011   5.473  47.832  1.00  0.00    -0.204 F 
HETATM   18  C11 UNL     1      26.256   6.232  49.152  1.00  0.00     0.074 A 
HETATM   19 CL1  UNL     1      26.444   7.819  48.460  1.00  0.00    -0.081 Cl
HETATM   20  C12 UNL     1      25.291   5.996  50.094  1.00  0.00     0.056 A 
ENDBRANCH  11  13
ENDBRANCH   7  11
BRANCH  10  21
HETATM   21  O2  UNL     1      24.727  -0.016  53.789  1.00  0.00    -0.319 OA
BRANCH  21  22
HETATM   22  C16 UNL     1      25.620  -0.754  53.016  1.00  0.00     0.447 C 
BRANCH  22  23
HETATM   23  N4  UNL     1      26.978  -0.272  53.073  1.00  0.00     0.111 N 
HETATM   24  C17 UNL     1      27.222   0.845  52.203  1.00  0.00     0.275 C 
HETATM   25  C18 UNL     1      27.542   2.108  52.958  1.00  0.00     0.030 C 
HETATM   26  C19 UNL     1      28.766   1.960  53.830  1.00  0.00     0.003 C 
HETATM   27  C20 UNL     1      28.662   0.666  54.599  1.00  0.00     0.030 C 
HETATM   28  C21 UNL     1      27.322   0.009  54.453  1.00  0.00     0.275 C 
ENDBRANCH  22  23
ENDBRANCH  21  22
ENDBRANCH  10  21
BRANCH   1  29
HETATM   29  O1  UNL     1      22.399  -1.365  53.491  1.00  0.00    -0.353 OA
HETATM   30  C1  UNL     1      21.511  -1.643  54.583  1.00  0.00     0.210 C 
ENDBRANCH   1  29
TORSDOF 6
ENDMDL
MODEL 3
REMARK VINA RESULT:      -8.6      1.878      2.528
REMARK  6 active torsions:
REMARK  status: ('A' for Active; 'I' for Inactive)
REMARK    1  A    between atoms: O1_2  and  C2_3 
REMARK    2  A    between atoms: C6_9  and  N3_10 
REMARK    3  A    between atoms: N3_10  and  C7_11 
REMARK    4  A    between atoms: C15_21  and  O2_22 
REMARK    5  A    between atoms: O2_22  and  C16_23 
REMARK    6  A    between atoms: C16_23  and  N4_24 
ROOT
HETATM    1  C2  UNL     1      20.079   0.025  52.602  1.00  0.00     0.103 A 
HETATM    2  C3  UNL     1      20.394  -0.638  53.768  1.00  0.00     0.072 A 
HETATM    3  C4  UNL     1      21.710  -0.757  54.122  1.00  0.00     0.075 A 
HETATM    4  N1  UNL     1      21.973  -1.415  55.275  1.00  0.00    -0.241 NA
HETATM    5  C5  UNL     1      23.252  -1.574  55.697  1.00  0.00     0.236 A 
HETATM    6  N2  UNL     1      24.255  -1.077  54.968  1.00  0.00    -0.224 NA
HETATM    7  C6  UNL     1      24.090  -0.414  53.819  1.00  0.00     0.142 A 
HETATM    8  C13 UNL     1      22.783  -0.263  53.409  1.00  0.00     0.042 A 
HETATM    9  C14 UNL     1      22.402   0.387  52.257  1.00  0.00     0.057 A 
HETATM   10  C15 UNL     1      21.099   0.546  51.835  1.00  0.00     0.105 A 
ENDROOT
BRANCH   7  11
HETATM   11  N3  UNL     1      25.127   0.119  53.035  1.00  0.00    -0.340 N 
HETATM   12  H6  UNL     1      24.934   0.699  52.213  1.00  0.00     0.167 HD
BRANCH  11  13
HETATM   13  C7  UNL     1      26.506  -0.029  53.211  1.00  0.00     0.035 A 
HETATM   14  C8  UNL     1      27.189  -1.182  52.914  1.00  0.00     0.032 A 
HETATM   15  C9  UNL     1      28.550  -1.345  53.072  1.00  0.00     0.046 A 
HETATM   16  C10 UNL     1      29.332  -0.323  53.556  1.00  0.00     0.138 A 
HETATM   17  F1  UNL     1      30.649  -0.400  53.738  1.00  0.00    -0.204 F 
HETATM   18  C11 UNL     1      28.699   0.854  53.870  1.00  0.00     0.074 A 
HETATM   19 CL1  UNL     1      29.622   2.195  54.487  1.00  0.00    -0.081 Cl
HETATM   20  C12 UNL     1      27.345   0.967  53.695  1.00  0.00     0.056 A 
ENDBRANCH  11  13
ENDBRANCH   7  11
BRANCH  10  21
HETATM   21  O2  UNL     1      20.750   1.209  50.666  1.00  0.00    -0.319 OA
BRANCH  21  22
HETATM   22  C16 UNL     1      21.707   1.314  49.660  1.00  0.00     0.447 C 
BRANCH  22  23
HETATM   23  N4  UNL     1      22.126   2.667  49.391  1.00  0.00     0.111 N 
HETATM   24  C17 UNL     1      21.370   3.651  50.114  1.00  0.00     0.275 C 
HETATM   25  C18 UNL     1      22.205   4.395  51.122  1.00  0.00     0.030 C 
HETATM   26  C19 UNL     1      23.364   5.122  50.483  1.00  0.00     0.003 C 
HETATM   27  C20 UNL     1      24.056   4.184  49.525  1.00  0.00     0.030 C 
HETATM   28  C21 UNL     1      23.553   2.775  49.624  1.00  0.00     0.275 C 
ENDBRANCH  22  23
ENDBRANCH  21  22
ENDBRANCH  10  21
BRANCH   1  29
HETATM   29  O1  UNL     1      18.764   0.177  52.188  1.00  0.00    -0.353 OA
HETATM   30  C1  UNL     1      17.812  -0.862  52.454  1.00  0.00     0.210 C 
ENDBRANCH   1  29
TORSDOF 6
ENDMDL
MODEL 4
REMARK VINA RESULT:      -8.2      1.696      2.383
REMARK  6 active torsions:
REMARK  status: ('A' for Active; 'I' for Inactive)
REMARK    1  A    between atoms: O1_2  and  C2_3 
REMARK    2  A    between atoms: C6_9  and  N3_10 
REMARK    3  A    between atoms: N3_10  and  C7_11 
REMARK    4  A    between atoms: C15_21  and  O2_22 
REMARK    5  A    between atoms: O2_22  and  C16_23 
REMARK    6  A    between atoms: C16_23  and  N4_24 
ROOT
HETATM    1  C2  UNL     1      20.432   2.347  52.563  1.00  0.00     0.103 A 
HETATM    2  C3  UNL     1      20.434   1.345  53.509  1.00  0.00     0.072 A 
HETATM    3  C4  UNL     1      21.579   0.621  53.697  1.00  0.00     0.075 A 
HETATM    4  N1  UNL     1      21.536  -0.352  54.636  1.00  0.00    -0.241 NA
HETATM    5  C5  UNL     1      22.630  -1.114  54.884  1.00  0.00     0.236 A 
HETATM    6  N2  UNL     1      23.754  -0.900  54.195  1.00  0.00    -0.224 NA
HETATM    7  C6  UNL     1      23.888   0.037  53.251  1.00  0.00     0.142 A 
HETATM    8  C13 UNL     1      22.765   0.800  53.015  1.00  0.00     0.042 A 
HETATM    9  C14 UNL     1      22.698   1.814  52.087  1.00  0.00     0.057 A 
HETATM   10  C15 UNL     1      21.582   2.586  51.841  1.00  0.00     0.105 A 
ENDROOT
BRANCH   7  11
HETATM   11  N3  UNL     1      25.059   0.282  52.513  1.00  0.00    -0.340 N 
HETATM   12  H6  UNL     1      25.028   0.712  51.584  1.00  0.00     0.167 HD
BRANCH  11  13
HETATM   13  C7  UNL     1      26.381   0.010  52.877  1.00  0.00     0.035 A 
HETATM   14  C8  UNL     1      26.982  -1.211  52.692  1.00  0.00     0.032 A 
HETATM   15  C9  UNL     1      28.287  -1.498  53.035  1.00  0.00     0.046 A 
HETATM   16  C10 UNL     1      29.094  -0.541  53.604  1.00  0.00     0.138 A 
HETATM   17  F1  UNL     1      30.362  -0.738  53.963  1.00  0.00    -0.204 F 
HETATM   18  C11 UNL     1      28.543   0.699  53.812  1.00  0.00     0.074 A 
HETATM   19 CL1  UNL     1      29.502   1.964  54.528  1.00  0.00    -0.081 Cl
HETATM   20  C12 UNL     1      27.242   0.935  53.454  1.00  0.00     0.056 A 
ENDBRANCH  11  13
ENDBRANCH   7  11
BRANCH  10  21
HETATM   21  O2  UNL     1      21.549   3.602  50.895  1.00  0.00    -0.319 OA
BRANCH  21  22
HETATM   22  C16 UNL     1      22.752   4.207  50.540  1.00  0.00     0.447 C 
BRANCH  22  23
HETATM   23  N4  UNL     1      22.996   4.231  49.119  1.00  0.00     0.111 N 
HETATM   24  C17 UNL     1      23.272   2.933  48.567  1.00  0.00     0.275 C 
HETATM   25  C18 UNL     1      22.203   2.472  47.612  1.00  0.00     0.030 C 
HETATM   26  C19 UNL     1      22.033   3.414  46.443  1.00  0.00     0.003 C 
HETATM   27  C20 UNL     1      21.973   4.829  46.965  1.00  0.00     0.030 C 
HETATM   28  C21 UNL     1      21.888   4.895  48.460  1.00  0.00     0.275 C 
ENDBRANCH  22  23
ENDBRANCH  21  22
ENDBRANCH  10  21
BRANCH   1  29
HETATM   29  O1  UNL     1      19.303   3.116  52.325  1.00  0.00    -0.353 OA
HETATM   30  C1  UNL     1      18.224   2.572  51.552  1.00  0.00     0.210 C 
ENDBRANCH   1  29
TORSDOF 6
ENDMDL
MODEL 5
REMARK VINA RESULT:      -8.0      3.549      6.983
REMARK  6 active torsions:
REMARK  status: ('A' for Active; 'I' for Inactive)
REMARK    1  A    between atoms: O1_2  and  C2_3 
REMARK    2  A    between atoms: C6_9  and  N3_10 
REMARK    3  A    between atoms: N3_10  and  C7_11 
REMARK    4  A    between atoms: C15_21  and  O2_22 
REMARK    5  A    between atoms: O2_22  and  C16_23 
REMARK    6  A    between atoms: C16_23  and  N4_24 
ROOT
HETATM    1  C2  UNL     1      25.603   3.668  49.984  1.00  0.00     0.103 A 
HETATM    2  C3  UNL     1      24.659   4.293  49.199  1.00  0.00     0.072 A 
HETATM    3  C4  UNL     1      23.359   4.311  49.623  1.00  0.00     0.075 A 
HETATM    4  N1  UNL     1      22.466   4.935  48.821  1.00  0.00    -0.241 NA
HETATM    5  C5  UNL     1      21.157   4.998  49.170  1.00  0.00     0.236 A 
HETATM    6  N2  UNL     1      20.751   4.440  50.313  1.00  0.00    -0.224 NA
HETATM    7  C6  UNL     1      21.560   3.804  51.166  1.00  0.00     0.142 A 
HETATM    8  C13 UNL     1      22.886   3.752  50.792  1.00  0.00     0.042 A 
HETATM    9  C14 UNL     1      23.876   3.144  51.530  1.00  0.00     0.057 A 
HETATM   10  C15 UNL     1      25.206   3.085  51.169  1.00  0.00     0.105 A 
ENDROOT
BRANCH   7  11
HETATM   11  N3  UNL     1      21.159   3.209  52.374  1.00  0.00    -0.340 N 
HETATM   12  H6  UNL     1      21.317   3.667  53.277  1.00  0.00     0.167 HD
BRANCH  11  13
HETATM   13  C7  UNL     1      20.519   1.980  52.560  1.00  0.00     0.035 A 
HETATM   14  C8  UNL     1      19.322   1.652  51.972  1.00  0.00     0.032 A 
HETATM   15  C9  UNL     1      18.679   0.442  52.135  1.00  0.00     0.046 A 
HETATM   16  C10 UNL     1      19.219  -0.543  52.927  1.00  0.00     0.138 A 
HETATM   17  F1  UNL     1      18.662  -1.736  53.136  1.00  0.00    -0.204 F 
HETATM   18  C11 UNL     1      20.416  -0.267  53.540  1.00  0.00     0.074 A 
HETATM   19 CL1  UNL     1      21.164  -1.466  54.559  1.00  0.00    -0.081 Cl
HETATM   20  C12 UNL     1      21.016   0.949  53.347  1.00  0.00     0.056 A 
ENDBRANCH  11  13
ENDBRANCH   7  11
BRANCH  10  21
HETATM   21  O2  UNL     1      26.180   2.464  51.939  1.00  0.00    -0.319 OA
BRANCH  21  22
HETATM   22  C16 UNL     1      25.832   2.037  53.218  1.00  0.00     0.447 C 
BRANCH  22  23
HETATM   23  N4  UNL     1      26.871   1.295  53.888  1.00  0.00     0.111 N 
HETATM   24  C17 UNL     1      26.668  -0.128  53.851  1.00  0.00     0.275 C 
HETATM   25  C18 UNL     1      27.722  -0.841  53.046  1.00  0.00     0.030 C 
HETATM   26  C19 UNL     1      29.112  -0.615  53.592  1.00  0.00     0.003 C 
HETATM   27  C20 UNL     1      29.290   0.857  53.871  1.00  0.00     0.030 C 
HETATM   28  C21 UNL     1      28.157   1.690  53.350  1.00  0.00     0.275 C 
ENDBRANCH  22  23
ENDBRANCH  21  22
ENDBRANCH  10  21
BRANCH   1  29
HETATM   29  O1  UNL     1      26.937   3.615  49.609  1.00  0.00    -0.353 OA
HETATM   30  C1  UNL     1      27.487   4.658  48.793  1.00  0.00     0.210 C 
ENDBRANCH   1  29
TORSDOF 6
ENDMDL
MODEL 6
REMARK VINA RESULT:      -7.8      4.471      7.344
REMARK  6 active torsions:
REMARK  status: ('A' for Active; 'I' for Inactive)
REMARK    1  A    between atoms: O1_2  and  C2_3 
REMARK    2  A    between atoms: C6_9  and  N3_10 
REMARK    3  A    between atoms: N3_10  and  C7_11 
REMARK    4  A    between atoms: C15_21  and  O2_22 
REMARK    5  A    between atoms: O2_22  and  C16_23 
REMARK    6  A    between atoms: C16_23  and  N4_24 
ROOT
HETATM    1  C2  UNL     1      27.970   6.832  47.809  1.00  0.00     0.103 A 
HETATM    2  C3  UNL     1      26.646   7.054  48.123  1.00  0.00     0.072 A 
HETATM    3  C4  UNL     1      25.956   6.079  48.790  1.00  0.00     0.075 A 
HETATM    4  N1  UNL     1      24.660   6.340  49.077  1.00  0.00    -0.241 NA
HETATM    5  C5  UNL     1      23.907   5.426  49.737  1.00  0.00     0.236 A 
HETATM    6  N2  UNL     1      24.451   4.263  50.104  1.00  0.00    -0.224 NA
HETATM    7  C6  UNL     1      25.721   3.919  49.863  1.00  0.00     0.142 A 
HETATM    8  C13 UNL     1      26.468   4.863  49.191  1.00  0.00     0.042 A 
HETATM    9  C14 UNL     1      27.792   4.703  48.849  1.00  0.00     0.057 A 
HETATM   10  C15 UNL     1      28.552   5.638  48.179  1.00  0.00     0.105 A 
ENDROOT
BRANCH   7  11
HETATM   11  N3  UNL     1      26.317   2.703  50.238  1.00  0.00    -0.340 N 
HETATM   12  H6  UNL     1      26.832   2.128  49.565  1.00  0.00     0.167 HD
BRANCH  11  13
HETATM   13  C7  UNL     1      26.322   2.097  51.497  1.00  0.00     0.035 A 
HETATM   14  C8  UNL     1      27.315   2.288  52.427  1.00  0.00     0.032 A 
HETATM   15  C9  UNL     1      27.334   1.707  53.678  1.00  0.00     0.046 A 
HETATM   16  C10 UNL     1      26.322   0.870  54.083  1.00  0.00     0.138 A 
HETATM   17  F1  UNL     1      26.267   0.270  55.271  1.00  0.00    -0.204 F 
HETATM   18  C11 UNL     1      25.303   0.643  53.191  1.00  0.00     0.074 A 
HETATM   19 CL1  UNL     1      23.985  -0.406  53.632  1.00  0.00    -0.081 Cl
HETATM   20  C12 UNL     1      25.329   1.244  51.961  1.00  0.00     0.056 A 
ENDBRANCH  11  13
ENDBRANCH   7  11
BRANCH  10  21
HETATM   21  O2  UNL     1      29.886   5.444  47.849  1.00  0.00    -0.319 OA
BRANCH  21  22
HETATM   22  C16 UNL     1      30.856   5.916  48.730  1.00  0.00     0.447 C 
BRANCH  22  23
HETATM   23  N4  UNL     1      32.088   5.169  48.697  1.00  0.00     0.111 N 
HETATM   24  C17 UNL     1      32.188   4.284  47.569  1.00  0.00     0.275 C 
HETATM   25  C18 UNL     1      33.284   4.682  46.617  1.00  0.00     0.030 C 
HETATM   26  C19 UNL     1      34.642   4.695  47.279  1.00  0.00     0.003 C 
HETATM   27  C20 UNL     1      34.532   5.422  48.597  1.00  0.00     0.030 C 
HETATM   28  C21 UNL     1      33.203   6.091  48.784  1.00  0.00     0.275 C 
ENDBRANCH  22  23
ENDBRANCH  21  22
ENDBRANCH  10  21
BRANCH   1  29
HETATM   29  O1  UNL     1      28.723   7.781  47.134  1.00  0.00    -0.353 OA
HETATM   30  C1  UNL     1      28.187   8.409  45.961  1.00  0.00     0.210 C 
ENDBRANCH   1  29
TORSDOF 6
ENDMDL
MODEL 7
REMARK VINA RESULT:      -7.8      3.331      5.861
REMARK  6 active torsions:
REMARK  status: ('A' for Active; 'I' for Inactive)
REMARK    1  A    between atoms: O1_2  and  C2_3 
REMARK    2  A    between atoms: C6_9  and  N3_10 
REMARK    3  A    between atoms: N3_10  and  C7_11 
REMARK    4  A    between atoms: C15_21  and  O2_22 
REMARK    5  A    between atoms: O2_22  and  C16_23 
REMARK    6  A    between atoms: C16_23  and  N4_24 
ROOT
HETATM    1  C2  UNL     1      21.935   0.370  53.126  1.00  0.00     0.103 A 
HETATM    2  C3  UNL     1      20.806   0.453  52.340  1.00  0.00     0.072 A 
HETATM    3  C4  UNL     1      20.903   1.047  51.112  1.00  0.00     0.075 A 
HETATM    4  N1  UNL     1      19.770   1.107  50.374  1.00  0.00    -0.241 NA
HETATM    5  C5  UNL     1      19.782   1.679  49.145  1.00  0.00     0.236 A 
HETATM    6  N2  UNL     1      20.920   2.185  48.663  1.00  0.00    -0.224 NA
HETATM    7  C6  UNL     1      22.085   2.171  49.320  1.00  0.00     0.142 A 
HETATM    8  C13 UNL     1      22.050   1.585  50.567  1.00  0.00     0.042 A 
HETATM    9  C14 UNL     1      23.140   1.470  51.399  1.00  0.00     0.057 A 
HETATM   10  C15 UNL     1      23.121   0.886  52.648  1.00  0.00     0.105 A 
ENDROOT
BRANCH   7  11
HETATM   11  N3  UNL     1      23.295   2.696  48.835  1.00  0.00    -0.340 N 
HETATM   12  H6  UNL     1      23.810   2.243  48.074  1.00  0.00     0.167 HD
BRANCH  11  13
HETATM   13  C7  UNL     1      23.972   3.842  49.263  1.00  0.00     0.035 A 
HETATM   14  C8  UNL     1      25.339   3.967  49.242  1.00  0.00     0.032 A 
HETATM   15  C9  UNL     1      26.025   5.092  49.651  1.00  0.00     0.046 A 
HETATM   16  C10 UNL     1      25.355   6.195  50.122  1.00  0.00     0.138 A 
HETATM   17  F1  UNL     1      25.943   7.318  50.536  1.00  0.00    -0.204 F 
HETATM   18  C11 UNL     1      23.984   6.124  50.165  1.00  0.00     0.074 A 
HETATM   19 CL1  UNL     1      23.065   7.483  50.748  1.00  0.00    -0.081 Cl
HETATM   20  C12 UNL     1      23.349   4.985  49.747  1.00  0.00     0.056 A 
ENDBRANCH  11  13
ENDBRANCH   7  11
BRANCH  10  21
HETATM   21  O2  UNL     1      24.241   0.786  53.462  1.00  0.00    -0.319 OA
BRANCH  21  22
HETATM   22  C16 UNL     1      25.226   1.764  53.346  1.00  0.00     0.447 C 
BRANCH  22  23
HETATM   23  N4  UNL     1      26.447   1.448  54.045  1.00  0.00     0.111 N 
HETATM   24  C17 UNL     1      26.649   0.037  54.229  1.00  0.00     0.275 C 
HETATM   25  C18 UNL     1      27.840  -0.481  53.467  1.00  0.00     0.030 C 
HETATM   26  C19 UNL     1      29.124   0.199  53.879  1.00  0.00     0.003 C 
HETATM   27  C20 UNL     1      28.891   1.689  53.928  1.00  0.00     0.030 C 
HETATM   28  C21 UNL     1      27.558   2.088  53.369  1.00  0.00     0.275 C 
ENDBRANCH  22  23
ENDBRANCH  21  22
ENDBRANCH  10  21
BRANCH   1  29
HETATM   29  O1  UNL     1      21.902  -0.220  54.381  1.00  0.00    -0.353 OA
HETATM   30  C1  UNL     1      21.744  -1.641  54.493  1.00  0.00     0.210 C 
ENDBRANCH   1  29
TORSDOF 6
ENDMDL
MODEL 8
REMARK VINA RESULT:      -7.8      3.735      6.875
REMARK  6 active torsions:
REMARK  status: ('A' for Active; 'I' for Inactive)
REMARK    1  A    between atoms: O1_2  and  C2_3 
REMARK    2  A    between atoms: C6_9  and  N3_10 
REMARK    3  A    between atoms: N3_10  and  C7_11 
REMARK    4  A    between atoms: C15_21  and  O2_22 
REMARK    5  A    between atoms: O2_22  and  C16_23 
REMARK    6  A    between atoms: C16_23  and  N4_24 
ROOT
HETATM    1  C2  UNL     1      24.894   5.040  49.603  1.00  0.00     0.103 A 
HETATM    2  C3  UNL     1      23.950   5.360  48.652  1.00  0.00     0.072 A 
HETATM    3  C4  UNL     1      22.979   4.443  48.354  1.00  0.00     0.075 A 
HETATM    4  N1  UNL     1      22.073   4.800  47.415  1.00  0.00    -0.241 NA
HETATM    5  C5  UNL     1      21.078   3.947  47.064  1.00  0.00     0.236 A 
HETATM    6  N2  UNL     1      20.996   2.751  47.651  1.00  0.00    -0.224 NA
HETATM    7  C6  UNL     1      21.845   2.315  48.587  1.00  0.00     0.142 A 
HETATM    8  C13 UNL     1      22.847   3.196  48.929  1.00  0.00     0.042 A 
HETATM    9  C14 UNL     1      23.819   2.938  49.870  1.00  0.00     0.057 A 
HETATM   10  C15 UNL     1      24.827   3.810  50.222  1.00  0.00     0.105 A 
ENDROOT
BRANCH   7  11
HETATM   11  N3  UNL     1      21.779   1.062  49.220  1.00  0.00    -0.340 N 
HETATM   12  H6  UNL     1      22.351   0.271  48.907  1.00  0.00     0.167 HD
BRANCH  11  13
HETATM   13  C7  UNL     1      20.987   0.686  50.309  1.00  0.00     0.035 A 
HETATM   14  C8  UNL     1      19.614   0.703  50.290  1.00  0.00     0.032 A 
HETATM   15  C9  UNL     1      18.815   0.327  51.350  1.00  0.00     0.046 A 
HETATM   16  C10 UNL     1      19.367  -0.103  52.533  1.00  0.00     0.138 A 
HETATM   17  F1  UNL     1      18.666  -0.482  53.601  1.00  0.00    -0.204 F 
HETATM   18  C11 UNL     1      20.738  -0.140  52.607  1.00  0.00     0.074 A 
HETATM   19 CL1  UNL     1      21.511  -0.674  54.073  1.00  0.00    -0.081 Cl
HETATM   20  C12 UNL     1      21.488   0.243  51.527  1.00  0.00     0.056 A 
ENDBRANCH  11  13
ENDBRANCH   7  11
BRANCH  10  21
HETATM   21  O2  UNL     1      25.792   3.517  51.177  1.00  0.00    -0.319 OA
BRANCH  21  22
HETATM   22  C16 UNL     1      26.573   2.380  50.992  1.00  0.00     0.447 C 
BRANCH  22  23
HETATM   23  N4  UNL     1      26.679   1.547  52.165  1.00  0.00     0.111 N 
HETATM   24  C17 UNL     1      25.684   1.838  53.160  1.00  0.00     0.275 C 
HETATM   25  C18 UNL     1      24.721   0.698  53.364  1.00  0.00     0.030 C 
HETATM   26  C19 UNL     1      25.416  -0.570  53.802  1.00  0.00     0.003 C 
HETATM   27  C20 UNL     1      26.620  -0.792  52.920  1.00  0.00     0.030 C 
HETATM   28  C21 UNL     1      26.675   0.156  51.759  1.00  0.00     0.275 C 
ENDBRANCH  22  23
ENDBRANCH  21  22
ENDBRANCH  10  21
BRANCH   1  29
HETATM   29  O1  UNL     1      25.903   5.926  49.948  1.00  0.00    -0.353 OA
HETATM   30  C1  UNL     1      25.581   7.295  50.229  1.00  0.00     0.210 C 
ENDBRANCH   1  29
TORSDOF 6
ENDMDL
MODEL 9
REMARK VINA RESULT:      -7.7      4.079      7.187
REMARK  6 active torsions:
REMARK  status: ('A' for Active; 'I' for Inactive)
REMARK    1  A    between atoms: O1_2  and  C2_3 
REMARK    2  A    between atoms: C6_9  and  N3_10 
REMARK    3  A    between atoms: N3_10  and  C7_11 
REMARK    4  A    between atoms: C15_21  and  O2_22 
REMARK    5  A    between atoms: O2_22  and  C16_23 
REMARK    6  A    between atoms: C16_23  and  N4_24 
ROOT
HETATM    1  C2  UNL     1      25.794   4.103  49.546  1.00  0.00     0.103 A 
HETATM    2  C3  UNL     1      24.762   4.967  49.252  1.00  0.00     0.072 A 
HETATM    3  C4  UNL     1      23.573   4.820  49.911  1.00  0.00     0.075 A 
HETATM    4  N1  UNL     1      22.588   5.690  49.591  1.00  0.00    -0.241 NA
HETATM    5  C5  UNL     1      21.379   5.612  50.200  1.00  0.00     0.236 A 
HETATM    6  N2  UNL     1      21.163   4.669  51.121  1.00  0.00    -0.224 NA
HETATM    7  C6  UNL     1      22.075   3.768  51.500  1.00  0.00     0.142 A 
HETATM    8  C13 UNL     1      23.297   3.866  50.869  1.00  0.00     0.042 A 
HETATM    9  C14 UNL     1      24.366   3.035  51.117  1.00  0.00     0.057 A 
HETATM   10  C15 UNL     1      25.593   3.122  50.494  1.00  0.00     0.105 A 
ENDROOT
BRANCH   7  11
HETATM   11  N3  UNL     1      21.874   2.768  52.466  1.00  0.00    -0.340 N 
HETATM   12  H6  UNL     1      22.443   2.720  53.316  1.00  0.00     0.167 HD
BRANCH  11  13
HETATM   13  C7  UNL     1      20.935   1.732  52.453  1.00  0.00     0.035 A 
HETATM   14  C8  UNL     1      20.829   0.793  53.449  1.00  0.00     0.032 A 
HETATM   15  C9  UNL     1      19.904  -0.231  53.460  1.00  0.00     0.046 A 
HETATM   16  C10 UNL     1      19.001  -0.377  52.434  1.00  0.00     0.138 A 
HETATM   17  F1  UNL     1      18.079  -1.338  52.369  1.00  0.00    -0.204 F 
HETATM   18  C11 UNL     1      19.064   0.535  51.410  1.00  0.00     0.074 A 
HETATM   19 CL1  UNL     1      17.953   0.416  50.074  1.00  0.00    -0.081 Cl
HETATM   20  C12 UNL     1      20.000   1.534  51.445  1.00  0.00     0.056 A 
ENDBRANCH  11  13
ENDBRANCH   7  11
BRANCH  10  21
HETATM   21  O2  UNL     1      26.651   2.266  50.769  1.00  0.00    -0.319 OA
BRANCH  21  22
HETATM   22  C16 UNL     1      27.255   2.350  52.022  1.00  0.00     0.447 C 
BRANCH  22  23
HETATM   23  N4  UNL     1      27.050   1.186  52.847  1.00  0.00     0.111 N 
HETATM   24  C17 UNL     1      26.053   1.377  53.864  1.00  0.00     0.275 C 
HETATM   25  C18 UNL     1      24.840   0.510  53.655  1.00  0.00     0.030 C 
HETATM   26  C19 UNL     1      25.181  -0.962  53.652  1.00  0.00     0.003 C 
HETATM   27  C20 UNL     1      26.385  -1.180  52.769  1.00  0.00     0.030 C 
HETATM   28  C21 UNL     1      26.769   0.046  51.996  1.00  0.00     0.275 C 
ENDBRANCH  22  23
ENDBRANCH  21  22
ENDBRANCH  10  21
BRANCH   1  29
HETATM   29  O1  UNL     1      27.024   4.200  48.912  1.00  0.00    -0.353 OA
HETATM   30  C1  UNL     1      27.532   5.489  48.543  1.00  0.00     0.210 C 
ENDBRANCH   1  29
TORSDOF 6
ENDMDL
