MODEL 1
REMARK VINA RESULT:      -6.8      0.000      0.000
REMARK  4 active torsions:
REMARK  status: ('A' for Active; 'I' for Inactive)
REMARK    1  A    between atoms: O1_2  and  C2_3 
REMARK    2  A    between atoms: N2_8  and  C6_9 
REMARK    3  A    between atoms: C14_18  and  O2_19 
REMARK    4  A    between atoms: C14_18  and  C15_20 
ROOT
HETATM    1  C2  UNL     1      24.228   2.496  52.228  1.00  0.00     0.089 C 
HETATM    2  C3  UNL     1      23.699   1.620  51.243  1.00  0.00     0.023 C 
HETATM    3  C4  UNL     1      22.293   1.749  50.681  1.00  0.00     0.077 C 
HETATM    4  C5  UNL     1      22.217   2.000  49.191  1.00  0.00     0.124 C 
HETATM    5  N1  UNL     1      23.297   2.484  48.595  1.00  0.00    -0.183 NA
HETATM    6  N2  UNL     1      23.850   3.476  49.502  1.00  0.00    -0.232 N 
HETATM    7  C12 UNL     1      22.995   3.550  50.636  1.00  0.00     0.080 C 
HETATM    8  C13 UNL     1      21.873   3.105  51.208  1.00  0.00     0.018 C 
HETATM    9  C14 UNL     1      23.923   3.985  51.766  1.00  0.00     0.183 C 
ENDROOT
BRANCH   6  10
HETATM   10  C6  UNL     1      24.992   4.214  49.218  1.00  0.00     0.097 A 
HETATM   11  C7  UNL     1      24.650   5.535  48.875  1.00  0.00     0.035 A 
HETATM   12  C8  UNL     1      25.665   6.403  48.556  1.00  0.00     0.002 A 
HETATM   13  C9  UNL     1      26.964   5.959  48.582  1.00  0.00     0.003 A 
HETATM   14  C10 UNL     1      27.358   4.667  48.913  1.00  0.00     0.045 A 
HETATM   15  C11 UNL     1      26.319   3.821  49.228  1.00  0.00     0.145 A 
HETATM   16  F1  UNL     1      26.505   2.523  49.573  1.00  0.00    -0.204 F 
ENDBRANCH   6  10
BRANCH   9  17
HETATM   17  O2  UNL     1      25.144   4.441  51.427  1.00  0.00    -0.372 OA
HETATM   18  H12 UNL     1      25.656   4.657  52.242  1.00  0.00     0.212 HD
ENDBRANCH   9  17
BRANCH   9  19
HETATM   19  C15 UNL     1      23.381   4.781  52.822  1.00  0.00     0.131 C 
HETATM   20  N3  UNL     1      23.892   5.482  53.763  1.00  0.00    -0.312 NA
HETATM   21  H14 UNL     1      24.906   5.588  53.916  1.00  0.00     0.185 HD
ENDBRANCH   9  19
BRANCH   1  22
HETATM   22  O1  UNL     1      24.869   1.971  53.340  1.00  0.00    -0.357 OA
HETATM   23  C1  UNL     1      26.269   1.808  53.374  1.00  0.00     0.209 C 
ENDBRANCH   1  22
TORSDOF 4
ENDMDL
MODEL 2
REMARK VINA RESULT:      -6.6      2.130      4.415
REMARK  4 active torsions:
REMARK  status: ('A' for Active; 'I' for Inactive)
REMARK    1  A    between atoms: O1_2  and  C2_3 
REMARK    2  A    between atoms: N2_8  and  C6_9 
REMARK    3  A    between atoms: C14_18  and  O2_19 
REMARK    4  A    between atoms: C14_18  and  C15_20 
ROOT
HETATM    1  C2  UNL     1      24.465   4.945  50.825  1.00  0.00     0.089 C 
HETATM    2  C3  UNL     1      23.182   4.345  50.937  1.00  0.00     0.023 C 
HETATM    3  C4  UNL     1      22.567   3.485  49.847  1.00  0.00     0.077 C 
HETATM    4  C5  UNL     1      22.264   2.058  50.248  1.00  0.00     0.124 C 
HETATM    5  N1  UNL     1      22.902   1.569  51.301  1.00  0.00    -0.183 NA
HETATM    6  N2  UNL     1      24.269   2.055  51.208  1.00  0.00    -0.232 N 
HETATM    7  C12 UNL     1      24.375   2.823  50.016  1.00  0.00     0.080 C 
HETATM    8  C13 UNL     1      23.746   3.265  48.923  1.00  0.00     0.018 C 
HETATM    9  C14 UNL     1      25.480   3.829  50.326  1.00  0.00     0.183 C 
ENDROOT
BRANCH   6  10
HETATM   10  C6  UNL     1      25.252   1.743  52.138  1.00  0.00     0.097 A 
HETATM   11  C7  UNL     1      26.128   0.773  51.618  1.00  0.00     0.035 A 
HETATM   12  C8  UNL     1      27.161   0.342  52.414  1.00  0.00     0.002 A 
HETATM   13  C9  UNL     1      27.303   0.866  53.675  1.00  0.00     0.003 A 
HETATM   14  C10 UNL     1      26.469   1.825  54.238  1.00  0.00     0.045 A 
HETATM   15  C11 UNL     1      25.444   2.237  53.416  1.00  0.00     0.145 A 
HETATM   16  F1  UNL     1      24.527   3.162  53.791  1.00  0.00    -0.204 F 
ENDBRANCH   6  10
BRANCH   9  17
HETATM   17  O2  UNL     1      26.233   3.608  51.420  1.00  0.00    -0.372 OA
HETATM   18  H12 UNL     1      25.954   4.217  52.144  1.00  0.00     0.212 HD
ENDBRANCH   9  17
BRANCH   9  19
HETATM   19  C15 UNL     1      26.303   4.286  49.251  1.00  0.00     0.131 C 
HETATM   20  N3  UNL     1      27.546   4.568  49.138  1.00  0.00    -0.312 NA
HETATM   21  H14 UNL     1      28.226   4.495  49.910  1.00  0.00     0.185 HD
ENDBRANCH   9  19
BRANCH   1  22
HETATM   22  O1  UNL     1      24.625   6.287  51.138  1.00  0.00    -0.357 OA
HETATM   23  C1  UNL     1      23.720   7.263  50.674  1.00  0.00     0.209 C 
ENDBRANCH   1  22
TORSDOF 4
ENDMDL
MODEL 3
REMARK VINA RESULT:      -6.5      2.295      4.668
REMARK  4 active torsions:
REMARK  status: ('A' for Active; 'I' for Inactive)
REMARK    1  A    between atoms: O1_2  and  C2_3 
REMARK    2  A    between atoms: N2_8  and  C6_9 
REMARK    3  A    between atoms: C14_18  and  O2_19 
REMARK    4  A    between atoms: C14_18  and  C15_20 
ROOT
HETATM    1  C2  UNL     1      23.205   2.169  50.209  1.00  0.00     0.089 C 
HETATM    2  C3  UNL     1      24.251   2.675  49.390  1.00  0.00     0.023 C 
HETATM    3  C4  UNL     1      24.726   4.117  49.442  1.00  0.00     0.077 C 
HETATM    4  C5  UNL     1      26.175   4.303  49.833  1.00  0.00     0.124 C 
HETATM    5  N1  UNL     1      26.769   3.307  50.474  1.00  0.00    -0.183 NA
HETATM    6  N2  UNL     1      25.790   2.793  51.418  1.00  0.00    -0.232 N 
HETATM    7  C12 UNL     1      24.615   3.582  51.296  1.00  0.00     0.080 C 
HETATM    8  C13 UNL     1      24.038   4.625  50.691  1.00  0.00     0.018 C 
HETATM    9  C14 UNL     1      23.492   2.632  51.701  1.00  0.00     0.183 C 
ENDROOT
BRANCH   6  10
HETATM   10  C6  UNL     1      26.051   1.739  52.285  1.00  0.00     0.097 A 
HETATM   11  C7  UNL     1      26.377   0.578  51.561  1.00  0.00     0.035 A 
HETATM   12  C8  UNL     1      26.658  -0.566  52.266  1.00  0.00     0.002 A 
HETATM   13  C9  UNL     1      26.611  -0.540  53.638  1.00  0.00     0.003 A 
HETATM   14  C10 UNL     1      26.295   0.577  54.403  1.00  0.00     0.045 A 
HETATM   15  C11 UNL     1      26.019   1.708  53.668  1.00  0.00     0.145 A 
HETATM   16  F1  UNL     1      25.687   2.893  54.237  1.00  0.00    -0.204 F 
ENDBRANCH   6  10
BRANCH   9  17
HETATM   17  O2  UNL     1      23.840   1.478  52.303  1.00  0.00    -0.372 OA
HETATM   18  H12 UNL     1      23.909   1.618  53.276  1.00  0.00     0.212 HD
ENDBRANCH   9  17
BRANCH   9  19
HETATM   19  C15 UNL     1      22.332   3.180  52.331  1.00  0.00     0.131 C 
HETATM   20  N3  UNL     1      21.072   3.042  52.154  1.00  0.00    -0.312 NA
HETATM   21  H14 UNL     1      20.655   2.434  51.433  1.00  0.00     0.185 HD
ENDBRANCH   9  19
BRANCH   1  22
HETATM   22  O1  UNL     1      22.188   1.419  49.637  1.00  0.00    -0.357 OA
HETATM   23  C1  UNL     1      21.654   1.746  48.374  1.00  0.00     0.209 C 
ENDBRANCH   1  22
TORSDOF 4
ENDMDL
MODEL 4
REMARK VINA RESULT:      -6.5      2.591      5.330
REMARK  4 active torsions:
REMARK  status: ('A' for Active; 'I' for Inactive)
REMARK    1  A    between atoms: O1_2  and  C2_3 
REMARK    2  A    between atoms: N2_8  and  C6_9 
REMARK    3  A    between atoms: C14_18  and  O2_19 
REMARK    4  A    between atoms: C14_18  and  C15_20 
ROOT
HETATM    1  C2  UNL     1      24.539   3.121  51.310  1.00  0.00     0.089 C 
HETATM    2  C3  UNL     1      25.377   1.976  51.237  1.00  0.00     0.023 C 
HETATM    3  C4  UNL     1      26.261   1.516  52.384  1.00  0.00     0.077 C 
HETATM    4  C5  UNL     1      25.956   0.133  52.915  1.00  0.00     0.124 C 
HETATM    5  N1  UNL     1      24.758  -0.372  52.658  1.00  0.00    -0.183 NA
HETATM    6  N2  UNL     1      23.815   0.724  52.815  1.00  0.00    -0.232 N 
HETATM    7  C12 UNL     1      24.550   1.874  53.210  1.00  0.00     0.080 C 
HETATM    8  C13 UNL     1      25.751   2.367  53.528  1.00  0.00     0.018 C 
HETATM    9  C14 UNL     1      23.725   3.039  52.672  1.00  0.00     0.183 C 
ENDROOT
BRANCH   6  10
HETATM   10  C6  UNL     1      22.445   0.580  52.634  1.00  0.00     0.097 A 
HETATM   11  C7  UNL     1      21.799   0.450  53.877  1.00  0.00     0.035 A 
HETATM   12  C8  UNL     1      20.435   0.291  53.882  1.00  0.00     0.002 A 
HETATM   13  C9  UNL     1      19.756   0.264  52.689  1.00  0.00     0.003 A 
HETATM   14  C10 UNL     1      20.343   0.387  51.435  1.00  0.00     0.045 A 
HETATM   15  C11 UNL     1      21.710   0.546  51.463  1.00  0.00     0.145 A 
HETATM   16  F1  UNL     1      22.459   0.679  50.340  1.00  0.00    -0.204 F 
ENDBRANCH   6  10
BRANCH   9  17
HETATM   17  O2  UNL     1      22.474   2.772  52.249  1.00  0.00    -0.372 OA
HETATM   18  H12 UNL     1      22.305   1.802  52.303  1.00  0.00     0.212 HD
ENDBRANCH   9  17
BRANCH   9  19
HETATM   19  C15 UNL     1      23.743   4.275  53.390  1.00  0.00     0.131 C 
HETATM   20  N3  UNL     1      23.820   5.505  53.046  1.00  0.00    -0.312 NA
HETATM   21  H14 UNL     1      23.888   5.826  52.068  1.00  0.00     0.185 HD
ENDBRANCH   9  19
BRANCH   1  22
HETATM   22  O1  UNL     1      24.555   4.050  50.280  1.00  0.00    -0.357 OA
HETATM   23  C1  UNL     1      25.740   4.718  49.911  1.00  0.00     0.209 C 
ENDBRANCH   1  22
TORSDOF 4
ENDMDL
MODEL 5
REMARK VINA RESULT:      -6.5      7.368      9.458
REMARK  4 active torsions:
REMARK  status: ('A' for Active; 'I' for Inactive)
REMARK    1  A    between atoms: O1_2  and  C2_3 
REMARK    2  A    between atoms: N2_8  and  C6_9 
REMARK    3  A    between atoms: C14_18  and  O2_19 
REMARK    4  A    between atoms: C14_18  and  C15_20 
ROOT
HETATM    1  C2  UNL     1      30.850   6.536  47.897  1.00  0.00     0.089 C 
HETATM    2  C3  UNL     1      31.441   7.033  46.705  1.00  0.00     0.023 C 
HETATM    3  C4  UNL     1      32.724   7.846  46.687  1.00  0.00     0.077 C 
HETATM    4  C5  UNL     1      33.868   7.226  45.914  1.00  0.00     0.124 C 
HETATM    5  N1  UNL     1      33.818   5.922  45.688  1.00  0.00    -0.183 NA
HETATM    6  N2  UNL     1      33.315   5.317  46.911  1.00  0.00    -0.232 N 
HETATM    7  C12 UNL     1      33.115   6.358  47.858  1.00  0.00     0.080 C 
HETATM    8  C13 UNL     1      33.223   7.667  48.105  1.00  0.00     0.018 C 
HETATM    9  C14 UNL     1      31.993   5.833  48.748  1.00  0.00     0.183 C 
ENDROOT
BRANCH   6  10
HETATM   10  C6  UNL     1      33.131   3.949  47.064  1.00  0.00     0.097 A 
HETATM   11  C7  UNL     1      32.038   3.513  46.293  1.00  0.00     0.035 A 
HETATM   12  C8  UNL     1      31.710   2.180  46.333  1.00  0.00     0.002 A 
HETATM   13  C9  UNL     1      32.450   1.328  47.114  1.00  0.00     0.003 A 
HETATM   14  C10 UNL     1      33.538   1.704  47.894  1.00  0.00     0.045 A 
HETATM   15  C11 UNL     1      33.842   3.045  47.833  1.00  0.00     0.145 A 
HETATM   16  F1  UNL     1      34.866   3.600  48.527  1.00  0.00    -0.204 F 
ENDBRANCH   6  10
BRANCH   9  17
HETATM   17  O2  UNL     1      31.674   4.529  48.643  1.00  0.00    -0.372 OA
HETATM   18  H12 UNL     1      32.447   4.025  48.295  1.00  0.00     0.212 HD
ENDBRANCH   9  17
BRANCH   9  19
HETATM   19  C15 UNL     1      31.971   6.233  50.121  1.00  0.00     0.131 C 
HETATM   20  N3  UNL     1      31.668   5.644  51.215  1.00  0.00    -0.312 NA
HETATM   21  H14 UNL     1      31.353   4.663  51.274  1.00  0.00     0.185 HD
ENDBRANCH   9  19
BRANCH   1  22
HETATM   22  O1  UNL     1      29.493   6.721  48.119  1.00  0.00    -0.357 OA
HETATM   23  C1  UNL     1      28.984   7.953  48.579  1.00  0.00     0.209 C 
ENDBRANCH   1  22
TORSDOF 4
ENDMDL
MODEL 6
REMARK VINA RESULT:      -6.4      3.092      5.469
REMARK  4 active torsions:
REMARK  status: ('A' for Active; 'I' for Inactive)
REMARK    1  A    between atoms: O1_2  and  C2_3 
REMARK    2  A    between atoms: N2_8  and  C6_9 
REMARK    3  A    between atoms: C14_18  and  O2_19 
REMARK    4  A    between atoms: C14_18  and  C15_20 
ROOT
HETATM    1  C2  UNL     1      21.795   4.053  51.027  1.00  0.00     0.089 C 
HETATM    2  C3  UNL     1      21.105   3.399  49.971  1.00  0.00     0.023 C 
HETATM    3  C4  UNL     1      21.809   2.748  48.793  1.00  0.00     0.077 C 
HETATM    4  C5  UNL     1      21.576   1.261  48.646  1.00  0.00     0.124 C 
HETATM    5  N1  UNL     1      21.160   0.598  49.714  1.00  0.00    -0.183 NA
HETATM    6  N2  UNL     1      21.902   1.139  50.841  1.00  0.00    -0.232 N 
HETATM    7  C12 UNL     1      22.790   2.129  50.339  1.00  0.00     0.080 C 
HETATM    8  C13 UNL     1      23.251   2.755  49.252  1.00  0.00     0.018 C 
HETATM    9  C14 UNL     1      22.965   3.092  51.509  1.00  0.00     0.183 C 
ENDROOT
BRANCH   6  10
HETATM   10  C6  UNL     1      21.745   0.685  52.144  1.00  0.00     0.097 A 
HETATM   11  C7  UNL     1      22.873  -0.055  52.544  1.00  0.00     0.035 A 
HETATM   12  C8  UNL     1      22.881  -0.587  53.810  1.00  0.00     0.002 A 
HETATM   13  C9  UNL     1      21.801  -0.382  54.633  1.00  0.00     0.003 A 
HETATM   14  C10 UNL     1      20.663   0.339  54.291  1.00  0.00     0.045 A 
HETATM   15  C11 UNL     1      20.685   0.860  53.016  1.00  0.00     0.145 A 
HETATM   16  F1  UNL     1      19.665   1.589  52.502  1.00  0.00    -0.204 F 
ENDBRANCH   6  10
BRANCH   9  17
HETATM   17  O2  UNL     1      22.530   2.687  52.718  1.00  0.00    -0.372 OA
HETATM   18  H12 UNL     1      22.773   1.742  52.860  1.00  0.00     0.212 HD
ENDBRANCH   9  17
BRANCH   9  19
HETATM   19  C15 UNL     1      24.211   3.779  51.644  1.00  0.00     0.131 C 
HETATM   20  N3  UNL     1      24.547   5.013  51.689  1.00  0.00    -0.312 NA
HETATM   21  H14 UNL     1      23.878   5.796  51.626  1.00  0.00     0.185 HD
ENDBRANCH   9  19
BRANCH   1  22
HETATM   22  O1  UNL     1      21.383   5.312  51.439  1.00  0.00    -0.357 OA
HETATM   23  C1  UNL     1      21.352   6.404  50.548  1.00  0.00     0.209 C 
ENDBRANCH   1  22
TORSDOF 4
ENDMDL
MODEL 7
REMARK VINA RESULT:      -6.3      2.548      4.868
REMARK  4 active torsions:
REMARK  status: ('A' for Active; 'I' for Inactive)
REMARK    1  A    between atoms: O1_2  and  C2_3 
REMARK    2  A    between atoms: N2_8  and  C6_9 
REMARK    3  A    between atoms: C14_18  and  O2_19 
REMARK    4  A    between atoms: C14_18  and  C15_20 
ROOT
HETATM    1  C2  UNL     1      24.646   3.355  50.876  1.00  0.00     0.089 C 
HETATM    2  C3  UNL     1      25.131   2.087  51.296  1.00  0.00     0.023 C 
HETATM    3  C4  UNL     1      25.365   1.726  52.753  1.00  0.00     0.077 C 
HETATM    4  C5  UNL     1      24.543   0.564  53.267  1.00  0.00     0.124 C 
HETATM    5  N1  UNL     1      23.448   0.244  52.594  1.00  0.00    -0.183 NA
HETATM    6  N2  UNL     1      22.825   1.500  52.211  1.00  0.00    -0.232 N 
HETATM    7  C12 UNL     1      23.619   2.555  52.739  1.00  0.00     0.080 C 
HETATM    8  C13 UNL     1      24.691   2.876  53.469  1.00  0.00     0.018 C 
HETATM    9  C14 UNL     1      23.382   3.710  51.772  1.00  0.00     0.183 C 
ENDROOT
BRANCH   6  10
HETATM   10  C6  UNL     1      21.639   1.573  51.492  1.00  0.00     0.097 A 
HETATM   11  C7  UNL     1      21.815   1.041  50.201  1.00  0.00     0.035 A 
HETATM   12  C8  UNL     1      20.737   1.041  49.350  1.00  0.00     0.002 A 
HETATM   13  C9  UNL     1      19.539   1.555  49.781  1.00  0.00     0.003 A 
HETATM   14  C10 UNL     1      19.310   2.092  51.043  1.00  0.00     0.045 A 
HETATM   15  C11 UNL     1      20.408   2.077  51.873  1.00  0.00     0.145 A 
HETATM   16  F1  UNL     1      20.380   2.561  53.139  1.00  0.00    -0.204 F 
ENDBRANCH   6  10
BRANCH   9  17
HETATM   17  O2  UNL     1      22.363   3.593  50.898  1.00  0.00    -0.372 OA
HETATM   18  H12 UNL     1      22.694   3.735  49.981  1.00  0.00     0.212 HD
ENDBRANCH   9  17
BRANCH   9  19
HETATM   19  C15 UNL     1      23.437   5.045  52.280  1.00  0.00     0.131 C 
HETATM   20  N3  UNL     1      24.075   6.102  51.944  1.00  0.00    -0.312 NA
HETATM   21  H14 UNL     1      24.731   6.150  51.149  1.00  0.00     0.185 HD
ENDBRANCH   9  19
BRANCH   1  22
HETATM   22  O1  UNL     1      25.286   4.028  49.846  1.00  0.00    -0.357 OA
HETATM   23  C1  UNL     1      26.663   3.856  49.599  1.00  0.00     0.209 C 
ENDBRANCH   1  22
TORSDOF 4
ENDMDL
MODEL 8
REMARK VINA RESULT:      -6.1      7.207      9.890
REMARK  4 active torsions:
REMARK  status: ('A' for Active; 'I' for Inactive)
REMARK    1  A    between atoms: O1_2  and  C2_3 
REMARK    2  A    between atoms: N2_8  and  C6_9 
REMARK    3  A    between atoms: C14_18  and  O2_19 
REMARK    4  A    between atoms: C14_18  and  C15_20 
ROOT
HETATM    1  C2  UNL     1      30.764   6.835  47.627  1.00  0.00     0.089 C 
HETATM    2  C3  UNL     1      31.270   7.871  46.797  1.00  0.00     0.023 C 
HETATM    3  C4  UNL     1      32.062   9.053  47.328  1.00  0.00     0.077 C 
HETATM    4  C5  UNL     1      33.471   9.178  46.790  1.00  0.00     0.124 C 
HETATM    5  N1  UNL     1      34.025   8.094  46.267  1.00  0.00    -0.183 NA
HETATM    6  N2  UNL     1      33.639   6.987  47.127  1.00  0.00    -0.232 N 
HETATM    7  C12 UNL     1      32.858   7.516  48.190  1.00  0.00     0.080 C 
HETATM    8  C13 UNL     1      32.350   8.619  48.749  1.00  0.00     0.018 C 
HETATM    9  C14 UNL     1      31.942   6.361  48.583  1.00  0.00     0.183 C 
ENDROOT
BRANCH   6  10
HETATM   10  C6  UNL     1      34.040   5.676  46.905  1.00  0.00     0.097 A 
HETATM   11  C7  UNL     1      33.582   5.229  45.651  1.00  0.00     0.035 A 
HETATM   12  C8  UNL     1      33.885   3.945  45.273  1.00  0.00     0.002 A 
HETATM   13  C9  UNL     1      34.616   3.148  46.120  1.00  0.00     0.003 A 
HETATM   14  C10 UNL     1      35.092   3.537  47.367  1.00  0.00     0.045 A 
HETATM   15  C11 UNL     1      34.772   4.829  47.718  1.00  0.00     0.145 A 
HETATM   16  F1  UNL     1      35.146   5.386  48.896  1.00  0.00    -0.204 F 
ENDBRANCH   6  10
BRANCH   9  17
HETATM   17  O2  UNL     1      32.238   5.140  48.097  1.00  0.00    -0.372 OA
HETATM   18  H12 UNL     1      33.196   4.951  48.235  1.00  0.00     0.212 HD
ENDBRANCH   9  17
BRANCH   9  19
HETATM   19  C15 UNL     1      31.526   6.257  49.946  1.00  0.00     0.131 C 
HETATM   20  N3  UNL     1      31.491   5.302  50.797  1.00  0.00    -0.312 NA
HETATM   21  H14 UNL     1      31.800   4.339  50.594  1.00  0.00     0.185 HD
ENDBRANCH   9  19
BRANCH   1  22
HETATM   22  O1  UNL     1      29.444   6.431  47.493  1.00  0.00    -0.357 OA
HETATM   23  C1  UNL     1      28.386   7.179  48.047  1.00  0.00     0.209 C 
ENDBRANCH   1  22
TORSDOF 4
ENDMDL
MODEL 9
REMARK VINA RESULT:      -6.1      2.147      3.825
REMARK  4 active torsions:
REMARK  status: ('A' for Active; 'I' for Inactive)
REMARK    1  A    between atoms: O1_2  and  C2_3 
REMARK    2  A    between atoms: N2_8  and  C6_9 
REMARK    3  A    between atoms: C14_18  and  O2_19 
REMARK    4  A    between atoms: C14_18  and  C15_20 
ROOT
HETATM    1  C2  UNL     1      21.586   3.332  50.527  1.00  0.00     0.089 C 
HETATM    2  C3  UNL     1      21.909   3.177  51.902  1.00  0.00     0.023 C 
HETATM    3  C4  UNL     1      22.372   1.863  52.506  1.00  0.00     0.077 C 
HETATM    4  C5  UNL     1      23.754   1.890  53.123  1.00  0.00     0.124 C 
HETATM    5  N1  UNL     1      24.575   2.856  52.742  1.00  0.00    -0.183 NA
HETATM    6  N2  UNL     1      24.383   3.010  51.309  1.00  0.00    -0.232 N 
HETATM    7  C12 UNL     1      23.424   2.046  50.895  1.00  0.00     0.080 C 
HETATM    8  C13 UNL     1      22.640   1.031  51.270  1.00  0.00     0.018 C 
HETATM    9  C14 UNL     1      22.764   2.686  49.678  1.00  0.00     0.183 C 
ENDROOT
BRANCH   6  10
HETATM   10  C6  UNL     1      25.084   3.932  50.542  1.00  0.00     0.097 A 
HETATM   11  C7  UNL     1      26.106   3.291  49.819  1.00  0.00     0.035 A 
HETATM   12  C8  UNL     1      26.906   4.060  49.010  1.00  0.00     0.002 A 
HETATM   13  C9  UNL     1      26.684   5.413  48.935  1.00  0.00     0.003 A 
HETATM   14  C10 UNL     1      25.691   6.098  49.626  1.00  0.00     0.045 A 
HETATM   15  C11 UNL     1      24.906   5.299  50.427  1.00  0.00     0.145 A 
HETATM   16  F1  UNL     1      23.889   5.786  51.180  1.00  0.00    -0.204 F 
ENDBRANCH   6  10
BRANCH   9  17
HETATM   17  O2  UNL     1      23.363   3.766  49.141  1.00  0.00    -0.372 OA
HETATM   18  H12 UNL     1      22.820   4.110  48.393  1.00  0.00     0.212 HD
ENDBRANCH   9  17
BRANCH   9  19
HETATM   19  C15 UNL     1      22.278   1.831  48.640  1.00  0.00     0.131 C 
HETATM   20  N3  UNL     1      21.112   1.510  48.222  1.00  0.00    -0.312 NA
HETATM   21  H14 UNL     1      20.235   1.870  48.629  1.00  0.00     0.185 HD
ENDBRANCH   9  19
BRANCH   1  22
HETATM   22  O1  UNL     1      20.405   3.962  50.166  1.00  0.00    -0.357 OA
HETATM   23  C1  UNL     1      19.298   4.005  51.037  1.00  0.00     0.209 C 
ENDBRANCH   1  22
TORSDOF 4
ENDMDL
