MODEL 1
REMARK VINA RESULT:      -8.2      0.000      0.000
REMARK  9 active torsions:
REMARK  status: ('A' for Active; 'I' for Inactive)
REMARK    1  A    between atoms: O1_2  and  C2_3 
REMARK    2  A    between atoms: C5_6  and  C6_7 
REMARK    3  A    between atoms: C6_7  and  O2_8 
REMARK    4  A    between atoms: O2_8  and  C7_9 
REMARK    5  A    between atoms: C10_12  and  C11_13 
REMARK    6  A    between atoms: C11_13  and  C12_14 
REMARK    7  A    between atoms: C14_17  and  N2_18 
REMARK    8  A    between atoms: C15_20  and  N4_21 
REMARK    9  A    between atoms: C17_23  and  O3_24 
ROOT
HETATM    1  C7  UNL     1      25.339   4.337  50.320  1.00  0.00     0.102 A 
HETATM    2  C8  UNL     1      26.385   3.740  49.649  1.00  0.00     0.040 A 
HETATM    3  C9  UNL     1      27.311   4.360  48.873  1.00  0.00     0.010 A 
HETATM    4  C10 UNL     1      27.192   5.713  48.744  1.00  0.00    -0.051 A 
HETATM    5  C16 UNL     1      26.167   6.423  49.381  1.00  0.00     0.047 A 
HETATM    6  C17 UNL     1      25.239   5.729  50.170  1.00  0.00     0.102 A 
ENDROOT
BRANCH   4   7
HETATM    7  C11 UNL     1      28.130   6.519  47.924  1.00  0.00     0.082 C 
BRANCH   7   8
HETATM    8  C12 UNL     1      29.542   6.341  48.256  1.00  0.00     0.010 A 
HETATM    9  C13 UNL     1      30.162   5.182  47.831  1.00  0.00     0.147 A 
HETATM   10  N1  UNL     1      31.460   4.944  48.105  1.00  0.00    -0.075 NA
HETATM   11  C14 UNL     1      32.225   5.807  48.796  1.00  0.00     0.721 A 
HETATM   12  N3  UNL     1      31.656   6.956  49.231  1.00  0.00    -0.045 NA
HETATM   13  C15 UNL     1      30.350   7.203  48.961  1.00  0.00     0.148 A 
BRANCH  11  14
HETATM   14  N2  UNL     1      33.596   5.621  49.119  1.00  0.00    -0.231 N 
HETATM   15  H13 UNL     1      34.060   4.689  49.127  1.00  0.00     0.174 HD
HETATM   16  H14 UNL     1      34.122   6.510  49.354  1.00  0.00     0.174 HD
ENDBRANCH  11  14
BRANCH  13  17
HETATM   17  N4  UNL     1      29.780   8.418  49.423  1.00  0.00    -0.383 N 
HETATM   18  H15 UNL     1      28.829   8.630  49.849  1.00  0.00     0.157 HD
HETATM   19  H16 UNL     1      30.086   9.412  49.487  1.00  0.00     0.157 HD
ENDBRANCH  13  17
ENDBRANCH   7   8
ENDBRANCH   4   7
BRANCH   6  20
HETATM   20  O3  UNL     1      24.245   6.478  50.778  1.00  0.00    -0.353 OA
HETATM   21  C18 UNL     1      24.238   7.873  50.568  1.00  0.00     0.210 C 
ENDBRANCH   6  20
BRANCH   1  22
HETATM   22  O2  UNL     1      24.375   3.838  51.104  1.00  0.00    -0.344 OA
BRANCH  22  23
HETATM   23  C6  UNL     1      24.311   3.273  52.345  1.00  0.00     0.214 C 
BRANCH  23  24
HETATM   24  C5  UNL     1      25.173   2.117  52.624  1.00  0.00    -0.034 A 
HETATM   25  C4  UNL     1      25.908   2.229  53.814  1.00  0.00     0.012 A 
HETATM   26  C3  UNL     1      26.779   1.263  54.259  1.00  0.00     0.037 A 
HETATM   27  C2  UNL     1      26.931   0.128  53.487  1.00  0.00     0.068 A 
HETATM   28  C20 UNL     1      26.244  -0.039  52.317  1.00  0.00     0.037 A 
HETATM   29  C19 UNL     1      25.385   0.959  51.920  1.00  0.00     0.012 A 
BRANCH  27  30
HETATM   30  O1  UNL     1      27.795  -0.875  53.888  1.00  0.00    -0.356 OA
HETATM   31  C1  UNL     1      29.158  -0.911  53.503  1.00  0.00     0.210 C 
ENDBRANCH  27  30
ENDBRANCH  23  24
ENDBRANCH  22  23
ENDBRANCH   1  22
TORSDOF 9
ENDMDL
MODEL 2
REMARK VINA RESULT:      -8.2      4.005      7.500
REMARK  9 active torsions:
REMARK  status: ('A' for Active; 'I' for Inactive)
REMARK    1  A    between atoms: O1_2  and  C2_3 
REMARK    2  A    between atoms: C5_6  and  C6_7 
REMARK    3  A    between atoms: C6_7  and  O2_8 
REMARK    4  A    between atoms: O2_8  and  C7_9 
REMARK    5  A    between atoms: C10_12  and  C11_13 
REMARK    6  A    between atoms: C11_13  and  C12_14 
REMARK    7  A    between atoms: C14_17  and  N2_18 
REMARK    8  A    between atoms: C15_20  and  N4_21 
REMARK    9  A    between atoms: C17_23  and  O3_24 
ROOT
HETATM    1  C7  UNL     1      25.424   3.893  50.117  1.00  0.00     0.102 A 
HETATM    2  C8  UNL     1      26.578   3.223  50.466  1.00  0.00     0.040 A 
HETATM    3  C9  UNL     1      26.762   2.439  51.558  1.00  0.00     0.010 A 
HETATM    4  C10 UNL     1      25.696   2.301  52.397  1.00  0.00    -0.051 A 
HETATM    5  C16 UNL     1      24.474   2.936  52.142  1.00  0.00     0.047 A 
HETATM    6  C17 UNL     1      24.342   3.734  50.998  1.00  0.00     0.102 A 
ENDROOT
BRANCH   4   7
HETATM    7  C11 UNL     1      25.756   1.478  53.631  1.00  0.00     0.082 C 
BRANCH   7   8
HETATM    8  C12 UNL     1      26.565   0.265  53.520  1.00  0.00     0.010 A 
HETATM    9  C13 UNL     1      26.060  -0.779  52.769  1.00  0.00     0.147 A 
HETATM   10  N1  UNL     1      26.745  -1.931  52.626  1.00  0.00    -0.075 NA
HETATM   11  C14 UNL     1      27.946  -2.135  53.194  1.00  0.00     0.721 A 
HETATM   12  N3  UNL     1      28.477  -1.137  53.939  1.00  0.00    -0.045 NA
HETATM   13  C15 UNL     1      27.794   0.026  54.089  1.00  0.00     0.148 A 
BRANCH  11  14
HETATM   14  N2  UNL     1      28.721  -3.320  53.085  1.00  0.00    -0.231 N 
HETATM   15  H13 UNL     1      29.483  -3.442  52.385  1.00  0.00     0.174 HD
HETATM   16  H14 UNL     1      28.466  -4.084  53.773  1.00  0.00     0.174 HD
ENDBRANCH  11  14
BRANCH  13  17
HETATM   17  N4  UNL     1      28.377   1.058  54.870  1.00  0.00    -0.383 N 
HETATM   18  H15 UNL     1      28.715   2.031  54.607  1.00  0.00     0.157 HD
HETATM   19  H16 UNL     1      28.638   1.183  55.871  1.00  0.00     0.157 HD
ENDBRANCH  13  17
ENDBRANCH   7   8
ENDBRANCH   4   7
BRANCH   6  20
HETATM   20  O3  UNL     1      23.114   4.341  50.791  1.00  0.00    -0.353 OA
HETATM   21  C18 UNL     1      22.752   5.416  51.630  1.00  0.00     0.210 C 
ENDBRANCH   6  20
BRANCH   1  22
HETATM   22  O2  UNL     1      25.125   4.685  49.080  1.00  0.00    -0.344 OA
BRANCH  22  23
HETATM   23  C6  UNL     1      25.344   5.990  48.744  1.00  0.00     0.214 C 
BRANCH  23  24
HETATM   24  C5  UNL     1      26.733   6.454  48.638  1.00  0.00    -0.034 A 
HETATM   25  C4  UNL     1      26.910   7.804  48.979  1.00  0.00     0.012 A 
HETATM   26  C3  UNL     1      28.129   8.440  48.942  1.00  0.00     0.037 A 
HETATM   27  C2  UNL     1      29.228   7.703  48.548  1.00  0.00     0.068 A 
HETATM   28  C20 UNL     1      29.120   6.385  48.204  1.00  0.00     0.037 A 
HETATM   29  C19 UNL     1      27.877   5.798  48.259  1.00  0.00     0.012 A 
BRANCH  27  30
HETATM   30  O1  UNL     1      30.478   8.294  48.493  1.00  0.00    -0.356 OA
HETATM   31  C1  UNL     1      30.852   9.374  49.330  1.00  0.00     0.210 C 
ENDBRANCH  27  30
ENDBRANCH  23  24
ENDBRANCH  22  23
ENDBRANCH   1  22
TORSDOF 9
ENDMDL
MODEL 3
REMARK VINA RESULT:      -8.0      2.116      2.798
REMARK  9 active torsions:
REMARK  status: ('A' for Active; 'I' for Inactive)
REMARK    1  A    between atoms: O1_2  and  C2_3 
REMARK    2  A    between atoms: C5_6  and  C6_7 
REMARK    3  A    between atoms: C6_7  and  O2_8 
REMARK    4  A    between atoms: O2_8  and  C7_9 
REMARK    5  A    between atoms: C10_12  and  C11_13 
REMARK    6  A    between atoms: C11_13  and  C12_14 
REMARK    7  A    between atoms: C14_17  and  N2_18 
REMARK    8  A    between atoms: C15_20  and  N4_21 
REMARK    9  A    between atoms: C17_23  and  O3_24 
ROOT
HETATM    1  C7  UNL     1      24.736   3.469  50.653  1.00  0.00     0.102 A 
HETATM    2  C8  UNL     1      26.006   3.640  50.145  1.00  0.00     0.040 A 
HETATM    3  C9  UNL     1      26.433   4.659  49.355  1.00  0.00     0.010 A 
HETATM    4  C10 UNL     1      25.509   5.608  49.030  1.00  0.00    -0.051 A 
HETATM    5  C16 UNL     1      24.189   5.534  49.490  1.00  0.00     0.047 A 
HETATM    6  C17 UNL     1      23.804   4.460  50.303  1.00  0.00     0.102 A 
ENDROOT
BRANCH   4   7
HETATM    7  C11 UNL     1      25.835   6.774  48.171  1.00  0.00     0.082 C 
BRANCH   7   8
HETATM    8  C12 UNL     1      26.913   7.623  48.673  1.00  0.00     0.010 A 
HETATM    9  C13 UNL     1      28.161   7.488  48.097  1.00  0.00     0.147 A 
HETATM   10  N1  UNL     1      29.206   8.231  48.511  1.00  0.00    -0.075 NA
HETATM   11  C14 UNL     1      29.103   9.140  49.497  1.00  0.00     0.721 A 
HETATM   12  N3  UNL     1      27.897   9.304  50.089  1.00  0.00    -0.045 NA
HETATM   13  C15 UNL     1      26.840   8.560  49.679  1.00  0.00     0.148 A 
BRANCH  11  14
HETATM   14  N2  UNL     1      30.160   9.956  49.982  1.00  0.00    -0.231 N 
HETATM   15  H13 UNL     1      31.124   9.601  50.153  1.00  0.00     0.174 HD
HETATM   16  H14 UNL     1      29.896  10.967  50.160  1.00  0.00     0.174 HD
ENDBRANCH  11  14
BRANCH  13  17
HETATM   17  N4  UNL     1      25.585   8.756  50.313  1.00  0.00    -0.383 N 
HETATM   18  H15 UNL     1      24.893   9.562  50.264  1.00  0.00     0.157 HD
HETATM   19  H16 UNL     1      24.989   8.217  50.976  1.00  0.00     0.157 HD
ENDBRANCH  13  17
ENDBRANCH   7   8
ENDBRANCH   4   7
BRANCH   6  20
HETATM   20  O3  UNL     1      22.487   4.433  50.732  1.00  0.00    -0.353 OA
HETATM   21  C18 UNL     1      22.037   5.478  51.567  1.00  0.00     0.210 C 
ENDBRANCH   6  20
BRANCH   1  22
HETATM   22  O2  UNL     1      24.202   2.519  51.432  1.00  0.00    -0.344 OA
BRANCH  22  23
HETATM   23  C6  UNL     1      24.332   2.126  52.733  1.00  0.00     0.214 C 
BRANCH  23  24
HETATM   24  C5  UNL     1      25.489   1.296  53.091  1.00  0.00    -0.034 A 
HETATM   25  C4  UNL     1      25.720   0.230  52.208  1.00  0.00     0.012 A 
HETATM   26  C3  UNL     1      26.746  -0.672  52.363  1.00  0.00     0.037 A 
HETATM   27  C2  UNL     1      27.586  -0.512  53.447  1.00  0.00     0.068 A 
HETATM   28  C20 UNL     1      27.412   0.505  54.343  1.00  0.00     0.037 A 
HETATM   29  C19 UNL     1      26.369   1.379  54.140  1.00  0.00     0.012 A 
BRANCH  27  30
HETATM   30  O1  UNL     1      28.634  -1.392  53.650  1.00  0.00    -0.356 OA
HETATM   31  C1  UNL     1      29.983  -0.969  53.736  1.00  0.00     0.210 C 
ENDBRANCH  27  30
ENDBRANCH  23  24
ENDBRANCH  22  23
ENDBRANCH   1  22
TORSDOF 9
ENDMDL
MODEL 4
REMARK VINA RESULT:      -7.8      5.709      9.192
REMARK  9 active torsions:
REMARK  status: ('A' for Active; 'I' for Inactive)
REMARK    1  A    between atoms: O1_2  and  C2_3 
REMARK    2  A    between atoms: C5_6  and  C6_7 
REMARK    3  A    between atoms: C6_7  and  O2_8 
REMARK    4  A    between atoms: O2_8  and  C7_9 
REMARK    5  A    between atoms: C10_12  and  C11_13 
REMARK    6  A    between atoms: C11_13  and  C12_14 
REMARK    7  A    between atoms: C14_17  and  N2_18 
REMARK    8  A    between atoms: C15_20  and  N4_21 
REMARK    9  A    between atoms: C17_23  and  O3_24 
ROOT
HETATM    1  C7  UNL     1      25.819   2.844  51.249  1.00  0.00     0.102 A 
HETATM    2  C8  UNL     1      26.513   1.652  51.239  1.00  0.00     0.040 A 
HETATM    3  C9  UNL     1      26.297   0.581  52.045  1.00  0.00     0.010 A 
HETATM    4  C10 UNL     1      25.292   0.698  52.959  1.00  0.00    -0.051 A 
HETATM    5  C16 UNL     1      24.522   1.864  53.058  1.00  0.00     0.047 A 
HETATM    6  C17 UNL     1      24.790   2.938  52.199  1.00  0.00     0.102 A 
ENDROOT
BRANCH   4   7
HETATM    7  C11 UNL     1      24.948  -0.391  53.908  1.00  0.00     0.082 C 
BRANCH   7   8
HETATM    8  C12 UNL     1      23.523  -0.708  53.986  1.00  0.00     0.010 A 
HETATM    9  C13 UNL     1      22.734  -0.400  52.895  1.00  0.00     0.147 A 
HETATM   10  N1  UNL     1      21.411  -0.656  52.895  1.00  0.00    -0.075 NA
HETATM   11  C14 UNL     1      20.783  -1.223  53.940  1.00  0.00     0.721 A 
HETATM   12  N3  UNL     1      21.520  -1.542  55.030  1.00  0.00    -0.045 NA
HETATM   13  C15 UNL     1      22.852  -1.286  55.039  1.00  0.00     0.148 A 
BRANCH  11  14
HETATM   14  N2  UNL     1      19.396  -1.522  54.007  1.00  0.00    -0.231 N 
HETATM   15  H13 UNL     1      18.795  -1.637  53.165  1.00  0.00     0.174 HD
HETATM   16  H14 UNL     1      19.009  -1.619  54.989  1.00  0.00     0.174 HD
ENDBRANCH  11  14
BRANCH  13  17
HETATM   17  N4  UNL     1      23.602  -1.635  56.192  1.00  0.00    -0.383 N 
HETATM   18  H15 UNL     1      24.286  -1.073  56.782  1.00  0.00     0.157 HD
HETATM   19  H16 UNL     1      23.714  -2.486  56.783  1.00  0.00     0.157 HD
ENDBRANCH  13  17
ENDBRANCH   7   8
ENDBRANCH   4   7
BRANCH   6  20
HETATM   20  O3  UNL     1      24.000   4.068  52.337  1.00  0.00    -0.353 OA
HETATM   21  C18 UNL     1      22.768   4.108  51.650  1.00  0.00     0.210 C 
ENDBRANCH   6  20
BRANCH   1  22
HETATM   22  O2  UNL     1      25.938   3.957  50.513  1.00  0.00    -0.344 OA
BRANCH  22  23
HETATM   23  C6  UNL     1      26.023   4.252  49.183  1.00  0.00     0.214 C 
BRANCH  23  24
HETATM   24  C5  UNL     1      26.895   5.361  48.775  1.00  0.00    -0.034 A 
HETATM   25  C4  UNL     1      28.200   4.965  48.444  1.00  0.00     0.012 A 
HETATM   26  C3  UNL     1      29.178   5.845  48.043  1.00  0.00     0.037 A 
HETATM   27  C2  UNL     1      28.848   7.184  47.966  1.00  0.00     0.068 A 
HETATM   28  C20 UNL     1      27.594   7.630  48.277  1.00  0.00     0.037 A 
HETATM   29  C19 UNL     1      26.654   6.707  48.672  1.00  0.00     0.012 A 
BRANCH  27  30
HETATM   30  O1  UNL     1      29.795   8.111  47.569  1.00  0.00    -0.356 OA
HETATM   31  C1  UNL     1      30.761   8.648  48.455  1.00  0.00     0.210 C 
ENDBRANCH  27  30
ENDBRANCH  23  24
ENDBRANCH  22  23
ENDBRANCH   1  22
TORSDOF 9
ENDMDL
MODEL 5
REMARK VINA RESULT:      -7.8      8.141     10.889
REMARK  9 active torsions:
REMARK  status: ('A' for Active; 'I' for Inactive)
REMARK    1  A    between atoms: O1_2  and  C2_3 
REMARK    2  A    between atoms: C5_6  and  C6_7 
REMARK    3  A    between atoms: C6_7  and  O2_8 
REMARK    4  A    between atoms: O2_8  and  C7_9 
REMARK    5  A    between atoms: C10_12  and  C11_13 
REMARK    6  A    between atoms: C11_13  and  C12_14 
REMARK    7  A    between atoms: C14_17  and  N2_18 
REMARK    8  A    between atoms: C15_20  and  N4_21 
REMARK    9  A    between atoms: C17_23  and  O3_24 
ROOT
HETATM    1  C7  UNL     1      21.632   0.941  52.508  1.00  0.00     0.102 A 
HETATM    2  C8  UNL     1      21.177   1.255  51.244  1.00  0.00     0.040 A 
HETATM    3  C9  UNL     1      19.983   0.904  50.701  1.00  0.00     0.010 A 
HETATM    4  C10 UNL     1      19.150   0.163  51.487  1.00  0.00    -0.051 A 
HETATM    5  C16 UNL     1      19.509  -0.213  52.788  1.00  0.00     0.047 A 
HETATM    6  C17 UNL     1      20.755   0.179  53.295  1.00  0.00     0.102 A 
ENDROOT
BRANCH   4   7
HETATM    7  C11 UNL     1      17.816  -0.295  51.022  1.00  0.00     0.082 C 
BRANCH   7   8
HETATM    8  C12 UNL     1      16.683   0.319  51.712  1.00  0.00     0.010 A 
HETATM    9  C13 UNL     1      16.383   1.634  51.412  1.00  0.00     0.147 A 
HETATM   10  N1  UNL     1      15.357   2.270  52.012  1.00  0.00    -0.075 NA
HETATM   11  C14 UNL     1      14.570   1.675  52.925  1.00  0.00     0.721 A 
HETATM   12  N3  UNL     1      14.829   0.386  53.247  1.00  0.00    -0.045 NA
HETATM   13  C15 UNL     1      15.861  -0.262  52.649  1.00  0.00     0.148 A 
BRANCH  11  14
HETATM   14  N2  UNL     1      13.474   2.283  53.593  1.00  0.00    -0.231 N 
HETATM   15  H13 UNL     1      12.480   2.097  53.347  1.00  0.00     0.174 HD
HETATM   16  H14 UNL     1      13.743   2.951  54.371  1.00  0.00     0.174 HD
ENDBRANCH  11  14
BRANCH  13  17
HETATM   17  N4  UNL     1      16.107  -1.615  53.001  1.00  0.00    -0.383 N 
HETATM   18  H15 UNL     1      16.919  -2.263  52.772  1.00  0.00     0.157 HD
HETATM   19  H16 UNL     1      15.612  -2.347  53.552  1.00  0.00     0.157 HD
ENDBRANCH  13  17
ENDBRANCH   7   8
ENDBRANCH   4   7
BRANCH   6  20
HETATM   20  O3  UNL     1      21.063  -0.220  54.586  1.00  0.00    -0.353 OA
HETATM   21  C18 UNL     1      21.546  -1.531  54.782  1.00  0.00     0.210 C 
ENDBRANCH   6  20
BRANCH   1  22
HETATM   22  O2  UNL     1      22.774   1.227  53.146  1.00  0.00    -0.344 OA
BRANCH  22  23
HETATM   23  C6  UNL     1      23.939   1.869  52.838  1.00  0.00     0.214 C 
BRANCH  23  24
HETATM   24  C5  UNL     1      25.204   1.201  53.167  1.00  0.00    -0.034 A 
HETATM   25  C4  UNL     1      25.246  -0.153  52.799  1.00  0.00     0.012 A 
HETATM   26  C3  UNL     1      26.333  -0.965  53.022  1.00  0.00     0.037 A 
HETATM   27  C2  UNL     1      27.436  -0.409  53.640  1.00  0.00     0.068 A 
HETATM   28  C20 UNL     1      27.456   0.903  54.023  1.00  0.00     0.037 A 
HETATM   29  C19 UNL     1      26.341   1.670  53.776  1.00  0.00     0.012 A 
BRANCH  27  30
HETATM   30  O1  UNL     1      28.556  -1.181  53.888  1.00  0.00    -0.356 OA
HETATM   31  C1  UNL     1      29.874  -0.718  53.648  1.00  0.00     0.210 C 
ENDBRANCH  27  30
ENDBRANCH  23  24
ENDBRANCH  22  23
ENDBRANCH   1  22
TORSDOF 9
ENDMDL
MODEL 6
REMARK VINA RESULT:      -7.7      3.804      7.445
REMARK  9 active torsions:
REMARK  status: ('A' for Active; 'I' for Inactive)
REMARK    1  A    between atoms: O1_2  and  C2_3 
REMARK    2  A    between atoms: C5_6  and  C6_7 
REMARK    3  A    between atoms: C6_7  and  O2_8 
REMARK    4  A    between atoms: O2_8  and  C7_9 
REMARK    5  A    between atoms: C10_12  and  C11_13 
REMARK    6  A    between atoms: C11_13  and  C12_14 
REMARK    7  A    between atoms: C14_17  and  N2_18 
REMARK    8  A    between atoms: C15_20  and  N4_21 
REMARK    9  A    between atoms: C17_23  and  O3_24 
ROOT
HETATM    1  C7  UNL     1      23.800   3.140  50.765  1.00  0.00     0.102 A 
HETATM    2  C8  UNL     1      23.403   2.844  52.052  1.00  0.00     0.040 A 
HETATM    3  C9  UNL     1      24.203   2.466  53.081  1.00  0.00     0.010 A 
HETATM    4  C10 UNL     1      25.537   2.367  52.813  1.00  0.00    -0.051 A 
HETATM    5  C16 UNL     1      26.052   2.642  51.540  1.00  0.00     0.047 A 
HETATM    6  C17 UNL     1      25.178   3.029  50.515  1.00  0.00     0.102 A 
ENDROOT
BRANCH   4   7
HETATM    7  C11 UNL     1      26.527   1.959  53.841  1.00  0.00     0.082 C 
BRANCH   7   8
HETATM    8  C12 UNL     1      27.120   0.639  53.631  1.00  0.00     0.010 A 
HETATM    9  C13 UNL     1      26.265  -0.439  53.515  1.00  0.00     0.147 A 
HETATM   10  N1  UNL     1      26.737  -1.687  53.326  1.00  0.00    -0.075 NA
HETATM   11  C14 UNL     1      28.051  -1.960  53.240  1.00  0.00     0.721 A 
HETATM   12  N3  UNL     1      28.924  -0.930  53.349  1.00  0.00    -0.045 NA
HETATM   13  C15 UNL     1      28.457   0.329  53.539  1.00  0.00     0.148 A 
BRANCH  11  14
HETATM   14  N2  UNL     1      28.617  -3.247  53.042  1.00  0.00    -0.231 N 
HETATM   15  H13 UNL     1      28.406  -3.843  52.214  1.00  0.00     0.174 HD
HETATM   16  H14 UNL     1      29.278  -3.566  53.806  1.00  0.00     0.174 HD
ENDBRANCH  11  14
BRANCH  13  17
HETATM   17  N4  UNL     1      29.394   1.391  53.644  1.00  0.00    -0.383 N 
HETATM   18  H15 UNL     1      30.063   1.810  52.932  1.00  0.00     0.157 HD
HETATM   19  H16 UNL     1      29.701   2.046  54.393  1.00  0.00     0.157 HD
ENDBRANCH  13  17
ENDBRANCH   7   8
ENDBRANCH   4   7
BRANCH   6  20
HETATM   20  O3  UNL     1      25.737   3.290  49.275  1.00  0.00    -0.353 OA
HETATM   21  C18 UNL     1      26.923   4.054  49.226  1.00  0.00     0.210 C 
ENDBRANCH   6  20
BRANCH   1  22
HETATM   22  O2  UNL     1      23.114   3.519  49.679  1.00  0.00    -0.344 OA
BRANCH  22  23
HETATM   23  C6  UNL     1      22.620   4.693  49.189  1.00  0.00     0.214 C 
BRANCH  23  24
HETATM   24  C5  UNL     1      23.371   5.926  49.456  1.00  0.00    -0.034 A 
HETATM   25  C4  UNL     1      24.195   6.331  48.395  1.00  0.00     0.012 A 
HETATM   26  C3  UNL     1      24.989   7.453  48.439  1.00  0.00     0.037 A 
HETATM   27  C2  UNL     1      24.966   8.213  49.592  1.00  0.00     0.068 A 
HETATM   28  C20 UNL     1      24.184   7.869  50.660  1.00  0.00     0.037 A 
HETATM   29  C19 UNL     1      23.410   6.737  50.562  1.00  0.00     0.012 A 
BRANCH  27  30
HETATM   30  O1  UNL     1      25.745   9.352  49.690  1.00  0.00    -0.356 OA
HETATM   31  C1  UNL     1      27.085   9.327  50.149  1.00  0.00     0.210 C 
ENDBRANCH  27  30
ENDBRANCH  23  24
ENDBRANCH  22  23
ENDBRANCH   1  22
TORSDOF 9
ENDMDL
MODEL 7
REMARK VINA RESULT:      -7.6      1.991      2.819
REMARK  9 active torsions:
REMARK  status: ('A' for Active; 'I' for Inactive)
REMARK    1  A    between atoms: O1_2  and  C2_3 
REMARK    2  A    between atoms: C5_6  and  C6_7 
REMARK    3  A    between atoms: C6_7  and  O2_8 
REMARK    4  A    between atoms: O2_8  and  C7_9 
REMARK    5  A    between atoms: C10_12  and  C11_13 
REMARK    6  A    between atoms: C11_13  and  C12_14 
REMARK    7  A    between atoms: C14_17  and  N2_18 
REMARK    8  A    between atoms: C15_20  and  N4_21 
REMARK    9  A    between atoms: C17_23  and  O3_24 
ROOT
HETATM    1  C7  UNL     1      26.152   5.017  49.371  1.00  0.00     0.102 A 
HETATM    2  C8  UNL     1      27.411   4.550  49.055  1.00  0.00     0.040 A 
HETATM    3  C9  UNL     1      28.361   5.202  48.337  1.00  0.00     0.010 A 
HETATM    4  C10 UNL     1      28.035   6.446  47.881  1.00  0.00    -0.051 A 
HETATM    5  C16 UNL     1      26.784   7.019  48.143  1.00  0.00     0.047 A 
HETATM    6  C17 UNL     1      25.843   6.299  48.889  1.00  0.00     0.102 A 
ENDROOT
BRANCH   4   7
HETATM    7  C11 UNL     1      28.974   7.271  47.080  1.00  0.00     0.082 C 
BRANCH   7   8
HETATM    8  C12 UNL     1      29.369   8.532  47.706  1.00  0.00     0.010 A 
HETATM    9  C13 UNL     1      30.133   8.469  48.855  1.00  0.00     0.147 A 
HETATM   10  N1  UNL     1      30.529   9.588  49.492  1.00  0.00    -0.075 NA
HETATM   11  C14 UNL     1      30.214  10.821  49.056  1.00  0.00     0.721 A 
HETATM   12  N3  UNL     1      29.466  10.927  47.932  1.00  0.00    -0.045 NA
HETATM   13  C15 UNL     1      29.062   9.805  47.285  1.00  0.00     0.148 A 
BRANCH  11  14
HETATM   14  N2  UNL     1      30.597  12.040  49.675  1.00  0.00    -0.231 N 
HETATM   15  H13 UNL     1      30.712  12.934  49.155  1.00  0.00     0.174 HD
HETATM   16  H14 UNL     1      30.763  11.975  50.720  1.00  0.00     0.174 HD
ENDBRANCH  11  14
BRANCH  13  17
HETATM   17  N4  UNL     1      28.284   9.945  46.107  1.00  0.00    -0.383 N 
HETATM   18  H15 UNL     1      28.556   9.924  45.079  1.00  0.00     0.157 HD
HETATM   19  H16 UNL     1      27.277  10.102  45.888  1.00  0.00     0.157 HD
ENDBRANCH  13  17
ENDBRANCH   7   8
ENDBRANCH   4   7
BRANCH   6  20
HETATM   20  O3  UNL     1      24.621   6.910  49.120  1.00  0.00    -0.353 OA
HETATM   21  C18 UNL     1      24.580   8.005  50.009  1.00  0.00     0.210 C 
ENDBRANCH   6  20
BRANCH   1  22
HETATM   22  O2  UNL     1      25.142   4.474  50.062  1.00  0.00    -0.344 OA
BRANCH  22  23
HETATM   23  C6  UNL     1      24.738   3.210  50.385  1.00  0.00     0.214 C 
BRANCH  23  24
HETATM   24  C5  UNL     1      25.462   2.504  51.450  1.00  0.00    -0.034 A 
HETATM   25  C4  UNL     1      24.989   2.784  52.742  1.00  0.00     0.012 A 
HETATM   26  C3  UNL     1      25.529   2.235  53.881  1.00  0.00     0.037 A 
HETATM   27  C2  UNL     1      26.591   1.364  53.735  1.00  0.00     0.068 A 
HETATM   28  C20 UNL     1      27.097   1.053  52.504  1.00  0.00     0.037 A 
HETATM   29  C19 UNL     1      26.518   1.631  51.398  1.00  0.00     0.012 A 
BRANCH  27  30
HETATM   30  O1  UNL     1      27.171   0.784  54.848  1.00  0.00    -0.356 OA
HETATM   31  C1  UNL     1      28.500   0.293  54.851  1.00  0.00     0.210 C 
ENDBRANCH  27  30
ENDBRANCH  23  24
ENDBRANCH  22  23
ENDBRANCH   1  22
TORSDOF 9
ENDMDL
MODEL 8
REMARK VINA RESULT:      -7.6      6.399      8.407
REMARK  9 active torsions:
REMARK  status: ('A' for Active; 'I' for Inactive)
REMARK    1  A    between atoms: O1_2  and  C2_3 
REMARK    2  A    between atoms: C5_6  and  C6_7 
REMARK    3  A    between atoms: C6_7  and  O2_8 
REMARK    4  A    between atoms: O2_8  and  C7_9 
REMARK    5  A    between atoms: C10_12  and  C11_13 
REMARK    6  A    between atoms: C11_13  and  C12_14 
REMARK    7  A    between atoms: C14_17  and  N2_18 
REMARK    8  A    between atoms: C15_20  and  N4_21 
REMARK    9  A    between atoms: C17_23  and  O3_24 
ROOT
HETATM    1  C7  UNL     1      21.661   0.979  51.882  1.00  0.00     0.102 A 
HETATM    2  C8  UNL     1      22.227   0.486  53.039  1.00  0.00     0.040 A 
HETATM    3  C9  UNL     1      23.519   0.622  53.432  1.00  0.00     0.010 A 
HETATM    4  C10 UNL     1      24.342   1.315  52.594  1.00  0.00    -0.051 A 
HETATM    5  C16 UNL     1      23.875   1.860  51.391  1.00  0.00     0.047 A 
HETATM    6  C17 UNL     1      22.530   1.689  51.038  1.00  0.00     0.102 A 
ENDROOT
BRANCH   4   7
HETATM    7  C11 UNL     1      25.779   1.537  52.894  1.00  0.00     0.082 C 
BRANCH   7   8
HETATM    8  C12 UNL     1      26.577   0.317  53.005  1.00  0.00     0.010 A 
HETATM    9  C13 UNL     1      26.219  -0.761  52.218  1.00  0.00     0.147 A 
HETATM   10  N1  UNL     1      26.902  -1.921  52.270  1.00  0.00    -0.075 NA
HETATM   11  C14 UNL     1      27.961  -2.103  53.078  1.00  0.00     0.721 A 
HETATM   12  N3  UNL     1      28.345  -1.072  53.867  1.00  0.00    -0.045 NA
HETATM   13  C15 UNL     1      27.662   0.100  53.822  1.00  0.00     0.148 A 
BRANCH  11  14
HETATM   14  N2  UNL     1      28.725  -3.296  53.183  1.00  0.00    -0.231 N 
HETATM   15  H13 UNL     1      29.637  -3.435  52.700  1.00  0.00     0.174 HD
HETATM   16  H14 UNL     1      28.296  -4.047  53.796  1.00  0.00     0.174 HD
ENDBRANCH  11  14
BRANCH  13  17
HETATM   17  N4  UNL     1      28.090   1.166  54.655  1.00  0.00    -0.383 N 
HETATM   18  H15 UNL     1      28.838   1.211  55.409  1.00  0.00     0.157 HD
HETATM   19  H16 UNL     1      27.828   2.166  54.784  1.00  0.00     0.157 HD
ENDBRANCH  13  17
ENDBRANCH   7   8
ENDBRANCH   4   7
BRANCH   6  20
HETATM   20  O3  UNL     1      22.118   2.247  49.839  1.00  0.00    -0.353 OA
HETATM   21  C18 UNL     1      21.878   1.382  48.749  1.00  0.00     0.210 C 
ENDBRANCH   6  20
BRANCH   1  22
HETATM   22  O2  UNL     1      20.416   0.912  51.393  1.00  0.00    -0.344 OA
BRANCH  22  23
HETATM   23  C6  UNL     1      19.154   1.041  51.895  1.00  0.00     0.214 C 
BRANCH  23  24
HETATM   24  C5  UNL     1      18.455  -0.174  52.333  1.00  0.00    -0.034 A 
HETATM   25  C4  UNL     1      17.205  -0.362  51.724  1.00  0.00     0.012 A 
HETATM   26  C3  UNL     1      16.385  -1.432  51.997  1.00  0.00     0.037 A 
HETATM   27  C2  UNL     1      16.823  -2.362  52.919  1.00  0.00     0.068 A 
HETATM   28  C20 UNL     1      18.031  -2.233  53.546  1.00  0.00     0.037 A 
HETATM   29  C19 UNL     1      18.812  -1.143  53.236  1.00  0.00     0.012 A 
BRANCH  27  30
HETATM   30  O1  UNL     1      16.037  -3.456  53.229  1.00  0.00    -0.356 OA
HETATM   31  C1  UNL     1      16.563  -4.639  53.805  1.00  0.00     0.210 C 
ENDBRANCH  27  30
ENDBRANCH  23  24
ENDBRANCH  22  23
ENDBRANCH   1  22
TORSDOF 9
ENDMDL
MODEL 9
REMARK VINA RESULT:      -7.5      8.857     11.582
REMARK  9 active torsions:
REMARK  status: ('A' for Active; 'I' for Inactive)
REMARK    1  A    between atoms: O1_2  and  C2_3 
REMARK    2  A    between atoms: C5_6  and  C6_7 
REMARK    3  A    between atoms: C6_7  and  O2_8 
REMARK    4  A    between atoms: O2_8  and  C7_9 
REMARK    5  A    between atoms: C10_12  and  C11_13 
REMARK    6  A    between atoms: C11_13  and  C12_14 
REMARK    7  A    between atoms: C14_17  and  N2_18 
REMARK    8  A    between atoms: C15_20  and  N4_21 
REMARK    9  A    between atoms: C17_23  and  O3_24 
ROOT
HETATM    1  C7  UNL     1      20.591  -0.149  52.909  1.00  0.00     0.102 A 
HETATM    2  C8  UNL     1      19.569  -0.859  53.502  1.00  0.00     0.040 A 
HETATM    3  C9  UNL     1      18.303  -1.003  53.033  1.00  0.00     0.010 A 
HETATM    4  C10 UNL     1      18.013  -0.379  51.856  1.00  0.00    -0.051 A 
HETATM    5  C16 UNL     1      18.975   0.371  51.167  1.00  0.00     0.047 A 
HETATM    6  C17 UNL     1      20.267   0.484  51.699  1.00  0.00     0.102 A 
ENDROOT
BRANCH   4   7
HETATM    7  C11 UNL     1      16.669  -0.446  51.229  1.00  0.00     0.082 C 
BRANCH   7   8
HETATM    8  C12 UNL     1      15.606   0.211  51.988  1.00  0.00     0.010 A 
HETATM    9  C13 UNL     1      15.552   1.591  51.957  1.00  0.00     0.147 A 
HETATM   10  N1  UNL     1      14.605   2.267  52.636  1.00  0.00    -0.075 NA
HETATM   11  C14 UNL     1      13.665   1.653  53.375  1.00  0.00     0.721 A 
HETATM   12  N3  UNL     1      13.682   0.300  53.432  1.00  0.00    -0.045 NA
HETATM   13  C15 UNL     1      14.633  -0.389  52.753  1.00  0.00     0.148 A 
BRANCH  11  14
HETATM   14  N2  UNL     1      12.639   2.301  54.114  1.00  0.00    -0.231 N 
HETATM   15  H13 UNL     1      11.654   2.371  53.784  1.00  0.00     0.174 HD
HETATM   16  H14 UNL     1      12.951   2.718  55.037  1.00  0.00     0.174 HD
ENDBRANCH  11  14
BRANCH  13  17
HETATM   17  N4  UNL     1      14.625  -1.806  52.825  1.00  0.00    -0.383 N 
HETATM   18  H15 UNL     1      14.453  -2.546  52.081  1.00  0.00     0.157 HD
HETATM   19  H16 UNL     1      14.772  -2.519  53.571  1.00  0.00     0.157 HD
ENDBRANCH  13  17
ENDBRANCH   7   8
ENDBRANCH   4   7
BRANCH   6  20
HETATM   20  O3  UNL     1      21.180   1.237  50.979  1.00  0.00    -0.353 OA
HETATM   21  C18 UNL     1      21.410   0.894  49.630  1.00  0.00     0.210 C 
ENDBRANCH   6  20
BRANCH   1  22
HETATM   22  O2  UNL     1      21.864   0.063  53.270  1.00  0.00    -0.344 OA
BRANCH  22  23
HETATM   23  C6  UNL     1      23.032  -0.641  53.215  1.00  0.00     0.214 C 
BRANCH  23  24
HETATM   24  C5  UNL     1      24.281   0.066  53.527  1.00  0.00    -0.034 A 
HETATM   25  C4  UNL     1      24.295   1.406  53.111  1.00  0.00     0.012 A 
HETATM   26  C3  UNL     1      25.368   2.245  53.298  1.00  0.00     0.037 A 
HETATM   27  C2  UNL     1      26.484   1.731  53.929  1.00  0.00     0.068 A 
HETATM   28  C20 UNL     1      26.531   0.434  54.356  1.00  0.00     0.037 A 
HETATM   29  C19 UNL     1      25.429  -0.361  54.143  1.00  0.00     0.012 A 
BRANCH  27  30
HETATM   30  O1  UNL     1      27.592   2.532  54.143  1.00  0.00    -0.356 OA
HETATM   31  C1  UNL     1      28.896   2.162  53.729  1.00  0.00     0.210 C 
ENDBRANCH  27  30
ENDBRANCH  23  24
ENDBRANCH  22  23
ENDBRANCH   1  22
TORSDOF 9
ENDMDL
