MODEL 1
REMARK VINA RESULT:      -7.6      0.000      0.000
REMARK  4 active torsions:
REMARK  status: ('A' for Active; 'I' for Inactive)
REMARK    1  A    between atoms: C6_8  and  C7_9 
REMARK    2  A    between atoms: C7_9  and  N1_10 
REMARK    3  A    between atoms: N1_10  and  C8_11 
REMARK    4  A    between atoms: C12_15  and  C13_16 
ROOT
HETATM    1  O1  UNL     1      23.251   4.973  52.197  1.00  0.00    -0.405 OA
HETATM    2  C1  UNL     1      23.769   4.810  51.106  1.00  0.00     0.383 C 
HETATM    3  P1  UNL     1      24.352   4.666  49.418  1.00  0.00    -0.056 P 
HETATM    4  C2  UNL     1      24.164   6.128  48.747  1.00  0.00     0.009 A 
HETATM    5  C3  UNL     1      25.287   6.917  48.262  1.00  0.00     0.001 A 
HETATM    6  C4  UNL     1      26.548   6.534  48.313  1.00  0.00     0.001 A 
HETATM    7  C5  UNL     1      26.956   5.255  48.875  1.00  0.00     0.010 A 
HETATM    8  C6  UNL     1      26.114   4.369  49.378  1.00  0.00    -0.033 A 
HETATM    9  H2  UNL     1      23.649   3.676  48.713  1.00  0.00     0.067 HD
ENDROOT
BRANCH   8  10
HETATM   10  C7  UNL     1      26.563   3.071  49.941  1.00  0.00     0.159 C 
BRANCH  10  11
HETATM   11  N1  UNL     1      26.764   3.129  51.352  1.00  0.00    -0.386 N 
HETATM   12  H9  UNL     1      26.954   3.936  51.983  1.00  0.00     0.160 HD
BRANCH  11  13
HETATM   13  C8  UNL     1      26.692   1.871  52.006  1.00  0.00     0.029 A 
HETATM   14  C9  UNL     1      25.503   1.163  52.110  1.00  0.00     0.029 A 
HETATM   15  C10 UNL     1      25.382  -0.072  52.738  1.00  0.00     0.003 A 
HETATM   16  C11 UNL     1      26.503  -0.641  53.299  1.00  0.00     0.016 A 
HETATM   17  C12 UNL     1      27.708   0.017  53.226  1.00  0.00     0.050 A 
HETATM   18  C14 UNL     1      27.776   1.230  52.596  1.00  0.00     0.045 A 
BRANCH  17  19
HETATM   19  C13 UNL     1      28.952  -0.538  53.808  1.00  0.00     0.417 C 
HETATM   20  F1  UNL     1      29.135  -1.867  53.488  1.00  0.00    -0.166 F 
HETATM   21  F2  UNL     1      30.036   0.151  53.272  1.00  0.00    -0.166 F 
HETATM   22  F3  UNL     1      28.978  -0.295  55.163  1.00  0.00    -0.166 F 
ENDBRANCH  17  19
ENDBRANCH  11  13
ENDBRANCH  10  11
ENDBRANCH   8  10
TORSDOF 4
ENDMDL
MODEL 2
REMARK VINA RESULT:      -7.5      2.786      3.429
REMARK  4 active torsions:
REMARK  status: ('A' for Active; 'I' for Inactive)
REMARK    1  A    between atoms: C6_8  and  C7_9 
REMARK    2  A    between atoms: C7_9  and  N1_10 
REMARK    3  A    between atoms: N1_10  and  C8_11 
REMARK    4  A    between atoms: C12_15  and  C13_16 
ROOT
HETATM    1  O1  UNL     1      23.850   7.780  51.198  1.00  0.00    -0.405 OA
HETATM    2  C1  UNL     1      24.238   7.016  50.331  1.00  0.00     0.383 C 
HETATM    3  P1  UNL     1      24.795   6.064  48.920  1.00  0.00    -0.056 P 
HETATM    4  C2  UNL     1      25.961   6.939  48.214  1.00  0.00     0.009 A 
HETATM    5  C3  UNL     1      27.336   6.472  48.108  1.00  0.00     0.001 A 
HETATM    6  C4  UNL     1      27.769   5.312  48.563  1.00  0.00     0.001 A 
HETATM    7  C5  UNL     1      26.897   4.359  49.235  1.00  0.00     0.010 A 
HETATM    8  C6  UNL     1      25.609   4.562  49.448  1.00  0.00    -0.033 A 
HETATM    9  H2  UNL     1      23.740   5.792  48.034  1.00  0.00     0.067 HD
ENDROOT
BRANCH   8  10
HETATM   10  C7  UNL     1      24.746   3.568  50.133  1.00  0.00     0.159 C 
BRANCH  10  11
HETATM   11  N1  UNL     1      25.052   3.446  51.521  1.00  0.00    -0.386 N 
HETATM   12  H9  UNL     1      25.188   4.171  52.258  1.00  0.00     0.160 HD
BRANCH  11  13
HETATM   13  C8  UNL     1      25.194   2.108  51.975  1.00  0.00     0.029 A 
HETATM   14  C9  UNL     1      26.369   1.391  51.794  1.00  0.00     0.029 A 
HETATM   15  C10 UNL     1      26.557   0.081  52.220  1.00  0.00     0.003 A 
HETATM   16  C11 UNL     1      25.522  -0.561  52.863  1.00  0.00     0.016 A 
HETATM   17  C12 UNL     1      24.335   0.102  53.067  1.00  0.00     0.050 A 
HETATM   18  C14 UNL     1      24.198   1.392  52.630  1.00  0.00     0.045 A 
BRANCH  17  19
HETATM   19  C13 UNL     1      23.182  -0.528  53.750  1.00  0.00     0.417 C 
HETATM   20  F1  UNL     1      22.636  -1.562  53.017  1.00  0.00    -0.166 F 
HETATM   21  F2  UNL     1      23.627  -1.083  54.947  1.00  0.00    -0.166 F 
HETATM   22  F3  UNL     1      22.263   0.437  54.097  1.00  0.00    -0.166 F 
ENDBRANCH  17  19
ENDBRANCH  11  13
ENDBRANCH  10  11
ENDBRANCH   8  10
TORSDOF 4
ENDMDL
MODEL 3
REMARK VINA RESULT:      -7.5      4.686      6.485
REMARK  4 active torsions:
REMARK  status: ('A' for Active; 'I' for Inactive)
REMARK    1  A    between atoms: C6_8  and  C7_9 
REMARK    2  A    between atoms: C7_9  and  N1_10 
REMARK    3  A    between atoms: N1_10  and  C8_11 
REMARK    4  A    between atoms: C12_15  and  C13_16 
ROOT
HETATM    1  O1  UNL     1      24.446   3.222  53.415  1.00  0.00    -0.405 OA
HETATM    2  C1  UNL     1      25.365   2.465  53.157  1.00  0.00     0.383 C 
HETATM    3  P1  UNL     1      26.806   1.519  52.669  1.00  0.00    -0.056 P 
HETATM    4  C2  UNL     1      28.092   2.436  53.027  1.00  0.00     0.009 A 
HETATM    5  C3  UNL     1      29.098   2.030  53.997  1.00  0.00     0.001 A 
HETATM    6  C4  UNL     1      29.072   0.898  54.673  1.00  0.00     0.001 A 
HETATM    7  C5  UNL     1      28.009  -0.085  54.515  1.00  0.00     0.010 A 
HETATM    8  C6  UNL     1      26.986   0.063  53.691  1.00  0.00    -0.033 A 
HETATM    9  H2  UNL     1      26.766   1.187  51.306  1.00  0.00     0.067 HD
ENDROOT
BRANCH   8  10
HETATM   10  C7  UNL     1      25.920  -0.959  53.551  1.00  0.00     0.159 C 
BRANCH  10  11
HETATM   11  N1  UNL     1      24.975  -0.912  54.618  1.00  0.00    -0.386 N 
HETATM   12  H9  UNL     1      25.106  -0.974  55.651  1.00  0.00     0.160 HD
BRANCH  11  13
HETATM   13  C8  UNL     1      23.627  -0.752  54.201  1.00  0.00     0.029 A 
HETATM   14  C9  UNL     1      22.563  -1.237  54.949  1.00  0.00     0.029 A 
HETATM   15  C10 UNL     1      21.228  -1.105  54.583  1.00  0.00     0.003 A 
HETATM   16  C11 UNL     1      20.925  -0.455  53.407  1.00  0.00     0.016 A 
HETATM   17  C12 UNL     1      21.941   0.044  52.626  1.00  0.00     0.050 A 
HETATM   18  C14 UNL     1      23.239  -0.110  53.029  1.00  0.00     0.045 A 
BRANCH  17  19
HETATM   19  C13 UNL     1      21.685   0.752  51.351  1.00  0.00     0.417 C 
HETATM   20  F1  UNL     1      21.221  -0.092  50.364  1.00  0.00    -0.166 F 
HETATM   21  F2  UNL     1      20.688   1.700  51.564  1.00  0.00    -0.166 F 
HETATM   22  F3  UNL     1      22.808   1.457  50.980  1.00  0.00    -0.166 F 
ENDBRANCH  17  19
ENDBRANCH  11  13
ENDBRANCH  10  11
ENDBRANCH   8  10
TORSDOF 4
ENDMDL
MODEL 4
REMARK VINA RESULT:      -7.5      1.665      2.106
REMARK  4 active torsions:
REMARK  status: ('A' for Active; 'I' for Inactive)
REMARK    1  A    between atoms: C6_8  and  C7_9 
REMARK    2  A    between atoms: C7_9  and  N1_10 
REMARK    3  A    between atoms: N1_10  and  C8_11 
REMARK    4  A    between atoms: C12_15  and  C13_16 
ROOT
HETATM    1  O1  UNL     1      24.380   6.899  51.444  1.00  0.00    -0.405 OA
HETATM    2  C1  UNL     1      24.862   6.484  50.404  1.00  0.00     0.383 C 
HETATM    3  P1  UNL     1      25.472   6.045  48.778  1.00  0.00    -0.056 P 
HETATM    4  C2  UNL     1      26.101   7.399  48.150  1.00  0.00     0.009 A 
HETATM    5  C3  UNL     1      27.511   7.523  47.809  1.00  0.00     0.001 A 
HETATM    6  C4  UNL     1      28.406   6.568  47.971  1.00  0.00     0.001 A 
HETATM    7  C5  UNL     1      28.070   5.263  48.520  1.00  0.00     0.010 A 
HETATM    8  C6  UNL     1      26.852   4.916  48.901  1.00  0.00    -0.033 A 
HETATM    9  H2  UNL     1      24.451   5.521  47.970  1.00  0.00     0.067 HD
ENDROOT
BRANCH   8  10
HETATM   10  C7  UNL     1      26.541   3.575  49.455  1.00  0.00     0.159 C 
BRANCH  10  11
HETATM   11  N1  UNL     1      26.831   3.479  50.848  1.00  0.00    -0.386 N 
HETATM   12  H9  UNL     1      27.515   3.995  51.442  1.00  0.00     0.160 HD
BRANCH  11  13
HETATM   13  C8  UNL     1      26.052   2.517  51.544  1.00  0.00     0.029 A 
HETATM   14  C9  UNL     1      24.719   2.739  51.861  1.00  0.00     0.029 A 
HETATM   15  C10 UNL     1      23.915   1.829  52.539  1.00  0.00     0.003 A 
HETATM   16  C11 UNL     1      24.461   0.626  52.928  1.00  0.00     0.016 A 
HETATM   17  C12 UNL     1      25.778   0.353  52.640  1.00  0.00     0.050 A 
HETATM   18  C14 UNL     1      26.528   1.281  51.970  1.00  0.00     0.045 A 
BRANCH  17  19
HETATM   19  C13 UNL     1      26.427  -0.920  53.029  1.00  0.00     0.417 C 
HETATM   20  F1  UNL     1      26.544  -1.796  51.970  1.00  0.00    -0.166 F 
HETATM   21  F2  UNL     1      27.722  -0.642  53.458  1.00  0.00    -0.166 F 
HETATM   22  F3  UNL     1      25.775  -1.461  54.113  1.00  0.00    -0.166 F 
ENDBRANCH  17  19
ENDBRANCH  11  13
ENDBRANCH  10  11
ENDBRANCH   8  10
TORSDOF 4
ENDMDL
MODEL 5
REMARK VINA RESULT:      -7.5      3.907      6.981
REMARK  4 active torsions:
REMARK  status: ('A' for Active; 'I' for Inactive)
REMARK    1  A    between atoms: C6_8  and  C7_9 
REMARK    2  A    between atoms: C7_9  and  N1_10 
REMARK    3  A    between atoms: N1_10  and  C8_11 
REMARK    4  A    between atoms: C12_15  and  C13_16 
ROOT
HETATM    1  O1  UNL     1      28.305   2.685  54.067  1.00  0.00    -0.405 OA
HETATM    2  C1  UNL     1      27.550   2.129  53.290  1.00  0.00     0.383 C 
HETATM    3  P1  UNL     1      26.554   1.130  52.185  1.00  0.00    -0.056 P 
HETATM    4  C2  UNL     1      26.157  -0.203  53.015  1.00  0.00     0.009 A 
HETATM    5  C3  UNL     1      24.779  -0.545  53.336  1.00  0.00     0.001 A 
HETATM    6  C4  UNL     1      23.730   0.176  52.991  1.00  0.00     0.001 A 
HETATM    7  C5  UNL     1      23.845   1.418  52.239  1.00  0.00     0.010 A 
HETATM    8  C6  UNL     1      24.995   1.930  51.835  1.00  0.00    -0.033 A 
HETATM    9  H2  UNL     1      27.248   0.820  51.005  1.00  0.00     0.067 HD
ENDROOT
BRANCH   8  10
HETATM   10  C7  UNL     1      25.078   3.197  51.067  1.00  0.00     0.159 C 
BRANCH  10  11
HETATM   11  N1  UNL     1      25.975   3.107  49.962  1.00  0.00    -0.386 N 
HETATM   12  H9  UNL     1      26.438   2.283  49.522  1.00  0.00     0.160 HD
BRANCH  11  13
HETATM   13  C8  UNL     1      26.289   4.353  49.359  1.00  0.00     0.029 A 
HETATM   14  C9  UNL     1      25.327   5.331  49.147  1.00  0.00     0.029 A 
HETATM   15  C10 UNL     1      25.584   6.566  48.562  1.00  0.00     0.003 A 
HETATM   16  C11 UNL     1      26.871   6.853  48.161  1.00  0.00     0.016 A 
HETATM   17  C12 UNL     1      27.863   5.920  48.347  1.00  0.00     0.050 A 
HETATM   18  C14 UNL     1      27.560   4.719  48.928  1.00  0.00     0.045 A 
BRANCH  17  19
HETATM   19  C13 UNL     1      29.266   6.163  47.940  1.00  0.00     0.417 C 
HETATM   20  F1  UNL     1      29.993   6.812  48.916  1.00  0.00    -0.166 F 
HETATM   21  F2  UNL     1      29.886   4.934  47.734  1.00  0.00    -0.166 F 
HETATM   22  F3  UNL     1      29.291   6.810  46.724  1.00  0.00    -0.166 F 
ENDBRANCH  17  19
ENDBRANCH  11  13
ENDBRANCH  10  11
ENDBRANCH   8  10
TORSDOF 4
ENDMDL
MODEL 6
REMARK VINA RESULT:      -7.3      1.886      2.589
REMARK  4 active torsions:
REMARK  status: ('A' for Active; 'I' for Inactive)
REMARK    1  A    between atoms: C6_8  and  C7_9 
REMARK    2  A    between atoms: C7_9  and  N1_10 
REMARK    3  A    between atoms: N1_10  and  C8_11 
REMARK    4  A    between atoms: C12_15  and  C13_16 
ROOT
HETATM    1  O1  UNL     1      28.308   4.736  48.427  1.00  0.00    -0.405 OA
HETATM    2  C1  UNL     1      27.213   4.962  48.911  1.00  0.00     0.383 C 
HETATM    3  P1  UNL     1      25.654   5.505  49.606  1.00  0.00    -0.056 P 
HETATM    4  C2  UNL     1      25.087   6.648  48.608  1.00  0.00     0.009 A 
HETATM    5  C3  UNL     1      23.837   6.499  47.877  1.00  0.00     0.001 A 
HETATM    6  C4  UNL     1      23.049   5.443  47.948  1.00  0.00     0.001 A 
HETATM    7  C5  UNL     1      23.357   4.291  48.783  1.00  0.00     0.010 A 
HETATM    8  C6  UNL     1      24.438   4.197  49.539  1.00  0.00    -0.033 A 
HETATM    9  H2  UNL     1      25.815   5.989  50.914  1.00  0.00     0.067 HD
ENDROOT
BRANCH   8  10
HETATM   10  C7  UNL     1      24.721   3.009  50.381  1.00  0.00     0.159 C 
BRANCH  10  11
HETATM   11  N1  UNL     1      25.697   3.273  51.387  1.00  0.00    -0.386 N 
HETATM   12  H9  UNL     1      26.083   4.173  51.746  1.00  0.00     0.160 HD
BRANCH  11  13
HETATM   13  C8  UNL     1      26.233   2.112  52.004  1.00  0.00     0.029 A 
HETATM   14  C9  UNL     1      25.623   0.871  51.889  1.00  0.00     0.029 A 
HETATM   15  C10 UNL     1      26.109  -0.294  52.473  1.00  0.00     0.003 A 
HETATM   16  C11 UNL     1      27.268  -0.229  53.215  1.00  0.00     0.016 A 
HETATM   17  C12 UNL     1      27.913   0.976  53.362  1.00  0.00     0.050 A 
HETATM   18  C14 UNL     1      27.396   2.095  52.768  1.00  0.00     0.045 A 
BRANCH  17  19
HETATM   19  C13 UNL     1      29.161   1.117  54.146  1.00  0.00     0.417 C 
HETATM   20  F1  UNL     1      29.472   2.435  54.410  1.00  0.00    -0.166 F 
HETATM   21  F2  UNL     1      28.980   0.498  55.380  1.00  0.00    -0.166 F 
HETATM   22  F3  UNL     1      30.180   0.432  53.523  1.00  0.00    -0.166 F 
ENDBRANCH  17  19
ENDBRANCH  11  13
ENDBRANCH  10  11
ENDBRANCH   8  10
TORSDOF 4
ENDMDL
MODEL 7
REMARK VINA RESULT:      -7.1      2.707      3.290
REMARK  4 active torsions:
REMARK  status: ('A' for Active; 'I' for Inactive)
REMARK    1  A    between atoms: C6_8  and  C7_9 
REMARK    2  A    between atoms: C7_9  and  N1_10 
REMARK    3  A    between atoms: N1_10  and  C8_11 
REMARK    4  A    between atoms: C12_15  and  C13_16 
ROOT
HETATM    1  O1  UNL     1      22.771   4.529  51.968  1.00  0.00    -0.405 OA
HETATM    2  C1  UNL     1      23.393   4.465  50.922  1.00  0.00     0.383 C 
HETATM    3  P1  UNL     1      24.132   4.461  49.290  1.00  0.00    -0.056 P 
HETATM    4  C2  UNL     1      23.918   5.952  48.693  1.00  0.00     0.009 A 
HETATM    5  C3  UNL     1      25.031   6.830  48.362  1.00  0.00     0.001 A 
HETATM    6  C4  UNL     1      26.303   6.512  48.507  1.00  0.00     0.001 A 
HETATM    7  C5  UNL     1      26.734   5.223  49.027  1.00  0.00     0.010 A 
HETATM    8  C6  UNL     1      25.905   4.262  49.395  1.00  0.00    -0.033 A 
HETATM    9  H2  UNL     1      23.553   3.483  48.466  1.00  0.00     0.067 HD
ENDROOT
BRANCH   8  10
HETATM   10  C7  UNL     1      26.377   2.957  49.919  1.00  0.00     0.159 C 
BRANCH  10  11
HETATM   11  N1  UNL     1      26.502   2.952  51.340  1.00  0.00    -0.386 N 
HETATM   12  H9  UNL     1      26.833   3.687  52.000  1.00  0.00     0.160 HD
BRANCH  11  13
HETATM   13  C8  UNL     1      26.106   1.736  51.958  1.00  0.00     0.029 A 
HETATM   14  C9  UNL     1      27.003   0.703  52.191  1.00  0.00     0.029 A 
HETATM   15  C10 UNL     1      26.664  -0.504  52.793  1.00  0.00     0.003 A 
HETATM   16  C11 UNL     1      25.360  -0.703  53.189  1.00  0.00     0.016 A 
HETATM   17  C12 UNL     1      24.429   0.288  52.982  1.00  0.00     0.050 A 
HETATM   18  C14 UNL     1      24.812   1.459  52.386  1.00  0.00     0.045 A 
BRANCH  17  19
HETATM   19  C13 UNL     1      23.012   0.140  53.384  1.00  0.00     0.417 C 
HETATM   20  F1  UNL     1      22.324   1.335  53.338  1.00  0.00    -0.166 F 
HETATM   21  F2  UNL     1      22.384  -0.713  52.481  1.00  0.00    -0.166 F 
HETATM   22  F3  UNL     1      22.939  -0.483  54.609  1.00  0.00    -0.166 F 
ENDBRANCH  17  19
ENDBRANCH  11  13
ENDBRANCH  10  11
ENDBRANCH   8  10
TORSDOF 4
ENDMDL
MODEL 8
REMARK VINA RESULT:      -6.9      4.257      5.539
REMARK  4 active torsions:
REMARK  status: ('A' for Active; 'I' for Inactive)
REMARK    1  A    between atoms: C6_8  and  C7_9 
REMARK    2  A    between atoms: C7_9  and  N1_10 
REMARK    3  A    between atoms: N1_10  and  C8_11 
REMARK    4  A    between atoms: C12_15  and  C13_16 
ROOT
HETATM    1  O1  UNL     1      20.758   0.885  49.879  1.00  0.00    -0.405 OA
HETATM    2  C1  UNL     1      21.071   0.888  51.056  1.00  0.00     0.383 C 
HETATM    3  P1  UNL     1      21.319   0.920  52.830  1.00  0.00    -0.056 P 
HETATM    4  C2  UNL     1      20.229  -0.099  53.459  1.00  0.00     0.009 A 
HETATM    5  C3  UNL     1      20.608  -1.296  54.194  1.00  0.00     0.001 A 
HETATM    6  C4  UNL     1      21.852  -1.670  54.424  1.00  0.00     0.001 A 
HETATM    7  C5  UNL     1      22.999  -0.908  53.954  1.00  0.00     0.010 A 
HETATM    8  C6  UNL     1      22.904   0.216  53.264  1.00  0.00    -0.033 A 
HETATM    9  H2  UNL     1      21.176   2.218  53.346  1.00  0.00     0.067 HD
ENDROOT
BRANCH   8  10
HETATM   10  C7  UNL     1      24.094   0.972  52.801  1.00  0.00     0.159 C 
BRANCH  10  11
HETATM   11  N1  UNL     1      25.132   0.117  52.325  1.00  0.00    -0.386 N 
HETATM   12  H9  UNL     1      25.174  -0.510  51.493  1.00  0.00     0.160 HD
BRANCH  11  13
HETATM   13  C8  UNL     1      26.308   0.123  53.121  1.00  0.00     0.029 A 
HETATM   14  C9  UNL     1      26.495   1.036  54.150  1.00  0.00     0.029 A 
HETATM   15  C10 UNL     1      27.626   1.082  54.956  1.00  0.00     0.003 A 
HETATM   16  C11 UNL     1      28.635   0.171  54.733  1.00  0.00     0.016 A 
HETATM   17  C12 UNL     1      28.503  -0.756  53.726  1.00  0.00     0.050 A 
HETATM   18  C14 UNL     1      27.369  -0.761  52.959  1.00  0.00     0.045 A 
BRANCH  17  19
HETATM   19  C13 UNL     1      29.548  -1.762  53.432  1.00  0.00     0.417 C 
HETATM   20  F1  UNL     1      29.059  -3.052  53.454  1.00  0.00    -0.166 F 
HETATM   21  F2  UNL     1      30.025  -1.541  52.143  1.00  0.00    -0.166 F 
HETATM   22  F3  UNL     1      30.622  -1.574  54.273  1.00  0.00    -0.166 F 
ENDBRANCH  17  19
ENDBRANCH  11  13
ENDBRANCH  10  11
ENDBRANCH   8  10
TORSDOF 4
ENDMDL
MODEL 9
REMARK VINA RESULT:      -6.9      5.446      7.165
REMARK  4 active torsions:
REMARK  status: ('A' for Active; 'I' for Inactive)
REMARK    1  A    between atoms: C6_8  and  C7_9 
REMARK    2  A    between atoms: C7_9  and  N1_10 
REMARK    3  A    between atoms: N1_10  and  C8_11 
REMARK    4  A    between atoms: C12_15  and  C13_16 
ROOT
HETATM    1  O1  UNL     1      26.431   8.978  46.042  1.00  0.00    -0.405 OA
HETATM    2  C1  UNL     1      26.835   8.393  47.031  1.00  0.00     0.383 C 
HETATM    3  P1  UNL     1      27.246   7.602  48.585  1.00  0.00    -0.056 P 
HETATM    4  C2  UNL     1      25.926   6.780  49.037  1.00  0.00     0.009 A 
HETATM    5  C3  UNL     1      25.915   5.331  49.178  1.00  0.00     0.001 A 
HETATM    6  C4  UNL     1      26.956   4.551  48.958  1.00  0.00     0.001 A 
HETATM    7  C5  UNL     1      28.251   5.069  48.542  1.00  0.00     0.010 A 
HETATM    8  C6  UNL     1      28.503   6.353  48.349  1.00  0.00    -0.033 A 
HETATM    9  H2  UNL     1      27.632   8.541  49.555  1.00  0.00     0.067 HD
ENDROOT
BRANCH   8  10
HETATM   10  C7  UNL     1      29.835   6.850  47.928  1.00  0.00     0.159 C 
BRANCH  10  11
HETATM   11  N1  UNL     1      30.799   6.787  48.978  1.00  0.00    -0.386 N 
HETATM   12  H9  UNL     1      30.788   7.187  49.941  1.00  0.00     0.160 HD
BRANCH  11  13
HETATM   13  C8  UNL     1      31.970   6.053  48.655  1.00  0.00     0.029 A 
HETATM   14  C9  UNL     1      33.242   6.566  48.869  1.00  0.00     0.029 A 
HETATM   15  C10 UNL     1      34.418   5.887  48.570  1.00  0.00     0.003 A 
HETATM   16  C11 UNL     1      34.334   4.624  48.026  1.00  0.00     0.016 A 
HETATM   17  C12 UNL     1      33.098   4.068  47.792  1.00  0.00     0.050 A 
HETATM   18  C14 UNL     1      31.969   4.776  48.104  1.00  0.00     0.045 A 
BRANCH  17  19
HETATM   19  C13 UNL     1      32.935   2.716  47.210  1.00  0.00     0.417 C 
HETATM   20  F1  UNL     1      31.776   2.596  46.472  1.00  0.00    -0.166 F 
HETATM   21  F2  UNL     1      33.990   2.483  46.333  1.00  0.00    -0.166 F 
HETATM   22  F3  UNL     1      33.048   1.767  48.202  1.00  0.00    -0.166 F 
ENDBRANCH  17  19
ENDBRANCH  11  13
ENDBRANCH  10  11
ENDBRANCH   8  10
TORSDOF 4
ENDMDL
