MODEL 1
REMARK VINA RESULT:      -8.8      0.000      0.000
REMARK  2 active torsions:
REMARK  status: ('A' for Active; 'I' for Inactive)
REMARK    1  A    between atoms: C10_13  and  N3_14 
REMARK    2  A    between atoms: N3_14  and  C11_15 
ROOT
HETATM    1  C1  UNL     1      24.483  -0.870  54.812  1.00  0.00     0.021 C 
HETATM    2  C2  UNL     1      23.326  -0.680  54.186  1.00  0.00    -0.028 A 
HETATM    3  C3  UNL     1      22.140  -1.337  54.690  1.00  0.00     0.009 A 
HETATM    4  C4  UNL     1      21.049  -1.081  53.987  1.00  0.00     0.003 A 
HETATM    5  C5  UNL     1      21.059  -0.214  52.817  1.00  0.00     0.035 A 
HETATM    6  C6  UNL     1      22.174   0.388  52.368  1.00  0.00     0.090 A 
HETATM    7  O1  UNL     1      21.891   1.148  51.243  1.00  0.00    -0.323 OA
HETATM    8  C7  UNL     1      21.019   0.712  50.249  1.00  0.00     0.161 C 
HETATM    9  C8  UNL     1      21.392   1.187  49.062  1.00  0.00     0.142 C 
HETATM   10  N1  UNL     1      22.517   1.895  49.538  1.00  0.00    -0.252 NA
HETATM   11  C9  UNL     1      22.423   3.028  50.112  1.00  0.00     0.234 C 
HETATM   12  N2  UNL     1      23.818   2.780  50.125  1.00  0.00    -0.227 NA
HETATM   13  C10 UNL     1      24.475   2.592  51.246  1.00  0.00     0.134 C 
HETATM   14  C17 UNL     1      23.916   2.608  52.607  1.00  0.00     0.349 C 
HETATM   15  N4  UNL     1      24.143   1.442  53.388  1.00  0.00     0.105 N 
HETATM   16  C18 UNL     1      23.484   0.242  52.999  1.00  0.00     0.309 A 
HETATM   17  H16 UNL     1      25.165   1.224  53.474  1.00  0.00     0.317 HD
ENDROOT
BRANCH  13  18
HETATM   18  N3  UNL     1      25.865   2.361  51.048  1.00  0.00    -0.343 N 
HETATM   19  H9  UNL     1      26.301   2.744  50.153  1.00  0.00     0.167 HD
BRANCH  18  20
HETATM   20  C11 UNL     1      26.718   1.664  51.927  1.00  0.00     0.034 A 
HETATM   21  C12 UNL     1      27.580   2.241  52.832  1.00  0.00     0.029 A 
HETATM   22  C13 UNL     1      28.424   1.586  53.696  1.00  0.00     0.004 A 
HETATM   23  C14 UNL     1      28.425   0.187  53.670  1.00  0.00     0.019 A 
HETATM   24  C15 UNL     1      27.576  -0.433  52.777  1.00  0.00     0.013 A 
HETATM   25 BR1  UNL     1      27.548  -2.341  52.713  1.00  0.00    -0.051 Br
HETATM   26  C16 UNL     1      26.754   0.285  51.938  1.00  0.00     0.048 A 
ENDBRANCH  18  20
ENDBRANCH  13  18
TORSDOF 2
ENDMDL
MODEL 2
REMARK VINA RESULT:      -8.7      3.184      5.724
REMARK  2 active torsions:
REMARK  status: ('A' for Active; 'I' for Inactive)
REMARK    1  A    between atoms: C10_13  and  N3_14 
REMARK    2  A    between atoms: N3_14  and  C11_15 
ROOT
HETATM    1  C1  UNL     1      28.011   6.597  48.308  1.00  0.00     0.021 C 
HETATM    2  C2  UNL     1      26.682   6.593  48.337  1.00  0.00    -0.028 A 
HETATM    3  C3  UNL     1      25.959   7.465  47.438  1.00  0.00     0.009 A 
HETATM    4  C4  UNL     1      24.644   7.382  47.557  1.00  0.00     0.003 A 
HETATM    5  C5  UNL     1      24.002   6.488  48.510  1.00  0.00     0.035 A 
HETATM    6  C6  UNL     1      24.695   5.685  49.335  1.00  0.00     0.090 A 
HETATM    7  O1  UNL     1      23.828   4.949  50.131  1.00  0.00    -0.323 OA
HETATM    8  C7  UNL     1      22.674   5.498  50.680  1.00  0.00     0.161 C 
HETATM    9  C8  UNL     1      22.398   4.926  51.851  1.00  0.00     0.142 C 
HETATM   10  N1  UNL     1      23.504   4.047  51.844  1.00  0.00    -0.252 NA
HETATM   11  C9  UNL     1      23.518   2.969  51.168  1.00  0.00     0.234 C 
HETATM   12  N2  UNL     1      24.788   2.966  51.796  1.00  0.00    -0.227 NA
HETATM   13  C10 UNL     1      25.900   3.073  51.106  1.00  0.00     0.134 C 
HETATM   14  C17 UNL     1      26.021   3.202  49.645  1.00  0.00     0.349 C 
HETATM   15  N4  UNL     1      26.739   4.334  49.176  1.00  0.00     0.105 N 
HETATM   16  C18 UNL     1      26.154   5.618  49.364  1.00  0.00     0.309 A 
HETATM   17  H16 UNL     1      27.709   4.372  49.572  1.00  0.00     0.317 HD
ENDROOT
BRANCH  13  18
HETATM   18  N3  UNL     1      27.067   3.049  51.919  1.00  0.00    -0.343 N 
HETATM   19  H9  UNL     1      27.611   3.961  52.020  1.00  0.00     0.167 HD
BRANCH  18  20
HETATM   20  C11 UNL     1      27.576   1.924  52.599  1.00  0.00     0.034 A 
HETATM   21  C12 UNL     1      28.530   1.951  53.591  1.00  0.00     0.029 A 
HETATM   22  C13 UNL     1      29.045   0.871  54.266  1.00  0.00     0.004 A 
HETATM   23  C14 UNL     1      28.565  -0.398  53.926  1.00  0.00     0.019 A 
HETATM   24  C15 UNL     1      27.607  -0.472  52.936  1.00  0.00     0.013 A 
HETATM   25 BR1  UNL     1      26.926  -2.187  52.445  1.00  0.00    -0.051 Br
HETATM   26  C16 UNL     1      27.133   0.653  52.299  1.00  0.00     0.048 A 
ENDBRANCH  18  20
ENDBRANCH  13  18
TORSDOF 2
ENDMDL
MODEL 3
REMARK VINA RESULT:      -8.7      3.483      4.392
REMARK  2 active torsions:
REMARK  status: ('A' for Active; 'I' for Inactive)
REMARK    1  A    between atoms: C10_13  and  N3_14 
REMARK    2  A    between atoms: N3_14  and  C11_15 
ROOT
HETATM    1  C1  UNL     1      26.272   2.133  53.788  1.00  0.00     0.021 C 
HETATM    2  C2  UNL     1      25.151   1.610  53.304  1.00  0.00    -0.028 A 
HETATM    3  C3  UNL     1      24.803   0.250  53.654  1.00  0.00     0.009 A 
HETATM    4  C4  UNL     1      23.670  -0.167  53.113  1.00  0.00     0.003 A 
HETATM    5  C5  UNL     1      22.861   0.679  52.247  1.00  0.00     0.035 A 
HETATM    6  C6  UNL     1      23.204   1.941  51.936  1.00  0.00     0.090 A 
HETATM    7  O1  UNL     1      22.254   2.505  51.096  1.00  0.00    -0.323 OA
HETATM    8  C7  UNL     1      21.653   1.789  50.064  1.00  0.00     0.161 C 
HETATM    9  C8  UNL     1      21.356   2.599  49.049  1.00  0.00     0.142 C 
HETATM   10  N1  UNL     1      21.854   3.774  49.652  1.00  0.00    -0.252 NA
HETATM   11  C9  UNL     1      21.202   4.421  50.535  1.00  0.00     0.234 C 
HETATM   12  N2  UNL     1      22.394   5.175  50.404  1.00  0.00    -0.227 NA
HETATM   13  C10 UNL     1      23.260   5.274  51.387  1.00  0.00     0.134 C 
HETATM   14  C17 UNL     1      23.151   4.661  52.721  1.00  0.00     0.349 C 
HETATM   15  N4  UNL     1      24.234   3.831  53.117  1.00  0.00     0.105 N 
HETATM   16  C18 UNL     1      24.413   2.597  52.430  1.00  0.00     0.309 A 
HETATM   17  H16 UNL     1      25.149   4.342  53.083  1.00  0.00     0.317 HD
ENDROOT
BRANCH  13  18
HETATM   18  N3  UNL     1      24.390   6.074  51.060  1.00  0.00    -0.343 N 
HETATM   19  H9  UNL     1      24.436   7.050  51.487  1.00  0.00     0.167 HD
BRANCH  18  20
HETATM   20  C11 UNL     1      25.452   5.694  50.216  1.00  0.00     0.034 A 
HETATM   21  C12 UNL     1      25.901   4.407  50.022  1.00  0.00     0.029 A 
HETATM   22  C13 UNL     1      26.935   4.011  49.209  1.00  0.00     0.004 A 
HETATM   23  C14 UNL     1      27.618   5.001  48.495  1.00  0.00     0.019 A 
HETATM   24  C15 UNL     1      27.201   6.305  48.660  1.00  0.00     0.013 A 
HETATM   25 BR1  UNL     1      28.108   7.685  47.700  1.00  0.00    -0.051 Br
HETATM   26  C16 UNL     1      26.155   6.634  49.492  1.00  0.00     0.048 A 
ENDBRANCH  18  20
ENDBRANCH  13  18
TORSDOF 2
ENDMDL
MODEL 4
REMARK VINA RESULT:      -8.7      3.292      4.099
REMARK  2 active torsions:
REMARK  status: ('A' for Active; 'I' for Inactive)
REMARK    1  A    between atoms: C10_13  and  N3_14 
REMARK    2  A    between atoms: N3_14  and  C11_15 
ROOT
HETATM    1  C1  UNL     1      25.095  -0.764  53.455  1.00  0.00     0.021 C 
HETATM    2  C2  UNL     1      23.836  -0.439  53.725  1.00  0.00    -0.028 A 
HETATM    3  C3  UNL     1      23.141  -1.140  54.782  1.00  0.00     0.009 A 
HETATM    4  C4  UNL     1      21.893  -0.737  54.959  1.00  0.00     0.003 A 
HETATM    5  C5  UNL     1      21.292   0.317  54.155  1.00  0.00     0.035 A 
HETATM    6  C6  UNL     1      21.958   0.957  53.178  1.00  0.00     0.090 A 
HETATM    7  O1  UNL     1      21.142   1.907  52.581  1.00  0.00    -0.323 OA
HETATM    8  C7  UNL     1      19.795   1.672  52.316  1.00  0.00     0.161 C 
HETATM    9  C8  UNL     1      19.414   2.334  51.226  1.00  0.00     0.142 C 
HETATM   10  N1  UNL     1      20.673   2.918  50.965  1.00  0.00    -0.252 NA
HETATM   11  C9  UNL     1      21.099   3.938  51.597  1.00  0.00     0.234 C 
HETATM   12  N2  UNL     1      22.158   3.654  50.700  1.00  0.00    -0.227 NA
HETATM   13  C10 UNL     1      23.336   3.258  51.125  1.00  0.00     0.134 C 
HETATM   14  C17 UNL     1      23.744   3.055  52.525  1.00  0.00     0.349 C 
HETATM   15  N4  UNL     1      24.251   1.767  52.845  1.00  0.00     0.105 N 
HETATM   16  C18 UNL     1      23.346   0.669  52.821  1.00  0.00     0.309 A 
HETATM   17  H16 UNL     1      25.070   1.509  52.242  1.00  0.00     0.317 HD
ENDROOT
BRANCH  13  18
HETATM   18  N3  UNL     1      24.263   3.027  50.071  1.00  0.00    -0.343 N 
HETATM   19  H9  UNL     1      24.261   2.060  49.623  1.00  0.00     0.167 HD
BRANCH  18  20
HETATM   20  C11 UNL     1      25.191   3.962  49.569  1.00  0.00     0.034 A 
HETATM   21  C12 UNL     1      26.537   3.737  49.388  1.00  0.00     0.029 A 
HETATM   22  C13 UNL     1      27.461   4.630  48.904  1.00  0.00     0.004 A 
HETATM   23  C14 UNL     1      27.012   5.907  48.554  1.00  0.00     0.019 A 
HETATM   24  C15 UNL     1      25.669   6.176  48.719  1.00  0.00     0.013 A 
HETATM   25 BR1  UNL     1      25.017   7.909  48.251  1.00  0.00    -0.051 Br
HETATM   26  C16 UNL     1      24.794   5.233  49.210  1.00  0.00     0.048 A 
ENDBRANCH  18  20
ENDBRANCH  13  18
TORSDOF 2
ENDMDL
MODEL 5
REMARK VINA RESULT:      -8.7      3.683      4.395
REMARK  2 active torsions:
REMARK  status: ('A' for Active; 'I' for Inactive)
REMARK    1  A    between atoms: C10_13  and  N3_14 
REMARK    2  A    between atoms: N3_14  and  C11_15 
ROOT
HETATM    1  C1  UNL     1      26.141   0.497  53.583  1.00  0.00     0.021 C 
HETATM    2  C2  UNL     1      24.866   0.365  53.232  1.00  0.00    -0.028 A 
HETATM    3  C3  UNL     1      24.009  -0.495  54.018  1.00  0.00     0.009 A 
HETATM    4  C4  UNL     1      22.764  -0.554  53.575  1.00  0.00     0.003 A 
HETATM    5  C5  UNL     1      22.315   0.186  52.404  1.00  0.00     0.035 A 
HETATM    6  C6  UNL     1      23.130   0.981  51.690  1.00  0.00     0.090 A 
HETATM    7  O1  UNL     1      22.438   1.555  50.634  1.00  0.00    -0.323 OA
HETATM    8  C7  UNL     1      21.504   0.849  49.883  1.00  0.00     0.161 C 
HETATM    9  C8  UNL     1      21.488   1.288  48.626  1.00  0.00     0.142 C 
HETATM   10  N1  UNL     1      22.487   2.271  48.806  1.00  0.00    -0.252 NA
HETATM   11  C9  UNL     1      22.249   3.399  49.345  1.00  0.00     0.234 C 
HETATM   12  N2  UNL     1      23.632   3.475  49.047  1.00  0.00    -0.227 NA
HETATM   13  C10 UNL     1      24.540   3.539  49.993  1.00  0.00     0.134 C 
HETATM   14  C17 UNL     1      24.299   3.549  51.445  1.00  0.00     0.349 C 
HETATM   15  N4  UNL     1      24.961   2.538  52.193  1.00  0.00     0.105 N 
HETATM   16  C18 UNL     1      24.541   1.191  52.009  1.00  0.00     0.309 A 
HETATM   17  H16 UNL     1      25.999   2.564  52.050  1.00  0.00     0.317 HD
ENDROOT
BRANCH  13  18
HETATM   18  N3  UNL     1      25.869   3.610  49.490  1.00  0.00    -0.343 N 
HETATM   19  H9  UNL     1      26.395   2.691  49.368  1.00  0.00     0.167 HD
BRANCH  18  20
HETATM   20  C11 UNL     1      26.557   4.791  49.143  1.00  0.00     0.034 A 
HETATM   21  C12 UNL     1      27.805   4.849  48.563  1.00  0.00     0.029 A 
HETATM   22  C13 UNL     1      28.498   5.984  48.219  1.00  0.00     0.004 A 
HETATM   23  C14 UNL     1      27.894   7.219  48.475  1.00  0.00     0.019 A 
HETATM   24  C15 UNL     1      26.643   7.207  49.056  1.00  0.00     0.013 A 
HETATM   25 BR1  UNL     1      25.786   8.874  49.420  1.00  0.00    -0.051 Br
HETATM   26  C16 UNL     1      26.003   6.031  49.376  1.00  0.00     0.048 A 
ENDBRANCH  18  20
ENDBRANCH  13  18
TORSDOF 2
ENDMDL
MODEL 6
REMARK VINA RESULT:      -8.6      3.415      5.086
REMARK  2 active torsions:
REMARK  status: ('A' for Active; 'I' for Inactive)
REMARK    1  A    between atoms: C10_13  and  N3_14 
REMARK    2  A    between atoms: N3_14  and  C11_15 
ROOT
HETATM    1  C1  UNL     1      20.400   1.872  52.794  1.00  0.00     0.021 C 
HETATM    2  C2  UNL     1      21.223   0.944  53.273  1.00  0.00    -0.028 A 
HETATM    3  C3  UNL     1      20.665  -0.200  53.961  1.00  0.00     0.009 A 
HETATM    4  C4  UNL     1      21.575  -1.055  54.398  1.00  0.00     0.003 A 
HETATM    5  C5  UNL     1      23.002  -0.848  54.195  1.00  0.00     0.035 A 
HETATM    6  C6  UNL     1      23.498   0.222  53.551  1.00  0.00     0.090 A 
HETATM    7  O1  UNL     1      24.883   0.160  53.508  1.00  0.00    -0.323 OA
HETATM    8  C7  UNL     1      25.643  -0.278  54.588  1.00  0.00     0.161 C 
HETATM    9  C8  UNL     1      26.820   0.344  54.611  1.00  0.00     0.142 C 
HETATM   10  N1  UNL     1      26.591   1.126  53.457  1.00  0.00    -0.252 NA
HETATM   11  C9  UNL     1      26.708   0.659  52.278  1.00  0.00     0.234 C 
HETATM   12  N2  UNL     1      26.331   2.005  52.051  1.00  0.00    -0.227 NA
HETATM   13  C10 UNL     1      25.179   2.317  51.501  1.00  0.00     0.134 C 
HETATM   14  C17 UNL     1      24.139   1.379  51.047  1.00  0.00     0.349 C 
HETATM   15  N4  UNL     1      22.845   1.566  51.602  1.00  0.00     0.105 N 
HETATM   16  C18 UNL     1      22.667   1.284  52.986  1.00  0.00     0.309 A 
HETATM   17  H16 UNL     1      22.485   2.536  51.433  1.00  0.00     0.317 HD
ENDROOT
BRANCH  13  18
HETATM   18  N3  UNL     1      24.988   3.719  51.358  1.00  0.00    -0.343 N 
HETATM   19  H9  UNL     1      24.294   4.187  52.018  1.00  0.00     0.167 HD
BRANCH  18  20
HETATM   20  C11 UNL     1      25.630   4.546  50.414  1.00  0.00     0.034 A 
HETATM   21  C12 UNL     1      26.642   4.158  49.566  1.00  0.00     0.029 A 
HETATM   22  C13 UNL     1      27.287   4.943  48.641  1.00  0.00     0.004 A 
HETATM   23  C14 UNL     1      26.890   6.280  48.534  1.00  0.00     0.019 A 
HETATM   24  C15 UNL     1      25.878   6.712  49.366  1.00  0.00     0.013 A 
HETATM   25 BR1  UNL     1      25.308   8.531  49.248  1.00  0.00    -0.051 Br
HETATM   26  C16 UNL     1      25.273   5.870  50.272  1.00  0.00     0.048 A 
ENDBRANCH  18  20
ENDBRANCH  13  18
TORSDOF 2
ENDMDL
MODEL 7
REMARK VINA RESULT:      -8.1      8.091      9.994
REMARK  2 active torsions:
REMARK  status: ('A' for Active; 'I' for Inactive)
REMARK    1  A    between atoms: C10_13  and  N3_14 
REMARK    2  A    between atoms: N3_14  and  C11_15 
ROOT
HETATM    1  C1  UNL     1      27.476   4.692  48.654  1.00  0.00     0.021 C 
HETATM    2  C2  UNL     1      27.382   6.009  48.806  1.00  0.00    -0.028 A 
HETATM    3  C3  UNL     1      26.192   6.562  49.414  1.00  0.00     0.009 A 
HETATM    4  C4  UNL     1      26.205   7.881  49.510  1.00  0.00     0.003 A 
HETATM    5  C5  UNL     1      27.324   8.686  49.043  1.00  0.00     0.035 A 
HETATM    6  C6  UNL     1      28.422   8.150  48.482  1.00  0.00     0.090 A 
HETATM    7  O1  UNL     1      29.320   9.148  48.132  1.00  0.00    -0.323 OA
HETATM    8  C7  UNL     1      28.911  10.358  47.579  1.00  0.00     0.161 C 
HETATM    9  C8  UNL     1      29.838  10.826  46.745  1.00  0.00     0.142 C 
HETATM   10  N1  UNL     1      30.743   9.757  46.923  1.00  0.00    -0.252 NA
HETATM   11  C9  UNL     1      31.508   9.668  47.938  1.00  0.00     0.234 C 
HETATM   12  N2  UNL     1      31.837   8.511  47.190  1.00  0.00    -0.227 NA
HETATM   13  C10 UNL     1      31.582   7.303  47.638  1.00  0.00     0.134 C 
HETATM   14  C17 UNL     1      30.952   6.956  48.922  1.00  0.00     0.349 C 
HETATM   15  N4  UNL     1      29.789   6.144  48.847  1.00  0.00     0.105 N 
HETATM   16  C18 UNL     1      28.613   6.715  48.285  1.00  0.00     0.309 A 
HETATM   17  H16 UNL     1      29.973   5.245  48.338  1.00  0.00     0.317 HD
ENDROOT
BRANCH  13  18
HETATM   18  N3  UNL     1      31.988   6.276  46.742  1.00  0.00    -0.343 N 
HETATM   19  H9  UNL     1      31.688   6.370  45.723  1.00  0.00     0.167 HD
BRANCH  18  20
HETATM   20  C11 UNL     1      32.748   5.138  47.082  1.00  0.00     0.034 A 
HETATM   21  C12 UNL     1      34.007   5.153  47.637  1.00  0.00     0.029 A 
HETATM   22  C13 UNL     1      34.770   4.061  47.974  1.00  0.00     0.004 A 
HETATM   23  C14 UNL     1      34.231   2.792  47.735  1.00  0.00     0.019 A 
HETATM   24  C15 UNL     1      32.970   2.731  47.179  1.00  0.00     0.013 A 
HETATM   25 BR1  UNL     1      32.201   1.016  46.840  1.00  0.00    -0.051 Br
HETATM   26  C16 UNL     1      32.259   3.867  46.866  1.00  0.00     0.048 A 
ENDBRANCH  18  20
ENDBRANCH  13  18
TORSDOF 2
ENDMDL
MODEL 8
REMARK VINA RESULT:      -7.9      2.998      5.854
REMARK  2 active torsions:
REMARK  status: ('A' for Active; 'I' for Inactive)
REMARK    1  A    between atoms: C10_13  and  N3_14 
REMARK    2  A    between atoms: N3_14  and  C11_15 
ROOT
HETATM    1  C1  UNL     1      26.706   2.699  50.730  1.00  0.00     0.021 C 
HETATM    2  C2  UNL     1      26.305   3.787  50.081  1.00  0.00    -0.028 A 
HETATM    3  C3  UNL     1      27.219   4.436  49.167  1.00  0.00     0.009 A 
HETATM    4  C4  UNL     1      26.716   5.510  48.582  1.00  0.00     0.003 A 
HETATM    5  C5  UNL     1      25.363   5.981  48.846  1.00  0.00     0.035 A 
HETATM    6  C6  UNL     1      24.530   5.361  49.699  1.00  0.00     0.090 A 
HETATM    7  O1  UNL     1      23.315   6.027  49.755  1.00  0.00    -0.323 OA
HETATM    8  C7  UNL     1      23.225   7.416  49.754  1.00  0.00     0.161 C 
HETATM    9  C8  UNL     1      22.167   7.814  50.457  1.00  0.00     0.142 C 
HETATM   10  N1  UNL     1      21.733   6.517  50.810  1.00  0.00    -0.252 NA
HETATM   11  C9  UNL     1      21.086   5.769  50.007  1.00  0.00     0.234 C 
HETATM   12  N2  UNL     1      21.193   4.969  51.171  1.00  0.00    -0.227 NA
HETATM   13  C10 UNL     1      21.894   3.858  51.185  1.00  0.00     0.134 C 
HETATM   14  C17 UNL     1      22.645   3.278  50.059  1.00  0.00     0.349 C 
HETATM   15  N4  UNL     1      24.025   3.032  50.291  1.00  0.00     0.105 N 
HETATM   16  C18 UNL     1      24.885   4.156  50.446  1.00  0.00     0.309 A 
HETATM   17  H16 UNL     1      24.176   2.408  51.120  1.00  0.00     0.317 HD
ENDROOT
BRANCH  13  18
HETATM   18  N3  UNL     1      21.876   3.200  52.445  1.00  0.00    -0.343 N 
HETATM   19  H9  UNL     1      21.685   3.799  53.306  1.00  0.00     0.167 HD
BRANCH  18  20
HETATM   20  C11 UNL     1      22.096   1.824  52.660  1.00  0.00     0.034 A 
HETATM   21  C12 UNL     1      21.162   0.827  52.490  1.00  0.00     0.029 A 
HETATM   22  C13 UNL     1      21.348  -0.518  52.695  1.00  0.00     0.004 A 
HETATM   23  C14 UNL     1      22.610  -0.942  53.123  1.00  0.00     0.019 A 
HETATM   24  C15 UNL     1      23.577   0.024  53.307  1.00  0.00     0.013 A 
HETATM   25 BR1  UNL     1      25.313  -0.517  53.891  1.00  0.00    -0.051 Br
HETATM   26  C16 UNL     1      23.323   1.358  53.082  1.00  0.00     0.048 A 
ENDBRANCH  18  20
ENDBRANCH  13  18
TORSDOF 2
ENDMDL
MODEL 9
REMARK VINA RESULT:      -7.7      8.841     11.062
REMARK  2 active torsions:
REMARK  status: ('A' for Active; 'I' for Inactive)
REMARK    1  A    between atoms: C10_13  and  N3_14 
REMARK    2  A    between atoms: N3_14  and  C11_15 
ROOT
HETATM    1  C1  UNL     1      28.099   5.418  48.574  1.00  0.00     0.021 C 
HETATM    2  C2  UNL     1      28.385   6.532  47.909  1.00  0.00    -0.028 A 
HETATM    3  C3  UNL     1      27.305   7.299  47.327  1.00  0.00     0.009 A 
HETATM    4  C4  UNL     1      27.706   8.383  46.685  1.00  0.00     0.003 A 
HETATM    5  C5  UNL     1      29.110   8.757  46.585  1.00  0.00     0.035 A 
HETATM    6  C6  UNL     1      30.097   8.030  47.136  1.00  0.00     0.090 A 
HETATM    7  O1  UNL     1      31.327   8.618  46.881  1.00  0.00    -0.323 OA
HETATM    8  C7  UNL     1      31.639   9.194  45.653  1.00  0.00     0.161 C 
HETATM    9  C8  UNL     1      32.939   9.067  45.396  1.00  0.00     0.142 C 
HETATM   10  N1  UNL     1      33.255   8.384  46.591  1.00  0.00    -0.252 NA
HETATM   11  C9  UNL     1      33.397   8.982  47.706  1.00  0.00     0.234 C 
HETATM   12  N2  UNL     1      33.629   7.626  48.042  1.00  0.00    -0.227 NA
HETATM   13  C10 UNL     1      32.816   6.961  48.832  1.00  0.00     0.134 C 
HETATM   14  C17 UNL     1      31.596   7.476  49.473  1.00  0.00     0.349 C 
HETATM   15  N4  UNL     1      30.401   6.754  49.211  1.00  0.00     0.105 N 
HETATM   16  C18 UNL     1      29.872   6.799  47.891  1.00  0.00     0.309 A 
HETATM   17  H16 UNL     1      30.490   5.744  49.478  1.00  0.00     0.317 HD
ENDROOT
BRANCH  13  18
HETATM   18  N3  UNL     1      33.223   5.615  49.048  1.00  0.00    -0.343 N 
HETATM   19  H9  UNL     1      33.265   5.274  50.057  1.00  0.00     0.167 HD
BRANCH  18  20
HETATM   20  C11 UNL     1      33.582   4.691  48.046  1.00  0.00     0.034 A 
HETATM   21  C12 UNL     1      34.639   4.825  47.174  1.00  0.00     0.029 A 
HETATM   22  C13 UNL     1      35.008   3.943  46.188  1.00  0.00     0.004 A 
HETATM   23  C14 UNL     1      34.244   2.782  46.034  1.00  0.00     0.019 A 
HETATM   24  C15 UNL     1      33.174   2.607  46.887  1.00  0.00     0.013 A 
HETATM   25 BR1  UNL     1      32.107   1.033  46.709  1.00  0.00    -0.051 Br
HETATM   26  C16 UNL     1      32.859   3.532  47.856  1.00  0.00     0.048 A 
ENDBRANCH  18  20
ENDBRANCH  13  18
TORSDOF 2
ENDMDL
