MODEL 1
REMARK VINA RESULT:      -8.3      0.000      0.000
REMARK  6 active torsions:
REMARK  status: ('A' for Active; 'I' for Inactive)
REMARK    1  A    between atoms: C2_2  and  O2_4 
REMARK    2  A    between atoms: O2_4  and  C3_5 
REMARK    3  A    between atoms: C3_5  and  C4_6 
REMARK    4  A    between atoms: C3_5  and  C13_17 
REMARK       I    between atoms: C4_6  and  N1_8 
REMARK    5  A    between atoms: N1_8  and  C5_9 
REMARK    6  A    between atoms: C5_9  and  C6_10 
ROOT
HETATM    1  C3  UNL     1      25.910   0.368  53.983  1.00  0.00     0.254 C 
ENDROOT
BRANCH   1   2
HETATM    2  O2  UNL     1      27.032  -0.452  54.335  1.00  0.00    -0.302 OA
BRANCH   2   3
HETATM    3  C2  UNL     1      28.293   0.094  54.533  1.00  0.00     0.255 C 
HETATM    4  C1  UNL     1      29.390  -0.666  53.874  1.00  0.00     0.126 C 
HETATM    5  O1  UNL     1      28.536   1.145  55.207  1.00  0.00    -0.266 OA
ENDBRANCH   2   3
ENDBRANCH   1   2
BRANCH   1   6
HETATM    6  C4  UNL     1      26.215   0.902  52.639  1.00  0.00     0.252 C 
HETATM    7  O3  UNL     1      26.498   0.087  51.696  1.00  0.00    -0.270 OA
HETATM    8  N1  UNL     1      26.228   2.280  52.289  1.00  0.00    -0.354 N 
HETATM    9  H5  UNL     1      26.006   2.972  53.037  1.00  0.00     0.162 HD
BRANCH   8  10
HETATM   10  C5  UNL     1      26.523   2.828  50.981  1.00  0.00     0.161 C 
BRANCH  10  11
HETATM   11  C6  UNL     1      25.319   3.342  50.301  1.00  0.00    -0.035 A 
HETATM   12  C7  UNL     1      24.040   2.868  50.505  1.00  0.00     0.009 A 
HETATM   13  C8  UNL     1      22.931   3.366  49.854  1.00  0.00     0.001 A 
HETATM   14  C9  UNL     1      23.144   4.398  48.949  1.00  0.00     0.001 A 
HETATM   15  C10 UNL     1      24.427   4.879  48.739  1.00  0.00     0.007 A 
HETATM   16  C11 UNL     1      25.532   4.377  49.394  1.00  0.00    -0.054 A 
HETATM   17  C12 UNL     1      26.826   5.013  49.042  1.00  0.00     0.049 C 
ENDBRANCH  10  11
ENDBRANCH   8  10
ENDBRANCH   1   6
BRANCH   1  18
HETATM   18  C13 UNL     1      24.654  -0.432  54.020  1.00  0.00    -0.018 C 
HETATM   19  C14 UNL     1      24.442  -1.337  54.973  1.00  0.00    -0.019 C 
HETATM   20  C15 UNL     1      23.243  -1.340  55.546  1.00  0.00     0.020 C 
HETATM   21  C16 UNL     1      22.437  -0.504  54.671  1.00  0.00    -0.045 A 
HETATM   22  C17 UNL     1      21.469   0.315  54.224  1.00  0.00     0.008 A 
HETATM   23  C20 UNL     1      23.348  -0.817  53.508  1.00  0.00     0.074 A 
HETATM   24  C18 UNL     1      21.657   0.631  52.791  1.00  0.00    -0.002 A 
HETATM   25  C19 UNL     1      22.750  -0.031  52.421  1.00  0.00    -0.013 A 
ENDBRANCH   1  18
TORSDOF 6
ENDMDL
MODEL 2
REMARK VINA RESULT:      -8.2      1.469      2.242
REMARK  6 active torsions:
REMARK  status: ('A' for Active; 'I' for Inactive)
REMARK    1  A    between atoms: C2_2  and  O2_4 
REMARK    2  A    between atoms: O2_4  and  C3_5 
REMARK    3  A    between atoms: C3_5  and  C4_6 
REMARK    4  A    between atoms: C3_5  and  C13_17 
REMARK       I    between atoms: C4_6  and  N1_8 
REMARK    5  A    between atoms: N1_8  and  C5_9 
REMARK    6  A    between atoms: C5_9  and  C6_10 
ROOT
HETATM    1  C3  UNL     1      25.270   1.238  53.448  1.00  0.00     0.254 C 
ENDROOT
BRANCH   1   2
HETATM    2  O2  UNL     1      26.489   0.817  52.821  1.00  0.00    -0.302 OA
BRANCH   2   3
HETATM    3  C2  UNL     1      27.721   1.313  53.230  1.00  0.00     0.255 C 
HETATM    4  C1  UNL     1      28.317   0.576  54.377  1.00  0.00     0.126 C 
HETATM    5  O1  UNL     1      28.321   2.303  52.703  1.00  0.00    -0.266 OA
ENDBRANCH   2   3
ENDBRANCH   1   2
BRANCH   1   6
HETATM    6  C4  UNL     1      24.696   2.263  52.551  1.00  0.00     0.252 C 
HETATM    7  O3  UNL     1      24.159   3.304  53.061  1.00  0.00    -0.270 OA
HETATM    8  N1  UNL     1      24.683   2.193  51.131  1.00  0.00    -0.354 N 
HETATM    9  H5  UNL     1      25.109   1.354  50.683  1.00  0.00     0.162 HD
BRANCH   8  10
HETATM   10  C5  UNL     1      24.128   3.183  50.231  1.00  0.00     0.161 C 
BRANCH  10  11
HETATM   11  C6  UNL     1      25.163   4.056  49.647  1.00  0.00    -0.035 A 
HETATM   12  C7  UNL     1      26.481   3.694  49.458  1.00  0.00     0.009 A 
HETATM   13  C8  UNL     1      27.430   4.531  48.911  1.00  0.00     0.001 A 
HETATM   14  C9  UNL     1      27.008   5.801  48.540  1.00  0.00     0.001 A 
HETATM   15  C10 UNL     1      25.685   6.172  48.726  1.00  0.00     0.007 A 
HETATM   16  C11 UNL     1      24.741   5.330  49.274  1.00  0.00    -0.054 A 
HETATM   17  C12 UNL     1      23.375   5.896  49.399  1.00  0.00     0.049 C 
ENDBRANCH  10  11
ENDBRANCH   8  10
ENDBRANCH   1   6
BRANCH   1  18
HETATM   18  C13 UNL     1      24.367   0.072  53.654  1.00  0.00    -0.018 C 
HETATM   19  C14 UNL     1      24.666  -0.885  54.531  1.00  0.00    -0.019 C 
HETATM   20  C15 UNL     1      23.689  -1.298  55.330  1.00  0.00     0.020 C 
HETATM   21  C16 UNL     1      22.488  -0.740  54.728  1.00  0.00    -0.045 A 
HETATM   22  C17 UNL     1      21.239  -0.268  54.574  1.00  0.00     0.008 A 
HETATM   23  C20 UNL     1      23.165  -0.700  53.379  1.00  0.00     0.074 A 
HETATM   24  C18 UNL     1      20.993   0.142  53.173  1.00  0.00    -0.002 A 
HETATM   25  C19 UNL     1      22.125  -0.115  52.523  1.00  0.00    -0.013 A 
ENDBRANCH   1  18
TORSDOF 6
ENDMDL
MODEL 3
REMARK VINA RESULT:      -8.1      1.590      2.425
REMARK  6 active torsions:
REMARK  status: ('A' for Active; 'I' for Inactive)
REMARK    1  A    between atoms: C2_2  and  O2_4 
REMARK    2  A    between atoms: O2_4  and  C3_5 
REMARK    3  A    between atoms: C3_5  and  C4_6 
REMARK    4  A    between atoms: C3_5  and  C13_17 
REMARK       I    between atoms: C4_6  and  N1_8 
REMARK    5  A    between atoms: N1_8  and  C5_9 
REMARK    6  A    between atoms: C5_9  and  C6_10 
ROOT
HETATM    1  C3  UNL     1      24.847   0.866  53.110  1.00  0.00     0.254 C 
ENDROOT
BRANCH   1   2
HETATM    2  O2  UNL     1      25.779   0.280  52.191  1.00  0.00    -0.302 OA
BRANCH   2   3
HETATM    3  C2  UNL     1      26.939  -0.342  52.637  1.00  0.00     0.255 C 
HETATM    4  C1  UNL     1      26.896  -1.827  52.555  1.00  0.00     0.126 C 
HETATM    5  O1  UNL     1      27.966   0.262  53.082  1.00  0.00    -0.266 OA
ENDBRANCH   2   3
ENDBRANCH   1   2
BRANCH   1   6
HETATM    6  C4  UNL     1      24.488   2.177  52.529  1.00  0.00     0.252 C 
HETATM    7  O3  UNL     1      24.276   3.165  53.310  1.00  0.00    -0.270 OA
HETATM    8  N1  UNL     1      24.350   2.446  51.139  1.00  0.00    -0.354 N 
HETATM    9  H5  UNL     1      24.512   1.660  50.475  1.00  0.00     0.162 HD
BRANCH   8  10
HETATM   10  C5  UNL     1      24.001   3.721  50.545  1.00  0.00     0.161 C 
BRANCH  10  11
HETATM   11  C6  UNL     1      25.139   4.348  49.848  1.00  0.00    -0.035 A 
HETATM   12  C7  UNL     1      26.347   3.727  49.601  1.00  0.00     0.009 A 
HETATM   13  C8  UNL     1      27.396   4.337  48.947  1.00  0.00     0.001 A 
HETATM   14  C9  UNL     1      27.198   5.646  48.527  1.00  0.00     0.001 A 
HETATM   15  C10 UNL     1      25.988   6.276  48.771  1.00  0.00     0.007 A 
HETATM   16  C11 UNL     1      24.942   5.660  49.426  1.00  0.00    -0.054 A 
HETATM   17  C12 UNL     1      23.722   6.486  49.600  1.00  0.00     0.049 C 
ENDBRANCH  10  11
ENDBRANCH   8  10
ENDBRANCH   1   6
BRANCH   1  18
HETATM   18  C13 UNL     1      23.672  -0.031  53.293  1.00  0.00    -0.018 C 
HETATM   19  C14 UNL     1      23.603  -0.873  54.323  1.00  0.00    -0.019 C 
HETATM   20  C15 UNL     1      22.448  -0.931  54.978  1.00  0.00     0.020 C 
HETATM   21  C16 UNL     1      21.516  -0.236  54.104  1.00  0.00    -0.045 A 
HETATM   22  C17 UNL     1      20.453   0.461  53.669  1.00  0.00     0.008 A 
HETATM   23  C20 UNL     1      22.374  -0.563  52.905  1.00  0.00     0.074 A 
HETATM   24  C18 UNL     1      20.520   0.679  52.207  1.00  0.00    -0.002 A 
HETATM   25  C19 UNL     1      21.641   0.083  51.810  1.00  0.00    -0.013 A 
ENDBRANCH   1  18
TORSDOF 6
ENDMDL
MODEL 4
REMARK VINA RESULT:      -8.1      2.273      4.239
REMARK  6 active torsions:
REMARK  status: ('A' for Active; 'I' for Inactive)
REMARK    1  A    between atoms: C2_2  and  O2_4 
REMARK    2  A    between atoms: O2_4  and  C3_5 
REMARK    3  A    between atoms: C3_5  and  C4_6 
REMARK    4  A    between atoms: C3_5  and  C13_17 
REMARK       I    between atoms: C4_6  and  N1_8 
REMARK    5  A    between atoms: N1_8  and  C5_9 
REMARK    6  A    between atoms: C5_9  and  C6_10 
ROOT
HETATM    1  C3  UNL     1      23.543  -0.059  52.896  1.00  0.00     0.254 C 
ENDROOT
BRANCH   1   2
HETATM    2  O2  UNL     1      22.742   0.070  54.079  1.00  0.00    -0.302 OA
BRANCH   2   3
HETATM    3  C2  UNL     1      22.231  -1.045  54.731  1.00  0.00     0.255 C 
HETATM    4  C1  UNL     1      20.909  -1.492  54.214  1.00  0.00     0.126 C 
HETATM    5  O1  UNL     1      22.804  -1.659  55.686  1.00  0.00    -0.266 OA
ENDBRANCH   2   3
ENDBRANCH   1   2
BRANCH   1   6
HETATM    6  C4  UNL     1      23.282   1.162  52.106  1.00  0.00     0.252 C 
HETATM    7  O3  UNL     1      22.582   1.074  51.040  1.00  0.00    -0.270 OA
HETATM    8  N1  UNL     1      23.756   2.463  52.429  1.00  0.00    -0.354 N 
HETATM    9  H5  UNL     1      24.335   2.568  53.289  1.00  0.00     0.162 HD
BRANCH   8  10
HETATM   10  C5  UNL     1      23.513   3.675  51.672  1.00  0.00     0.161 C 
BRANCH  10  11
HETATM   11  C6  UNL     1      24.635   4.014  50.776  1.00  0.00    -0.035 A 
HETATM   12  C7  UNL     1      25.543   3.103  50.276  1.00  0.00     0.009 A 
HETATM   13  C8  UNL     1      26.585   3.447  49.441  1.00  0.00     0.001 A 
HETATM   14  C9  UNL     1      26.702   4.789  49.104  1.00  0.00     0.001 A 
HETATM   15  C10 UNL     1      25.794   5.710  49.602  1.00  0.00     0.007 A 
HETATM   16  C11 UNL     1      24.754   5.359  50.437  1.00  0.00    -0.054 A 
HETATM   17  C12 UNL     1      23.880   6.476  50.874  1.00  0.00     0.049 C 
ENDBRANCH  10  11
ENDBRANCH   8  10
ENDBRANCH   1   6
BRANCH   1  18
HETATM   18  C13 UNL     1      24.978  -0.221  53.260  1.00  0.00    -0.018 C 
HETATM   19  C14 UNL     1      25.643  -1.337  52.962  1.00  0.00    -0.019 C 
HETATM   20  C15 UNL     1      26.857  -1.194  52.441  1.00  0.00     0.020 C 
HETATM   21  C16 UNL     1      27.173   0.207  52.673  1.00  0.00    -0.045 A 
HETATM   22  C17 UNL     1      27.721   1.428  52.553  1.00  0.00     0.008 A 
HETATM   23  C20 UNL     1      26.226   0.241  53.849  1.00  0.00     0.074 A 
HETATM   24  C18 UNL     1      27.188   2.355  53.576  1.00  0.00    -0.002 A 
HETATM   25  C19 UNL     1      26.328   1.636  54.293  1.00  0.00    -0.013 A 
ENDBRANCH   1  18
TORSDOF 6
ENDMDL
MODEL 5
REMARK VINA RESULT:      -7.8      2.333      4.714
REMARK  6 active torsions:
REMARK  status: ('A' for Active; 'I' for Inactive)
REMARK    1  A    between atoms: C2_2  and  O2_4 
REMARK    2  A    between atoms: O2_4  and  C3_5 
REMARK    3  A    between atoms: C3_5  and  C4_6 
REMARK    4  A    between atoms: C3_5  and  C13_17 
REMARK       I    between atoms: C4_6  and  N1_8 
REMARK    5  A    between atoms: N1_8  and  C5_9 
REMARK    6  A    between atoms: C5_9  and  C6_10 
ROOT
HETATM    1  C3  UNL     1      24.038   1.767  51.403  1.00  0.00     0.254 C 
ENDROOT
BRANCH   1   2
HETATM    2  O2  UNL     1      23.065   1.722  52.457  1.00  0.00    -0.302 OA
BRANCH   2   3
HETATM    3  C2  UNL     1      22.130   0.698  52.534  1.00  0.00     0.255 C 
HETATM    4  C1  UNL     1      21.886   0.207  53.918  1.00  0.00     0.126 C 
HETATM    5  O1  UNL     1      21.516   0.194  51.541  1.00  0.00    -0.266 OA
ENDBRANCH   2   3
ENDBRANCH   1   2
BRANCH   1   6
HETATM    6  C4  UNL     1      24.141   3.191  51.020  1.00  0.00     0.252 C 
HETATM    7  O3  UNL     1      24.072   4.086  51.930  1.00  0.00    -0.270 OA
HETATM    8  N1  UNL     1      24.313   3.671  49.693  1.00  0.00    -0.354 N 
HETATM    9  H5  UNL     1      24.369   2.967  48.926  1.00  0.00     0.162 HD
BRANCH   8  10
HETATM   10  C5  UNL     1      24.418   5.059  49.292  1.00  0.00     0.161 C 
BRANCH  10  11
HETATM   11  C6  UNL     1      25.789   5.428  48.894  1.00  0.00    -0.035 A 
HETATM   12  C7  UNL     1      26.882   4.588  48.969  1.00  0.00     0.009 A 
HETATM   13  C8  UNL     1      28.155   4.959  48.592  1.00  0.00     0.001 A 
HETATM   14  C9  UNL     1      28.316   6.254  48.115  1.00  0.00     0.001 A 
HETATM   15  C10 UNL     1      27.223   7.103  48.035  1.00  0.00     0.007 A 
HETATM   16  C11 UNL     1      25.952   6.725  48.415  1.00  0.00    -0.054 A 
HETATM   17  C12 UNL     1      24.905   7.765  48.262  1.00  0.00     0.049 C 
ENDBRANCH  10  11
ENDBRANCH   8  10
ENDBRANCH   1   6
BRANCH   1  18
HETATM   18  C13 UNL     1      25.331   1.194  51.870  1.00  0.00    -0.018 C 
HETATM   19  C14 UNL     1      26.493   1.749  51.529  1.00  0.00    -0.019 C 
HETATM   20  C15 UNL     1      27.394   1.900  52.493  1.00  0.00     0.020 C 
HETATM   21  C16 UNL     1      26.880   1.084  53.582  1.00  0.00    -0.045 A 
HETATM   22  C17 UNL     1      26.644   0.603  54.815  1.00  0.00     0.008 A 
HETATM   23  C20 UNL     1      26.128   0.219  52.598  1.00  0.00     0.074 A 
HETATM   24  C18 UNL     1      25.727  -0.557  54.768  1.00  0.00    -0.002 A 
HETATM   25  C19 UNL     1      25.449  -0.739  53.479  1.00  0.00    -0.013 A 
ENDBRANCH   1  18
TORSDOF 6
ENDMDL
MODEL 6
REMARK VINA RESULT:      -7.8      1.764      2.416
REMARK  6 active torsions:
REMARK  status: ('A' for Active; 'I' for Inactive)
REMARK    1  A    between atoms: C2_2  and  O2_4 
REMARK    2  A    between atoms: O2_4  and  C3_5 
REMARK    3  A    between atoms: C3_5  and  C4_6 
REMARK    4  A    between atoms: C3_5  and  C13_17 
REMARK       I    between atoms: C4_6  and  N1_8 
REMARK    5  A    between atoms: N1_8  and  C5_9 
REMARK    6  A    between atoms: C5_9  and  C6_10 
ROOT
HETATM    1  C3  UNL     1      24.850   0.445  53.336  1.00  0.00     0.254 C 
ENDROOT
BRANCH   1   2
HETATM    2  O2  UNL     1      25.772  -0.344  52.572  1.00  0.00    -0.302 OA
BRANCH   2   3
HETATM    3  C2  UNL     1      26.840  -0.995  53.176  1.00  0.00     0.255 C 
HETATM    4  C1  UNL     1      27.662  -0.118  54.054  1.00  0.00     0.126 C 
HETATM    5  O1  UNL     1      27.127  -2.224  53.022  1.00  0.00    -0.266 OA
ENDBRANCH   2   3
ENDBRANCH   1   2
BRANCH   1   6
HETATM    6  C4  UNL     1      24.805   1.762  52.666  1.00  0.00     0.252 C 
HETATM    7  O3  UNL     1      25.772   2.105  51.904  1.00  0.00    -0.270 OA
HETATM    8  N1  UNL     1      23.756   2.712  52.798  1.00  0.00    -0.354 N 
HETATM    9  H5  UNL     1      22.954   2.465  53.416  1.00  0.00     0.162 HD
BRANCH   8  10
HETATM   10  C5  UNL     1      23.688   4.007  52.153  1.00  0.00     0.161 C 
BRANCH  10  11
HETATM   11  C6  UNL     1      22.517   4.134  51.265  1.00  0.00    -0.035 A 
HETATM   12  C7  UNL     1      21.250   4.485  51.682  1.00  0.00     0.009 A 
HETATM   13  C8  UNL     1      20.171   4.595  50.831  1.00  0.00     0.001 A 
HETATM   14  C9  UNL     1      20.402   4.330  49.487  1.00  0.00     0.001 A 
HETATM   15  C10 UNL     1      21.673   3.977  49.060  1.00  0.00     0.007 A 
HETATM   16  C11 UNL     1      22.747   3.869  49.918  1.00  0.00    -0.054 A 
HETATM   17  C12 UNL     1      24.032   3.479  49.285  1.00  0.00     0.049 C 
ENDBRANCH  10  11
ENDBRANCH   8  10
ENDBRANCH   1   6
BRANCH   1  18
HETATM   18  C13 UNL     1      23.521  -0.225  53.393  1.00  0.00    -0.018 C 
HETATM   19  C14 UNL     1      23.152  -0.933  54.459  1.00  0.00    -0.019 C 
HETATM   20  C15 UNL     1      21.921  -0.734  54.917  1.00  0.00     0.020 C 
HETATM   21  C16 UNL     1      21.267   0.007  53.850  1.00  0.00    -0.045 A 
HETATM   22  C17 UNL     1      20.420   0.818  53.193  1.00  0.00     0.008 A 
HETATM   23  C20 UNL     1      22.223  -0.578  52.838  1.00  0.00     0.074 A 
HETATM   24  C18 UNL     1      20.742   0.868  51.749  1.00  0.00    -0.002 A 
HETATM   25  C19 UNL     1      21.787   0.060  51.590  1.00  0.00    -0.013 A 
ENDBRANCH   1  18
TORSDOF 6
ENDMDL
MODEL 7
REMARK VINA RESULT:      -7.8      2.146      5.755
REMARK  6 active torsions:
REMARK  status: ('A' for Active; 'I' for Inactive)
REMARK    1  A    between atoms: C2_2  and  O2_4 
REMARK    2  A    between atoms: O2_4  and  C3_5 
REMARK    3  A    between atoms: C3_5  and  C4_6 
REMARK    4  A    between atoms: C3_5  and  C13_17 
REMARK       I    between atoms: C4_6  and  N1_8 
REMARK    5  A    between atoms: N1_8  and  C5_9 
REMARK    6  A    between atoms: C5_9  and  C6_10 
ROOT
HETATM    1  C3  UNL     1      26.155   2.888  51.747  1.00  0.00     0.254 C 
ENDROOT
BRANCH   1   2
HETATM    2  O2  UNL     1      26.084   2.711  50.326  1.00  0.00    -0.302 OA
BRANCH   2   3
HETATM    3  C2  UNL     1      25.821   3.779  49.477  1.00  0.00     0.255 C 
HETATM    4  C1  UNL     1      27.042   4.483  48.997  1.00  0.00     0.126 C 
HETATM    5  O1  UNL     1      24.661   4.156  49.117  1.00  0.00    -0.266 OA
ENDBRANCH   2   3
ENDBRANCH   1   2
BRANCH   1   6
HETATM    6  C4  UNL     1      24.763   2.773  52.231  1.00  0.00     0.252 C 
HETATM    7  O3  UNL     1      24.425   3.385  53.301  1.00  0.00    -0.270 OA
HETATM    8  N1  UNL     1      23.736   2.020  51.598  1.00  0.00    -0.354 N 
HETATM    9  H5  UNL     1      23.980   1.506  50.726  1.00  0.00     0.162 HD
BRANCH   8  10
HETATM   10  C5  UNL     1      22.366   1.893  52.052  1.00  0.00     0.161 C 
BRANCH  10  11
HETATM   11  C6  UNL     1      22.161   0.704  52.900  1.00  0.00    -0.035 A 
HETATM   12  C7  UNL     1      23.125   0.144  53.713  1.00  0.00     0.009 A 
HETATM   13  C8  UNL     1      22.908  -0.970  54.495  1.00  0.00     0.001 A 
HETATM   14  C9  UNL     1      21.641  -1.538  54.441  1.00  0.00     0.001 A 
HETATM   15  C10 UNL     1      20.668  -0.981  53.626  1.00  0.00     0.007 A 
HETATM   16  C11 UNL     1      20.892   0.134  52.846  1.00  0.00    -0.054 A 
HETATM   17  C12 UNL     1      19.735   0.590  52.037  1.00  0.00     0.049 C 
ENDBRANCH  10  11
ENDBRANCH   8  10
ENDBRANCH   1   6
BRANCH   1  18
HETATM   18  C13 UNL     1      27.066   1.874  52.348  1.00  0.00    -0.018 C 
HETATM   19  C14 UNL     1      28.047   2.233  53.174  1.00  0.00    -0.019 C 
HETATM   20  C15 UNL     1      28.196   1.515  54.282  1.00  0.00     0.020 C 
HETATM   21  C16 UNL     1      27.380   0.334  54.043  1.00  0.00    -0.045 A 
HETATM   22  C17 UNL     1      26.625  -0.758  54.250  1.00  0.00     0.008 A 
HETATM   23  C20 UNL     1      27.534   0.512  52.551  1.00  0.00     0.074 A 
HETATM   24  C18 UNL     1      26.201  -1.364  52.969  1.00  0.00    -0.002 A 
HETATM   25  C19 UNL     1      26.736  -0.600  52.020  1.00  0.00    -0.013 A 
ENDBRANCH   1  18
TORSDOF 6
ENDMDL
MODEL 8
REMARK VINA RESULT:      -7.4      2.455      6.113
REMARK  6 active torsions:
REMARK  status: ('A' for Active; 'I' for Inactive)
REMARK    1  A    between atoms: C2_2  and  O2_4 
REMARK    2  A    between atoms: O2_4  and  C3_5 
REMARK    3  A    between atoms: C3_5  and  C4_6 
REMARK    4  A    between atoms: C3_5  and  C13_17 
REMARK       I    between atoms: C4_6  and  N1_8 
REMARK    5  A    between atoms: N1_8  and  C5_9 
REMARK    6  A    between atoms: C5_9  and  C6_10 
ROOT
HETATM    1  C3  UNL     1      24.790   3.214  50.344  1.00  0.00     0.254 C 
ENDROOT
BRANCH   1   2
HETATM    2  O2  UNL     1      25.214   4.571  50.529  1.00  0.00    -0.302 OA
BRANCH   2   3
HETATM    3  C2  UNL     1      26.041   5.202  49.608  1.00  0.00     0.255 C 
HETATM    4  C1  UNL     1      27.094   4.318  49.038  1.00  0.00     0.126 C 
HETATM    5  O1  UNL     1      25.945   6.420  49.256  1.00  0.00    -0.266 OA
ENDBRANCH   2   3
ENDBRANCH   1   2
BRANCH   1   6
HETATM    6  C4  UNL     1      25.027   2.544  51.640  1.00  0.00     0.252 C 
HETATM    7  O3  UNL     1      24.074   1.891  52.185  1.00  0.00    -0.270 OA
HETATM    8  N1  UNL     1      26.254   2.564  52.358  1.00  0.00    -0.354 N 
HETATM    9  H5  UNL     1      27.051   3.092  51.943  1.00  0.00     0.162 HD
BRANCH   8  10
HETATM   10  C5  UNL     1      26.512   1.915  53.628  1.00  0.00     0.161 C 
BRANCH  10  11
HETATM   11  C6  UNL     1      27.578   0.899  53.536  1.00  0.00    -0.035 A 
HETATM   12  C7  UNL     1      28.925   1.159  53.684  1.00  0.00     0.009 A 
HETATM   13  C8  UNL     1      29.901   0.190  53.592  1.00  0.00     0.001 A 
HETATM   14  C9  UNL     1      29.476  -1.107  53.333  1.00  0.00     0.001 A 
HETATM   15  C10 UNL     1      28.125  -1.375  53.183  1.00  0.00     0.007 A 
HETATM   16  C11 UNL     1      27.153  -0.401  53.277  1.00  0.00    -0.054 A 
HETATM   17  C12 UNL     1      25.758  -0.870  53.087  1.00  0.00     0.049 C 
ENDBRANCH  10  11
ENDBRANCH   8  10
ENDBRANCH   1   6
BRANCH   1  18
HETATM   18  C13 UNL     1      23.363   3.172  49.920  1.00  0.00    -0.018 C 
HETATM   19  C14 UNL     1      22.993   2.540  48.807  1.00  0.00    -0.019 C 
HETATM   20  C15 UNL     1      21.921   1.759  48.886  1.00  0.00     0.020 C 
HETATM   21  C16 UNL     1      21.315   2.126  50.156  1.00  0.00    -0.045 A 
HETATM   22  C17 UNL     1      20.597   2.070  51.291  1.00  0.00     0.008 A 
HETATM   23  C20 UNL     1      21.953   3.493  50.082  1.00  0.00     0.074 A 
HETATM   24  C18 UNL     1      20.713   3.330  52.058  1.00  0.00    -0.002 A 
HETATM   25  C19 UNL     1      21.506   4.116  51.334  1.00  0.00    -0.013 A 
ENDBRANCH   1  18
TORSDOF 6
ENDMDL
MODEL 9
REMARK VINA RESULT:      -7.3      3.033      6.107
REMARK  6 active torsions:
REMARK  status: ('A' for Active; 'I' for Inactive)
REMARK    1  A    between atoms: C2_2  and  O2_4 
REMARK    2  A    between atoms: O2_4  and  C3_5 
REMARK    3  A    between atoms: C3_5  and  C4_6 
REMARK    4  A    between atoms: C3_5  and  C13_17 
REMARK       I    between atoms: C4_6  and  N1_8 
REMARK    5  A    between atoms: N1_8  and  C5_9 
REMARK    6  A    between atoms: C5_9  and  C6_10 
ROOT
HETATM    1  C3  UNL     1      23.561   2.962  51.807  1.00  0.00     0.254 C 
ENDROOT
BRANCH   1   2
HETATM    2  O2  UNL     1      24.206   2.952  50.527  1.00  0.00    -0.302 OA
BRANCH   2   3
HETATM    3  C2  UNL     1      25.228   3.843  50.225  1.00  0.00     0.255 C 
HETATM    4  C1  UNL     1      26.458   3.193  49.694  1.00  0.00     0.126 C 
HETATM    5  O1  UNL     1      25.164   5.105  50.373  1.00  0.00    -0.266 OA
ENDBRANCH   2   3
ENDBRANCH   1   2
BRANCH   1   6
HETATM    6  C4  UNL     1      22.134   2.691  51.535  1.00  0.00     0.252 C 
HETATM    7  O3  UNL     1      21.248   3.464  52.037  1.00  0.00    -0.270 OA
HETATM    8  N1  UNL     1      21.641   1.617  50.745  1.00  0.00    -0.354 N 
HETATM    9  H5  UNL     1      22.338   0.966  50.324  1.00  0.00     0.162 HD
BRANCH   8  10
HETATM   10  C5  UNL     1      20.249   1.331  50.462  1.00  0.00     0.161 C 
BRANCH  10  11
HETATM   11  C6  UNL     1      19.640   0.444  51.471  1.00  0.00    -0.035 A 
HETATM   12  C7  UNL     1      20.264   0.027  52.629  1.00  0.00     0.009 A 
HETATM   13  C8  UNL     1      19.672  -0.804  53.556  1.00  0.00     0.001 A 
HETATM   14  C9  UNL     1      18.379  -1.229  53.282  1.00  0.00     0.001 A 
HETATM   15  C10 UNL     1      17.745  -0.814  52.122  1.00  0.00     0.007 A 
HETATM   16  C11 UNL     1      18.343   0.018  51.199  1.00  0.00    -0.054 A 
HETATM   17  C12 UNL     1      17.516   0.358  50.015  1.00  0.00     0.049 C 
ENDBRANCH  10  11
ENDBRANCH   8  10
ENDBRANCH   1   6
BRANCH   1  18
HETATM   18  C13 UNL     1      24.184   1.952  52.707  1.00  0.00    -0.018 C 
HETATM   19  C14 UNL     1      23.467   0.956  53.226  1.00  0.00    -0.019 C 
HETATM   20  C15 UNL     1      24.006  -0.258  53.189  1.00  0.00     0.020 C 
HETATM   21  C16 UNL     1      25.398  -0.010  52.848  1.00  0.00    -0.045 A 
HETATM   22  C17 UNL     1      26.650  -0.184  52.391  1.00  0.00     0.008 A 
HETATM   23  C20 UNL     1      25.309   1.380  53.430  1.00  0.00     0.074 A 
HETATM   24  C18 UNL     1      27.465   1.035  52.592  1.00  0.00    -0.002 A 
HETATM   25  C19 UNL     1      26.656   1.910  53.184  1.00  0.00    -0.013 A 
ENDBRANCH   1  18
TORSDOF 6
ENDMDL
