MODEL 1
REMARK VINA RESULT:      -8.6      0.000      0.000
REMARK  1 active torsions:
REMARK  status: ('A' for Active; 'I' for Inactive)
REMARK    1  A    between atoms: O1_2  and  C2_3 
ROOT
HETATM    1  C2  UNL     1      27.178   1.308  53.996  1.00  0.00     0.080 C 
HETATM    2  C3  UNL     1      26.023   0.712  54.137  1.00  0.00     0.017 C 
HETATM    3  C4  UNL     1      24.699   0.124  54.129  1.00  0.00     0.086 C 
HETATM    4  C5  UNL     1      23.952   0.264  52.829  1.00  0.00     0.030 C 
HETATM    5  N1  UNL     1      24.408   0.624  51.674  1.00  0.00    -0.264 NA
HETATM    6  C6  UNL     1      25.303   1.672  51.465  1.00  0.00     0.260 A 
HETATM    7  C7  UNL     1      26.110   2.639  51.121  1.00  0.00     0.049 A 
HETATM    8  C8  UNL     1      26.167   3.553  49.963  1.00  0.00     0.155 C 
HETATM    9  N2  UNL     1      26.087   4.933  50.177  1.00  0.00    -0.268 NA
HETATM   10  S1  UNL     1      24.590   5.675  50.581  1.00  0.00    -0.076 SA
HETATM   11  C9  UNL     1      23.292   4.494  50.933  1.00  0.00     0.209 A 
HETATM   12  C10 UNL     1      23.592   5.250  52.018  1.00  0.00     0.667 A 
HETATM   13  N3  UNL     1      22.916   4.122  52.271  1.00  0.00    -0.065 NA
HETATM   14  C11 UNL     1      22.552   3.279  51.338  1.00  0.00     0.161 A 
HETATM   15  C12 UNL     1      22.218   2.407  52.388  1.00  0.00     0.037 A 
HETATM   16  C13 UNL     1      21.865   1.337  51.613  1.00  0.00     0.009 A 
HETATM   17  C14 UNL     1      21.792   1.053  50.282  1.00  0.00     0.052 A 
HETATM   18  C15 UNL     1      22.081   1.810  49.182  1.00  0.00     0.014 A 
HETATM   19  C16 UNL     1      22.383   2.719  50.126  1.00  0.00     0.020 A 
HETATM   20  C17 UNL     1      23.069   3.852  49.759  1.00  0.00     0.087 A 
HETATM   21  N4  UNL     1      21.594   0.012  52.142  1.00  0.00    -0.388 N 
HETATM   22  C18 UNL     1      22.552  -0.160  53.185  1.00  0.00     0.174 C 
HETATM   23  N5  UNL     1      26.499   2.049  52.340  1.00  0.00    -0.328 N 
HETATM   24  C19 UNL     1      27.611   2.161  52.904  1.00  0.00     0.130 C 
HETATM   25  H10 UNL     1      26.533   5.468  49.400  1.00  0.00     0.134 HD
HETATM   26  H16 UNL     1      20.922  -0.731  51.936  1.00  0.00     0.159 HD
ENDROOT
BRANCH   1  27
HETATM   27  O1  UNL     1      28.408   1.508  54.588  1.00  0.00    -0.355 OA
HETATM   28  C1  UNL     1      29.613   0.889  54.199  1.00  0.00     0.210 C 
ENDBRANCH   1  27
TORSDOF 1
ENDMDL
MODEL 2
REMARK VINA RESULT:      -8.4      2.145      4.223
REMARK  1 active torsions:
REMARK  status: ('A' for Active; 'I' for Inactive)
REMARK    1  A    between atoms: O1_2  and  C2_3 
ROOT
HETATM    1  C2  UNL     1      26.280  -0.662  52.642  1.00  0.00     0.080 C 
HETATM    2  C3  UNL     1      26.615   0.418  51.985  1.00  0.00     0.017 C 
HETATM    3  C4  UNL     1      26.819   1.680  51.305  1.00  0.00     0.086 C 
HETATM    4  C5  UNL     1      25.768   2.724  51.578  1.00  0.00     0.030 C 
HETATM    5  N1  UNL     1      24.855   2.727  52.493  1.00  0.00    -0.264 NA
HETATM    6  C6  UNL     1      24.088   1.620  52.853  1.00  0.00     0.260 A 
HETATM    7  C7  UNL     1      23.282   0.679  53.269  1.00  0.00     0.049 A 
HETATM    8  C8  UNL     1      21.875   0.670  53.714  1.00  0.00     0.155 C 
HETATM    9  N2  UNL     1      20.944  -0.111  53.022  1.00  0.00    -0.268 NA
HETATM   10  S1  UNL     1      20.364   0.373  51.479  1.00  0.00    -0.076 SA
HETATM   11  C9  UNL     1      21.248   1.775  50.803  1.00  0.00     0.209 A 
HETATM   12  C10 UNL     1      21.404   0.665  50.039  1.00  0.00     0.667 A 
HETATM   13  N3  UNL     1      22.298   1.639  49.828  1.00  0.00    -0.065 NA
HETATM   14  C11 UNL     1      22.293   2.772  50.483  1.00  0.00     0.161 A 
HETATM   15  C12 UNL     1      23.551   3.006  49.903  1.00  0.00     0.037 A 
HETATM   16  C13 UNL     1      23.818   4.182  50.548  1.00  0.00     0.009 A 
HETATM   17  C14 UNL     1      23.191   4.987  51.451  1.00  0.00     0.052 A 
HETATM   18  C15 UNL     1      21.981   4.870  52.074  1.00  0.00     0.014 A 
HETATM   19  C16 UNL     1      21.932   3.740  51.346  1.00  0.00     0.020 A 
HETATM   20  C17 UNL     1      20.965   2.808  51.634  1.00  0.00     0.087 A 
HETATM   21  N4  UNL     1      25.108   4.849  50.508  1.00  0.00    -0.388 N 
HETATM   22  C18 UNL     1      26.061   3.789  50.555  1.00  0.00     0.174 C 
HETATM   23  N5  UNL     1      24.561   0.171  52.969  1.00  0.00    -0.328 N 
HETATM   24  C19 UNL     1      25.028  -0.937  53.323  1.00  0.00     0.130 C 
HETATM   25  H10 UNL     1      20.133  -0.366  53.626  1.00  0.00     0.134 HD
HETATM   26  H16 UNL     1      25.424   5.820  50.454  1.00  0.00     0.159 HD
ENDROOT
BRANCH   1  27
HETATM   27  O1  UNL     1      26.718  -1.913  53.026  1.00  0.00    -0.355 OA
HETATM   28  C1  UNL     1      28.045  -2.379  52.934  1.00  0.00     0.210 C 
ENDBRANCH   1  27
TORSDOF 1
ENDMDL
MODEL 3
REMARK VINA RESULT:      -8.2      2.364      4.640
REMARK  1 active torsions:
REMARK  status: ('A' for Active; 'I' for Inactive)
REMARK    1  A    between atoms: O1_2  and  C2_3 
ROOT
HETATM    1  C2  UNL     1      23.313  -0.096  53.335  1.00  0.00     0.080 C 
HETATM    2  C3  UNL     1      24.428   0.345  52.814  1.00  0.00     0.017 C 
HETATM    3  C4  UNL     1      25.568   0.988  52.194  1.00  0.00     0.086 C 
HETATM    4  C5  UNL     1      25.364   2.439  51.844  1.00  0.00     0.030 C 
HETATM    5  N1  UNL     1      24.415   3.232  52.220  1.00  0.00    -0.264 NA
HETATM    6  C6  UNL     1      23.067   2.884  52.280  1.00  0.00     0.260 A 
HETATM    7  C7  UNL     1      21.775   2.707  52.356  1.00  0.00     0.049 A 
HETATM    8  C8  UNL     1      20.612   3.575  52.089  1.00  0.00     0.155 C 
HETATM    9  N2  UNL     1      19.681   3.192  51.118  1.00  0.00    -0.268 NA
HETATM   10  S1  UNL     1      20.053   3.319  49.445  1.00  0.00    -0.076 SA
HETATM   11  C9  UNL     1      21.768   3.725  49.134  1.00  0.00     0.209 A 
HETATM   12  C10 UNL     1      21.442   2.505  48.640  1.00  0.00     0.667 A 
HETATM   13  N3  UNL     1      22.753   2.737  48.783  1.00  0.00    -0.065 NA
HETATM   14  C11 UNL     1      23.237   3.860  49.249  1.00  0.00     0.161 A 
HETATM   15  C12 UNL     1      24.473   3.195  49.308  1.00  0.00     0.037 A 
HETATM   16  C13 UNL     1      25.183   4.209  49.889  1.00  0.00     0.009 A 
HETATM   17  C14 UNL     1      24.937   5.480  50.314  1.00  0.00     0.052 A 
HETATM   18  C15 UNL     1      23.794   6.228  50.304  1.00  0.00     0.014 A 
HETATM   19  C16 UNL     1      23.296   5.109  49.748  1.00  0.00     0.020 A 
HETATM   20  C17 UNL     1      21.933   4.975  49.635  1.00  0.00     0.087 A 
HETATM   21  N4  UNL     1      26.536   4.059  50.396  1.00  0.00    -0.388 N 
HETATM   22  C18 UNL     1      26.557   2.759  50.982  1.00  0.00     0.174 C 
HETATM   23  N5  UNL     1      22.480   1.549  52.740  1.00  0.00    -0.328 N 
HETATM   24  C19 UNL     1      22.023   0.570  53.373  1.00  0.00     0.130 C 
HETATM   25  H10 UNL     1      18.747   3.621  51.292  1.00  0.00     0.134 HD
HETATM   26  H16 UNL     1      27.378   4.639  50.405  1.00  0.00     0.159 HD
ENDROOT
BRANCH   1  27
HETATM   27  O1  UNL     1      22.737  -1.163  53.995  1.00  0.00    -0.355 OA
HETATM   28  C1  UNL     1      21.479  -1.148  54.631  1.00  0.00     0.210 C 
ENDBRANCH   1  27
TORSDOF 1
ENDMDL
MODEL 4
REMARK VINA RESULT:      -7.8      1.728      2.250
REMARK  1 active torsions:
REMARK  status: ('A' for Active; 'I' for Inactive)
REMARK    1  A    between atoms: O1_2  and  C2_3 
ROOT
HETATM    1  C2  UNL     1      24.675  -0.127  53.508  1.00  0.00     0.080 C 
HETATM    2  C3  UNL     1      23.385  -0.340  53.521  1.00  0.00     0.017 C 
HETATM    3  C4  UNL     1      21.946  -0.455  53.396  1.00  0.00     0.086 C 
HETATM    4  C5  UNL     1      21.359   0.226  52.188  1.00  0.00     0.030 C 
HETATM    5  N1  UNL     1      21.972   0.692  51.149  1.00  0.00    -0.264 NA
HETATM    6  C6  UNL     1      23.161   1.418  51.188  1.00  0.00     0.260 A 
HETATM    7  C7  UNL     1      24.250   2.132  51.079  1.00  0.00     0.049 A 
HETATM    8  C8  UNL     1      24.659   3.232  50.184  1.00  0.00     0.155 C 
HETATM    9  N2  UNL     1      25.003   4.470  50.736  1.00  0.00    -0.268 NA
HETATM   10  S1  UNL     1      23.793   5.528  51.345  1.00  0.00    -0.076 SA
HETATM   11  C9  UNL     1      22.172   4.774  51.420  1.00  0.00     0.209 A 
HETATM   12  C10 UNL     1      22.629   5.108  52.652  1.00  0.00     0.667 A 
HETATM   13  N3  UNL     1      21.619   4.228  52.631  1.00  0.00    -0.065 NA
HETATM   14  C11 UNL     1      21.065   3.798  51.526  1.00  0.00     0.161 A 
HETATM   15  C12 UNL     1      20.413   2.850  52.332  1.00  0.00     0.037 A 
HETATM   16  C13 UNL     1      19.789   2.170  51.323  1.00  0.00     0.009 A 
HETATM   17  C14 UNL     1      19.710   2.255  49.966  1.00  0.00     0.052 A 
HETATM   18  C15 UNL     1      20.286   3.125  49.083  1.00  0.00     0.014 A 
HETATM   19  C16 UNL     1      20.802   3.632  50.217  1.00  0.00     0.020 A 
HETATM   20  C17 UNL     1      21.829   4.541  50.129  1.00  0.00     0.087 A 
HETATM   21  N4  UNL     1      19.086   0.913  51.512  1.00  0.00    -0.388 N 
HETATM   22  C18 UNL     1      19.878   0.197  52.458  1.00  0.00     0.174 C 
HETATM   23  N5  UNL     1      24.361   1.171  52.103  1.00  0.00    -0.328 N 
HETATM   24  C19 UNL     1      25.417   0.782  52.653  1.00  0.00     0.130 C 
HETATM   25  H10 UNL     1      25.639   5.007  50.108  1.00  0.00     0.134 HD
HETATM   26  H16 UNL     1      18.228   0.496  51.142  1.00  0.00     0.159 HD
ENDROOT
BRANCH   1  27
HETATM   27  O1  UNL     1      25.868  -0.479  54.104  1.00  0.00    -0.355 OA
HETATM   28  C1  UNL     1      27.122  -0.522  53.461  1.00  0.00     0.210 C 
ENDBRANCH   1  27
TORSDOF 1
ENDMDL
MODEL 5
REMARK VINA RESULT:      -7.4      3.530      6.106
REMARK  1 active torsions:
REMARK  status: ('A' for Active; 'I' for Inactive)
REMARK    1  A    between atoms: O1_2  and  C2_3 
ROOT
HETATM    1  C2  UNL     1      19.540   5.783  49.706  1.00  0.00     0.080 C 
HETATM    2  C3  UNL     1      18.872   4.661  49.782  1.00  0.00     0.017 C 
HETATM    3  C4  UNL     1      18.255   3.368  49.994  1.00  0.00     0.086 C 
HETATM    4  C5  UNL     1      18.793   2.595  51.169  1.00  0.00     0.030 C 
HETATM    5  N1  UNL     1      19.553   3.013  52.128  1.00  0.00    -0.264 NA
HETATM    6  C6  UNL     1      20.653   3.852  51.961  1.00  0.00     0.260 A 
HETATM    7  C7  UNL     1      21.721   4.604  51.949  1.00  0.00     0.049 A 
HETATM    8  C8  UNL     1      22.979   4.597  52.722  1.00  0.00     0.155 C 
HETATM    9  N2  UNL     1      24.195   4.452  52.046  1.00  0.00    -0.268 NA
HETATM   10  S1  UNL     1      24.673   2.927  51.414  1.00  0.00    -0.076 SA
HETATM   11  C9  UNL     1      23.378   1.695  51.494  1.00  0.00     0.209 A 
HETATM   12  C10 UNL     1      23.729   1.974  50.214  1.00  0.00     0.667 A 
HETATM   13  N3  UNL     1      22.549   1.359  50.367  1.00  0.00    -0.065 NA
HETATM   14  C11 UNL     1      22.061   1.022  51.533  1.00  0.00     0.161 A 
HETATM   15  C12 UNL     1      20.865   0.749  50.849  1.00  0.00     0.037 A 
HETATM   16  C13 UNL     1      20.110   0.438  51.946  1.00  0.00     0.009 A 
HETATM   17  C14 UNL     1      20.297   0.358  53.293  1.00  0.00     0.052 A 
HETATM   18  C15 UNL     1      21.401   0.591  54.064  1.00  0.00     0.014 A 
HETATM   19  C16 UNL     1      21.944   0.862  52.865  1.00  0.00     0.020 A 
HETATM   20  C17 UNL     1      23.168   1.485  52.817  1.00  0.00     0.087 A 
HETATM   21  N4  UNL     1      18.671   0.241  51.906  1.00  0.00    -0.388 N 
HETATM   22  C18 UNL     1      18.201   1.223  50.984  1.00  0.00     0.174 C 
HETATM   23  N5  UNL     1      20.769   5.041  51.008  1.00  0.00    -0.328 N 
HETATM   24  C19 UNL     1      20.737   6.155  50.437  1.00  0.00     0.130 C 
HETATM   25  H10 UNL     1      24.987   4.858  52.590  1.00  0.00     0.134 HD
HETATM   26  H16 UNL     1      18.010  -0.396  52.357  1.00  0.00     0.159 HD
ENDROOT
BRANCH   1  27
HETATM   27  O1  UNL     1      19.588   7.010  49.079  1.00  0.00    -0.355 OA
HETATM   28  C1  UNL     1      19.854   8.242  49.711  1.00  0.00     0.210 C 
ENDBRANCH   1  27
TORSDOF 1
ENDMDL
MODEL 6
REMARK VINA RESULT:      -7.3      7.443     10.575
REMARK  1 active torsions:
REMARK  status: ('A' for Active; 'I' for Inactive)
REMARK    1  A    between atoms: O1_2  and  C2_3 
ROOT
HETATM    1  C2  UNL     1      27.464   7.171  48.718  1.00  0.00     0.080 C 
HETATM    2  C3  UNL     1      28.280   6.205  48.385  1.00  0.00     0.017 C 
HETATM    3  C4  UNL     1      29.321   5.258  48.039  1.00  0.00     0.086 C 
HETATM    4  C5  UNL     1      30.725   5.742  48.288  1.00  0.00     0.030 C 
HETATM    5  N1  UNL     1      31.114   6.772  48.965  1.00  0.00    -0.264 NA
HETATM    6  C6  UNL     1      30.511   8.028  48.916  1.00  0.00     0.260 A 
HETATM    7  C7  UNL     1      30.067   9.256  48.947  1.00  0.00     0.049 A 
HETATM    8  C8  UNL     1      30.726  10.572  49.067  1.00  0.00     0.155 C 
HETATM    9  N2  UNL     1      30.564  11.514  48.045  1.00  0.00    -0.268 NA
HETATM   10  S1  UNL     1      31.386  11.334  46.546  1.00  0.00    -0.076 SA
HETATM   11  C9  UNL     1      32.208   9.753  46.379  1.00  0.00     0.209 A 
HETATM   12  C10 UNL     1      31.228   9.911  45.456  1.00  0.00     0.667 A 
HETATM   13  N3  UNL     1      31.641   8.652  45.647  1.00  0.00    -0.065 NA
HETATM   14  C11 UNL     1      32.575   8.326  46.504  1.00  0.00     0.161 A 
HETATM   15  C12 UNL     1      32.195   6.994  46.270  1.00  0.00     0.037 A 
HETATM   16  C13 UNL     1      33.031   6.415  47.184  1.00  0.00     0.009 A 
HETATM   17  C14 UNL     1      33.972   6.834  48.077  1.00  0.00     0.052 A 
HETATM   18  C15 UNL     1      34.426   8.084  48.387  1.00  0.00     0.014 A 
HETATM   19  C16 UNL     1      33.527   8.433  47.449  1.00  0.00     0.020 A 
HETATM   20  C17 UNL     1      33.180   9.757  47.324  1.00  0.00     0.087 A 
HETATM   21  N4  UNL     1      32.970   5.014  47.561  1.00  0.00    -0.388 N 
HETATM   22  C18 UNL     1      31.576   4.712  47.593  1.00  0.00     0.174 C 
HETATM   23  N5  UNL     1      29.014   8.328  48.831  1.00  0.00    -0.328 N 
HETATM   24  C19 UNL     1      27.799   8.546  49.042  1.00  0.00     0.130 C 
HETATM   25  H10 UNL     1      30.702  12.486  48.394  1.00  0.00     0.134 HD
HETATM   26  H16 UNL     1      33.656   4.287  47.776  1.00  0.00     0.159 HD
ENDROOT
BRANCH   1  27
HETATM   27  O1  UNL     1      26.137   7.487  48.922  1.00  0.00    -0.355 OA
HETATM   28  C1  UNL     1      25.556   7.818  50.163  1.00  0.00     0.210 C 
ENDBRANCH   1  27
TORSDOF 1
ENDMDL
MODEL 7
REMARK VINA RESULT:      -7.3      3.874      6.568
REMARK  1 active torsions:
REMARK  status: ('A' for Active; 'I' for Inactive)
REMARK    1  A    between atoms: O1_2  and  C2_3 
ROOT
HETATM    1  C2  UNL     1      22.342   5.596  46.590  1.00  0.00     0.080 C 
HETATM    2  C3  UNL     1      22.839   6.238  47.615  1.00  0.00     0.017 C 
HETATM    3  C4  UNL     1      23.381   6.787  48.841  1.00  0.00     0.086 C 
HETATM    4  C5  UNL     1      23.718   5.768  49.897  1.00  0.00     0.030 C 
HETATM    5  N1  UNL     1      23.804   4.483  49.778  1.00  0.00    -0.264 NA
HETATM    6  C6  UNL     1      22.910   3.691  49.060  1.00  0.00     0.260 A 
HETATM    7  C7  UNL     1      22.138   2.828  48.454  1.00  0.00     0.049 A 
HETATM    8  C8  UNL     1      21.707   1.452  48.769  1.00  0.00     0.155 C 
HETATM    9  N2  UNL     1      20.343   1.180  48.918  1.00  0.00    -0.268 NA
HETATM   10  S1  UNL     1      19.496   1.678  50.327  1.00  0.00    -0.076 SA
HETATM   11  C9  UNL     1      20.460   2.751  51.386  1.00  0.00     0.209 A 
HETATM   12  C10 UNL     1      19.364   3.380  50.895  1.00  0.00     0.667 A 
HETATM   13  N3  UNL     1      20.318   4.183  51.383  1.00  0.00    -0.065 NA
HETATM   14  C11 UNL     1      21.440   3.738  51.890  1.00  0.00     0.161 A 
HETATM   15  C12 UNL     1      21.869   5.076  51.873  1.00  0.00     0.037 A 
HETATM   16  C13 UNL     1      23.146   4.849  52.309  1.00  0.00     0.009 A 
HETATM   17  C14 UNL     1      23.893   3.773  52.684  1.00  0.00     0.052 A 
HETATM   18  C15 UNL     1      23.588   2.443  52.747  1.00  0.00     0.014 A 
HETATM   19  C16 UNL     1      22.401   2.891  52.303  1.00  0.00     0.020 A 
HETATM   20  C17 UNL     1      21.482   1.982  51.835  1.00  0.00     0.087 A 
HETATM   21  N4  UNL     1      24.187   5.862  52.320  1.00  0.00    -0.388 N 
HETATM   22  C18 UNL     1      23.975   6.606  51.121  1.00  0.00     0.174 C 
HETATM   23  N5  UNL     1      22.249   4.028  47.723  1.00  0.00    -0.328 N 
HETATM   24  C19 UNL     1      21.947   4.201  46.520  1.00  0.00     0.130 C 
HETATM   25  H10 UNL     1      20.130   0.177  48.729  1.00  0.00     0.134 HD
HETATM   26  H16 UNL     1      24.949   6.115  52.952  1.00  0.00     0.159 HD
ENDROOT
BRANCH   1  27
HETATM   27  O1  UNL     1      21.949   5.733  45.275  1.00  0.00    -0.355 OA
HETATM   28  C1  UNL     1      22.427   6.707  44.375  1.00  0.00     0.210 C 
ENDBRANCH   1  27
TORSDOF 1
ENDMDL
MODEL 8
REMARK VINA RESULT:      -7.3      3.065      4.436
REMARK  1 active torsions:
REMARK  status: ('A' for Active; 'I' for Inactive)
REMARK    1  A    between atoms: O1_2  and  C2_3 
ROOT
HETATM    1  C2  UNL     1      24.669   3.001  50.120  1.00  0.00     0.080 C 
HETATM    2  C3  UNL     1      24.400   2.364  51.230  1.00  0.00     0.017 C 
HETATM    3  C4  UNL     1      23.936   1.623  52.385  1.00  0.00     0.086 C 
HETATM    4  C5  UNL     1      22.627   0.903  52.192  1.00  0.00     0.030 C 
HETATM    5  N1  UNL     1      21.990   0.672  51.091  1.00  0.00    -0.264 NA
HETATM    6  C6  UNL     1      21.827   1.595  50.060  1.00  0.00     0.260 A 
HETATM    7  C7  UNL     1      21.571   2.364  49.035  1.00  0.00     0.049 A 
HETATM    8  C8  UNL     1      20.406   2.512  48.140  1.00  0.00     0.155 C 
HETATM    9  N2  UNL     1      19.757   3.748  48.061  1.00  0.00    -0.268 NA
HETATM   10  S1  UNL     1      18.740   4.290  49.336  1.00  0.00    -0.076 SA
HETATM   11  C9  UNL     1      18.828   3.256  50.794  1.00  0.00     0.209 A 
HETATM   12  C10 UNL     1      19.268   4.515  51.042  1.00  0.00     0.667 A 
HETATM   13  N3  UNL     1      19.629   3.591  51.941  1.00  0.00    -0.065 NA
HETATM   14  C11 UNL     1      19.292   2.330  51.849  1.00  0.00     0.161 A 
HETATM   15  C12 UNL     1      20.206   2.106  52.892  1.00  0.00     0.037 A 
HETATM   16  C13 UNL     1      20.093   0.743  52.927  1.00  0.00     0.009 A 
HETATM   17  C14 UNL     1      19.383  -0.214  52.265  1.00  0.00     0.052 A 
HETATM   18  C15 UNL     1      18.472  -0.120  51.251  1.00  0.00     0.014 A 
HETATM   19  C16 UNL     1      18.745   1.190  51.386  1.00  0.00     0.020 A 
HETATM   20  C17 UNL     1      18.317   2.060  50.411  1.00  0.00     0.087 A 
HETATM   21  N4  UNL     1      20.965  -0.120  53.705  1.00  0.00    -0.388 N 
HETATM   22  C18 UNL     1      22.256   0.476  53.587  1.00  0.00     0.174 C 
HETATM   23  N5  UNL     1      22.861   2.600  49.551  1.00  0.00    -0.328 N 
HETATM   24  C19 UNL     1      23.796   3.205  48.978  1.00  0.00     0.130 C 
HETATM   25  H10 UNL     1      19.255   3.861  47.154  1.00  0.00     0.134 HD
HETATM   26  H16 UNL     1      20.841  -0.970  54.259  1.00  0.00     0.159 HD
ENDROOT
BRANCH   1  27
HETATM   27  O1  UNL     1      25.643   3.715  49.454  1.00  0.00    -0.355 OA
HETATM   28  C1  UNL     1      25.837   5.109  49.539  1.00  0.00     0.210 C 
ENDBRANCH   1  27
TORSDOF 1
ENDMDL
MODEL 9
REMARK VINA RESULT:      -7.2     10.365     12.357
REMARK  1 active torsions:
REMARK  status: ('A' for Active; 'I' for Inactive)
REMARK    1  A    between atoms: O1_2  and  C2_3 
ROOT
HETATM    1  C2  UNL     1      34.031   4.869  42.974  1.00  0.00     0.080 C 
HETATM    2  C3  UNL     1      34.491   4.407  44.108  1.00  0.00     0.017 C 
HETATM    3  C4  UNL     1      34.885   4.014  45.445  1.00  0.00     0.086 C 
HETATM    4  C5  UNL     1      34.037   4.588  46.549  1.00  0.00     0.030 C 
HETATM    5  N1  UNL     1      32.892   5.183  46.459  1.00  0.00    -0.264 NA
HETATM    6  C6  UNL     1      32.563   6.127  45.488  1.00  0.00     0.260 A 
HETATM    7  C7  UNL     1      32.131   7.042  44.661  1.00  0.00     0.049 A 
HETATM    8  C8  UNL     1      31.250   8.217  44.815  1.00  0.00     0.155 C 
HETATM    9  N2  UNL     1      31.748   9.488  44.513  1.00  0.00    -0.268 NA
HETATM   10  S1  UNL     1      32.845  10.278  45.575  1.00  0.00    -0.076 SA
HETATM   11  C9  UNL     1      33.433   9.219  46.893  1.00  0.00     0.209 A 
HETATM   12  C10 UNL     1      34.441   9.615  46.076  1.00  0.00     0.667 A 
HETATM   13  N3  UNL     1      34.709   8.555  46.850  1.00  0.00    -0.065 NA
HETATM   14  C11 UNL     1      33.846   8.044  47.690  1.00  0.00     0.161 A 
HETATM   15  C12 UNL     1      34.746   6.973  47.818  1.00  0.00     0.037 A 
HETATM   16  C13 UNL     1      33.974   6.201  48.643  1.00  0.00     0.009 A 
HETATM   17  C14 UNL     1      32.750   6.293  49.235  1.00  0.00     0.052 A 
HETATM   18  C15 UNL     1      31.800   7.274  49.191  1.00  0.00     0.014 A 
HETATM   19  C16 UNL     1      32.711   7.853  48.389  1.00  0.00     0.020 A 
HETATM   20  C17 UNL     1      32.338   8.947  47.645  1.00  0.00     0.087 A 
HETATM   21  N4  UNL     1      34.292   4.828  48.994  1.00  0.00    -0.388 N 
HETATM   22  C18 UNL     1      34.820   4.265  47.794  1.00  0.00     0.174 C 
HETATM   23  N5  UNL     1      32.956   6.104  44.010  1.00  0.00    -0.328 N 
HETATM   24  C19 UNL     1      33.050   5.920  42.775  1.00  0.00     0.130 C 
HETATM   25  H10 UNL     1      30.983  10.150  44.261  1.00  0.00     0.134 HD
HETATM   26  H16 UNL     1      34.221   4.257  49.840  1.00  0.00     0.159 HD
ENDROOT
BRANCH   1  27
HETATM   27  O1  UNL     1      34.122   4.747  41.603  1.00  0.00    -0.355 OA
HETATM   28  C1  UNL     1      33.260   3.982  40.791  1.00  0.00     0.210 C 
ENDBRANCH   1  27
TORSDOF 1
ENDMDL
