MODEL 1
REMARK VINA RESULT:      -7.6      0.000      0.000
REMARK  2 active torsions:
REMARK  status: ('A' for Active; 'I' for Inactive)
REMARK    1  A    between atoms: C2_2  and  C3_3 
REMARK    2  A    between atoms: C3_3  and  C4_4 
ROOT
HETATM    1  C4  UNL     1      22.352   1.110  50.901  1.00  0.00    -0.019 C 
HETATM    2  C5  UNL     1      22.236   0.800  52.189  1.00  0.00    -0.046 C 
HETATM    3  C6  UNL     1      21.034   0.289  52.947  1.00  0.00     0.085 C 
HETATM    4  C7  UNL     1      21.549  -0.645  54.035  1.00  0.00     0.091 C 
HETATM    5  N1  UNL     1      22.743  -0.846  54.441  1.00  0.00    -0.269 NA
HETATM    6  C8  UNL     1      23.825  -0.148  53.861  1.00  0.00     0.278 C 
HETATM    7  O1  UNL     1      24.706  -1.129  53.254  1.00  0.00    -0.361 OA
HETATM    8  C9  UNL     1      25.729  -0.372  52.967  1.00  0.00     0.172 C 
HETATM    9  C10 UNL     1      27.018  -0.302  52.347  1.00  0.00     0.046 C 
HETATM   10  C11 UNL     1      27.349   1.204  52.719  1.00  0.00     0.119 C 
HETATM   11  N2  UNL     1      26.324   2.093  52.444  1.00  0.00    -0.409 N 
HETATM   12  C12 UNL     1      26.149   2.730  51.221  1.00  0.00     0.117 C 
HETATM   13  C13 UNL     1      24.930   3.550  50.959  1.00  0.00     0.024 C 
HETATM   14  C14 UNL     1      23.740   3.284  51.901  1.00  0.00     0.038 C 
HETATM   15  C15 UNL     1      24.058   2.135  52.778  1.00  0.00    -0.051 C 
HETATM   16  C16 UNL     1      23.487   0.981  53.007  1.00  0.00     0.002 C 
HETATM   17  C17 UNL     1      25.365   2.470  53.428  1.00  0.00     0.151 C 
ENDROOT
BRANCH   1  18
HETATM   18  C3  UNL     1      21.176   0.969  50.004  1.00  0.00     0.027 C 
BRANCH  18  19
HETATM   19  C2  UNL     1      21.550   1.234  48.561  1.00  0.00    -0.001 C 
HETATM   20  C1  UNL     1      22.544   2.359  48.452  1.00  0.00     0.005 C 
ENDBRANCH  18  19
ENDBRANCH   1  18
TORSDOF 2
ENDMDL
MODEL 2
REMARK VINA RESULT:      -7.0      2.192      3.564
REMARK  2 active torsions:
REMARK  status: ('A' for Active; 'I' for Inactive)
REMARK    1  A    between atoms: C2_2  and  C3_3 
REMARK    2  A    between atoms: C3_3  and  C4_4 
ROOT
HETATM    1  C4  UNL     1      26.098   2.191  51.553  1.00  0.00    -0.019 C 
HETATM    2  C5  UNL     1      25.269   1.525  52.351  1.00  0.00    -0.046 C 
HETATM    3  C6  UNL     1      23.760   1.554  52.407  1.00  0.00     0.085 C 
HETATM    4  C7  UNL     1      23.295   0.158  52.801  1.00  0.00     0.091 C 
HETATM    5  N1  UNL     1      23.970  -0.837  53.230  1.00  0.00    -0.269 NA
HETATM    6  C8  UNL     1      25.368  -0.735  53.403  1.00  0.00     0.278 C 
HETATM    7  O1  UNL     1      25.992  -1.702  52.517  1.00  0.00    -0.361 OA
HETATM    8  C9  UNL     1      27.224  -1.640  52.941  1.00  0.00     0.172 C 
HETATM    9  C10 UNL     1      28.570  -2.089  52.750  1.00  0.00     0.046 C 
HETATM   10  C11 UNL     1      29.217  -1.355  53.998  1.00  0.00     0.119 C 
HETATM   11  N2  UNL     1      28.870  -0.020  54.112  1.00  0.00    -0.409 N 
HETATM   12  C12 UNL     1      29.559   1.021  53.502  1.00  0.00     0.117 C 
HETATM   13  C13 UNL     1      29.026   2.415  53.547  1.00  0.00     0.024 C 
HETATM   14  C14 UNL     1      27.530   2.539  53.894  1.00  0.00     0.038 C 
HETATM   15  C15 UNL     1      26.929   1.187  53.958  1.00  0.00    -0.051 C 
HETATM   16  C16 UNL     1      25.935   0.605  53.340  1.00  0.00     0.002 C 
HETATM   17  C17 UNL     1      27.777   0.411  54.918  1.00  0.00     0.151 C 
ENDROOT
BRANCH   1  18
HETATM   18  C3  UNL     1      25.545   3.127  50.540  1.00  0.00     0.027 C 
BRANCH  18  19
HETATM   19  C2  UNL     1      26.608   3.555  49.550  1.00  0.00    -0.001 C 
HETATM   20  C1  UNL     1      26.409   4.982  49.115  1.00  0.00     0.005 C 
ENDBRANCH  18  19
ENDBRANCH   1  18
TORSDOF 2
ENDMDL
MODEL 3
REMARK VINA RESULT:      -7.0      2.259      4.249
REMARK  2 active torsions:
REMARK  status: ('A' for Active; 'I' for Inactive)
REMARK    1  A    between atoms: C2_2  and  C3_3 
REMARK    2  A    between atoms: C3_3  and  C4_4 
ROOT
HETATM    1  C4  UNL     1      23.716   2.503  52.726  1.00  0.00    -0.019 C 
HETATM    2  C5  UNL     1      24.449   2.370  51.624  1.00  0.00    -0.046 C 
HETATM    3  C6  UNL     1      24.266   3.007  50.267  1.00  0.00     0.085 C 
HETATM    4  C7  UNL     1      25.655   3.233  49.683  1.00  0.00     0.091 C 
HETATM    5  N1  UNL     1      26.790   2.806  50.085  1.00  0.00    -0.269 NA
HETATM    6  C8  UNL     1      26.883   1.993  51.235  1.00  0.00     0.278 C 
HETATM    7  O1  UNL     1      27.690   2.703  52.212  1.00  0.00    -0.361 OA
HETATM    8  C9  UNL     1      27.861   1.760  53.098  1.00  0.00     0.172 C 
HETATM    9  C10 UNL     1      28.401   1.419  54.379  1.00  0.00     0.046 C 
HETATM   10  C11 UNL     1      28.042  -0.126  54.353  1.00  0.00     0.119 C 
HETATM   11  N2  UNL     1      26.737  -0.398  53.981  1.00  0.00    -0.409 N 
HETATM   12  C12 UNL     1      25.668  -0.454  54.868  1.00  0.00     0.117 C 
HETATM   13  C13 UNL     1      24.270  -0.596  54.364  1.00  0.00     0.024 C 
HETATM   14  C14 UNL     1      24.063  -0.237  52.881  1.00  0.00     0.038 C 
HETATM   15  C15 UNL     1      25.319   0.322  52.333  1.00  0.00    -0.051 C 
HETATM   16  C16 UNL     1      25.635   1.451  51.752  1.00  0.00     0.002 C 
HETATM   17  C17 UNL     1      26.380  -0.692  52.634  1.00  0.00     0.151 C 
ENDROOT
BRANCH   1  18
HETATM   18  C3  UNL     1      22.521   3.387  52.707  1.00  0.00     0.027 C 
BRANCH  18  19
HETATM   19  C2  UNL     1      21.303   2.652  52.188  1.00  0.00    -0.001 C 
HETATM   20  C1  UNL     1      20.935   1.501  53.084  1.00  0.00     0.005 C 
ENDBRANCH  18  19
ENDBRANCH   1  18
TORSDOF 2
ENDMDL
MODEL 4
REMARK VINA RESULT:      -7.0      1.771      4.348
REMARK  2 active torsions:
REMARK  status: ('A' for Active; 'I' for Inactive)
REMARK    1  A    between atoms: C2_2  and  C3_3 
REMARK    2  A    between atoms: C3_3  and  C4_4 
ROOT
HETATM    1  C4  UNL     1      23.708   2.914  53.000  1.00  0.00    -0.019 C 
HETATM    2  C5  UNL     1      24.494   2.080  52.324  1.00  0.00    -0.046 C 
HETATM    3  C6  UNL     1      25.568   2.386  51.308  1.00  0.00     0.085 C 
HETATM    4  C7  UNL     1      26.651   1.326  51.462  1.00  0.00     0.091 C 
HETATM    5  N1  UNL     1      26.641   0.239  52.132  1.00  0.00    -0.269 NA
HETATM    6  C8  UNL     1      25.502  -0.133  52.878  1.00  0.00     0.278 C 
HETATM    7  O1  UNL     1      25.893  -0.199  54.275  1.00  0.00    -0.361 OA
HETATM    8  C9  UNL     1      24.826  -0.750  54.787  1.00  0.00     0.172 C 
HETATM    9  C10 UNL     1      24.169  -1.177  55.985  1.00  0.00     0.046 C 
HETATM   10  C11 UNL     1      22.881  -1.806  55.305  1.00  0.00     0.119 C 
HETATM   11  N2  UNL     1      22.285  -0.990  54.359  1.00  0.00    -0.409 N 
HETATM   12  C12 UNL     1      21.317  -0.035  54.650  1.00  0.00     0.117 C 
HETATM   13  C13 UNL     1      20.841   0.909  53.597  1.00  0.00     0.024 C 
HETATM   14  C14 UNL     1      21.763   1.051  52.371  1.00  0.00     0.038 C 
HETATM   15  C15 UNL     1      23.015   0.297  52.611  1.00  0.00    -0.051 C 
HETATM   16  C16 UNL     1      24.282   0.620  52.621  1.00  0.00     0.002 C 
HETATM   17  C17 UNL     1      22.589  -1.093  52.971  1.00  0.00     0.151 C 
ENDROOT
BRANCH   1  18
HETATM   18  C3  UNL     1      23.835   4.379  52.781  1.00  0.00     0.027 C 
BRANCH  18  19
HETATM   19  C2  UNL     1      22.969   4.838  51.627  1.00  0.00    -0.001 C 
HETATM   20  C1  UNL     1      21.511   4.581  51.900  1.00  0.00     0.005 C 
ENDBRANCH  18  19
ENDBRANCH   1  18
TORSDOF 2
ENDMDL
MODEL 5
REMARK VINA RESULT:      -6.9      2.678      5.380
REMARK  2 active torsions:
REMARK  status: ('A' for Active; 'I' for Inactive)
REMARK    1  A    between atoms: C2_2  and  C3_3 
REMARK    2  A    between atoms: C3_3  and  C4_4 
ROOT
HETATM    1  C4  UNL     1      26.635   2.464  51.986  1.00  0.00    -0.019 C 
HETATM    2  C5  UNL     1      25.364   2.091  51.868  1.00  0.00    -0.046 C 
HETATM    3  C6  UNL     1      24.668   0.870  52.422  1.00  0.00     0.085 C 
HETATM    4  C7  UNL     1      23.235   1.276  52.746  1.00  0.00     0.091 C 
HETATM    5  N1  UNL     1      22.599   2.341  52.444  1.00  0.00    -0.269 NA
HETATM    6  C8  UNL     1      23.225   3.362  51.697  1.00  0.00     0.278 C 
HETATM    7  O1  UNL     1      23.255   4.556  52.524  1.00  0.00    -0.361 OA
HETATM    8  C9  UNL     1      23.647   5.435  51.643  1.00  0.00     0.172 C 
HETATM    9  C10 UNL     1      24.032   6.795  51.413  1.00  0.00     0.046 C 
HETATM   10  C11 UNL     1      24.229   6.695  49.843  1.00  0.00     0.119 C 
HETATM   11  N2  UNL     1      24.987   5.611  49.435  1.00  0.00    -0.409 N 
HETATM   12  C12 UNL     1      26.373   5.624  49.323  1.00  0.00     0.117 C 
HETATM   13  C13 UNL     1      27.124   4.368  49.030  1.00  0.00     0.024 C 
HETATM   14  C14 UNL     1      26.354   3.061  49.299  1.00  0.00     0.038 C 
HETATM   15  C15 UNL     1      25.060   3.378  49.944  1.00  0.00    -0.051 C 
HETATM   16  C16 UNL     1      24.494   3.024  51.069  1.00  0.00     0.002 C 
HETATM   17  C17 UNL     1      24.394   4.375  49.047  1.00  0.00     0.151 C 
ENDROOT
BRANCH   1  18
HETATM   18  C3  UNL     1      27.580   1.613  52.754  1.00  0.00     0.027 C 
BRANCH  18  19
HETATM   19  C2  UNL     1      28.533   2.455  53.576  1.00  0.00    -0.001 C 
HETATM   20  C1  UNL     1      29.375   1.601  54.484  1.00  0.00     0.005 C 
ENDBRANCH  18  19
ENDBRANCH   1  18
TORSDOF 2
ENDMDL
MODEL 6
REMARK VINA RESULT:      -6.7      2.264      4.801
REMARK  2 active torsions:
REMARK  status: ('A' for Active; 'I' for Inactive)
REMARK    1  A    between atoms: C2_2  and  C3_3 
REMARK    2  A    between atoms: C3_3  and  C4_4 
ROOT
HETATM    1  C4  UNL     1      24.839   2.311  52.886  1.00  0.00    -0.019 C 
HETATM    2  C5  UNL     1      24.184   1.174  52.669  1.00  0.00    -0.046 C 
HETATM    3  C6  UNL     1      24.466  -0.211  53.200  1.00  0.00     0.085 C 
HETATM    4  C7  UNL     1      23.123  -0.907  53.384  1.00  0.00     0.091 C 
HETATM    5  N1  UNL     1      21.960  -0.554  52.993  1.00  0.00    -0.269 NA
HETATM    6  C8  UNL     1      21.779   0.645  52.270  1.00  0.00     0.278 C 
HETATM    7  O1  UNL     1      20.913   1.506  53.056  1.00  0.00    -0.361 OA
HETATM    8  C9  UNL     1      20.672   2.447  52.185  1.00  0.00     0.172 C 
HETATM    9  C10 UNL     1      20.041   3.710  51.944  1.00  0.00     0.046 C 
HETATM   10  C11 UNL     1      20.388   3.828  50.402  1.00  0.00     0.119 C 
HETATM   11  N2  UNL     1      21.714   3.570  50.098  1.00  0.00    -0.409 N 
HETATM   12  C12 UNL     1      22.719   4.531  50.108  1.00  0.00     0.117 C 
HETATM   13  C13 UNL     1      24.147   4.139  49.923  1.00  0.00     0.024 C 
HETATM   14  C14 UNL     1      24.460   2.651  50.167  1.00  0.00     0.038 C 
HETATM   15  C15 UNL     1      23.249   1.975  50.685  1.00  0.00    -0.051 C 
HETATM   16  C16 UNL     1      22.984   1.289  51.766  1.00  0.00     0.002 C 
HETATM   17  C17 UNL     1      22.162   2.278  49.700  1.00  0.00     0.151 C 
ENDROOT
BRANCH   1  18
HETATM   18  C3  UNL     1      26.039   2.309  53.762  1.00  0.00     0.027 C 
BRANCH  18  19
HETATM   19  C2  UNL     1      27.301   2.061  52.963  1.00  0.00    -0.001 C 
HETATM   20  C1  UNL     1      28.530   2.420  53.755  1.00  0.00     0.005 C 
ENDBRANCH  18  19
ENDBRANCH   1  18
TORSDOF 2
ENDMDL
MODEL 7
REMARK VINA RESULT:      -6.7      2.111      5.594
REMARK  2 active torsions:
REMARK  status: ('A' for Active; 'I' for Inactive)
REMARK    1  A    between atoms: C2_2  and  C3_3 
REMARK    2  A    between atoms: C3_3  and  C4_4 
ROOT
HETATM    1  C4  UNL     1      25.480   0.601  51.743  1.00  0.00    -0.019 C 
HETATM    2  C5  UNL     1      25.442   1.888  51.408  1.00  0.00    -0.046 C 
HETATM    3  C6  UNL     1      26.578   2.870  51.247  1.00  0.00     0.085 C 
HETATM    4  C7  UNL     1      26.183   3.838  50.139  1.00  0.00     0.091 C 
HETATM    5  N1  UNL     1      25.058   4.001  49.559  1.00  0.00    -0.269 NA
HETATM    6  C8  UNL     1      23.942   3.217  49.924  1.00  0.00     0.278 C 
HETATM    7  O1  UNL     1      23.541   2.451  48.757  1.00  0.00    -0.361 OA
HETATM    8  C9  UNL     1      22.407   1.965  49.181  1.00  0.00     0.172 C 
HETATM    9  C10 UNL     1      21.302   1.103  48.888  1.00  0.00     0.046 C 
HETATM   10  C11 UNL     1      20.455   1.395  50.196  1.00  0.00     0.119 C 
HETATM   11  N2  UNL     1      21.184   1.325  51.371  1.00  0.00    -0.409 N 
HETATM   12  C12 UNL     1      21.379   0.158  52.101  1.00  0.00     0.117 C 
HETATM   13  C13 UNL     1      22.309   0.139  53.268  1.00  0.00     0.024 C 
HETATM   14  C14 UNL     1      23.321   1.298  53.326  1.00  0.00     0.038 C 
HETATM   15  C15 UNL     1      23.218   2.100  52.085  1.00  0.00    -0.051 C 
HETATM   16  C16 UNL     1      24.066   2.441  51.150  1.00  0.00     0.002 C 
HETATM   17  C17 UNL     1      21.774   2.478  51.966  1.00  0.00     0.151 C 
ENDROOT
BRANCH   1  18
HETATM   18  C3  UNL     1      26.789  -0.045  52.020  1.00  0.00     0.027 C 
BRANCH  18  19
HETATM   19  C2  UNL     1      26.777  -0.760  53.355  1.00  0.00    -0.001 C 
HETATM   20  C1  UNL     1      26.827   0.217  54.499  1.00  0.00     0.005 C 
ENDBRANCH  18  19
ENDBRANCH   1  18
TORSDOF 2
ENDMDL
MODEL 8
REMARK VINA RESULT:      -6.7      2.733      4.801
REMARK  2 active torsions:
REMARK  status: ('A' for Active; 'I' for Inactive)
REMARK    1  A    between atoms: C2_2  and  C3_3 
REMARK    2  A    between atoms: C3_3  and  C4_4 
ROOT
HETATM    1  C4  UNL     1      21.147   0.805  53.405  1.00  0.00    -0.019 C 
HETATM    2  C5  UNL     1      20.699   0.837  52.154  1.00  0.00    -0.046 C 
HETATM    3  C6  UNL     1      19.578   0.052  51.515  1.00  0.00     0.085 C 
HETATM    4  C7  UNL     1      18.937   0.952  50.465  1.00  0.00     0.091 C 
HETATM    5  N1  UNL     1      19.334   2.071  49.996  1.00  0.00    -0.269 NA
HETATM    6  C8  UNL     1      20.537   2.653  50.451  1.00  0.00     0.278 C 
HETATM    7  O1  UNL     1      20.205   3.925  51.067  1.00  0.00    -0.361 OA
HETATM    8  C9  UNL     1      21.401   4.421  51.230  1.00  0.00     0.172 C 
HETATM    9  C10 UNL     1      22.176   5.503  51.756  1.00  0.00     0.046 C 
HETATM   10  C11 UNL     1      23.597   5.007  51.257  1.00  0.00     0.119 C 
HETATM   11  N2  UNL     1      23.862   3.677  51.535  1.00  0.00    -0.409 N 
HETATM   12  C12 UNL     1      24.435   3.225  52.719  1.00  0.00     0.117 C 
HETATM   13  C13 UNL     1      24.540   1.764  53.002  1.00  0.00     0.024 C 
HETATM   14  C14 UNL     1      23.618   0.860  52.163  1.00  0.00     0.038 C 
HETATM   15  C15 UNL     1      22.712   1.704  51.351  1.00  0.00    -0.051 C 
HETATM   16  C16 UNL     1      21.413   1.801  51.243  1.00  0.00     0.002 C 
HETATM   17  C17 UNL     1      23.602   2.640  50.593  1.00  0.00     0.151 C 
ENDROOT
BRANCH   1  18
HETATM   18  C3  UNL     1      20.512  -0.113  54.386  1.00  0.00     0.027 C 
BRANCH  18  19
HETATM   19  C2  UNL     1      21.275  -1.417  54.492  1.00  0.00    -0.001 C 
HETATM   20  C1  UNL     1      22.657  -1.199  55.046  1.00  0.00     0.005 C 
ENDBRANCH  18  19
ENDBRANCH   1  18
TORSDOF 2
ENDMDL
MODEL 9
REMARK VINA RESULT:      -6.6      2.140      3.863
REMARK  2 active torsions:
REMARK  status: ('A' for Active; 'I' for Inactive)
REMARK    1  A    between atoms: C2_2  and  C3_3 
REMARK    2  A    between atoms: C3_3  and  C4_4 
ROOT
HETATM    1  C4  UNL     1      23.212   0.447  52.300  1.00  0.00    -0.019 C 
HETATM    2  C5  UNL     1      24.193   0.822  53.116  1.00  0.00    -0.046 C 
HETATM    3  C6  UNL     1      24.761   0.112  54.322  1.00  0.00     0.085 C 
HETATM    4  C7  UNL     1      26.247   0.444  54.382  1.00  0.00     0.091 C 
HETATM    5  N1  UNL     1      26.919   1.308  53.725  1.00  0.00    -0.269 NA
HETATM    6  C8  UNL     1      26.285   2.135  52.772  1.00  0.00     0.278 C 
HETATM    7  O1  UNL     1      26.880   1.850  51.478  1.00  0.00    -0.361 OA
HETATM    8  C9  UNL     1      26.362   2.815  50.770  1.00  0.00     0.172 C 
HETATM    9  C10 UNL     1      26.235   3.396  49.467  1.00  0.00     0.046 C 
HETATM   10  C11 UNL     1      25.376   4.662  49.884  1.00  0.00     0.119 C 
HETATM   11  N2  UNL     1      24.293   4.368  50.695  1.00  0.00    -0.409 N 
HETATM   12  C12 UNL     1      23.033   4.023  50.220  1.00  0.00     0.117 C 
HETATM   13  C13 UNL     1      21.965   3.568  51.159  1.00  0.00     0.024 C 
HETATM   14  C14 UNL     1      22.457   3.098  52.540  1.00  0.00     0.038 C 
HETATM   15  C15 UNL     1      23.938   3.073  52.550  1.00  0.00    -0.051 C 
HETATM   16  C16 UNL     1      24.830   2.146  52.786  1.00  0.00     0.002 C 
HETATM   17  C17 UNL     1      24.369   4.440  52.115  1.00  0.00     0.151 C 
ENDROOT
BRANCH   1  18
HETATM   18  C3  UNL     1      22.515  -0.844  52.537  1.00  0.00     0.027 C 
BRANCH  18  19
HETATM   19  C2  UNL     1      21.243  -0.642  53.333  1.00  0.00    -0.001 C 
HETATM   20  C1  UNL     1      21.358  -1.241  54.709  1.00  0.00     0.005 C 
ENDBRANCH  18  19
ENDBRANCH   1  18
TORSDOF 2
ENDMDL
