MODEL 1
REMARK VINA RESULT:      -8.4      0.000      0.000
REMARK  5 active torsions:
REMARK  status: ('A' for Active; 'I' for Inactive)
REMARK    1  A    between atoms: C2_2  and  C3_3 
REMARK    2  A    between atoms: C3_3  and  C4_4 
REMARK    3  A    between atoms: C4_4  and  O1_5 
REMARK    4  A    between atoms: O1_5  and  C5_6 
REMARK    5  A    between atoms: C5_6  and  C6_7 
ROOT
HETATM    1  C1  UNL     1      23.589  -0.501  53.778  1.00  0.00     0.045 C 
HETATM    2  C2  UNL     1      22.946   0.524  52.924  1.00  0.00    -0.057 C 
HETATM    3  C12 UNL     1      21.609   0.723  53.063  1.00  0.00     0.041 C 
HETATM    4  C13 UNL     1      20.966  -0.138  54.073  1.00  0.00     0.088 C 
HETATM    5  C14 UNL     1      19.662  -0.647  53.593  1.00  0.00    -0.002 C 
HETATM    6  C15 UNL     1      18.715  -0.582  52.651  1.00  0.00     0.112 C 
HETATM    7  N1  UNL     1      18.864   0.311  51.565  1.00  0.00    -0.277 NA
HETATM    8  C16 UNL     1      18.094   1.333  51.484  1.00  0.00     0.090 C 
HETATM    9  C17 UNL     1      18.204   2.325  50.356  1.00  0.00     0.060 C 
HETATM   10  C18 UNL     1      19.508   3.107  50.430  1.00  0.00     0.056 C 
HETATM   11  C19 UNL     1      20.617   2.301  49.864  1.00  0.00     0.003 C 
HETATM   12  C20 UNL     1      21.135   1.491  50.789  1.00  0.00     0.115 C 
HETATM   13  N2  UNL     1      21.010   1.698  52.217  1.00  0.00    -0.250 N 
HETATM   14  N3  UNL     1      20.303   2.812  52.675  1.00  0.00    -0.184 NA
HETATM   15  C21 UNL     1      19.798   3.595  51.785  1.00  0.00     0.121 C 
ENDROOT
BRANCH   2  16
HETATM   16  C3  UNL     1      23.934   1.182  52.031  1.00  0.00     0.062 C 
BRANCH  16  17
HETATM   17  C4  UNL     1      24.595   2.331  52.765  1.00  0.00     0.172 C 
BRANCH  17  18
HETATM   18  O1  UNL     1      25.963   2.137  52.669  1.00  0.00    -0.386 OA
BRANCH  18  19
HETATM   19  C5  UNL     1      26.571   1.811  53.858  1.00  0.00     0.206 C 
BRANCH  19  20
HETATM   20  C6  UNL     1      27.450   0.632  53.625  1.00  0.00    -0.032 A 
HETATM   21  C7  UNL     1      28.807   0.820  53.871  1.00  0.00     0.009 A 
HETATM   22  C8  UNL     1      29.740  -0.180  53.693  1.00  0.00     0.004 A 
HETATM   23  C9  UNL     1      29.349  -1.417  53.258  1.00  0.00     0.042 A 
HETATM   24  C10 UNL     1      27.995  -1.645  53.001  1.00  0.00     0.117 A 
HETATM   25  F1  UNL     1      27.571  -2.851  52.571  1.00  0.00    -0.206 F 
HETATM   26  C11 UNL     1      27.092  -0.618  53.192  1.00  0.00     0.051 A 
ENDBRANCH  19  20
ENDBRANCH  18  19
ENDBRANCH  17  18
ENDBRANCH  16  17
ENDBRANCH   2  16
TORSDOF 5
ENDMDL
MODEL 2
REMARK VINA RESULT:      -8.3      4.018      5.786
REMARK  5 active torsions:
REMARK  status: ('A' for Active; 'I' for Inactive)
REMARK    1  A    between atoms: C2_2  and  C3_3 
REMARK    2  A    between atoms: C3_3  and  C4_4 
REMARK    3  A    between atoms: C4_4  and  O1_5 
REMARK    4  A    between atoms: O1_5  and  C5_6 
REMARK    5  A    between atoms: C5_6  and  C6_7 
ROOT
HETATM    1  C1  UNL     1      26.738   2.150  51.354  1.00  0.00     0.045 C 
HETATM    2  C2  UNL     1      25.567   3.027  51.124  1.00  0.00    -0.057 C 
HETATM    3  C12 UNL     1      25.584   3.839  50.034  1.00  0.00     0.041 C 
HETATM    4  C13 UNL     1      26.802   3.730  49.210  1.00  0.00     0.088 C 
HETATM    5  C14 UNL     1      27.268   5.061  48.762  1.00  0.00    -0.002 C 
HETATM    6  C15 UNL     1      27.001   6.369  48.677  1.00  0.00     0.112 C 
HETATM    7  N1  UNL     1      25.784   6.872  49.193  1.00  0.00    -0.277 NA
HETATM    8  C16 UNL     1      24.890   7.305  48.381  1.00  0.00     0.090 C 
HETATM    9  C17 UNL     1      23.572   7.848  48.864  1.00  0.00     0.060 C 
HETATM   10  C18 UNL     1      22.715   6.754  49.485  1.00  0.00     0.056 C 
HETATM   11  C19 UNL     1      23.149   6.497  50.879  1.00  0.00     0.003 C 
HETATM   12  C20 UNL     1      24.157   5.623  50.909  1.00  0.00     0.115 C 
HETATM   13  N2  UNL     1      24.457   4.689  49.844  1.00  0.00    -0.250 N 
HETATM   14  N3  UNL     1      23.652   4.687  48.704  1.00  0.00    -0.184 NA
HETATM   15  C21 UNL     1      22.679   5.532  48.670  1.00  0.00     0.121 C 
ENDROOT
BRANCH   2  16
HETATM   16  C3  UNL     1      24.538   2.846  52.179  1.00  0.00     0.062 C 
BRANCH  16  17
HETATM   17  C4  UNL     1      24.025   1.420  52.145  1.00  0.00     0.172 C 
BRANCH  17  18
HETATM   18  O1  UNL     1      23.993   0.972  53.456  1.00  0.00    -0.386 OA
BRANCH  18  19
HETATM   19  C5  UNL     1      24.340  -0.349  53.607  1.00  0.00     0.206 C 
BRANCH  19  20
HETATM   20  C6  UNL     1      25.825  -0.436  53.678  1.00  0.00    -0.032 A 
HETATM   21  C7  UNL     1      26.432  -1.314  52.785  1.00  0.00     0.009 A 
HETATM   22  C8  UNL     1      27.798  -1.503  52.741  1.00  0.00     0.004 A 
HETATM   23  C9  UNL     1      28.616  -0.817  53.595  1.00  0.00     0.042 A 
HETATM   24  C10 UNL     1      28.044   0.075  54.507  1.00  0.00     0.117 A 
HETATM   25  F1  UNL     1      28.818   0.770  55.365  1.00  0.00    -0.206 F 
HETATM   26  C11 UNL     1      26.673   0.236  54.520  1.00  0.00     0.051 A 
ENDBRANCH  19  20
ENDBRANCH  18  19
ENDBRANCH  17  18
ENDBRANCH  16  17
ENDBRANCH   2  16
TORSDOF 5
ENDMDL
MODEL 3
REMARK VINA RESULT:      -8.3      2.042      3.813
REMARK  5 active torsions:
REMARK  status: ('A' for Active; 'I' for Inactive)
REMARK    1  A    between atoms: C2_2  and  C3_3 
REMARK    2  A    between atoms: C3_3  and  C4_4 
REMARK    3  A    between atoms: C4_4  and  O1_5 
REMARK    4  A    between atoms: O1_5  and  C5_6 
REMARK    5  A    between atoms: C5_6  and  C6_7 
ROOT
HETATM    1  C1  UNL     1      19.419  -0.539  52.876  1.00  0.00     0.045 C 
HETATM    2  C2  UNL     1      20.534   0.433  52.953  1.00  0.00    -0.057 C 
HETATM    3  C12 UNL     1      20.700   1.295  51.916  1.00  0.00     0.041 C 
HETATM    4  C13 UNL     1      19.719   1.135  50.827  1.00  0.00     0.088 C 
HETATM    5  C14 UNL     1      20.367   1.244  49.501  1.00  0.00    -0.002 C 
HETATM    6  C15 UNL     1      21.480   1.545  48.821  1.00  0.00     0.112 C 
HETATM    7  N1  UNL     1      22.638   1.958  49.518  1.00  0.00    -0.277 NA
HETATM    8  C16 UNL     1      23.031   3.175  49.415  1.00  0.00     0.090 C 
HETATM    9  C17 UNL     1      24.253   3.680  50.134  1.00  0.00     0.060 C 
HETATM   10  C18 UNL     1      24.040   3.703  51.642  1.00  0.00     0.056 C 
HETATM   11  C19 UNL     1      24.239   2.346  52.205  1.00  0.00     0.003 C 
HETATM   12  C20 UNL     1      23.114   1.632  52.129  1.00  0.00     0.115 C 
HETATM   13  N2  UNL     1      21.791   2.206  52.003  1.00  0.00    -0.250 N 
HETATM   14  N3  UNL     1      21.663   3.596  51.952  1.00  0.00    -0.184 NA
HETATM   15  C21 UNL     1      22.747   4.289  52.021  1.00  0.00     0.121 C 
ENDROOT
BRANCH   2  16
HETATM   16  C3  UNL     1      21.300   0.279  54.216  1.00  0.00     0.062 C 
BRANCH  16  17
HETATM   17  C4  UNL     1      21.758  -1.159  54.359  1.00  0.00     0.172 C 
BRANCH  17  18
HETATM   18  O1  UNL     1      23.099  -1.191  54.014  1.00  0.00    -0.386 OA
BRANCH  18  19
HETATM   19  C5  UNL     1      23.952  -0.844  55.035  1.00  0.00     0.206 C 
BRANCH  19  20
HETATM   20  C6  UNL     1      25.296  -0.582  54.452  1.00  0.00    -0.032 A 
HETATM   21  C7  UNL     1      25.470  -0.948  53.120  1.00  0.00     0.009 A 
HETATM   22  C8  UNL     1      26.663  -0.771  52.450  1.00  0.00     0.004 A 
HETATM   23  C9  UNL     1      27.737  -0.219  53.092  1.00  0.00     0.042 A 
HETATM   24  C10 UNL     1      27.603   0.161  54.429  1.00  0.00     0.117 A 
HETATM   25  F1  UNL     1      28.640   0.710  55.096  1.00  0.00    -0.206 F 
HETATM   26  C11 UNL     1      26.392  -0.031  55.065  1.00  0.00     0.051 A 
ENDBRANCH  19  20
ENDBRANCH  18  19
ENDBRANCH  17  18
ENDBRANCH  16  17
ENDBRANCH   2  16
TORSDOF 5
ENDMDL
MODEL 4
REMARK VINA RESULT:      -7.9      3.053      6.731
REMARK  5 active torsions:
REMARK  status: ('A' for Active; 'I' for Inactive)
REMARK    1  A    between atoms: C2_2  and  C3_3 
REMARK    2  A    between atoms: C3_3  and  C4_4 
REMARK    3  A    between atoms: C4_4  and  O1_5 
REMARK    4  A    between atoms: O1_5  and  C5_6 
REMARK    5  A    between atoms: C5_6  and  C6_7 
ROOT
HETATM    1  C1  UNL     1      21.291   3.705  52.161  1.00  0.00     0.045 C 
HETATM    2  C2  UNL     1      22.744   3.446  52.284  1.00  0.00    -0.057 C 
HETATM    3  C12 UNL     1      23.173   2.161  52.184  1.00  0.00     0.041 C 
HETATM    4  C13 UNL     1      22.099   1.175  51.961  1.00  0.00     0.088 C 
HETATM    5  C14 UNL     1      22.313  -0.044  52.773  1.00  0.00    -0.002 C 
HETATM    6  C15 UNL     1      23.142  -0.724  53.573  1.00  0.00     0.112 C 
HETATM    7  N1  UNL     1      24.413  -0.189  53.884  1.00  0.00    -0.277 NA
HETATM    8  C16 UNL     1      25.464  -0.751  53.408  1.00  0.00     0.090 C 
HETATM    9  C17 UNL     1      26.846  -0.229  53.697  1.00  0.00     0.060 C 
HETATM   10  C18 UNL     1      27.075   1.127  53.043  1.00  0.00     0.056 C 
HETATM   11  C19 UNL     1      26.470   2.199  53.869  1.00  0.00     0.003 C 
HETATM   12  C20 UNL     1      25.178   2.355  53.572  1.00  0.00     0.115 C 
HETATM   13  N2  UNL     1      24.571   1.933  52.327  1.00  0.00    -0.250 N 
HETATM   14  N3  UNL     1      25.373   1.320  51.362  1.00  0.00    -0.184 NA
HETATM   15  C21 UNL     1      26.620   1.165  51.646  1.00  0.00     0.121 C 
ENDROOT
BRANCH   2  16
HETATM   16  C3  UNL     1      23.502   4.705  52.503  1.00  0.00     0.062 C 
BRANCH  16  17
HETATM   17  C4  UNL     1      23.595   5.472  51.200  1.00  0.00     0.172 C 
BRANCH  17  18
HETATM   18  O1  UNL     1      24.359   4.706  50.334  1.00  0.00    -0.386 OA
BRANCH  18  19
HETATM   19  C5  UNL     1      24.044   4.872  49.007  1.00  0.00     0.206 C 
BRANCH  19  20
HETATM   20  C6  UNL     1      22.884   3.995  48.689  1.00  0.00    -0.032 A 
HETATM   21  C7  UNL     1      21.682   4.641  48.416  1.00  0.00     0.009 A 
HETATM   22  C8  UNL     1      20.523   3.958  48.112  1.00  0.00     0.004 A 
HETATM   23  C9  UNL     1      20.521   2.591  48.069  1.00  0.00     0.042 A 
HETATM   24  C10 UNL     1      21.709   1.905  48.336  1.00  0.00     0.117 A 
HETATM   25  F1  UNL     1      21.746   0.557  48.303  1.00  0.00    -0.206 F 
HETATM   26  C11 UNL     1      22.848   2.625  48.637  1.00  0.00     0.051 A 
ENDBRANCH  19  20
ENDBRANCH  18  19
ENDBRANCH  17  18
ENDBRANCH  16  17
ENDBRANCH   2  16
TORSDOF 5
ENDMDL
MODEL 5
REMARK VINA RESULT:      -7.8      3.261      4.807
REMARK  5 active torsions:
REMARK  status: ('A' for Active; 'I' for Inactive)
REMARK    1  A    between atoms: C2_2  and  C3_3 
REMARK    2  A    between atoms: C3_3  and  C4_4 
REMARK    3  A    between atoms: C4_4  and  O1_5 
REMARK    4  A    between atoms: O1_5  and  C5_6 
REMARK    5  A    between atoms: C5_6  and  C6_7 
ROOT
HETATM    1  C1  UNL     1      21.905   1.169  51.055  1.00  0.00     0.045 C 
HETATM    2  C2  UNL     1      22.980   2.186  50.987  1.00  0.00    -0.057 C 
HETATM    3  C12 UNL     1      22.681   3.393  50.437  1.00  0.00     0.041 C 
HETATM    4  C13 UNL     1      21.288   3.523  49.971  1.00  0.00     0.088 C 
HETATM    5  C14 UNL     1      21.222   4.219  48.668  1.00  0.00    -0.002 C 
HETATM    6  C15 UNL     1      21.885   4.911  47.733  1.00  0.00     0.112 C 
HETATM    7  N1  UNL     1      23.260   5.187  47.909  1.00  0.00    -0.277 NA
HETATM    8  C16 UNL     1      23.634   6.393  48.132  1.00  0.00     0.090 C 
HETATM    9  C17 UNL     1      25.081   6.754  48.333  1.00  0.00     0.060 C 
HETATM   10  C18 UNL     1      25.624   6.170  49.630  1.00  0.00     0.056 C 
HETATM   11  C19 UNL     1      25.980   4.744  49.437  1.00  0.00     0.003 C 
HETATM   12  C20 UNL     1      24.914   3.961  49.615  1.00  0.00     0.115 C 
HETATM   13  N2  UNL     1      23.735   4.347  50.362  1.00  0.00    -0.250 N 
HETATM   14  N3  UNL     1      23.691   5.617  50.940  1.00  0.00    -0.184 NA
HETATM   15  C21 UNL     1      24.717   6.378  50.767  1.00  0.00     0.121 C 
ENDROOT
BRANCH   2  16
HETATM   16  C3  UNL     1      24.249   1.673  51.563  1.00  0.00     0.062 C 
BRANCH  16  17
HETATM   17  C4  UNL     1      24.093   1.509  53.062  1.00  0.00     0.172 C 
BRANCH  17  18
HETATM   18  O1  UNL     1      25.149   0.722  53.493  1.00  0.00    -0.386 OA
BRANCH  18  19
HETATM   19  C5  UNL     1      26.375   1.106  53.003  1.00  0.00     0.206 C 
BRANCH  19  20
HETATM   20  C6  UNL     1      27.286  -0.070  53.052  1.00  0.00    -0.032 A 
HETATM   21  C7  UNL     1      26.756  -1.277  52.604  1.00  0.00     0.009 A 
HETATM   22  C8  UNL     1      27.481  -2.450  52.597  1.00  0.00     0.004 A 
HETATM   23  C9  UNL     1      28.775  -2.463  53.042  1.00  0.00     0.042 A 
HETATM   24  C10 UNL     1      29.343  -1.271  53.500  1.00  0.00     0.117 A 
HETATM   25  F1  UNL     1      30.616  -1.244  53.946  1.00  0.00    -0.206 F 
HETATM   26  C11 UNL     1      28.584  -0.118  53.491  1.00  0.00     0.051 A 
ENDBRANCH  19  20
ENDBRANCH  18  19
ENDBRANCH  17  18
ENDBRANCH  16  17
ENDBRANCH   2  16
TORSDOF 5
ENDMDL
MODEL 6
REMARK VINA RESULT:      -7.7      2.643      3.740
REMARK  5 active torsions:
REMARK  status: ('A' for Active; 'I' for Inactive)
REMARK    1  A    between atoms: C2_2  and  C3_3 
REMARK    2  A    between atoms: C3_3  and  C4_4 
REMARK    3  A    between atoms: C4_4  and  O1_5 
REMARK    4  A    between atoms: O1_5  and  C5_6 
REMARK    5  A    between atoms: C5_6  and  C6_7 
ROOT
HETATM    1  C1  UNL     1      24.550   2.769  53.435  1.00  0.00     0.045 C 
HETATM    2  C2  UNL     1      23.845   2.226  52.251  1.00  0.00    -0.057 C 
HETATM    3  C12 UNL     1      23.396   3.107  51.318  1.00  0.00     0.041 C 
HETATM    4  C13 UNL     1      23.680   4.521  51.627  1.00  0.00     0.088 C 
HETATM    5  C14 UNL     1      22.520   5.383  51.310  1.00  0.00    -0.002 C 
HETATM    6  C15 UNL     1      21.313   5.468  50.740  1.00  0.00     0.112 C 
HETATM    7  N1  UNL     1      20.745   4.329  50.124  1.00  0.00    -0.277 NA
HETATM    8  C16 UNL     1      20.623   4.302  48.847  1.00  0.00     0.090 C 
HETATM    9  C17 UNL     1      20.032   3.119  48.129  1.00  0.00     0.060 C 
HETATM   10  C18 UNL     1      20.935   1.898  48.234  1.00  0.00     0.056 C 
HETATM   11  C19 UNL     1      20.741   1.232  49.545  1.00  0.00     0.003 C 
HETATM   12  C20 UNL     1      21.511   1.792  50.480  1.00  0.00     0.115 C 
HETATM   13  N2  UNL     1      22.703   2.565  50.199  1.00  0.00    -0.250 N 
HETATM   14  N3  UNL     1      23.088   2.749  48.869  1.00  0.00    -0.184 NA
HETATM   15  C21 UNL     1      22.345   2.213  47.963  1.00  0.00     0.121 C 
ENDROOT
BRANCH   2  16
HETATM   16  C3  UNL     1      23.759   0.745  52.303  1.00  0.00     0.062 C 
BRANCH  16  17
HETATM   17  C4  UNL     1      24.496   0.238  53.526  1.00  0.00     0.172 C 
BRANCH  17  18
HETATM   18  O1  UNL     1      25.216  -0.878  53.129  1.00  0.00    -0.386 OA
BRANCH  18  19
HETATM   19  C5  UNL     1      26.134  -0.632  52.137  1.00  0.00     0.206 C 
BRANCH  19  20
HETATM   20  C6  UNL     1      27.363  -0.075  52.765  1.00  0.00    -0.032 A 
HETATM   21  C7  UNL     1      28.280  -1.005  53.250  1.00  0.00     0.009 A 
HETATM   22  C8  UNL     1      29.459  -0.635  53.862  1.00  0.00     0.004 A 
HETATM   23  C9  UNL     1      29.771   0.688  54.015  1.00  0.00     0.042 A 
HETATM   24  C10 UNL     1      28.877   1.651  53.541  1.00  0.00     0.117 A 
HETATM   25  F1  UNL     1      29.149   2.966  53.674  1.00  0.00    -0.206 F 
HETATM   26  C11 UNL     1      27.706   1.241  52.934  1.00  0.00     0.051 A 
ENDBRANCH  19  20
ENDBRANCH  18  19
ENDBRANCH  17  18
ENDBRANCH  16  17
ENDBRANCH   2  16
TORSDOF 5
ENDMDL
MODEL 7
REMARK VINA RESULT:      -7.6      6.041      8.127
REMARK  5 active torsions:
REMARK  status: ('A' for Active; 'I' for Inactive)
REMARK    1  A    between atoms: C2_2  and  C3_3 
REMARK    2  A    between atoms: C3_3  and  C4_4 
REMARK    3  A    between atoms: C4_4  and  O1_5 
REMARK    4  A    between atoms: O1_5  and  C5_6 
REMARK    5  A    between atoms: C5_6  and  C6_7 
ROOT
HETATM    1  C1  UNL     1      26.620   3.413  49.851  1.00  0.00     0.045 C 
HETATM    2  C2  UNL     1      26.078   4.777  49.655  1.00  0.00    -0.057 C 
HETATM    3  C12 UNL     1      26.776   5.633  48.863  1.00  0.00     0.041 C 
HETATM    4  C13 UNL     1      28.014   5.066  48.295  1.00  0.00     0.088 C 
HETATM    5  C14 UNL     1      29.122   6.044  48.340  1.00  0.00    -0.002 C 
HETATM    6  C15 UNL     1      29.489   7.309  48.578  1.00  0.00     0.112 C 
HETATM    7  N1  UNL     1      28.518   8.260  48.968  1.00  0.00    -0.277 NA
HETATM    8  C16 UNL     1      28.196   9.197  48.153  1.00  0.00     0.090 C 
HETATM    9  C17 UNL     1      27.167  10.238  48.505  1.00  0.00     0.060 C 
HETATM   10  C18 UNL     1      25.776   9.628  48.613  1.00  0.00     0.056 C 
HETATM   11  C19 UNL     1      25.606   8.978  49.935  1.00  0.00     0.003 C 
HETATM   12  C20 UNL     1      26.074   7.728  49.912  1.00  0.00     0.115 C 
HETATM   13  N2  UNL     1      26.248   6.945  48.706  1.00  0.00    -0.250 N 
HETATM   14  N3  UNL     1      25.913   7.518  47.478  1.00  0.00    -0.184 NA
HETATM   15  C21 UNL     1      25.465   8.727  47.495  1.00  0.00     0.121 C 
ENDROOT
BRANCH   2  16
HETATM   16  C3  UNL     1      24.804   4.966  50.396  1.00  0.00     0.062 C 
BRANCH  16  17
HETATM   17  C4  UNL     1      23.952   3.720  50.263  1.00  0.00     0.172 C 
BRANCH  17  18
HETATM   18  O1  UNL     1      23.109   3.689  51.362  1.00  0.00    -0.386 OA
BRANCH  18  19
HETATM   19  C5  UNL     1      23.758   3.752  52.572  1.00  0.00     0.206 C 
BRANCH  19  20
HETATM   20  C6  UNL     1      24.155   2.371  52.961  1.00  0.00    -0.032 A 
HETATM   21  C7  UNL     1      25.467   2.210  53.399  1.00  0.00     0.009 A 
HETATM   22  C8  UNL     1      25.976   0.987  53.786  1.00  0.00     0.004 A 
HETATM   23  C9  UNL     1      25.187  -0.130  53.749  1.00  0.00     0.042 A 
HETATM   24  C10 UNL     1      23.865  -0.009  53.315  1.00  0.00     0.117 A 
HETATM   25  F1  UNL     1      23.056  -1.087  53.265  1.00  0.00    -0.206 F 
HETATM   26  C11 UNL     1      23.392   1.232  52.937  1.00  0.00     0.051 A 
ENDBRANCH  19  20
ENDBRANCH  18  19
ENDBRANCH  17  18
ENDBRANCH  16  17
ENDBRANCH   2  16
TORSDOF 5
ENDMDL
MODEL 8
REMARK VINA RESULT:      -7.6      4.381      6.001
REMARK  5 active torsions:
REMARK  status: ('A' for Active; 'I' for Inactive)
REMARK    1  A    between atoms: C2_2  and  C3_3 
REMARK    2  A    between atoms: C3_3  and  C4_4 
REMARK    3  A    between atoms: C4_4  and  O1_5 
REMARK    4  A    between atoms: O1_5  and  C5_6 
REMARK    5  A    between atoms: C5_6  and  C6_7 
ROOT
HETATM    1  C1  UNL     1      21.801   4.217  52.284  1.00  0.00     0.045 C 
HETATM    2  C2  UNL     1      23.113   4.638  51.740  1.00  0.00    -0.057 C 
HETATM    3  C12 UNL     1      23.158   5.771  50.992  1.00  0.00     0.041 C 
HETATM    4  C13 UNL     1      21.856   6.442  50.821  1.00  0.00     0.088 C 
HETATM    5  C14 UNL     1      21.679   6.924  49.433  1.00  0.00    -0.002 C 
HETATM    6  C15 UNL     1      22.246   7.127  48.238  1.00  0.00     0.112 C 
HETATM    7  N1  UNL     1      23.605   6.789  48.040  1.00  0.00    -0.277 NA
HETATM    8  C16 UNL     1      24.467   7.725  47.877  1.00  0.00     0.090 C 
HETATM    9  C17 UNL     1      25.928   7.432  47.666  1.00  0.00     0.060 C 
HETATM   10  C18 UNL     1      26.562   6.840  48.917  1.00  0.00     0.056 C 
HETATM   11  C19 UNL     1      26.259   5.391  49.004  1.00  0.00     0.003 C 
HETATM   12  C20 UNL     1      25.079   5.188  49.593  1.00  0.00     0.115 C 
HETATM   13  N2  UNL     1      24.426   6.145  50.461  1.00  0.00    -0.250 N 
HETATM   14  N3  UNL     1      25.054   7.367  50.709  1.00  0.00    -0.184 NA
HETATM   15  C21 UNL     1      26.192   7.569  50.138  1.00  0.00     0.121 C 
ENDROOT
BRANCH   2  16
HETATM   16  C3  UNL     1      24.191   3.696  52.135  1.00  0.00     0.062 C 
BRANCH  16  17
HETATM   17  C4  UNL     1      23.828   2.294  51.689  1.00  0.00     0.172 C 
BRANCH  17  18
HETATM   18  O1  UNL     1      24.962   1.514  51.847  1.00  0.00    -0.386 OA
BRANCH  18  19
HETATM   19  C5  UNL     1      26.140   2.177  51.599  1.00  0.00     0.206 C 
BRANCH  19  20
HETATM   20  C6  UNL     1      27.190   1.612  52.492  1.00  0.00    -0.032 A 
HETATM   21  C7  UNL     1      27.284   0.224  52.527  1.00  0.00     0.009 A 
HETATM   22  C8  UNL     1      28.204  -0.439  53.313  1.00  0.00     0.004 A 
HETATM   23  C9  UNL     1      29.073   0.267  54.100  1.00  0.00     0.042 A 
HETATM   24  C10 UNL     1      29.010   1.663  54.091  1.00  0.00     0.117 A 
HETATM   25  F1  UNL     1      29.850   2.393  54.853  1.00  0.00    -0.206 F 
HETATM   26  C11 UNL     1      28.075   2.289  53.291  1.00  0.00     0.051 A 
ENDBRANCH  19  20
ENDBRANCH  18  19
ENDBRANCH  17  18
ENDBRANCH  16  17
ENDBRANCH   2  16
TORSDOF 5
ENDMDL
MODEL 9
REMARK VINA RESULT:      -7.6      4.293      5.480
REMARK  5 active torsions:
REMARK  status: ('A' for Active; 'I' for Inactive)
REMARK    1  A    between atoms: C2_2  and  C3_3 
REMARK    2  A    between atoms: C3_3  and  C4_4 
REMARK    3  A    between atoms: C4_4  and  O1_5 
REMARK    4  A    between atoms: O1_5  and  C5_6 
REMARK    5  A    between atoms: C5_6  and  C6_7 
ROOT
HETATM    1  C1  UNL     1      25.923   2.639  50.782  1.00  0.00     0.045 C 
HETATM    2  C2  UNL     1      24.449   2.545  50.674  1.00  0.00    -0.057 C 
HETATM    3  C12 UNL     1      23.763   2.050  51.737  1.00  0.00     0.041 C 
HETATM    4  C13 UNL     1      24.608   1.664  52.882  1.00  0.00     0.088 C 
HETATM    5  C14 UNL     1      24.153   0.388  53.478  1.00  0.00    -0.002 C 
HETATM    6  C15 UNL     1      23.207  -0.558  53.508  1.00  0.00     0.112 C 
HETATM    7  N1  UNL     1      22.077  -0.448  52.667  1.00  0.00    -0.277 NA
HETATM    8  C16 UNL     1      20.929  -0.207  53.186  1.00  0.00     0.090 C 
HETATM    9  C17 UNL     1      19.687  -0.073  52.346  1.00  0.00     0.060 C 
HETATM   10  C18 UNL     1      19.739   1.174  51.475  1.00  0.00     0.056 C 
HETATM   11  C19 UNL     1      20.559   0.918  50.266  1.00  0.00     0.003 C 
HETATM   12  C20 UNL     1      21.853   1.128  50.518  1.00  0.00     0.115 C 
HETATM   13  N2  UNL     1      22.349   1.949  51.603  1.00  0.00    -0.250 N 
HETATM   14  N3  UNL     1      21.430   2.568  52.453  1.00  0.00    -0.184 NA
HETATM   15  C21 UNL     1      20.180   2.364  52.216  1.00  0.00     0.121 C 
ENDROOT
BRANCH   2  16
HETATM   16  C3  UNL     1      23.970   3.037  49.357  1.00  0.00     0.062 C 
BRANCH  16  17
HETATM   17  C4  UNL     1      23.555   4.489  49.479  1.00  0.00     0.172 C 
BRANCH  17  18
HETATM   18  O1  UNL     1      24.521   5.240  48.830  1.00  0.00    -0.386 OA
BRANCH  18  19
HETATM   19  C5  UNL     1      25.233   6.077  49.655  1.00  0.00     0.206 C 
BRANCH  19  20
HETATM   20  C6  UNL     1      26.590   6.266  49.071  1.00  0.00    -0.032 A 
HETATM   21  C7  UNL     1      26.999   7.582  48.879  1.00  0.00     0.009 A 
HETATM   22  C8  UNL     1      28.227   7.908  48.342  1.00  0.00     0.004 A 
HETATM   23  C9  UNL     1      29.100   6.923  47.972  1.00  0.00     0.042 A 
HETATM   24  C10 UNL     1      28.726   5.588  48.149  1.00  0.00     0.117 A 
HETATM   25  F1  UNL     1      29.560   4.588  47.796  1.00  0.00    -0.206 F 
HETATM   26  C11 UNL     1      27.489   5.303  48.690  1.00  0.00     0.051 A 
ENDBRANCH  19  20
ENDBRANCH  18  19
ENDBRANCH  17  18
ENDBRANCH  16  17
ENDBRANCH   2  16
TORSDOF 5
ENDMDL
