MODEL 1
REMARK VINA RESULT:      -7.4      0.000      0.000
REMARK  5 active torsions:
REMARK  status: ('A' for Active; 'I' for Inactive)
REMARK    1  A    between atoms: O1_2  and  C2_3 
REMARK    2  A    between atoms: C17_22  and  N5_23 
REMARK    3  A    between atoms: N5_23  and  C19_25 
REMARK    4  A    between atoms: C19_25  and  C20_26 
REMARK    5  A    between atoms: C20_26  and  N6_27 
ROOT
HETATM    1  C2  UNL     1      23.899   4.057  49.639  1.00  0.00     0.095 C 
HETATM    2  C3  UNL     1      25.208   3.758  49.800  1.00  0.00     0.140 C 
HETATM    3  N1  UNL     1      26.212   3.780  50.821  1.00  0.00    -0.194 N 
HETATM    4  C4  UNL     1      26.374   2.627  51.659  1.00  0.00     0.743 A 
HETATM    5  N2  UNL     1      27.563   2.113  52.018  1.00  0.00    -0.071 NA
HETATM    6  C5  UNL     1      27.626   1.002  52.822  1.00  0.00     0.168 A 
HETATM    7  C6  UNL     1      26.465   0.389  53.277  1.00  0.00     0.077 A 
HETATM    8  C7  UNL     1      26.096  -0.674  54.049  1.00  0.00     0.035 A 
HETATM    9  C8  UNL     1      24.712  -0.720  54.097  1.00  0.00     0.034 A 
HETATM   10  C9  UNL     1      24.283   0.356  53.324  1.00  0.00     0.065 A 
HETATM   11  N3  UNL     1      25.316   0.986  52.859  1.00  0.00    -0.216 N 
HETATM   12  N4  UNL     1      25.230   2.035  52.100  1.00  0.00     0.027 NA
HETATM   13  C10 UNL     1      22.914   0.769  53.042  1.00  0.00    -0.033 C 
HETATM   14  C11 UNL     1      22.758   2.069  52.858  1.00  0.00    -0.013 C 
HETATM   15  C12 UNL     1      22.148   2.386  51.573  1.00  0.00     0.011 C 
HETATM   16  C13 UNL     1      20.827   1.633  51.491  1.00  0.00     0.009 C 
HETATM   17  C14 UNL     1      21.029   0.151  51.691  1.00  0.00     0.005 C 
HETATM   18  C15 UNL     1      21.776  -0.187  52.964  1.00  0.00     0.040 C 
HETATM   19  C16 UNL     1      21.987   3.794  51.224  1.00  0.00     0.051 C 
HETATM   20  C17 UNL     1      23.195   4.578  50.831  1.00  0.00     0.280 C 
HETATM   21  H5  UNL     1      26.877   4.549  51.059  1.00  0.00     0.183 HD
ENDROOT
BRANCH  20  22
HETATM   22  N5  UNL     1      22.847   5.957  50.567  1.00  0.00     0.097 N 
HETATM   23  C18 UNL     1      23.855   6.837  51.142  1.00  0.00     0.310 C 
BRANCH  22  24
HETATM   24  C19 UNL     1      21.522   6.355  50.868  1.00  0.00     0.303 C 
BRANCH  24  25
HETATM   25  C20 UNL     1      20.887   7.131  49.696  1.00  0.00     0.301 C 
BRANCH  25  26
HETATM   26  N6  UNL     1      21.028   6.338  48.472  1.00  0.00     0.081 N 
HETATM   27  C21 UNL     1      20.724   7.276  47.387  1.00  0.00     0.309 C 
HETATM   28  C22 UNL     1      19.955   5.354  48.468  1.00  0.00     0.309 C 
ENDBRANCH  25  26
ENDBRANCH  24  25
ENDBRANCH  22  24
ENDBRANCH  20  22
BRANCH   1  29
HETATM   29  O1  UNL     1      23.358   3.850  48.384  1.00  0.00    -0.357 OA
HETATM   30  C1  UNL     1      22.811   2.588  48.055  1.00  0.00     0.209 C 
ENDBRANCH   1  29
TORSDOF 5
ENDMDL
MODEL 2
REMARK VINA RESULT:      -7.4      1.077      2.039
REMARK  5 active torsions:
REMARK  status: ('A' for Active; 'I' for Inactive)
REMARK    1  A    between atoms: O1_2  and  C2_3 
REMARK    2  A    between atoms: C17_22  and  N5_23 
REMARK    3  A    between atoms: N5_23  and  C19_25 
REMARK    4  A    between atoms: C19_25  and  C20_26 
REMARK    5  A    between atoms: C20_26  and  N6_27 
ROOT
HETATM    1  C2  UNL     1      23.631   4.039  49.725  1.00  0.00     0.095 C 
HETATM    2  C3  UNL     1      24.967   3.861  49.838  1.00  0.00     0.140 C 
HETATM    3  N1  UNL     1      26.000   3.965  50.824  1.00  0.00    -0.194 N 
HETATM    4  C4  UNL     1      26.298   2.823  51.639  1.00  0.00     0.743 A 
HETATM    5  N2  UNL     1      27.542   2.418  51.949  1.00  0.00    -0.071 NA
HETATM    6  C5  UNL     1      27.737   1.309  52.734  1.00  0.00     0.168 A 
HETATM    7  C6  UNL     1      26.655   0.585  53.220  1.00  0.00     0.077 A 
HETATM    8  C7  UNL     1      26.413  -0.516  53.989  1.00  0.00     0.035 A 
HETATM    9  C8  UNL     1      25.042  -0.692  54.083  1.00  0.00     0.034 A 
HETATM   10  C9  UNL     1      24.488   0.347  53.341  1.00  0.00     0.065 A 
HETATM   11  N3  UNL     1      25.441   1.076  52.850  1.00  0.00    -0.216 N 
HETATM   12  N4  UNL     1      25.231   2.122  52.110  1.00  0.00     0.027 NA
HETATM   13  C10 UNL     1      23.077   0.634  53.112  1.00  0.00    -0.033 C 
HETATM   14  C11 UNL     1      22.795   1.916  52.952  1.00  0.00    -0.013 C 
HETATM   15  C12 UNL     1      22.113   2.189  51.693  1.00  0.00     0.011 C 
HETATM   16  C13 UNL     1      20.866   1.317  51.646  1.00  0.00     0.009 C 
HETATM   17  C14 UNL     1      21.212  -0.142  51.817  1.00  0.00     0.005 C 
HETATM   18  C15 UNL     1      22.032  -0.423  53.059  1.00  0.00     0.040 C 
HETATM   19  C16 UNL     1      21.809   3.580  51.372  1.00  0.00     0.051 C 
HETATM   20  C17 UNL     1      22.924   4.478  50.949  1.00  0.00     0.280 C 
HETATM   21  H5  UNL     1      26.598   4.791  51.050  1.00  0.00     0.183 HD
ENDROOT
BRANCH  20  22
HETATM   22  N5  UNL     1      22.440   5.821  50.717  1.00  0.00     0.097 N 
HETATM   23  C18 UNL     1      21.045   5.776  50.300  1.00  0.00     0.310 C 
BRANCH  22  24
HETATM   24  C19 UNL     1      23.239   6.661  49.905  1.00  0.00     0.303 C 
BRANCH  24  25
HETATM   25  C20 UNL     1      24.248   7.467  50.747  1.00  0.00     0.301 C 
BRANCH  25  26
HETATM   26  N6  UNL     1      25.520   7.535  50.023  1.00  0.00     0.081 N 
HETATM   27  C21 UNL     1      25.905   8.949  50.082  1.00  0.00     0.309 C 
HETATM   28  C22 UNL     1      25.238   7.251  48.624  1.00  0.00     0.309 C 
ENDBRANCH  25  26
ENDBRANCH  24  25
ENDBRANCH  22  24
ENDBRANCH  20  22
BRANCH   1  29
HETATM   29  O1  UNL     1      23.067   3.796  48.487  1.00  0.00    -0.357 OA
HETATM   30  C1  UNL     1      22.667   2.483  48.143  1.00  0.00     0.209 C 
ENDBRANCH   1  29
TORSDOF 5
ENDMDL
MODEL 3
REMARK VINA RESULT:      -7.3      2.424      6.549
REMARK  5 active torsions:
REMARK  status: ('A' for Active; 'I' for Inactive)
REMARK    1  A    between atoms: O1_2  and  C2_3 
REMARK    2  A    between atoms: C17_22  and  N5_23 
REMARK    3  A    between atoms: N5_23  and  C19_25 
REMARK    4  A    between atoms: C19_25  and  C20_26 
REMARK    5  A    between atoms: C20_26  and  N6_27 
ROOT
HETATM    1  C2  UNL     1      23.938   3.280  52.189  1.00  0.00     0.095 C 
HETATM    2  C3  UNL     1      23.198   3.958  51.283  1.00  0.00     0.140 C 
HETATM    3  N1  UNL     1      22.658   3.783  49.968  1.00  0.00    -0.194 N 
HETATM    4  C4  UNL     1      21.358   3.194  49.825  1.00  0.00     0.743 A 
HETATM    5  N2  UNL     1      20.416   3.637  48.975  1.00  0.00    -0.071 NA
HETATM    6  C5  UNL     1      19.194   3.014  48.905  1.00  0.00     0.168 A 
HETATM    7  C6  UNL     1      18.910   1.919  49.711  1.00  0.00     0.077 A 
HETATM    8  C7  UNL     1      17.882   1.053  49.949  1.00  0.00     0.035 A 
HETATM    9  C8  UNL     1      18.283   0.154  50.924  1.00  0.00     0.034 A 
HETATM   10  C9  UNL     1      19.584   0.524  51.250  1.00  0.00     0.065 A 
HETATM   11  N3  UNL     1      19.928   1.549  50.535  1.00  0.00    -0.216 N 
HETATM   12  N4  UNL     1      21.090   2.120  50.618  1.00  0.00     0.027 NA
HETATM   13  C10 UNL     1      20.476  -0.093  52.224  1.00  0.00    -0.033 C 
HETATM   14  C11 UNL     1      21.761  -0.008  51.925  1.00  0.00    -0.013 C 
HETATM   15  C12 UNL     1      22.542   0.628  52.978  1.00  0.00     0.011 C 
HETATM   16  C13 UNL     1      22.303  -0.150  54.264  1.00  0.00     0.009 C 
HETATM   17  C14 UNL     1      20.832  -0.225  54.593  1.00  0.00     0.005 C 
HETATM   18  C15 UNL     1      19.989  -0.768  53.458  1.00  0.00     0.040 C 
HETATM   19  C16 UNL     1      23.966   0.842  52.735  1.00  0.00     0.051 C 
HETATM   20  C17 UNL     1      24.378   1.924  51.792  1.00  0.00     0.280 C 
HETATM   21  H5  UNL     1      23.092   4.033  49.052  1.00  0.00     0.183 HD
ENDROOT
BRANCH  20  22
HETATM   22  N5  UNL     1      25.816   1.955  51.645  1.00  0.00     0.097 N 
HETATM   23  C18 UNL     1      26.166   2.499  50.340  1.00  0.00     0.310 C 
BRANCH  22  24
HETATM   24  C19 UNL     1      26.521   0.768  51.961  1.00  0.00     0.303 C 
BRANCH  24  25
HETATM   25  C20 UNL     1      27.646   1.035  52.981  1.00  0.00     0.301 C 
BRANCH  25  26
HETATM   26  N6  UNL     1      27.725  -0.099  53.906  1.00  0.00     0.081 N 
HETATM   27  C21 UNL     1      26.760   0.219  54.964  1.00  0.00     0.309 C 
HETATM   28  C22 UNL     1      29.039  -0.058  54.531  1.00  0.00     0.309 C 
ENDBRANCH  25  26
ENDBRANCH  24  25
ENDBRANCH  22  24
ENDBRANCH  20  22
BRANCH   1  29
HETATM   29  O1  UNL     1      24.209   3.920  53.384  1.00  0.00    -0.357 OA
HETATM   30  C1  UNL     1      23.599   5.163  53.669  1.00  0.00     0.209 C 
ENDBRANCH   1  29
TORSDOF 5
ENDMDL
MODEL 4
REMARK VINA RESULT:      -7.2      2.171      4.213
REMARK  5 active torsions:
REMARK  status: ('A' for Active; 'I' for Inactive)
REMARK    1  A    between atoms: O1_2  and  C2_3 
REMARK    2  A    between atoms: C17_22  and  N5_23 
REMARK    3  A    between atoms: N5_23  and  C19_25 
REMARK    4  A    between atoms: C19_25  and  C20_26 
REMARK    5  A    between atoms: C20_26  and  N6_27 
ROOT
HETATM    1  C2  UNL     1      23.548   4.444  51.241  1.00  0.00     0.095 C 
HETATM    2  C3  UNL     1      22.332   4.128  51.740  1.00  0.00     0.140 C 
HETATM    3  N1  UNL     1      21.354   3.086  51.646  1.00  0.00    -0.194 N 
HETATM    4  C4  UNL     1      21.441   1.970  52.542  1.00  0.00     0.743 A 
HETATM    5  N2  UNL     1      20.388   1.416  53.167  1.00  0.00    -0.071 NA
HETATM    6  C5  UNL     1      20.564   0.348  54.012  1.00  0.00     0.168 A 
HETATM    7  C6  UNL     1      21.830  -0.177  54.238  1.00  0.00     0.077 A 
HETATM    8  C7  UNL     1      22.419  -1.174  54.960  1.00  0.00     0.035 A 
HETATM    9  C8  UNL     1      23.783  -1.145  54.716  1.00  0.00     0.034 A 
HETATM   10  C9  UNL     1      23.972  -0.094  53.824  1.00  0.00     0.065 A 
HETATM   11  N3  UNL     1      22.827   0.454  53.559  1.00  0.00    -0.216 N 
HETATM   12  N4  UNL     1      22.687   1.462  52.755  1.00  0.00     0.027 NA
HETATM   13  C10 UNL     1      25.223   0.372  53.238  1.00  0.00    -0.033 C 
HETATM   14  C11 UNL     1      25.103   0.897  52.030  1.00  0.00    -0.013 C 
HETATM   15  C12 UNL     1      25.624   2.256  51.953  1.00  0.00     0.011 C 
HETATM   16  C13 UNL     1      27.072   2.222  52.423  1.00  0.00     0.009 C 
HETATM   17  C14 UNL     1      27.184   1.632  53.807  1.00  0.00     0.005 C 
HETATM   18  C15 UNL     1      26.534   0.269  53.934  1.00  0.00     0.040 C 
HETATM   19  C16 UNL     1      25.486   2.967  50.686  1.00  0.00     0.051 C 
HETATM   20  C17 UNL     1      24.138   3.474  50.292  1.00  0.00     0.280 C 
HETATM   21  H5  UNL     1      20.545   3.016  50.990  1.00  0.00     0.183 HD
ENDROOT
BRANCH  20  22
HETATM   22  N5  UNL     1      24.189   4.108  48.993  1.00  0.00     0.097 N 
HETATM   23  C18 UNL     1      25.314   5.032  48.941  1.00  0.00     0.310 C 
BRANCH  22  24
HETATM   24  C19 UNL     1      22.985   4.668  48.502  1.00  0.00     0.303 C 
BRANCH  24  25
HETATM   25  C20 UNL     1      22.273   3.708  47.527  1.00  0.00     0.301 C 
BRANCH  25  26
HETATM   26  N6  UNL     1      21.167   3.054  48.231  1.00  0.00     0.081 N 
HETATM   27  C21 UNL     1      21.567   1.646  48.321  1.00  0.00     0.309 C 
HETATM   28  C22 UNL     1      20.010   3.090  47.347  1.00  0.00     0.309 C 
ENDBRANCH  25  26
ENDBRANCH  24  25
ENDBRANCH  22  24
ENDBRANCH  20  22
BRANCH   1  29
HETATM   29  O1  UNL     1      24.112   5.633  51.665  1.00  0.00    -0.357 OA
HETATM   30  C1  UNL     1      23.498   6.861  51.325  1.00  0.00     0.209 C 
ENDBRANCH   1  29
TORSDOF 5
ENDMDL
MODEL 5
REMARK VINA RESULT:      -7.2      1.800      3.003
REMARK  5 active torsions:
REMARK  status: ('A' for Active; 'I' for Inactive)
REMARK    1  A    between atoms: O1_2  and  C2_3 
REMARK    2  A    between atoms: C17_22  and  N5_23 
REMARK    3  A    between atoms: N5_23  and  C19_25 
REMARK    4  A    between atoms: C19_25  and  C20_26 
REMARK    5  A    between atoms: C20_26  and  N6_27 
ROOT
HETATM    1  C2  UNL     1      23.358   3.896  50.661  1.00  0.00     0.095 C 
HETATM    2  C3  UNL     1      24.372   3.175  51.191  1.00  0.00     0.140 C 
HETATM    3  N1  UNL     1      24.875   2.782  52.473  1.00  0.00    -0.194 N 
HETATM    4  C4  UNL     1      24.388   1.571  53.068  1.00  0.00     0.743 A 
HETATM    5  N2  UNL     1      25.163   0.670  53.696  1.00  0.00    -0.071 NA
HETATM    6  C5  UNL     1      24.612  -0.466  54.235  1.00  0.00     0.168 A 
HETATM    7  C6  UNL     1      23.246  -0.705  54.140  1.00  0.00     0.077 A 
HETATM    8  C7  UNL     1      22.338  -1.653  54.513  1.00  0.00     0.035 A 
HETATM    9  C8  UNL     1      21.084  -1.251  54.082  1.00  0.00     0.034 A 
HETATM   10  C9  UNL     1      21.290  -0.033  53.441  1.00  0.00     0.065 A 
HETATM   11  N3  UNL     1      22.551   0.266  53.487  1.00  0.00    -0.216 N 
HETATM   12  N4  UNL     1      23.048   1.347  52.970  1.00  0.00     0.027 NA
HETATM   13  C10 UNL     1      20.300   0.825  52.803  1.00  0.00    -0.033 C 
HETATM   14  C11 UNL     1      20.583   2.116  52.841  1.00  0.00    -0.013 C 
HETATM   15  C12 UNL     1      20.620   2.723  51.517  1.00  0.00     0.011 C 
HETATM   16  C13 UNL     1      19.282   2.450  50.846  1.00  0.00     0.009 C 
HETATM   17  C14 UNL     1      18.984   0.971  50.801  1.00  0.00     0.005 C 
HETATM   18  C15 UNL     1      19.066   0.301  52.157  1.00  0.00     0.040 C 
HETATM   19  C16 UNL     1      20.991   4.132  51.423  1.00  0.00     0.051 C 
HETATM   20  C17 UNL     1      22.420   4.513  51.626  1.00  0.00     0.280 C 
HETATM   21  H5  UNL     1      25.580   3.270  53.069  1.00  0.00     0.183 HD
ENDROOT
BRANCH  20  22
HETATM   22  N5  UNL     1      22.586   5.947  51.541  1.00  0.00     0.097 N 
HETATM   23  C18 UNL     1      21.618   6.499  50.603  1.00  0.00     0.310 C 
BRANCH  22  24
HETATM   24  C19 UNL     1      23.900   6.432  51.338  1.00  0.00     0.303 C 
BRANCH  24  25
HETATM   25  C20 UNL     1      23.891   7.856  50.746  1.00  0.00     0.301 C 
BRANCH  25  26
HETATM   26  N6  UNL     1      24.844   7.912  49.635  1.00  0.00     0.081 N 
HETATM   27  C21 UNL     1      25.693   6.730  49.815  1.00  0.00     0.309 C 
HETATM   28  C22 UNL     1      25.703   9.066  49.860  1.00  0.00     0.309 C 
ENDBRANCH  25  26
ENDBRANCH  24  25
ENDBRANCH  22  24
ENDBRANCH  20  22
BRANCH   1  29
HETATM   29  O1  UNL     1      23.303   3.984  49.283  1.00  0.00    -0.357 OA
HETATM   30  C1  UNL     1      22.918   2.855  48.522  1.00  0.00     0.209 C 
ENDBRANCH   1  29
TORSDOF 5
ENDMDL
MODEL 6
REMARK VINA RESULT:      -7.1      2.452      4.561
REMARK  5 active torsions:
REMARK  status: ('A' for Active; 'I' for Inactive)
REMARK    1  A    between atoms: O1_2  and  C2_3 
REMARK    2  A    between atoms: C17_22  and  N5_23 
REMARK    3  A    between atoms: N5_23  and  C19_25 
REMARK    4  A    between atoms: C19_25  and  C20_26 
REMARK    5  A    between atoms: C20_26  and  N6_27 
ROOT
HETATM    1  C2  UNL     1      21.946   4.349  51.074  1.00  0.00     0.095 C 
HETATM    2  C3  UNL     1      20.756   3.812  51.426  1.00  0.00     0.140 C 
HETATM    3  N1  UNL     1      19.973   2.640  51.174  1.00  0.00    -0.194 N 
HETATM    4  C4  UNL     1      20.156   1.490  52.012  1.00  0.00     0.743 A 
HETATM    5  N2  UNL     1      19.153   0.736  52.492  1.00  0.00    -0.071 NA
HETATM    6  C5  UNL     1      19.420  -0.348  53.292  1.00  0.00     0.168 A 
HETATM    7  C6  UNL     1      20.728  -0.683  53.619  1.00  0.00     0.077 A 
HETATM    8  C7  UNL     1      21.401  -1.624  54.344  1.00  0.00     0.035 A 
HETATM    9  C8  UNL     1      22.758  -1.365  54.244  1.00  0.00     0.034 A 
HETATM   10  C9  UNL     1      22.857  -0.237  53.435  1.00  0.00     0.065 A 
HETATM   11  N3  UNL     1      21.668   0.142  53.083  1.00  0.00    -0.216 N 
HETATM   12  N4  UNL     1      21.442   1.170  52.325  1.00  0.00     0.027 NA
HETATM   13  C10 UNL     1      24.065   0.458  53.008  1.00  0.00    -0.033 C 
HETATM   14  C11 UNL     1      23.976   1.042  51.825  1.00  0.00    -0.013 C 
HETATM   15  C12 UNL     1      24.273   2.468  51.877  1.00  0.00     0.011 C 
HETATM   16  C13 UNL     1      25.657   2.628  52.492  1.00  0.00     0.009 C 
HETATM   17  C14 UNL     1      25.733   1.966  53.847  1.00  0.00     0.005 C 
HETATM   18  C15 UNL     1      25.304   0.514  53.831  1.00  0.00     0.040 C 
HETATM   19  C16 UNL     1      24.141   3.236  50.644  1.00  0.00     0.051 C 
HETATM   20  C17 UNL     1      22.772   3.552  50.139  1.00  0.00     0.280 C 
HETATM   21  H5  UNL     1      19.252   2.490  50.433  1.00  0.00     0.183 HD
ENDROOT
BRANCH  20  22
HETATM   22  N5  UNL     1      22.841   4.277  48.889  1.00  0.00     0.097 N 
HETATM   23  C18 UNL     1      22.403   3.418  47.798  1.00  0.00     0.310 C 
BRANCH  22  24
HETATM   24  C19 UNL     1      24.047   4.963  48.609  1.00  0.00     0.303 C 
BRANCH  24  25
HETATM   25  C20 UNL     1      23.788   6.446  48.273  1.00  0.00     0.301 C 
BRANCH  25  26
HETATM   26  N6  UNL     1      24.953   7.234  48.683  1.00  0.00     0.081 N 
HETATM   27  C21 UNL     1      25.270   6.753  50.031  1.00  0.00     0.309 C 
HETATM   28  C22 UNL     1      24.510   8.612  48.839  1.00  0.00     0.309 C 
ENDBRANCH  25  26
ENDBRANCH  24  25
ENDBRANCH  22  24
ENDBRANCH  20  22
BRANCH   1  29
HETATM   29  O1  UNL     1      22.266   5.578  51.618  1.00  0.00    -0.357 OA
HETATM   30  C1  UNL     1      21.644   6.748  51.122  1.00  0.00     0.209 C 
ENDBRANCH   1  29
TORSDOF 5
ENDMDL
MODEL 7
REMARK VINA RESULT:      -7.1      1.725      2.531
REMARK  5 active torsions:
REMARK  status: ('A' for Active; 'I' for Inactive)
REMARK    1  A    between atoms: O1_2  and  C2_3 
REMARK    2  A    between atoms: C17_22  and  N5_23 
REMARK    3  A    between atoms: N5_23  and  C19_25 
REMARK    4  A    between atoms: C19_25  and  C20_26 
REMARK    5  A    between atoms: C20_26  and  N6_27 
ROOT
HETATM    1  C2  UNL     1      21.304   2.499  50.342  1.00  0.00     0.095 C 
HETATM    2  C3  UNL     1      22.597   2.606  49.962  1.00  0.00     0.140 C 
HETATM    3  N1  UNL     1      23.845   3.090  50.470  1.00  0.00    -0.194 N 
HETATM    4  C4  UNL     1      24.678   2.202  51.228  1.00  0.00     0.743 A 
HETATM    5  N2  UNL     1      26.011   2.109  51.088  1.00  0.00    -0.071 NA
HETATM    6  C5  UNL     1      26.731   1.227  51.855  1.00  0.00     0.168 A 
HETATM    7  C6  UNL     1      26.096   0.414  52.786  1.00  0.00     0.077 A 
HETATM    8  C7  UNL     1      26.412  -0.547  53.702  1.00  0.00     0.035 A 
HETATM    9  C8  UNL     1      25.245  -0.961  54.323  1.00  0.00     0.034 A 
HETATM   10  C9  UNL     1      24.232  -0.207  53.739  1.00  0.00     0.065 A 
HETATM   11  N3  UNL     1      24.747   0.585  52.851  1.00  0.00    -0.216 N 
HETATM   12  N4  UNL     1      24.045   1.411  52.138  1.00  0.00     0.027 NA
HETATM   13  C10 UNL     1      22.804  -0.245  54.029  1.00  0.00    -0.033 C 
HETATM   14  C11 UNL     1      22.176   0.905  53.852  1.00  0.00    -0.013 C 
HETATM   15  C12 UNL     1      21.059   0.799  52.921  1.00  0.00     0.011 C 
HETATM   16  C13 UNL     1      20.129  -0.288  53.439  1.00  0.00     0.009 C 
HETATM   17  C14 UNL     1      20.862  -1.595  53.621  1.00  0.00     0.005 C 
HETATM   18  C15 UNL     1      22.100  -1.473  54.486  1.00  0.00     0.040 C 
HETATM   19  C16 UNL     1      20.329   2.020  52.592  1.00  0.00     0.051 C 
HETATM   20  C17 UNL     1      20.973   3.019  51.688  1.00  0.00     0.280 C 
HETATM   21  H5  UNL     1      24.261   4.043  50.365  1.00  0.00     0.183 HD
ENDROOT
BRANCH  20  22
HETATM   22  N5  UNL     1      20.123   4.175  51.515  1.00  0.00     0.097 N 
HETATM   23  C18 UNL     1      18.742   3.749  51.337  1.00  0.00     0.310 C 
BRANCH  22  24
HETATM   24  C19 UNL     1      20.535   5.140  50.564  1.00  0.00     0.303 C 
BRANCH  24  25
HETATM   25  C20 UNL     1      21.652   6.044  51.125  1.00  0.00     0.301 C 
BRANCH  25  26
HETATM   26  N6  UNL     1      22.022   7.027  50.103  1.00  0.00     0.081 N 
HETATM   27  C21 UNL     1      23.221   7.681  50.637  1.00  0.00     0.309 C 
HETATM   28  C22 UNL     1      20.981   8.044  50.084  1.00  0.00     0.309 C 
ENDBRANCH  25  26
ENDBRANCH  24  25
ENDBRANCH  22  24
ENDBRANCH  20  22
BRANCH   1  29
HETATM   29  O1  UNL     1      20.429   1.923  49.440  1.00  0.00    -0.357 OA
HETATM   30  C1  UNL     1      20.406   2.372  48.100  1.00  0.00     0.209 C 
ENDBRANCH   1  29
TORSDOF 5
ENDMDL
MODEL 8
REMARK VINA RESULT:      -6.9      2.070      6.726
REMARK  5 active torsions:
REMARK  status: ('A' for Active; 'I' for Inactive)
REMARK    1  A    between atoms: O1_2  and  C2_3 
REMARK    2  A    between atoms: C17_22  and  N5_23 
REMARK    3  A    between atoms: N5_23  and  C19_25 
REMARK    4  A    between atoms: C19_25  and  C20_26 
REMARK    5  A    between atoms: C20_26  and  N6_27 
ROOT
HETATM    1  C2  UNL     1      22.621   3.543  52.335  1.00  0.00     0.095 C 
HETATM    2  C3  UNL     1      22.832   4.866  52.518  1.00  0.00     0.140 C 
HETATM    3  N1  UNL     1      23.801   5.869  52.193  1.00  0.00    -0.194 N 
HETATM    4  C4  UNL     1      23.670   6.585  50.957  1.00  0.00     0.743 A 
HETATM    5  N2  UNL     1      23.853   7.910  50.826  1.00  0.00    -0.071 NA
HETATM    6  C5  UNL     1      23.704   8.515  49.603  1.00  0.00     0.168 A 
HETATM    7  C6  UNL     1      23.360   7.771  48.481  1.00  0.00     0.077 A 
HETATM    8  C7  UNL     1      23.123   7.963  47.151  1.00  0.00     0.035 A 
HETATM    9  C8  UNL     1      22.815   6.738  46.581  1.00  0.00     0.034 A 
HETATM   10  C9  UNL     1      22.880   5.821  47.625  1.00  0.00     0.065 A 
HETATM   11  N3  UNL     1      23.199   6.441  48.719  1.00  0.00    -0.216 N 
HETATM   12  N4  UNL     1      23.335   5.846  49.864  1.00  0.00     0.027 NA
HETATM   13  C10 UNL     1      22.645   4.383  47.575  1.00  0.00    -0.033 C 
HETATM   14  C11 UNL     1      23.341   3.680  48.451  1.00  0.00    -0.013 C 
HETATM   15  C12 UNL     1      22.497   2.863  49.314  1.00  0.00     0.011 C 
HETATM   16  C13 UNL     1      21.642   1.978  48.419  1.00  0.00     0.009 C 
HETATM   17  C14 UNL     1      20.846   2.800  47.435  1.00  0.00     0.005 C 
HETATM   18  C15 UNL     1      21.699   3.749  46.617  1.00  0.00     0.040 C 
HETATM   19  C16 UNL     1      23.147   2.092  50.370  1.00  0.00     0.051 C 
HETATM   20  C17 UNL     1      23.659   2.814  51.573  1.00  0.00     0.280 C 
HETATM   21  H5  UNL     1      24.631   6.172  52.750  1.00  0.00     0.183 HD
ENDROOT
BRANCH  20  22
HETATM   22  N5  UNL     1      24.307   1.896  52.483  1.00  0.00     0.097 N 
HETATM   23  C18 UNL     1      25.734   2.181  52.536  1.00  0.00     0.310 C 
BRANCH  22  24
HETATM   24  C19 UNL     1      24.018   0.519  52.323  1.00  0.00     0.303 C 
BRANCH  24  25
HETATM   25  C20 UNL     1      23.780  -0.170  53.682  1.00  0.00     0.301 C 
BRANCH  25  26
HETATM   26  N6  UNL     1      22.347  -0.134  53.985  1.00  0.00     0.081 N 
HETATM   27  C21 UNL     1      22.127  -1.283  54.869  1.00  0.00     0.309 C 
HETATM   28  C22 UNL     1      21.636  -0.433  52.750  1.00  0.00     0.309 C 
ENDBRANCH  25  26
ENDBRANCH  24  25
ENDBRANCH  22  24
ENDBRANCH  20  22
BRANCH   1  29
HETATM   29  O1  UNL     1      21.466   3.011  52.877  1.00  0.00    -0.357 OA
HETATM   30  C1  UNL     1      20.222   3.242  52.244  1.00  0.00     0.209 C 
ENDBRANCH   1  29
TORSDOF 5
ENDMDL
MODEL 9
REMARK VINA RESULT:      -6.8      2.542      7.287
REMARK  5 active torsions:
REMARK  status: ('A' for Active; 'I' for Inactive)
REMARK    1  A    between atoms: O1_2  and  C2_3 
REMARK    2  A    between atoms: C17_22  and  N5_23 
REMARK    3  A    between atoms: N5_23  and  C19_25 
REMARK    4  A    between atoms: C19_25  and  C20_26 
REMARK    5  A    between atoms: C20_26  and  N6_27 
ROOT
HETATM    1  C2  UNL     1      22.504   3.411  49.115  1.00  0.00     0.095 C 
HETATM    2  C3  UNL     1      21.816   4.247  48.305  1.00  0.00     0.140 C 
HETATM    3  N1  UNL     1      21.374   5.609  48.269  1.00  0.00    -0.194 N 
HETATM    4  C4  UNL     1      22.239   6.605  47.706  1.00  0.00     0.743 A 
HETATM    5  N2  UNL     1      21.830   7.587  46.886  1.00  0.00    -0.071 NA
HETATM    6  C5  UNL     1      22.729   8.499  46.389  1.00  0.00     0.168 A 
HETATM    7  C6  UNL     1      24.075   8.421  46.724  1.00  0.00     0.077 A 
HETATM    8  C7  UNL     1      25.241   9.082  46.467  1.00  0.00     0.035 A 
HETATM    9  C8  UNL     1      26.264   8.448  47.152  1.00  0.00     0.034 A 
HETATM   10  C9  UNL     1      25.656   7.389  47.821  1.00  0.00     0.065 A 
HETATM   11  N3  UNL     1      24.386   7.392  47.559  1.00  0.00    -0.216 N 
HETATM   12  N4  UNL     1      23.556   6.520  48.041  1.00  0.00     0.027 NA
HETATM   13  C10 UNL     1      26.280   6.400  48.691  1.00  0.00    -0.033 C 
HETATM   14  C11 UNL     1      25.495   5.939  49.650  1.00  0.00    -0.013 C 
HETATM   15  C12 UNL     1      25.366   4.487  49.621  1.00  0.00     0.011 C 
HETATM   16  C13 UNL     1      26.767   3.898  49.693  1.00  0.00     0.009 C 
HETATM   17  C14 UNL     1      27.642   4.428  48.583  1.00  0.00     0.005 C 
HETATM   18  C15 UNL     1      27.685   5.941  48.523  1.00  0.00     0.040 C 
HETATM   19  C16 UNL     1      24.469   3.864  50.590  1.00  0.00     0.051 C 
HETATM   20  C17 UNL     1      22.995   3.988  50.386  1.00  0.00     0.280 C 
HETATM   21  H5  UNL     1      20.469   6.004  48.609  1.00  0.00     0.183 HD
ENDROOT
BRANCH  20  22
HETATM   22  N5  UNL     1      22.274   3.349  51.464  1.00  0.00     0.097 N 
HETATM   23  C18 UNL     1      21.440   4.330  52.146  1.00  0.00     0.310 C 
BRANCH  22  24
HETATM   24  C19 UNL     1      23.025   2.542  52.352  1.00  0.00     0.303 C 
BRANCH  24  25
HETATM   25  C20 UNL     1      22.672   1.049  52.194  1.00  0.00     0.301 C 
BRANCH  25  26
HETATM   26  N6  UNL     1      22.261   0.521  53.497  1.00  0.00     0.081 N 
HETATM   27  C21 UNL     1      22.580  -0.909  53.434  1.00  0.00     0.309 C 
HETATM   28  C22 UNL     1      20.809   0.608  53.561  1.00  0.00     0.309 C 
ENDBRANCH  25  26
ENDBRANCH  24  25
ENDBRANCH  22  24
ENDBRANCH  20  22
BRANCH   1  29
HETATM   29  O1  UNL     1      22.675   2.111  48.676  1.00  0.00    -0.357 OA
HETATM   30  C1  UNL     1      21.559   1.248  48.586  1.00  0.00     0.209 C 
ENDBRANCH   1  29
TORSDOF 5
ENDMDL
