MODEL 1
REMARK VINA RESULT:      -7.5      0.000      0.000
REMARK  7 active torsions:
REMARK  status: ('A' for Active; 'I' for Inactive)
REMARK    1  A    between atoms: O1_2  and  C2_3 
REMARK    2  A    between atoms: C6_9  and  N3_10 
REMARK    3  A    between atoms: N3_10  and  C7_11 
REMARK    4  A    between atoms: C7_11  and  C8_12 
REMARK    5  A    between atoms: C9_14  and  C10_15 
REMARK    6  A    between atoms: C10_15  and  C11_16 
REMARK    7  A    between atoms: C18_24  and  O2_25 
ROOT
HETATM    1  C2  UNL     1      23.581  -0.216  53.179  1.00  0.00     0.103 A 
HETATM    2  C3  UNL     1      24.861  -0.388  53.621  1.00  0.00     0.072 A 
HETATM    3  C4  UNL     1      25.860   0.452  53.213  1.00  0.00     0.075 A 
HETATM    4  N1  UNL     1      27.119   0.225  53.692  1.00  0.00    -0.241 NA
HETATM    5  C5  UNL     1      28.121   1.056  53.291  1.00  0.00     0.235 A 
HETATM    6  N2  UNL     1      27.888   2.091  52.434  1.00  0.00    -0.224 NA
HETATM    7  C6  UNL     1      26.669   2.359  51.933  1.00  0.00     0.138 A 
HETATM    8  C16 UNL     1      25.676   1.510  52.350  1.00  0.00     0.041 A 
HETATM    9  C17 UNL     1      24.379   1.644  51.933  1.00  0.00     0.057 A 
HETATM   10  C18 UNL     1      23.336   0.831  52.310  1.00  0.00     0.102 A 
ENDROOT
BRANCH   7  11
HETATM   11  N3  UNL     1      26.433   3.422  51.039  1.00  0.00    -0.368 N 
HETATM   12  H6  UNL     1      26.019   4.316  51.373  1.00  0.00     0.161 HD
BRANCH  11  13
HETATM   13  C7  UNL     1      26.715   3.419  49.623  1.00  0.00     0.191 C 
BRANCH  13  14
HETATM   14  C8  UNL     1      26.755   4.735  48.983  1.00  0.00     0.108 C 
HETATM   15  F1  UNL     1      28.044   4.748  48.495  1.00  0.00    -0.209 F 
HETATM   16  C9  UNL     1      26.023   5.801  48.746  1.00  0.00     0.018 C 
BRANCH  16  17
HETATM   17  C10 UNL     1      24.660   6.317  48.999  1.00  0.00     0.084 C 
BRANCH  17  18
HETATM   18  C11 UNL     1      23.890   5.498  49.940  1.00  0.00     0.014 C 
HETATM   19  N4  UNL     1      24.019   5.731  51.214  1.00  0.00    -0.294 NA
HETATM   20  C12 UNL     1      23.315   4.992  52.216  1.00  0.00     0.175 C 
HETATM   21  C13 UNL     1      21.857   5.058  51.828  1.00  0.00    -0.009 C 
HETATM   22  C14 UNL     1      21.695   4.734  50.544  1.00  0.00    -0.023 C 
HETATM   23  C15 UNL     1      22.931   4.380  49.766  1.00  0.00     0.081 C 
ENDBRANCH  17  18
ENDBRANCH  16  17
ENDBRANCH  13  14
ENDBRANCH  11  13
ENDBRANCH   7  11
BRANCH  10  24
HETATM   24  O2  UNL     1      22.025   0.977  51.880  1.00  0.00    -0.353 OA
HETATM   25  C19 UNL     1      21.651   0.891  50.520  1.00  0.00     0.210 C 
ENDBRANCH  10  24
BRANCH   1  26
HETATM   26  O1  UNL     1      22.555  -1.059  53.583  1.00  0.00    -0.353 OA
HETATM   27  C1  UNL     1      22.049  -0.939  54.900  1.00  0.00     0.210 C 
ENDBRANCH   1  26
TORSDOF 7
ENDMDL
MODEL 2
REMARK VINA RESULT:      -7.4      2.002      5.560
REMARK  7 active torsions:
REMARK  status: ('A' for Active; 'I' for Inactive)
REMARK    1  A    between atoms: O1_2  and  C2_3 
REMARK    2  A    between atoms: C6_9  and  N3_10 
REMARK    3  A    between atoms: N3_10  and  C7_11 
REMARK    4  A    between atoms: C7_11  and  C8_12 
REMARK    5  A    between atoms: C9_14  and  C10_15 
REMARK    6  A    between atoms: C10_15  and  C11_16 
REMARK    7  A    between atoms: C18_24  and  O2_25 
ROOT
HETATM    1  C2  UNL     1      21.981  -0.216  53.518  1.00  0.00     0.103 A 
HETATM    2  C3  UNL     1      21.027   0.684  53.140  1.00  0.00     0.072 A 
HETATM    3  C4  UNL     1      21.378   1.908  52.642  1.00  0.00     0.075 A 
HETATM    4  N1  UNL     1      20.375   2.762  52.282  1.00  0.00    -0.241 NA
HETATM    5  C5  UNL     1      20.715   3.983  51.785  1.00  0.00     0.235 A 
HETATM    6  N2  UNL     1      22.019   4.357  51.644  1.00  0.00    -0.224 NA
HETATM    7  C6  UNL     1      23.045   3.557  51.982  1.00  0.00     0.138 A 
HETATM    8  C16 UNL     1      22.679   2.332  52.481  1.00  0.00     0.041 A 
HETATM    9  C17 UNL     1      23.600   1.398  52.872  1.00  0.00     0.057 A 
HETATM   10  C18 UNL     1      23.305   0.155  53.379  1.00  0.00     0.102 A 
ENDROOT
BRANCH   7  11
HETATM   11  N3  UNL     1      24.391   3.948  51.847  1.00  0.00    -0.368 N 
HETATM   12  H6  UNL     1      24.900   4.387  52.640  1.00  0.00     0.161 HD
BRANCH  11  13
HETATM   13  C7  UNL     1      25.202   3.802  50.660  1.00  0.00     0.191 C 
BRANCH  13  14
HETATM   14  C8  UNL     1      26.381   2.944  50.802  1.00  0.00     0.108 C 
HETATM   15  F1  UNL     1      26.800   2.860  49.491  1.00  0.00    -0.209 F 
HETATM   16  C9  UNL     1      27.097   2.297  51.694  1.00  0.00     0.018 C 
BRANCH  16  17
HETATM   17  C10 UNL     1      27.134   2.047  53.151  1.00  0.00     0.084 C 
BRANCH  17  18
HETATM   18  C11 UNL     1      27.654   0.723  53.504  1.00  0.00     0.014 C 
HETATM   19  N4  UNL     1      27.380  -0.280  52.721  1.00  0.00    -0.294 NA
HETATM   20  C12 UNL     1      27.837  -1.611  52.972  1.00  0.00     0.175 C 
HETATM   21  C13 UNL     1      29.331  -1.504  53.162  1.00  0.00    -0.009 C 
HETATM   22  C14 UNL     1      29.628  -0.538  54.034  1.00  0.00    -0.023 C 
HETATM   23  C15 UNL     1      28.478   0.221  54.631  1.00  0.00     0.081 C 
ENDBRANCH  17  18
ENDBRANCH  16  17
ENDBRANCH  13  14
ENDBRANCH  11  13
ENDBRANCH   7  11
BRANCH  10  24
HETATM   24  O2  UNL     1      24.249  -0.783  53.772  1.00  0.00    -0.353 OA
HETATM   25  C19 UNL     1      24.764  -0.845  55.087  1.00  0.00     0.210 C 
ENDBRANCH  10  24
BRANCH   1  26
HETATM   26  O1  UNL     1      21.642  -1.462  54.026  1.00  0.00    -0.353 OA
HETATM   27  C1  UNL     1      20.273  -1.797  54.161  1.00  0.00     0.210 C 
ENDBRANCH   1  26
TORSDOF 7
ENDMDL
MODEL 3
REMARK VINA RESULT:      -7.4      2.818      5.235
REMARK  7 active torsions:
REMARK  status: ('A' for Active; 'I' for Inactive)
REMARK    1  A    between atoms: O1_2  and  C2_3 
REMARK    2  A    between atoms: C6_9  and  N3_10 
REMARK    3  A    between atoms: N3_10  and  C7_11 
REMARK    4  A    between atoms: C7_11  and  C8_12 
REMARK    5  A    between atoms: C9_14  and  C10_15 
REMARK    6  A    between atoms: C10_15  and  C11_16 
REMARK    7  A    between atoms: C18_24  and  O2_25 
ROOT
HETATM    1  C2  UNL     1      27.502   0.314  53.917  1.00  0.00     0.103 A 
HETATM    2  C3  UNL     1      27.786   1.088  52.829  1.00  0.00     0.072 A 
HETATM    3  C4  UNL     1      26.813   1.841  52.233  1.00  0.00     0.075 A 
HETATM    4  N1  UNL     1      27.163   2.592  51.147  1.00  0.00    -0.241 NA
HETATM    5  C5  UNL     1      26.201   3.346  50.546  1.00  0.00     0.235 A 
HETATM    6  N2  UNL     1      24.917   3.359  51.006  1.00  0.00    -0.224 NA
HETATM    7  C6  UNL     1      24.518   2.639  52.069  1.00  0.00     0.138 A 
HETATM    8  C16 UNL     1      25.504   1.888  52.658  1.00  0.00     0.041 A 
HETATM    9  C17 UNL     1      25.265   1.098  53.750  1.00  0.00     0.057 A 
HETATM   10  C18 UNL     1      26.203   0.322  54.389  1.00  0.00     0.102 A 
ENDROOT
BRANCH   7  11
HETATM   11  N3  UNL     1      23.189   2.645  52.536  1.00  0.00    -0.368 N 
HETATM   12  H6  UNL     1      22.802   1.829  53.051  1.00  0.00     0.161 HD
BRANCH  11  13
HETATM   13  C7  UNL     1      22.238   3.721  52.376  1.00  0.00     0.191 C 
BRANCH  13  14
HETATM   14  C8  UNL     1      21.188   3.493  51.382  1.00  0.00     0.108 C 
HETATM   15  F1  UNL     1      20.720   4.777  51.200  1.00  0.00    -0.209 F 
HETATM   16  C9  UNL     1      20.610   2.548  50.674  1.00  0.00     0.018 C 
BRANCH  16  17
HETATM   17  C10 UNL     1      20.690   1.087  50.458  1.00  0.00     0.084 C 
BRANCH  17  18
HETATM   18  C11 UNL     1      20.775   0.316  51.702  1.00  0.00     0.014 C 
HETATM   19  N4  UNL     1      21.928  -0.178  52.048  1.00  0.00    -0.294 NA
HETATM   20  C12 UNL     1      22.121  -0.944  53.240  1.00  0.00     0.175 C 
HETATM   21  C13 UNL     1      21.569  -0.102  54.364  1.00  0.00    -0.009 C 
HETATM   22  C14 UNL     1      20.346   0.341  54.065  1.00  0.00    -0.023 C 
HETATM   23  C15 UNL     1      19.779  -0.062  52.734  1.00  0.00     0.081 C 
ENDBRANCH  17  18
ENDBRANCH  16  17
ENDBRANCH  13  14
ENDBRANCH  11  13
ENDBRANCH   7  11
BRANCH  10  24
HETATM   24  O2  UNL     1      25.948  -0.475  55.497  1.00  0.00    -0.353 OA
HETATM   25  C19 UNL     1      24.757  -1.219  55.645  1.00  0.00     0.210 C 
ENDBRANCH  10  24
BRANCH   1  26
HETATM   26  O1  UNL     1      28.478  -0.456  54.534  1.00  0.00    -0.353 OA
HETATM   27  C1  UNL     1      29.659  -0.768  53.818  1.00  0.00     0.210 C 
ENDBRANCH   1  26
TORSDOF 7
ENDMDL
MODEL 4
REMARK VINA RESULT:      -7.4      2.768      4.730
REMARK  7 active torsions:
REMARK  status: ('A' for Active; 'I' for Inactive)
REMARK    1  A    between atoms: O1_2  and  C2_3 
REMARK    2  A    between atoms: C6_9  and  N3_10 
REMARK    3  A    between atoms: N3_10  and  C7_11 
REMARK    4  A    between atoms: C7_11  and  C8_12 
REMARK    5  A    between atoms: C9_14  and  C10_15 
REMARK    6  A    between atoms: C10_15  and  C11_16 
REMARK    7  A    between atoms: C18_24  and  O2_25 
ROOT
HETATM    1  C2  UNL     1      26.823  -0.292  53.175  1.00  0.00     0.103 A 
HETATM    2  C3  UNL     1      25.506  -0.653  53.202  1.00  0.00     0.072 A 
HETATM    3  C4  UNL     1      24.521   0.286  53.068  1.00  0.00     0.075 A 
HETATM    4  N1  UNL     1      23.224  -0.142  53.104  1.00  0.00    -0.241 NA
HETATM    5  C5  UNL     1      22.236   0.785  52.972  1.00  0.00     0.235 A 
HETATM    6  N2  UNL     1      22.519   2.109  52.807  1.00  0.00    -0.224 NA
HETATM    7  C6  UNL     1      23.776   2.584  52.765  1.00  0.00     0.138 A 
HETATM    8  C16 UNL     1      24.755   1.632  52.900  1.00  0.00     0.041 A 
HETATM    9  C17 UNL     1      26.087   1.948  52.879  1.00  0.00     0.057 A 
HETATM   10  C18 UNL     1      27.118   1.048  53.008  1.00  0.00     0.102 A 
ENDROOT
BRANCH   7  11
HETATM   11  N3  UNL     1      24.066   3.953  52.606  1.00  0.00    -0.368 N 
HETATM   12  H6  UNL     1      24.450   4.511  53.395  1.00  0.00     0.161 HD
BRANCH  11  13
HETATM   13  C7  UNL     1      23.885   4.724  51.398  1.00  0.00     0.191 C 
BRANCH  13  14
HETATM   14  C8  UNL     1      24.151   4.011  50.147  1.00  0.00     0.108 C 
HETATM   15  F1  UNL     1      22.866   3.740  49.725  1.00  0.00    -0.209 F 
HETATM   16  C9  UNL     1      25.128   3.593  49.372  1.00  0.00     0.018 C 
BRANCH  16  17
HETATM   17  C10 UNL     1      26.605   3.602  49.310  1.00  0.00     0.084 C 
BRANCH  17  18
HETATM   18  C11 UNL     1      27.171   4.928  49.041  1.00  0.00     0.014 C 
HETATM   19  N4  UNL     1      28.372   5.001  48.547  1.00  0.00    -0.294 NA
HETATM   20  C12 UNL     1      29.017   6.242  48.248  1.00  0.00     0.175 C 
HETATM   21  C13 UNL     1      28.055   7.003  47.368  1.00  0.00    -0.009 C 
HETATM   22  C14 UNL     1      26.834   7.017  47.904  1.00  0.00    -0.023 C 
HETATM   23  C15 UNL     1      26.655   6.308  49.216  1.00  0.00     0.081 C 
ENDBRANCH  17  18
ENDBRANCH  16  17
ENDBRANCH  13  14
ENDBRANCH  11  13
ENDBRANCH   7  11
BRANCH  10  24
HETATM   24  O2  UNL     1      28.465   1.380  52.985  1.00  0.00    -0.353 OA
HETATM   25  C19 UNL     1      29.013   2.408  53.785  1.00  0.00     0.210 C 
ENDBRANCH  10  24
BRANCH   1  26
HETATM   26  O1  UNL     1      27.835  -1.232  53.309  1.00  0.00    -0.353 OA
HETATM   27  C1  UNL     1      27.676  -2.501  52.702  1.00  0.00     0.210 C 
ENDBRANCH   1  26
TORSDOF 7
ENDMDL
MODEL 5
REMARK VINA RESULT:      -7.3      2.654      4.575
REMARK  7 active torsions:
REMARK  status: ('A' for Active; 'I' for Inactive)
REMARK    1  A    between atoms: O1_2  and  C2_3 
REMARK    2  A    between atoms: C6_9  and  N3_10 
REMARK    3  A    between atoms: N3_10  and  C7_11 
REMARK    4  A    between atoms: C7_11  and  C8_12 
REMARK    5  A    between atoms: C9_14  and  C10_15 
REMARK    6  A    between atoms: C10_15  and  C11_16 
REMARK    7  A    between atoms: C18_24  and  O2_25 
ROOT
HETATM    1  C2  UNL     1      26.411   0.744  54.092  1.00  0.00     0.103 A 
HETATM    2  C3  UNL     1      26.006   2.048  54.067  1.00  0.00     0.072 A 
HETATM    3  C4  UNL     1      24.880   2.417  53.385  1.00  0.00     0.075 A 
HETATM    4  N1  UNL     1      24.529   3.737  53.401  1.00  0.00    -0.241 NA
HETATM    5  C5  UNL     1      23.409   4.115  52.725  1.00  0.00     0.235 A 
HETATM    6  N2  UNL     1      22.648   3.209  52.046  1.00  0.00    -0.224 NA
HETATM    7  C6  UNL     1      22.946   1.899  51.998  1.00  0.00     0.138 A 
HETATM    8  C16 UNL     1      24.079   1.542  52.686  1.00  0.00     0.041 A 
HETATM    9  C17 UNL     1      24.523   0.248  52.738  1.00  0.00     0.057 A 
HETATM   10  C18 UNL     1      25.645  -0.180  53.406  1.00  0.00     0.102 A 
ENDROOT
BRANCH   7  11
HETATM   11  N3  UNL     1      22.165   0.968  51.288  1.00  0.00    -0.368 N 
HETATM   12  H6  UNL     1      22.164  -0.038  51.553  1.00  0.00     0.161 HD
BRANCH  11  13
HETATM   13  C7  UNL     1      21.308   1.261  50.162  1.00  0.00     0.191 C 
BRANCH  13  14
HETATM   14  C8  UNL     1      21.995   1.647  48.928  1.00  0.00     0.108 C 
HETATM   15  F1  UNL     1      21.934   0.466  48.218  1.00  0.00    -0.209 F 
HETATM   16  C9  UNL     1      22.589   2.661  48.339  1.00  0.00     0.018 C 
BRANCH  16  17
HETATM   17  C10 UNL     1      22.923   4.079  48.592  1.00  0.00     0.084 C 
BRANCH  17  18
HETATM   18  C11 UNL     1      24.256   4.270  49.173  1.00  0.00     0.014 C 
HETATM   19  N4  UNL     1      24.977   3.218  49.430  1.00  0.00    -0.294 NA
HETATM   20  C12 UNL     1      26.288   3.291  49.995  1.00  0.00     0.175 C 
HETATM   21  C13 UNL     1      27.064   4.239  49.113  1.00  0.00    -0.009 C 
HETATM   22  C14 UNL     1      26.377   5.366  48.912  1.00  0.00    -0.023 C 
HETATM   23  C15 UNL     1      25.030   5.472  49.568  1.00  0.00     0.081 C 
ENDBRANCH  17  18
ENDBRANCH  16  17
ENDBRANCH  13  14
ENDBRANCH  11  13
ENDBRANCH   7  11
BRANCH  10  24
HETATM   24  O2  UNL     1      26.085  -1.495  53.452  1.00  0.00    -0.353 OA
HETATM   25  C19 UNL     1      27.001  -2.028  52.517  1.00  0.00     0.210 C 
ENDBRANCH  10  24
BRANCH   1  26
HETATM   26  O1  UNL     1      27.552   0.353  54.779  1.00  0.00    -0.353 OA
HETATM   27  C1  UNL     1      28.812   0.830  54.344  1.00  0.00     0.210 C 
ENDBRANCH   1  26
TORSDOF 7
ENDMDL
MODEL 6
REMARK VINA RESULT:      -7.3      2.559      4.208
REMARK  7 active torsions:
REMARK  status: ('A' for Active; 'I' for Inactive)
REMARK    1  A    between atoms: O1_2  and  C2_3 
REMARK    2  A    between atoms: C6_9  and  N3_10 
REMARK    3  A    between atoms: N3_10  and  C7_11 
REMARK    4  A    between atoms: C7_11  and  C8_12 
REMARK    5  A    between atoms: C9_14  and  C10_15 
REMARK    6  A    between atoms: C10_15  and  C11_16 
REMARK    7  A    between atoms: C18_24  and  O2_25 
ROOT
HETATM    1  C2  UNL     1      20.034   0.216  52.345  1.00  0.00     0.103 A 
HETATM    2  C3  UNL     1      20.371  -0.366  53.534  1.00  0.00     0.072 A 
HETATM    3  C4  UNL     1      21.682  -0.557  53.872  1.00  0.00     0.075 A 
HETATM    4  N1  UNL     1      21.951  -1.145  55.075  1.00  0.00    -0.241 NA
HETATM    5  C5  UNL     1      23.253  -1.340  55.421  1.00  0.00     0.235 A 
HETATM    6  N2  UNL     1      24.273  -0.964  54.596  1.00  0.00    -0.224 NA
HETATM    7  C6  UNL     1      24.065  -0.383  53.402  1.00  0.00     0.138 A 
HETATM    8  C16 UNL     1      22.746  -0.196  53.075  1.00  0.00     0.041 A 
HETATM    9  C17 UNL     1      22.361   0.382  51.896  1.00  0.00     0.057 A 
HETATM   10  C18 UNL     1      21.061   0.600  51.504  1.00  0.00     0.102 A 
ENDROOT
BRANCH   7  11
HETATM   11  N3  UNL     1      25.119  -0.005  52.547  1.00  0.00    -0.368 N 
HETATM   12  H6  UNL     1      25.400  -0.610  51.749  1.00  0.00     0.161 HD
BRANCH  11  13
HETATM   13  C7  UNL     1      25.906   1.201  52.652  1.00  0.00     0.191 C 
BRANCH  13  14
HETATM   14  C8  UNL     1      25.277   2.305  53.380  1.00  0.00     0.108 C 
HETATM   15  F1  UNL     1      25.832   2.141  54.632  1.00  0.00    -0.209 F 
HETATM   16  C9  UNL     1      24.438   3.307  53.233  1.00  0.00     0.018 C 
BRANCH  16  17
HETATM   17  C10 UNL     1      23.598   3.936  52.191  1.00  0.00     0.084 C 
BRANCH  17  18
HETATM   18  C11 UNL     1      24.285   4.096  50.906  1.00  0.00     0.014 C 
HETATM   19  N4  UNL     1      24.763   5.267  50.600  1.00  0.00    -0.294 NA
HETATM   20  C12 UNL     1      25.449   5.532  49.374  1.00  0.00     0.175 C 
HETATM   21  C13 UNL     1      26.542   4.494  49.281  1.00  0.00    -0.009 C 
HETATM   22  C14 UNL     1      26.052   3.273  49.503  1.00  0.00    -0.023 C 
HETATM   23  C15 UNL     1      24.581   3.167  49.788  1.00  0.00     0.081 C 
ENDBRANCH  17  18
ENDBRANCH  16  17
ENDBRANCH  13  14
ENDBRANCH  11  13
ENDBRANCH   7  11
BRANCH  10  24
HETATM   24  O2  UNL     1      20.685   1.187  50.305  1.00  0.00    -0.353 OA
HETATM   25  C19 UNL     1      21.456   1.081  49.126  1.00  0.00     0.210 C 
ENDBRANCH  10  24
BRANCH   1  26
HETATM   26  O1  UNL     1      18.709   0.418  51.987  1.00  0.00    -0.353 OA
HETATM   27  C1  UNL     1      17.729  -0.497  52.442  1.00  0.00     0.210 C 
ENDBRANCH   1  26
TORSDOF 7
ENDMDL
MODEL 7
REMARK VINA RESULT:      -7.2      2.157      3.461
REMARK  7 active torsions:
REMARK  status: ('A' for Active; 'I' for Inactive)
REMARK    1  A    between atoms: O1_2  and  C2_3 
REMARK    2  A    between atoms: C6_9  and  N3_10 
REMARK    3  A    between atoms: N3_10  and  C7_11 
REMARK    4  A    between atoms: C7_11  and  C8_12 
REMARK    5  A    between atoms: C9_14  and  C10_15 
REMARK    6  A    between atoms: C10_15  and  C11_16 
REMARK    7  A    between atoms: C18_24  and  O2_25 
ROOT
HETATM    1  C2  UNL     1      20.564  -0.275  53.115  1.00  0.00     0.103 A 
HETATM    2  C3  UNL     1      21.033  -0.894  54.238  1.00  0.00     0.072 A 
HETATM    3  C4  UNL     1      22.372  -0.926  54.511  1.00  0.00     0.075 A 
HETATM    4  N1  UNL     1      22.776  -1.562  55.650  1.00  0.00    -0.241 NA
HETATM    5  C5  UNL     1      24.108  -1.600  55.931  1.00  0.00     0.235 A 
HETATM    6  N2  UNL     1      25.026  -1.022  55.104  1.00  0.00    -0.224 NA
HETATM    7  C6  UNL     1      24.684  -0.384  53.971  1.00  0.00     0.138 A 
HETATM    8  C16 UNL     1      23.338  -0.359  53.709  1.00  0.00     0.041 A 
HETATM    9  C17 UNL     1      22.822   0.250  52.596  1.00  0.00     0.057 A 
HETATM   10  C18 UNL     1      21.488   0.313  52.272  1.00  0.00     0.102 A 
ENDROOT
BRANCH   7  11
HETATM   11  N3  UNL     1      25.635   0.202  53.113  1.00  0.00    -0.368 N 
HETATM   12  H6  UNL     1      25.781  -0.165  52.151  1.00  0.00     0.161 HD
BRANCH  11  13
HETATM   13  C7  UNL     1      26.484   1.327  53.430  1.00  0.00     0.191 C 
BRANCH  13  14
HETATM   14  C8  UNL     1      27.001   2.072  52.280  1.00  0.00     0.108 C 
HETATM   15  F1  UNL     1      28.355   2.044  52.539  1.00  0.00    -0.209 F 
HETATM   16  C9  UNL     1      26.622   2.694  51.185  1.00  0.00     0.018 C 
BRANCH  16  17
HETATM   17  C10 UNL     1      25.388   3.018  50.437  1.00  0.00     0.084 C 
BRANCH  17  18
HETATM   18  C11 UNL     1      24.467   3.886  51.178  1.00  0.00     0.014 C 
HETATM   19  N4  UNL     1      24.165   5.045  50.670  1.00  0.00    -0.294 NA
HETATM   20  C12 UNL     1      23.278   5.968  51.308  1.00  0.00     0.175 C 
HETATM   21  C13 UNL     1      22.016   5.192  51.598  1.00  0.00    -0.009 C 
HETATM   22  C14 UNL     1      22.300   4.037  52.203  1.00  0.00    -0.023 C 
HETATM   23  C15 UNL     1      23.749   3.742  52.468  1.00  0.00     0.081 C 
ENDBRANCH  17  18
ENDBRANCH  16  17
ENDBRANCH  13  14
ENDBRANCH  11  13
ENDBRANCH   7  11
BRANCH  10  24
HETATM   24  O2  UNL     1      20.978   0.933  51.140  1.00  0.00    -0.353 OA
HETATM   25  C19 UNL     1      21.718   1.073  49.945  1.00  0.00     0.210 C 
ENDBRANCH  10  24
BRANCH   1  26
HETATM   26  O1  UNL     1      19.208  -0.234  52.823  1.00  0.00    -0.353 OA
HETATM   27  C1  UNL     1      18.381  -1.301  53.251  1.00  0.00     0.210 C 
ENDBRANCH   1  26
TORSDOF 7
ENDMDL
MODEL 8
REMARK VINA RESULT:      -7.2      3.752      5.703
REMARK  7 active torsions:
REMARK  status: ('A' for Active; 'I' for Inactive)
REMARK    1  A    between atoms: O1_2  and  C2_3 
REMARK    2  A    between atoms: C6_9  and  N3_10 
REMARK    3  A    between atoms: N3_10  and  C7_11 
REMARK    4  A    between atoms: C7_11  and  C8_12 
REMARK    5  A    between atoms: C9_14  and  C10_15 
REMARK    6  A    between atoms: C10_15  and  C11_16 
REMARK    7  A    between atoms: C18_24  and  O2_25 
ROOT
HETATM    1  C2  UNL     1      27.106   0.561  53.281  1.00  0.00     0.103 A 
HETATM    2  C3  UNL     1      26.689  -0.106  54.397  1.00  0.00     0.072 A 
HETATM    3  C4  UNL     1      25.381  -0.478  54.541  1.00  0.00     0.075 A 
HETATM    4  N1  UNL     1      25.029  -1.143  55.681  1.00  0.00    -0.241 NA
HETATM    5  C5  UNL     1      23.729  -1.517  55.835  1.00  0.00     0.235 A 
HETATM    6  N2  UNL     1      22.792  -1.243  54.882  1.00  0.00    -0.224 NA
HETATM    7  C6  UNL     1      23.083  -0.593  53.742  1.00  0.00     0.138 A 
HETATM    8  C16 UNL     1      24.399  -0.225  53.610  1.00  0.00     0.041 A 
HETATM    9  C17 UNL     1      24.862   0.444  52.509  1.00  0.00     0.057 A 
HETATM   10  C18 UNL     1      26.163   0.843  52.311  1.00  0.00     0.102 A 
ENDROOT
BRANCH   7  11
HETATM   11  N3  UNL     1      22.113  -0.300  52.765  1.00  0.00    -0.368 N 
HETATM   12  H6  UNL     1      22.190  -0.691  51.804  1.00  0.00     0.161 HD
BRANCH  11  13
HETATM   13  C7  UNL     1      20.945   0.530  52.950  1.00  0.00     0.191 C 
BRANCH  13  14
HETATM   14  C8  UNL     1      19.705   0.017  52.364  1.00  0.00     0.108 C 
HETATM   15  F1  UNL     1      19.353  -0.937  53.296  1.00  0.00    -0.209 F 
HETATM   16  C9  UNL     1      18.899   0.165  51.336  1.00  0.00     0.018 C 
BRANCH  16  17
HETATM   17  C10 UNL     1      18.766   0.980  50.110  1.00  0.00     0.084 C 
BRANCH  17  18
HETATM   18  C11 UNL     1      20.010   1.650  49.717  1.00  0.00     0.014 C 
HETATM   19  N4  UNL     1      20.168   2.901  50.037  1.00  0.00    -0.294 NA
HETATM   20  C12 UNL     1      21.341   3.648  49.703  1.00  0.00     0.175 C 
HETATM   21  C13 UNL     1      22.506   2.838  50.218  1.00  0.00    -0.009 C 
HETATM   22  C14 UNL     1      22.408   1.567  49.823  1.00  0.00    -0.023 C 
HETATM   23  C15 UNL     1      21.218   1.202  48.982  1.00  0.00     0.081 C 
ENDBRANCH  17  18
ENDBRANCH  16  17
ENDBRANCH  13  14
ENDBRANCH  11  13
ENDBRANCH   7  11
BRANCH  10  24
HETATM   24  O2  UNL     1      26.620   1.521  51.190  1.00  0.00    -0.353 OA
HETATM   25  C19 UNL     1      26.340   2.886  50.955  1.00  0.00     0.210 C 
ENDBRANCH  10  24
BRANCH   1  26
HETATM   26  O1  UNL     1      28.430   0.945  53.118  1.00  0.00    -0.353 OA
HETATM   27  C1  UNL     1      29.445   0.191  53.754  1.00  0.00     0.210 C 
ENDBRANCH   1  26
TORSDOF 7
ENDMDL
MODEL 9
REMARK VINA RESULT:      -7.1      3.118      4.587
REMARK  7 active torsions:
REMARK  status: ('A' for Active; 'I' for Inactive)
REMARK    1  A    between atoms: O1_2  and  C2_3 
REMARK    2  A    between atoms: C6_9  and  N3_10 
REMARK    3  A    between atoms: N3_10  and  C7_11 
REMARK    4  A    between atoms: C7_11  and  C8_12 
REMARK    5  A    between atoms: C9_14  and  C10_15 
REMARK    6  A    between atoms: C10_15  and  C11_16 
REMARK    7  A    between atoms: C18_24  and  O2_25 
ROOT
HETATM    1  C2  UNL     1      25.951  -0.401  53.504  1.00  0.00     0.103 A 
HETATM    2  C3  UNL     1      24.949  -0.891  54.293  1.00  0.00     0.072 A 
HETATM    3  C4  UNL     1      23.659  -0.473  54.123  1.00  0.00     0.075 A 
HETATM    4  N1  UNL     1      22.704  -1.001  54.944  1.00  0.00    -0.241 NA
HETATM    5  C5  UNL     1      21.415  -0.592  54.783  1.00  0.00     0.235 A 
HETATM    6  N2  UNL     1      21.073   0.322  53.830  1.00  0.00    -0.224 NA
HETATM    7  C6  UNL     1      21.971   0.874  52.996  1.00  0.00     0.138 A 
HETATM    8  C16 UNL     1      23.263   0.446  53.176  1.00  0.00     0.041 A 
HETATM    9  C17 UNL     1      24.298   0.909  52.410  1.00  0.00     0.057 A 
HETATM   10  C18 UNL     1      25.613   0.525  52.536  1.00  0.00     0.102 A 
ENDROOT
BRANCH   7  11
HETATM   11  N3  UNL     1      21.618   1.826  52.020  1.00  0.00    -0.368 N 
HETATM   12  H6  UNL     1      21.498   1.548  51.024  1.00  0.00     0.161 HD
BRANCH  11  13
HETATM   13  C7  UNL     1      21.385   3.233  52.251  1.00  0.00     0.191 C 
BRANCH  13  14
HETATM   14  C8  UNL     1      22.516   4.116  51.963  1.00  0.00     0.108 C 
HETATM   15  F1  UNL     1      22.419   5.011  53.008  1.00  0.00    -0.209 F 
HETATM   16  C9  UNL     1      23.499   4.307  51.111  1.00  0.00     0.018 C 
BRANCH  16  17
HETATM   17  C10 UNL     1      24.066   3.705  49.885  1.00  0.00     0.084 C 
BRANCH  17  18
HETATM   18  C11 UNL     1      23.052   3.153  48.982  1.00  0.00     0.014 C 
HETATM   19  N4  UNL     1      22.635   1.937  49.187  1.00  0.00    -0.294 NA
HETATM   20  C12 UNL     1      21.650   1.303  48.367  1.00  0.00     0.175 C 
HETATM   21  C13 UNL     1      20.473   2.248  48.333  1.00  0.00    -0.009 C 
HETATM   22  C14 UNL     1      20.870   3.486  48.035  1.00  0.00    -0.023 C 
HETATM   23  C15 UNL     1      22.339   3.696  47.800  1.00  0.00     0.081 C 
ENDBRANCH  17  18
ENDBRANCH  16  17
ENDBRANCH  13  14
ENDBRANCH  11  13
ENDBRANCH   7  11
BRANCH  10  24
HETATM   24  O2  UNL     1      26.654   1.002  51.753  1.00  0.00    -0.353 OA
HETATM   25  C19 UNL     1      27.023   2.366  51.719  1.00  0.00     0.210 C 
ENDBRANCH  10  24
BRANCH   1  26
HETATM   26  O1  UNL     1      27.266  -0.815  53.663  1.00  0.00    -0.353 OA
HETATM   27  C1  UNL     1      28.092  -0.133  54.590  1.00  0.00     0.210 C 
ENDBRANCH   1  26
TORSDOF 7
ENDMDL
