MODEL 1
REMARK VINA RESULT:      -8.4      0.000      0.000
REMARK  7 active torsions:
REMARK  status: ('A' for Active; 'I' for Inactive)
REMARK    1  A    between atoms: C2_2  and  C3_3 
REMARK    2  A    between atoms: C3_3  and  C4_4 
REMARK    3  A    between atoms: C4_4  and  O1_5 
REMARK    4  A    between atoms: O1_5  and  C5_6 
REMARK    5  A    between atoms: C8_9  and  N1_10 
REMARK    6  A    between atoms: N1_10  and  C9_11 
REMARK    7  A    between atoms: C19_24  and  O2_25 
ROOT
HETATM    1  C5  UNL     1      24.514  -0.383  53.789  1.00  0.00     0.102 A 
HETATM    2  C6  UNL     1      25.098   0.455  52.865  1.00  0.00     0.057 A 
HETATM    3  C7  UNL     1      26.299   1.102  53.004  1.00  0.00     0.042 A 
HETATM    4  C8  UNL     1      26.846   1.932  52.053  1.00  0.00     0.142 A 
HETATM    5  N2  UNL     1      28.012   2.466  52.364  1.00  0.00    -0.224 NA
HETATM    6  C16 UNL     1      28.653   2.246  53.506  1.00  0.00     0.236 A 
HETATM    7  N3  UNL     1      28.115   1.428  54.444  1.00  0.00    -0.241 NA
HETATM    8  C17 UNL     1      26.910   0.831  54.209  1.00  0.00     0.075 A 
HETATM    9  C18 UNL     1      26.403   0.019  55.170  1.00  0.00     0.072 A 
HETATM   10  C19 UNL     1      25.193  -0.606  54.979  1.00  0.00     0.101 A 
ENDROOT
BRANCH   4  11
HETATM   11  N1  UNL     1      26.146   2.163  50.846  1.00  0.00    -0.340 N 
HETATM   12  H7  UNL     1      25.669   1.407  50.326  1.00  0.00     0.167 HD
BRANCH  11  13
HETATM   13  C9  UNL     1      25.977   3.392  50.166  1.00  0.00     0.034 A 
HETATM   14  C10 UNL     1      24.760   4.024  50.053  1.00  0.00     0.031 A 
HETATM   15  C11 UNL     1      24.563   5.215  49.388  1.00  0.00     0.026 A 
HETATM   16  C12 UNL     1      25.621   5.854  48.781  1.00  0.00     0.040 A 
HETATM   17 CL1  UNL     1      25.498   7.365  47.910  1.00  0.00    -0.084 Cl
HETATM   18  C13 UNL     1      26.855   5.263  48.866  1.00  0.00    -0.038 A 
HETATM   19  C14 UNL     1      28.030   5.899  48.234  1.00  0.00     0.050 C 
HETATM   20  C15 UNL     1      26.996   4.074  49.542  1.00  0.00     0.038 A 
ENDBRANCH  11  13
ENDBRANCH   4  11
BRANCH   1  21
HETATM   21  O1  UNL     1      23.319  -1.031  53.660  1.00  0.00    -0.347 OA
BRANCH  21  22
HETATM   22  C4  UNL     1      22.046  -0.493  53.964  1.00  0.00     0.193 C 
BRANCH  22  23
HETATM   23  C3  UNL     1      21.231  -0.386  52.752  1.00  0.00     0.093 C 
BRANCH  23  24
HETATM   24  C2  UNL     1      21.563   0.464  51.816  1.00  0.00    -0.174 C 
HETATM   25  C1  UNL     1      22.053   1.156  50.813  1.00  0.00     0.091 C 
ENDBRANCH  23  24
ENDBRANCH  22  23
ENDBRANCH  21  22
ENDBRANCH   1  21
BRANCH  10  26
HETATM   26  O2  UNL     1      24.757  -1.416  56.017  1.00  0.00    -0.358 OA
HETATM   27  H16 UNL     1      23.958  -1.127  56.599  1.00  0.00     0.217 HD
ENDBRANCH  10  26
TORSDOF 7
ENDMDL
MODEL 2
REMARK VINA RESULT:      -8.1      2.273      4.543
REMARK  7 active torsions:
REMARK  status: ('A' for Active; 'I' for Inactive)
REMARK    1  A    between atoms: C2_2  and  C3_3 
REMARK    2  A    between atoms: C3_3  and  C4_4 
REMARK    3  A    between atoms: C4_4  and  O1_5 
REMARK    4  A    between atoms: O1_5  and  C5_6 
REMARK    5  A    between atoms: C8_9  and  N1_10 
REMARK    6  A    between atoms: N1_10  and  C9_11 
REMARK    7  A    between atoms: C19_24  and  O2_25 
ROOT
HETATM    1  C5  UNL     1      24.270  -0.589  54.119  1.00  0.00     0.102 A 
HETATM    2  C6  UNL     1      23.917   0.159  53.017  1.00  0.00     0.057 A 
HETATM    3  C7  UNL     1      22.643   0.498  52.644  1.00  0.00     0.042 A 
HETATM    4  C8  UNL     1      22.335   1.250  51.533  1.00  0.00     0.142 A 
HETATM    5  N2  UNL     1      21.051   1.476  51.335  1.00  0.00    -0.224 NA
HETATM    6  C16 UNL     1      20.083   1.030  52.127  1.00  0.00     0.236 A 
HETATM    7  N3  UNL     1      20.384   0.288  53.222  1.00  0.00    -0.241 NA
HETATM    8  C17 UNL     1      21.689   0.004  53.507  1.00  0.00     0.075 A 
HETATM    9  C18 UNL     1      21.952  -0.740  54.610  1.00  0.00     0.072 A 
HETATM   10  C19 UNL     1      23.251  -1.051  54.939  1.00  0.00     0.101 A 
ENDROOT
BRANCH   4  11
HETATM   11  N1  UNL     1      23.377   1.711  50.695  1.00  0.00    -0.340 N 
HETATM   12  H7  UNL     1      23.863   1.094  50.022  1.00  0.00     0.167 HD
BRANCH  11  13
HETATM   13  C9  UNL     1      23.916   3.017  50.624  1.00  0.00     0.034 A 
HETATM   14  C10 UNL     1      23.366   4.090  51.285  1.00  0.00     0.031 A 
HETATM   15  C11 UNL     1      23.861   5.375  51.226  1.00  0.00     0.026 A 
HETATM   16  C12 UNL     1      24.978   5.654  50.469  1.00  0.00     0.040 A 
HETATM   17 CL1  UNL     1      25.698   7.239  50.314  1.00  0.00    -0.084 Cl
HETATM   18  C13 UNL     1      25.561   4.616  49.790  1.00  0.00    -0.038 A 
HETATM   19  C14 UNL     1      26.762   4.852  48.959  1.00  0.00     0.050 C 
HETATM   20  C15 UNL     1      25.027   3.353  49.884  1.00  0.00     0.038 A 
ENDBRANCH  11  13
ENDBRANCH   4  11
BRANCH   1  21
HETATM   21  O1  UNL     1      25.536  -0.932  54.498  1.00  0.00    -0.347 OA
BRANCH  21  22
HETATM   22  C4  UNL     1      26.552  -0.035  54.908  1.00  0.00     0.193 C 
BRANCH  22  23
HETATM   23  C3  UNL     1      27.515   0.180  53.825  1.00  0.00     0.093 C 
BRANCH  23  24
HETATM   24  C2  UNL     1      28.606  -0.538  53.772  1.00  0.00    -0.174 C 
HETATM   25  C1  UNL     1      29.776  -1.097  53.569  1.00  0.00     0.091 C 
ENDBRANCH  23  24
ENDBRANCH  22  23
ENDBRANCH  21  22
ENDBRANCH   1  21
BRANCH  10  26
HETATM   26  O2  UNL     1      23.421  -1.815  56.085  1.00  0.00    -0.358 OA
HETATM   27  H16 UNL     1      23.990  -1.458  56.866  1.00  0.00     0.217 HD
ENDBRANCH  10  26
TORSDOF 7
ENDMDL
MODEL 3
REMARK VINA RESULT:      -7.9      3.691      7.145
REMARK  7 active torsions:
REMARK  status: ('A' for Active; 'I' for Inactive)
REMARK    1  A    between atoms: C2_2  and  C3_3 
REMARK    2  A    between atoms: C3_3  and  C4_4 
REMARK    3  A    between atoms: C4_4  and  O1_5 
REMARK    4  A    between atoms: O1_5  and  C5_6 
REMARK    5  A    between atoms: C8_9  and  N1_10 
REMARK    6  A    between atoms: N1_10  and  C9_11 
REMARK    7  A    between atoms: C19_24  and  O2_25 
ROOT
HETATM    1  C5  UNL     1      23.834   3.252  49.495  1.00  0.00     0.102 A 
HETATM    2  C6  UNL     1      24.002   2.642  50.719  1.00  0.00     0.057 A 
HETATM    3  C7  UNL     1      23.193   1.677  51.259  1.00  0.00     0.042 A 
HETATM    4  C8  UNL     1      23.399   1.093  52.488  1.00  0.00     0.142 A 
HETATM    5  N2  UNL     1      22.514   0.181  52.842  1.00  0.00    -0.224 NA
HETATM    6  C16 UNL     1      21.478  -0.184  52.095  1.00  0.00     0.236 A 
HETATM    7  N3  UNL     1      21.274   0.390  50.884  1.00  0.00    -0.241 NA
HETATM    8  C17 UNL     1      22.140   1.346  50.435  1.00  0.00     0.075 A 
HETATM    9  C18 UNL     1      21.904   1.898  49.218  1.00  0.00     0.072 A 
HETATM   10  C19 UNL     1      22.749   2.864  48.723  1.00  0.00     0.101 A 
ENDROOT
BRANCH   4  11
HETATM   11  N1  UNL     1      24.502   1.500  53.275  1.00  0.00    -0.340 N 
HETATM   12  H7  UNL     1      24.466   2.324  53.899  1.00  0.00     0.167 HD
BRANCH  11  13
HETATM   13  C9  UNL     1      25.779   0.895  53.353  1.00  0.00     0.034 A 
HETATM   14  C10 UNL     1      26.893   1.557  53.813  1.00  0.00     0.031 A 
HETATM   15  C11 UNL     1      28.151   0.999  53.889  1.00  0.00     0.026 A 
HETATM   16  C12 UNL     1      28.357  -0.304  53.490  1.00  0.00     0.040 A 
HETATM   17 CL1  UNL     1      29.901  -1.122  53.538  1.00  0.00    -0.084 Cl
HETATM   18  C13 UNL     1      27.275  -1.005  53.023  1.00  0.00    -0.038 A 
HETATM   19  C14 UNL     1      27.432  -2.407  52.579  1.00  0.00     0.050 C 
HETATM   20  C15 UNL     1      26.042  -0.400  52.969  1.00  0.00     0.038 A 
ENDBRANCH  11  13
ENDBRANCH   4  11
BRANCH   1  21
HETATM   21  O1  UNL     1      24.634   4.214  48.948  1.00  0.00    -0.347 OA
BRANCH  21  22
HETATM   22  C4  UNL     1      25.736   4.837  49.583  1.00  0.00     0.193 C 
BRANCH  22  23
HETATM   23  C3  UNL     1      26.997   4.280  49.087  1.00  0.00     0.093 C 
BRANCH  23  24
HETATM   24  C2  UNL     1      27.912   5.076  48.599  1.00  0.00    -0.174 C 
HETATM   25  C1  UNL     1      28.657   6.027  48.086  1.00  0.00     0.091 C 
ENDBRANCH  23  24
ENDBRANCH  22  23
ENDBRANCH  21  22
ENDBRANCH   1  21
BRANCH  10  26
HETATM   26  O2  UNL     1      22.426   3.369  47.472  1.00  0.00    -0.358 OA
HETATM   27  H16 UNL     1      21.441   3.433  47.177  1.00  0.00     0.217 HD
ENDBRANCH  10  26
TORSDOF 7
ENDMDL
MODEL 4
REMARK VINA RESULT:      -7.7      3.569      6.758
REMARK  7 active torsions:
REMARK  status: ('A' for Active; 'I' for Inactive)
REMARK    1  A    between atoms: C2_2  and  C3_3 
REMARK    2  A    between atoms: C3_3  and  C4_4 
REMARK    3  A    between atoms: C4_4  and  O1_5 
REMARK    4  A    between atoms: O1_5  and  C5_6 
REMARK    5  A    between atoms: C8_9  and  N1_10 
REMARK    6  A    between atoms: N1_10  and  C9_11 
REMARK    7  A    between atoms: C19_24  and  O2_25 
ROOT
HETATM    1  C5  UNL     1      26.801   2.288  52.048  1.00  0.00     0.102 A 
HETATM    2  C6  UNL     1      25.633   1.576  52.209  1.00  0.00     0.057 A 
HETATM    3  C7  UNL     1      25.354   0.699  53.225  1.00  0.00     0.042 A 
HETATM    4  C8  UNL     1      24.170   0.009  53.349  1.00  0.00     0.142 A 
HETATM    5  N2  UNL     1      24.082  -0.791  54.394  1.00  0.00    -0.224 NA
HETATM    6  C16 UNL     1      25.044  -0.951  55.295  1.00  0.00     0.236 A 
HETATM    7  N3  UNL     1      26.212  -0.271  55.175  1.00  0.00    -0.241 NA
HETATM    8  C17 UNL     1      26.392   0.580  54.122  1.00  0.00     0.075 A 
HETATM    9  C18 UNL     1      27.572   1.243  54.036  1.00  0.00     0.072 A 
HETATM   10  C19 UNL     1      27.800   2.112  52.994  1.00  0.00     0.101 A 
ENDROOT
BRANCH   4  11
HETATM   11  N1  UNL     1      23.158   0.184  52.375  1.00  0.00    -0.340 N 
HETATM   12  H7  UNL     1      23.358   0.524  51.420  1.00  0.00     0.167 HD
BRANCH  11  13
HETATM   13  C9  UNL     1      21.771  -0.058  52.517  1.00  0.00     0.034 A 
HETATM   14  C10 UNL     1      21.242  -0.794  53.552  1.00  0.00     0.031 A 
HETATM   15  C11 UNL     1      19.898  -1.056  53.711  1.00  0.00     0.026 A 
HETATM   16  C12 UNL     1      18.985  -0.571  52.800  1.00  0.00     0.040 A 
HETATM   17 CL1  UNL     1      17.259  -0.835  52.892  1.00  0.00    -0.084 Cl
HETATM   18  C13 UNL     1      19.465   0.168  51.751  1.00  0.00    -0.038 A 
HETATM   19  C14 UNL     1      18.534   0.716  50.740  1.00  0.00     0.050 C 
HETATM   20  C15 UNL     1      20.815   0.400  51.640  1.00  0.00     0.038 A 
ENDBRANCH  11  13
ENDBRANCH   4  11
BRANCH   1  21
HETATM   21  O1  UNL     1      27.089   3.162  51.039  1.00  0.00    -0.347 OA
BRANCH  21  22
HETATM   22  C4  UNL     1      26.430   3.232  49.788  1.00  0.00     0.193 C 
BRANCH  22  23
HETATM   23  C3  UNL     1      27.068   4.231  48.927  1.00  0.00     0.093 C 
BRANCH  23  24
HETATM   24  C2  UNL     1      26.619   5.459  48.912  1.00  0.00    -0.174 C 
HETATM   25  C1  UNL     1      26.393   6.752  48.911  1.00  0.00     0.091 C 
ENDBRANCH  23  24
ENDBRANCH  22  23
ENDBRANCH  21  22
ENDBRANCH   1  21
BRANCH  10  26
HETATM   26  O2  UNL     1      29.036   2.744  52.990  1.00  0.00    -0.358 OA
HETATM   27  H16 UNL     1      29.099   3.756  52.809  1.00  0.00     0.217 HD
ENDBRANCH  10  26
TORSDOF 7
ENDMDL
MODEL 5
REMARK VINA RESULT:      -7.7      2.340      4.560
REMARK  7 active torsions:
REMARK  status: ('A' for Active; 'I' for Inactive)
REMARK    1  A    between atoms: C2_2  and  C3_3 
REMARK    2  A    between atoms: C3_3  and  C4_4 
REMARK    3  A    between atoms: C4_4  and  O1_5 
REMARK    4  A    between atoms: O1_5  and  C5_6 
REMARK    5  A    between atoms: C8_9  and  N1_10 
REMARK    6  A    between atoms: N1_10  and  C9_11 
REMARK    7  A    between atoms: C19_24  and  O2_25 
ROOT
HETATM    1  C5  UNL     1      25.906   1.743  53.444  1.00  0.00     0.102 A 
HETATM    2  C6  UNL     1      25.403   2.721  52.615  1.00  0.00     0.057 A 
HETATM    3  C7  UNL     1      24.320   2.600  51.784  1.00  0.00     0.042 A 
HETATM    4  C8  UNL     1      23.851   3.607  50.971  1.00  0.00     0.142 A 
HETATM    5  N2  UNL     1      22.795   3.305  50.241  1.00  0.00    -0.224 NA
HETATM    6  C16 UNL     1      22.190   2.122  50.255  1.00  0.00     0.236 A 
HETATM    7  N3  UNL     1      22.651   1.129  51.056  1.00  0.00    -0.241 NA
HETATM    8  C17 UNL     1      23.741   1.351  51.848  1.00  0.00     0.075 A 
HETATM    9  C18 UNL     1      24.173   0.335  52.635  1.00  0.00     0.072 A 
HETATM   10  C19 UNL     1      25.266   0.511  53.451  1.00  0.00     0.101 A 
ENDROOT
BRANCH   4  11
HETATM   11  N1  UNL     1      24.512   4.857  50.961  1.00  0.00    -0.340 N 
HETATM   12  H7  UNL     1      24.275   5.617  51.621  1.00  0.00     0.167 HD
BRANCH  11  13
HETATM   13  C9  UNL     1      25.554   5.276  50.100  1.00  0.00     0.034 A 
HETATM   14  C10 UNL     1      26.442   4.401  49.519  1.00  0.00     0.031 A 
HETATM   15  C11 UNL     1      27.473   4.780  48.687  1.00  0.00     0.026 A 
HETATM   16  C12 UNL     1      27.669   6.111  48.387  1.00  0.00     0.040 A 
HETATM   17 CL1  UNL     1      28.938   6.715  47.348  1.00  0.00    -0.084 Cl
HETATM   18  C13 UNL     1      26.809   7.021  48.944  1.00  0.00    -0.038 A 
HETATM   19  C14 UNL     1      26.968   8.464  48.661  1.00  0.00     0.050 C 
HETATM   20  C15 UNL     1      25.797   6.589  49.767  1.00  0.00     0.038 A 
ENDBRANCH  11  13
ENDBRANCH   4  11
BRANCH   1  21
HETATM   21  O1  UNL     1      26.984   1.854  54.275  1.00  0.00    -0.347 OA
BRANCH  21  22
HETATM   22  C4  UNL     1      28.333   1.997  53.870  1.00  0.00     0.193 C 
BRANCH  22  23
HETATM   23  C3  UNL     1      29.149   0.906  54.408  1.00  0.00     0.093 C 
BRANCH  23  24
HETATM   24  C2  UNL     1      29.188  -0.245  53.789  1.00  0.00    -0.174 C 
HETATM   25  C1  UNL     1      29.311  -1.482  53.369  1.00  0.00     0.091 C 
ENDBRANCH  23  24
ENDBRANCH  22  23
ENDBRANCH  21  22
ENDBRANCH   1  21
BRANCH  10  26
HETATM   26  O2  UNL     1      25.634  -0.584  54.220  1.00  0.00    -0.358 OA
HETATM   27  H16 UNL     1      24.918  -1.123  54.729  1.00  0.00     0.217 HD
ENDBRANCH  10  26
TORSDOF 7
ENDMDL
MODEL 6
REMARK VINA RESULT:      -7.6      3.771      6.319
REMARK  7 active torsions:
REMARK  status: ('A' for Active; 'I' for Inactive)
REMARK    1  A    between atoms: C2_2  and  C3_3 
REMARK    2  A    between atoms: C3_3  and  C4_4 
REMARK    3  A    between atoms: C4_4  and  O1_5 
REMARK    4  A    between atoms: O1_5  and  C5_6 
REMARK    5  A    between atoms: C8_9  and  N1_10 
REMARK    6  A    between atoms: N1_10  and  C9_11 
REMARK    7  A    between atoms: C19_24  and  O2_25 
ROOT
HETATM    1  C5  UNL     1      20.679   1.243  51.133  1.00  0.00     0.102 A 
HETATM    2  C6  UNL     1      21.885   0.999  51.754  1.00  0.00     0.057 A 
HETATM    3  C7  UNL     1      22.084   0.191  52.843  1.00  0.00     0.042 A 
HETATM    4  C8  UNL     1      23.309  -0.026  53.433  1.00  0.00     0.142 A 
HETATM    5  N2  UNL     1      23.306  -0.836  54.474  1.00  0.00    -0.224 NA
HETATM    6  C16 UNL     1      22.219  -1.428  54.956  1.00  0.00     0.236 A 
HETATM    7  N3  UNL     1      21.011  -1.215  54.377  1.00  0.00    -0.241 NA
HETATM    8  C17 UNL     1      20.918  -0.390  53.293  1.00  0.00     0.075 A 
HETATM    9  C18 UNL     1      19.694  -0.201  52.740  1.00  0.00     0.072 A 
HETATM   10  C19 UNL     1      19.550   0.621  51.646  1.00  0.00     0.101 A 
ENDROOT
BRANCH   4  11
HETATM   11  N1  UNL     1      24.455   0.619  52.912  1.00  0.00    -0.340 N 
HETATM   12  H7  UNL     1      24.398   1.478  52.339  1.00  0.00     0.167 HD
BRANCH  11  13
HETATM   13  C9  UNL     1      25.808   0.235  53.067  1.00  0.00     0.034 A 
HETATM   14  C10 UNL     1      26.269  -1.023  52.757  1.00  0.00     0.031 A 
HETATM   15  C11 UNL     1      27.577  -1.429  52.908  1.00  0.00     0.026 A 
HETATM   16  C12 UNL     1      28.523  -0.555  53.397  1.00  0.00     0.040 A 
HETATM   17 CL1  UNL     1      30.209  -0.951  53.633  1.00  0.00    -0.084 Cl
HETATM   18  C13 UNL     1      28.111   0.711  53.720  1.00  0.00    -0.038 A 
HETATM   19  C14 UNL     1      29.079   1.696  54.251  1.00  0.00     0.050 C 
HETATM   20  C15 UNL     1      26.794   1.065  53.550  1.00  0.00     0.038 A 
ENDBRANCH  11  13
ENDBRANCH   4  11
BRANCH   1  21
HETATM   21  O1  UNL     1      20.471   2.046  50.048  1.00  0.00    -0.347 OA
BRANCH  21  22
HETATM   22  C4  UNL     1      20.656   1.676  48.694  1.00  0.00     0.193 C 
BRANCH  22  23
HETATM   23  C3  UNL     1      22.081   1.667  48.354  1.00  0.00     0.093 C 
BRANCH  23  24
HETATM   24  C2  UNL     1      22.798   2.747  48.525  1.00  0.00    -0.174 C 
HETATM   25  C1  UNL     1      23.562   3.744  48.906  1.00  0.00     0.091 C 
ENDBRANCH  23  24
ENDBRANCH  22  23
ENDBRANCH  21  22
ENDBRANCH   1  21
BRANCH  10  26
HETATM   26  O2  UNL     1      18.261   0.752  51.150  1.00  0.00    -0.358 OA
HETATM   27  H16 UNL     1      18.007   1.569  50.576  1.00  0.00     0.217 HD
ENDBRANCH  10  26
TORSDOF 7
ENDMDL
MODEL 7
REMARK VINA RESULT:      -7.5      2.736      5.246
REMARK  7 active torsions:
REMARK  status: ('A' for Active; 'I' for Inactive)
REMARK    1  A    between atoms: C2_2  and  C3_3 
REMARK    2  A    between atoms: C3_3  and  C4_4 
REMARK    3  A    between atoms: C4_4  and  O1_5 
REMARK    4  A    between atoms: O1_5  and  C5_6 
REMARK    5  A    between atoms: C8_9  and  N1_10 
REMARK    6  A    between atoms: N1_10  and  C9_11 
REMARK    7  A    between atoms: C19_24  and  O2_25 
ROOT
HETATM    1  C5  UNL     1      23.776  -0.621  53.930  1.00  0.00     0.102 A 
HETATM    2  C6  UNL     1      23.235  -0.034  52.807  1.00  0.00     0.057 A 
HETATM    3  C7  UNL     1      21.901   0.076  52.515  1.00  0.00     0.042 A 
HETATM    4  C8  UNL     1      21.404   0.673  51.379  1.00  0.00     0.142 A 
HETATM    5  N2  UNL     1      20.089   0.685  51.269  1.00  0.00    -0.224 NA
HETATM    6  C16 UNL     1      19.260   0.169  52.169  1.00  0.00     0.236 A 
HETATM    7  N3  UNL     1      19.748  -0.419  53.289  1.00  0.00    -0.241 NA
HETATM    8  C17 UNL     1      21.098  -0.478  53.487  1.00  0.00     0.075 A 
HETATM    9  C18 UNL     1      21.549  -1.074  54.620  1.00  0.00     0.072 A 
HETATM   10  C19 UNL     1      22.900  -1.157  54.864  1.00  0.00     0.101 A 
ENDROOT
BRANCH   4  11
HETATM   11  N1  UNL     1      22.301   1.209  50.425  1.00  0.00    -0.340 N 
HETATM   12  H7  UNL     1      22.718   0.637  49.671  1.00  0.00     0.167 HD
BRANCH  11  13
HETATM   13  C9  UNL     1      22.767   2.541  50.330  1.00  0.00     0.034 A 
HETATM   14  C10 UNL     1      23.989   2.870  49.791  1.00  0.00     0.031 A 
HETATM   15  C11 UNL     1      24.474   4.156  49.695  1.00  0.00     0.026 A 
HETATM   16  C12 UNL     1      23.724   5.217  50.155  1.00  0.00     0.040 A 
HETATM   17 CL1  UNL     1      24.230   6.888  50.089  1.00  0.00    -0.084 Cl
HETATM   18  C13 UNL     1      22.498   4.939  50.701  1.00  0.00    -0.038 A 
HETATM   19  C14 UNL     1      21.647   6.034  51.214  1.00  0.00     0.050 C 
HETATM   20  C15 UNL     1      22.062   3.637  50.772  1.00  0.00     0.038 A 
ENDBRANCH  11  13
ENDBRANCH   4  11
BRANCH   1  21
HETATM   21  O1  UNL     1      25.103  -0.735  54.230  1.00  0.00    -0.347 OA
BRANCH  21  22
HETATM   22  C4  UNL     1      26.179  -0.458  53.353  1.00  0.00     0.193 C 
BRANCH  22  23
HETATM   23  C3  UNL     1      27.359  -0.028  54.107  1.00  0.00     0.093 C 
BRANCH  23  24
HETATM   24  C2  UNL     1      28.547  -0.441  53.750  1.00  0.00    -0.174 C 
HETATM   25  C1  UNL     1      29.808  -0.771  53.597  1.00  0.00     0.091 C 
ENDBRANCH  23  24
ENDBRANCH  22  23
ENDBRANCH  21  22
ENDBRANCH   1  21
BRANCH  10  26
HETATM   26  O2  UNL     1      23.266  -1.783  56.047  1.00  0.00    -0.358 OA
HETATM   27  H16 UNL     1      22.623  -1.785  56.852  1.00  0.00     0.217 HD
ENDBRANCH  10  26
TORSDOF 7
ENDMDL
MODEL 8
REMARK VINA RESULT:      -7.5      3.683      6.596
REMARK  7 active torsions:
REMARK  status: ('A' for Active; 'I' for Inactive)
REMARK    1  A    between atoms: C2_2  and  C3_3 
REMARK    2  A    between atoms: C3_3  and  C4_4 
REMARK    3  A    between atoms: C4_4  and  O1_5 
REMARK    4  A    between atoms: O1_5  and  C5_6 
REMARK    5  A    between atoms: C8_9  and  N1_10 
REMARK    6  A    between atoms: N1_10  and  C9_11 
REMARK    7  A    between atoms: C19_24  and  O2_25 
ROOT
HETATM    1  C5  UNL     1      25.937   2.029  53.328  1.00  0.00     0.102 A 
HETATM    2  C6  UNL     1      24.632   2.287  52.970  1.00  0.00     0.057 A 
HETATM    3  C7  UNL     1      24.195   2.680  51.732  1.00  0.00     0.042 A 
HETATM    4  C8  UNL     1      22.878   2.927  51.418  1.00  0.00     0.142 A 
HETATM    5  N2  UNL     1      22.648   3.296  50.172  1.00  0.00    -0.224 NA
HETATM    6  C16 UNL     1      23.592   3.432  49.247  1.00  0.00     0.236 A 
HETATM    7  N3  UNL     1      24.890   3.189  49.555  1.00  0.00    -0.241 NA
HETATM    8  C17 UNL     1      25.222   2.802  50.822  1.00  0.00     0.075 A 
HETATM    9  C18 UNL     1      26.531   2.567  51.093  1.00  0.00     0.072 A 
HETATM   10  C19 UNL     1      26.914   2.175  52.354  1.00  0.00     0.101 A 
ENDROOT
BRANCH   4  11
HETATM   11  N1  UNL     1      21.887   2.786  52.417  1.00  0.00    -0.340 N 
HETATM   12  H7  UNL     1      21.678   3.531  53.102  1.00  0.00     0.167 HD
BRANCH  11  13
HETATM   13  C9  UNL     1      21.048   1.671  52.651  1.00  0.00     0.034 A 
HETATM   14  C10 UNL     1      21.230   0.806  53.705  1.00  0.00     0.031 A 
HETATM   15  C11 UNL     1      20.438  -0.294  53.952  1.00  0.00     0.026 A 
HETATM   16  C12 UNL     1      19.381  -0.590  53.119  1.00  0.00     0.040 A 
HETATM   17 CL1  UNL     1      18.307  -1.953  53.327  1.00  0.00    -0.084 Cl
HETATM   18  C13 UNL     1      19.160   0.244  52.054  1.00  0.00    -0.038 A 
HETATM   19  C14 UNL     1      18.041  -0.020  51.122  1.00  0.00     0.050 C 
HETATM   20  C15 UNL     1      19.981   1.328  51.853  1.00  0.00     0.038 A 
ENDBRANCH  11  13
ENDBRANCH   4  11
BRANCH   1  21
HETATM   21  O1  UNL     1      26.382   1.637  54.558  1.00  0.00    -0.347 OA
BRANCH  21  22
HETATM   22  C4  UNL     1      26.554   0.301  54.992  1.00  0.00     0.193 C 
BRANCH  22  23
HETATM   23  C3  UNL     1      25.558  -0.574  54.370  1.00  0.00     0.093 C 
BRANCH  23  24
HETATM   24  C2  UNL     1      24.479  -0.906  55.030  1.00  0.00    -0.174 C 
HETATM   25  C1  UNL     1      23.427  -1.449  55.597  1.00  0.00     0.091 C 
ENDBRANCH  23  24
ENDBRANCH  22  23
ENDBRANCH  21  22
ENDBRANCH   1  21
BRANCH  10  26
HETATM   26  O2  UNL     1      28.273   1.958  52.536  1.00  0.00    -0.358 OA
HETATM   27  H16 UNL     1      28.935   2.153  51.771  1.00  0.00     0.217 HD
ENDBRANCH  10  26
TORSDOF 7
ENDMDL
MODEL 9
REMARK VINA RESULT:      -7.4      1.761      2.509
REMARK  7 active torsions:
REMARK  status: ('A' for Active; 'I' for Inactive)
REMARK    1  A    between atoms: C2_2  and  C3_3 
REMARK    2  A    between atoms: C3_3  and  C4_4 
REMARK    3  A    between atoms: C4_4  and  O1_5 
REMARK    4  A    between atoms: O1_5  and  C5_6 
REMARK    5  A    between atoms: C8_9  and  N1_10 
REMARK    6  A    between atoms: N1_10  and  C9_11 
REMARK    7  A    between atoms: C19_24  and  O2_25 
ROOT
HETATM    1  C5  UNL     1      22.878   1.378  51.835  1.00  0.00     0.102 A 
HETATM    2  C6  UNL     1      23.983   1.896  51.195  1.00  0.00     0.057 A 
HETATM    3  C7  UNL     1      25.248   1.987  51.713  1.00  0.00     0.042 A 
HETATM    4  C8  UNL     1      26.325   2.513  51.036  1.00  0.00     0.142 A 
HETATM    5  N2  UNL     1      27.468   2.517  51.696  1.00  0.00    -0.224 NA
HETATM    6  C16 UNL     1      27.617   2.053  52.932  1.00  0.00     0.236 A 
HETATM    7  N3  UNL     1      26.557   1.535  53.600  1.00  0.00    -0.241 NA
HETATM    8  C17 UNL     1      25.334   1.491  52.995  1.00  0.00     0.075 A 
HETATM    9  C18 UNL     1      24.297   0.964  53.693  1.00  0.00     0.072 A 
HETATM   10  C19 UNL     1      23.046   0.897  53.126  1.00  0.00     0.101 A 
ENDROOT
BRANCH   4  11
HETATM   11  N1  UNL     1      26.147   3.010  49.724  1.00  0.00    -0.340 N 
HETATM   12  H7  UNL     1      25.782   2.427  48.953  1.00  0.00     0.167 HD
BRANCH  11  13
HETATM   13  C9  UNL     1      26.418   4.316  49.250  1.00  0.00     0.034 A 
HETATM   14  C10 UNL     1      25.466   5.309  49.208  1.00  0.00     0.031 A 
HETATM   15  C11 UNL     1      25.696   6.585  48.742  1.00  0.00     0.026 A 
HETATM   16  C12 UNL     1      26.944   6.939  48.277  1.00  0.00     0.040 A 
HETATM   17 CL1  UNL     1      27.359   8.522  47.662  1.00  0.00    -0.084 Cl
HETATM   18  C13 UNL     1      27.926   5.983  48.300  1.00  0.00    -0.038 A 
HETATM   19  C14 UNL     1      29.286   6.302  47.814  1.00  0.00     0.050 C 
HETATM   20  C15 UNL     1      27.642   4.725  48.775  1.00  0.00     0.038 A 
ENDBRANCH  11  13
ENDBRANCH   4  11
BRANCH   1  21
HETATM   21  O1  UNL     1      21.614   1.283  51.328  1.00  0.00    -0.347 OA
BRANCH  21  22
HETATM   22  C4  UNL     1      21.202   0.428  50.277  1.00  0.00     0.193 C 
BRANCH  22  23
HETATM   23  C3  UNL     1      20.748   1.211  49.126  1.00  0.00     0.093 C 
BRANCH  23  24
HETATM   24  C2  UNL     1      21.622   1.693  48.281  1.00  0.00    -0.174 C 
HETATM   25  C1  UNL     1      22.619   2.235  47.622  1.00  0.00     0.091 C 
ENDBRANCH  23  24
ENDBRANCH  22  23
ENDBRANCH  21  22
ENDBRANCH   1  21
BRANCH  10  26
HETATM   26  O2  UNL     1      22.049   0.344  53.916  1.00  0.00    -0.358 OA
HETATM   27  H16 UNL     1      22.296  -0.232  54.734  1.00  0.00     0.217 HD
ENDBRANCH  10  26
TORSDOF 7
ENDMDL
