MODEL 1
REMARK VINA RESULT:      -7.7      0.000      0.000
REMARK  6 active torsions:
REMARK  status: ('A' for Active; 'I' for Inactive)
REMARK    1  A    between atoms: C1_2  and  C2_3 
REMARK    2  A    between atoms: C5_7  and  N2_8 
REMARK    3  A    between atoms: N2_8  and  C6_9 
REMARK    4  A    between atoms: C10_13  and  N3_14 
REMARK    5  A    between atoms: N3_14  and  C11_15 
REMARK    6  A    between atoms: C11_15  and  C12_16 
ROOT
HETATM    1  C6  UNL     1      23.921  -0.046  53.426  1.00  0.00     0.051 A 
HETATM    2  C7  UNL     1      22.661  -0.599  53.347  1.00  0.00     0.030 A 
HETATM    3  C8  UNL     1      21.787  -0.140  52.393  1.00  0.00     0.004 A 
HETATM    4  C9  UNL     1      22.094   0.854  51.493  1.00  0.00     0.029 A 
HETATM    5  C10 UNL     1      23.358   1.408  51.570  1.00  0.00     0.030 A 
HETATM    6  C16 UNL     1      24.241   0.949  52.532  1.00  0.00     0.059 A 
ENDROOT
BRANCH   1   7
HETATM    7  N2  UNL     1      24.843  -0.538  54.385  1.00  0.00    -0.188 N 
HETATM    8  H4  UNL     1      24.500  -1.023  55.264  1.00  0.00     0.184 HD
BRANCH   7   9
HETATM    9  C5  UNL     1      26.247  -0.369  54.143  1.00  0.00     0.727 A 
HETATM   10  N1  UNL     1      26.613  -1.447  53.430  1.00  0.00    -0.075 NA
HETATM   11  C4  UNL     1      27.873  -1.635  53.009  1.00  0.00     0.139 A 
HETATM   12  C3  UNL     1      28.781  -0.665  53.342  1.00  0.00     0.055 A 
HETATM   13  C2  UNL     1      28.412   0.438  54.068  1.00  0.00     0.115 A 
HETATM   14  N4  UNL     1      27.130   0.587  54.474  1.00  0.00    -0.060 NA
BRANCH  13  15
HETATM   15  C1  UNL     1      29.360   1.464  54.417  1.00  0.00     0.290 C 
HETATM   16  O1  UNL     1      29.020   2.669  54.301  1.00  0.00    -0.300 OA
ENDBRANCH  13  15
ENDBRANCH   7   9
ENDBRANCH   1   7
BRANCH   5  17
HETATM   17  N3  UNL     1      23.803   2.425  50.669  1.00  0.00    -0.385 N 
HETATM   18  H8  UNL     1      23.931   2.111  49.666  1.00  0.00     0.160 HD
BRANCH  17  19
HETATM   19  C11 UNL     1      24.119   3.820  50.894  1.00  0.00     0.166 C 
BRANCH  19  20
HETATM   20  C12 UNL     1      25.315   4.269  50.097  1.00  0.00    -0.000 A 
HETATM   21  C13 UNL     1      26.473   3.626  49.598  1.00  0.00     0.017 A 
HETATM   22  C14 UNL     1      27.328   4.435  48.905  1.00  0.00     0.008 A 
HETATM   23  C15 UNL     1      27.053   5.756  48.728  1.00  0.00     0.050 A 
HETATM   24  S1  UNL     1      25.446   6.004  49.585  1.00  0.00    -0.105 SA
ENDBRANCH  19  20
ENDBRANCH  17  19
ENDBRANCH   5  17
TORSDOF 6
ENDMDL
MODEL 2
REMARK VINA RESULT:      -7.6      1.663      2.191
REMARK  6 active torsions:
REMARK  status: ('A' for Active; 'I' for Inactive)
REMARK    1  A    between atoms: C1_2  and  C2_3 
REMARK    2  A    between atoms: C5_7  and  N2_8 
REMARK    3  A    between atoms: N2_8  and  C6_9 
REMARK    4  A    between atoms: C10_13  and  N3_14 
REMARK    5  A    between atoms: N3_14  and  C11_15 
REMARK    6  A    between atoms: C11_15  and  C12_16 
ROOT
HETATM    1  C6  UNL     1      24.862   1.093  53.332  1.00  0.00     0.051 A 
HETATM    2  C7  UNL     1      23.632   0.471  53.292  1.00  0.00     0.030 A 
HETATM    3  C8  UNL     1      22.799   0.703  52.225  1.00  0.00     0.004 A 
HETATM    4  C9  UNL     1      23.119   1.531  51.174  1.00  0.00     0.029 A 
HETATM    5  C10 UNL     1      24.352   2.154  51.213  1.00  0.00     0.030 A 
HETATM    6  C16 UNL     1      25.193   1.925  52.287  1.00  0.00     0.059 A 
ENDROOT
BRANCH   1   7
HETATM    7  N2  UNL     1      25.743   0.833  54.412  1.00  0.00    -0.188 N 
HETATM    8  H4  UNL     1      25.424   0.970  55.414  1.00  0.00     0.184 HD
BRANCH   7   9
HETATM    9  C5  UNL     1      27.074   0.379  54.123  1.00  0.00     0.727 A 
HETATM   10  N1  UNL     1      27.842   1.478  54.191  1.00  0.00    -0.075 NA
HETATM   11  C4  UNL     1      29.167   1.442  53.982  1.00  0.00     0.139 A 
HETATM   12  C3  UNL     1      29.707   0.216  53.692  1.00  0.00     0.055 A 
HETATM   13  C2  UNL     1      28.927  -0.908  53.622  1.00  0.00     0.115 A 
HETATM   14  N4  UNL     1      27.594  -0.826  53.840  1.00  0.00    -0.060 NA
BRANCH  13  15
HETATM   15  C1  UNL     1      29.489  -2.200  53.324  1.00  0.00     0.290 C 
HETATM   16  O1  UNL     1      28.775  -3.224  53.478  1.00  0.00    -0.300 OA
ENDBRANCH  13  15
ENDBRANCH   7   9
ENDBRANCH   1   7
BRANCH   5  17
HETATM   17  N3  UNL     1      24.808   3.012  50.164  1.00  0.00    -0.385 N 
HETATM   18  H8  UNL     1      25.260   2.517  49.344  1.00  0.00     0.160 HD
BRANCH  17  19
HETATM   19  C11 UNL     1      24.766   4.454  50.030  1.00  0.00     0.166 C 
BRANCH  19  20
HETATM   20  C12 UNL     1      26.024   5.005  49.414  1.00  0.00    -0.000 A 
HETATM   21  C13 UNL     1      27.231   4.436  48.943  1.00  0.00     0.017 A 
HETATM   22  C14 UNL     1      28.136   5.330  48.446  1.00  0.00     0.008 A 
HETATM   23  C15 UNL     1      27.860   6.663  48.421  1.00  0.00     0.050 A 
HETATM   24  S1  UNL     1      26.178   6.793  49.150  1.00  0.00    -0.105 SA
ENDBRANCH  19  20
ENDBRANCH  17  19
ENDBRANCH   5  17
TORSDOF 6
ENDMDL
MODEL 3
REMARK VINA RESULT:      -7.2      2.692      5.356
REMARK  6 active torsions:
REMARK  status: ('A' for Active; 'I' for Inactive)
REMARK    1  A    between atoms: C1_2  and  C2_3 
REMARK    2  A    between atoms: C5_7  and  N2_8 
REMARK    3  A    between atoms: N2_8  and  C6_9 
REMARK    4  A    between atoms: C10_13  and  N3_14 
REMARK    5  A    between atoms: N3_14  and  C11_15 
REMARK    6  A    between atoms: C11_15  and  C12_16 
ROOT
HETATM    1  C6  UNL     1      25.700   2.947  51.005  1.00  0.00     0.051 A 
HETATM    2  C7  UNL     1      25.676   3.712  49.859  1.00  0.00     0.030 A 
HETATM    3  C8  UNL     1      24.525   3.764  49.112  1.00  0.00     0.004 A 
HETATM    4  C9  UNL     1      23.372   3.089  49.441  1.00  0.00     0.029 A 
HETATM    5  C10 UNL     1      23.395   2.322  50.591  1.00  0.00     0.030 A 
HETATM    6  C16 UNL     1      24.554   2.266  51.345  1.00  0.00     0.059 A 
ENDROOT
BRANCH   1   7
HETATM    7  N2  UNL     1      26.873   2.915  51.802  1.00  0.00    -0.188 N 
HETATM    8  H4  UNL     1      27.405   3.808  52.015  1.00  0.00     0.184 HD
BRANCH   7   9
HETATM    9  C5  UNL     1      27.326   1.653  52.314  1.00  0.00     0.727 A 
HETATM   10  N1  UNL     1      28.403   1.944  53.062  1.00  0.00    -0.075 NA
HETATM   11  C4  UNL     1      29.099   1.000  53.714  1.00  0.00     0.139 A 
HETATM   12  C3  UNL     1      28.654  -0.289  53.583  1.00  0.00     0.055 A 
HETATM   13  C2  UNL     1      27.555  -0.590  52.821  1.00  0.00     0.115 A 
HETATM   14  N4  UNL     1      26.882   0.393  52.179  1.00  0.00    -0.060 NA
BRANCH  13  15
HETATM   15  C1  UNL     1      27.079  -1.942  52.684  1.00  0.00     0.290 C 
HETATM   16  O1  UNL     1      27.903  -2.888  52.767  1.00  0.00    -0.300 OA
ENDBRANCH  13  15
ENDBRANCH   7   9
ENDBRANCH   1   7
BRANCH   5  17
HETATM   17  N3  UNL     1      22.250   1.601  51.051  1.00  0.00    -0.385 N 
HETATM   18  H8  UNL     1      21.923   0.824  50.412  1.00  0.00     0.160 HD
BRANCH  17  19
HETATM   19  C11 UNL     1      21.448   1.755  52.248  1.00  0.00     0.166 C 
BRANCH  19  20
HETATM   20  C12 UNL     1      21.383   0.487  53.056  1.00  0.00    -0.000 A 
HETATM   21  C13 UNL     1      20.334  -0.341  53.522  1.00  0.00     0.017 A 
HETATM   22  C14 UNL     1      20.734  -1.429  54.244  1.00  0.00     0.008 A 
HETATM   23  C15 UNL     1      22.053  -1.666  54.478  1.00  0.00     0.050 A 
HETATM   24  S1  UNL     1      22.920  -0.277  53.643  1.00  0.00    -0.105 SA
ENDBRANCH  19  20
ENDBRANCH  17  19
ENDBRANCH   5  17
TORSDOF 6
ENDMDL
MODEL 4
REMARK VINA RESULT:      -7.2      2.325      2.643
REMARK  6 active torsions:
REMARK  status: ('A' for Active; 'I' for Inactive)
REMARK    1  A    between atoms: C1_2  and  C2_3 
REMARK    2  A    between atoms: C5_7  and  N2_8 
REMARK    3  A    between atoms: N2_8  and  C6_9 
REMARK    4  A    between atoms: C10_13  and  N3_14 
REMARK    5  A    between atoms: N3_14  and  C11_15 
REMARK    6  A    between atoms: C11_15  and  C12_16 
ROOT
HETATM    1  C6  UNL     1      23.750  -0.781  54.506  1.00  0.00     0.051 A 
HETATM    2  C7  UNL     1      22.614  -1.278  55.107  1.00  0.00     0.030 A 
HETATM    3  C8  UNL     1      21.404  -1.134  54.473  1.00  0.00     0.004 A 
HETATM    4  C9  UNL     1      21.251  -0.515  53.254  1.00  0.00     0.029 A 
HETATM    5  C10 UNL     1      22.390  -0.016  52.651  1.00  0.00     0.030 A 
HETATM    6  C16 UNL     1      23.611  -0.158  53.287  1.00  0.00     0.059 A 
ENDROOT
BRANCH   1   7
HETATM    7  N2  UNL     1      25.009  -0.956  55.136  1.00  0.00    -0.188 N 
HETATM    8  H4  UNL     1      25.085  -1.489  56.050  1.00  0.00     0.184 HD
BRANCH   7   9
HETATM    9  C5  UNL     1      26.176  -0.400  54.512  1.00  0.00     0.727 A 
HETATM   10  N1  UNL     1      26.671  -1.388  53.749  1.00  0.00    -0.075 NA
HETATM   11  C4  UNL     1      27.774  -1.232  53.001  1.00  0.00     0.139 A 
HETATM   12  C3  UNL     1      28.379  -0.004  53.051  1.00  0.00     0.055 A 
HETATM   13  C2  UNL     1      27.877   1.007  53.828  1.00  0.00     0.115 A 
HETATM   14  N4  UNL     1      26.762   0.807  54.568  1.00  0.00    -0.060 NA
BRANCH  13  15
HETATM   15  C1  UNL     1      28.505   2.302  53.880  1.00  0.00     0.290 C 
HETATM   16  O1  UNL     1      29.487   2.471  54.647  1.00  0.00    -0.300 OA
ENDBRANCH  13  15
ENDBRANCH   7   9
ENDBRANCH   1   7
BRANCH   5  17
HETATM   17  N3  UNL     1      22.361   0.620  51.371  1.00  0.00    -0.385 N 
HETATM   18  H8  UNL     1      23.063   0.251  50.671  1.00  0.00     0.160 HD
BRANCH  17  19
HETATM   19  C11 UNL     1      21.534   1.696  50.864  1.00  0.00     0.166 C 
BRANCH  19  20
HETATM   20  C12 UNL     1      22.065   3.051  51.249  1.00  0.00    -0.000 A 
HETATM   21  C13 UNL     1      23.273   3.519  51.820  1.00  0.00     0.017 A 
HETATM   22  C14 UNL     1      23.338   4.870  52.006  1.00  0.00     0.008 A 
HETATM   23  C15 UNL     1      22.297   5.675  51.657  1.00  0.00     0.050 A 
HETATM   24  S1  UNL     1      21.036   4.520  50.984  1.00  0.00    -0.105 SA
ENDBRANCH  19  20
ENDBRANCH  17  19
ENDBRANCH   5  17
TORSDOF 6
ENDMDL
MODEL 5
REMARK VINA RESULT:      -7.1      3.688      5.918
REMARK  6 active torsions:
REMARK  status: ('A' for Active; 'I' for Inactive)
REMARK    1  A    between atoms: C1_2  and  C2_3 
REMARK    2  A    between atoms: C5_7  and  N2_8 
REMARK    3  A    between atoms: N2_8  and  C6_9 
REMARK    4  A    between atoms: C10_13  and  N3_14 
REMARK    5  A    between atoms: N3_14  and  C11_15 
REMARK    6  A    between atoms: C11_15  and  C12_16 
ROOT
HETATM    1  C6  UNL     1      24.245   0.467  52.822  1.00  0.00     0.051 A 
HETATM    2  C7  UNL     1      24.361  -0.487  53.811  1.00  0.00     0.030 A 
HETATM    3  C8  UNL     1      23.244  -0.856  54.519  1.00  0.00     0.004 A 
HETATM    4  C9  UNL     1      21.994  -0.326  54.302  1.00  0.00     0.029 A 
HETATM    5  C10 UNL     1      21.876   0.630  53.310  1.00  0.00     0.030 A 
HETATM    6  C16 UNL     1      23.000   1.006  52.596  1.00  0.00     0.059 A 
ENDROOT
BRANCH   1   7
HETATM    7  N2  UNL     1      25.386   0.829  52.061  1.00  0.00    -0.188 N 
HETATM    8  H4  UNL     1      25.277   1.302  51.118  1.00  0.00     0.184 HD
BRANCH   7   9
HETATM    9  C5  UNL     1      26.688   0.546  52.593  1.00  0.00     0.727 A 
HETATM   10  N1  UNL     1      27.140   1.721  53.060  1.00  0.00    -0.075 NA
HETATM   11  C4  UNL     1      28.342   1.846  53.644  1.00  0.00     0.139 A 
HETATM   12  C3  UNL     1      29.096   0.707  53.743  1.00  0.00     0.055 A 
HETATM   13  C2  UNL     1      28.638  -0.495  53.269  1.00  0.00     0.115 A 
HETATM   14  N4  UNL     1      27.420  -0.577  52.686  1.00  0.00    -0.060 NA
BRANCH  13  15
HETATM   15  C1  UNL     1      29.423  -1.697  53.376  1.00  0.00     0.290 C 
HETATM   16  O1  UNL     1      28.832  -2.806  53.432  1.00  0.00    -0.300 OA
ENDBRANCH  13  15
ENDBRANCH   7   9
ENDBRANCH   1   7
BRANCH   5  17
HETATM   17  N3  UNL     1      20.623   1.230  52.972  1.00  0.00    -0.385 N 
HETATM   18  H8  UNL     1      20.319   2.020  53.608  1.00  0.00     0.160 HD
BRANCH  17  19
HETATM   19  C11 UNL     1      19.688   0.939  51.906  1.00  0.00     0.166 C 
BRANCH  19  20
HETATM   20  C12 UNL     1      18.674  -0.100  52.306  1.00  0.00    -0.000 A 
HETATM   21  C13 UNL     1      18.651  -1.151  53.253  1.00  0.00     0.017 A 
HETATM   22  C14 UNL     1      17.492  -1.874  53.286  1.00  0.00     0.008 A 
HETATM   23  C15 UNL     1      16.458  -1.574  52.454  1.00  0.00     0.050 A 
HETATM   24  S1  UNL     1      17.064  -0.143  51.473  1.00  0.00    -0.105 SA
ENDBRANCH  19  20
ENDBRANCH  17  19
ENDBRANCH   5  17
TORSDOF 6
ENDMDL
MODEL 6
REMARK VINA RESULT:      -7.0      2.470      5.388
REMARK  6 active torsions:
REMARK  status: ('A' for Active; 'I' for Inactive)
REMARK    1  A    between atoms: C1_2  and  C2_3 
REMARK    2  A    between atoms: C5_7  and  N2_8 
REMARK    3  A    between atoms: N2_8  and  C6_9 
REMARK    4  A    between atoms: C10_13  and  N3_14 
REMARK    5  A    between atoms: N3_14  and  C11_15 
REMARK    6  A    between atoms: C11_15  and  C12_16 
ROOT
HETATM    1  C6  UNL     1      22.096   0.751  52.921  1.00  0.00     0.051 A 
HETATM    2  C7  UNL     1      21.099   0.167  53.674  1.00  0.00     0.030 A 
HETATM    3  C8  UNL     1      21.437  -0.753  54.635  1.00  0.00     0.004 A 
HETATM    4  C9  UNL     1      22.731  -1.136  54.902  1.00  0.00     0.029 A 
HETATM    5  C10 UNL     1      23.731  -0.551  54.149  1.00  0.00     0.030 A 
HETATM    6  C16 UNL     1      23.394   0.375  53.178  1.00  0.00     0.059 A 
ENDROOT
BRANCH   1   7
HETATM    7  N2  UNL     1      21.760   1.728  51.950  1.00  0.00    -0.188 N 
HETATM    8  H4  UNL     1      20.773   1.789  51.565  1.00  0.00     0.184 HD
BRANCH   7   9
HETATM    9  C5  UNL     1      22.778   2.633  51.500  1.00  0.00     0.727 A 
HETATM   10  N1  UNL     1      22.468   3.815  52.055  1.00  0.00    -0.075 NA
HETATM   11  C4  UNL     1      23.211   4.915  51.861  1.00  0.00     0.139 A 
HETATM   12  C3  UNL     1      24.315   4.776  51.062  1.00  0.00     0.055 A 
HETATM   13  C2  UNL     1      24.636   3.571  50.494  1.00  0.00     0.115 A 
HETATM   14  N4  UNL     1      23.858   2.486  50.715  1.00  0.00    -0.060 NA
BRANCH  13  15
HETATM   15  C1  UNL     1      25.797   3.415  49.657  1.00  0.00     0.290 C 
HETATM   16  O1  UNL     1      26.936   3.419  50.191  1.00  0.00    -0.300 OA
ENDBRANCH  13  15
ENDBRANCH   7   9
ENDBRANCH   1   7
BRANCH   5  17
HETATM   17  N3  UNL     1      25.115  -0.846  54.355  1.00  0.00    -0.385 N 
HETATM   18  H8  UNL     1      25.387  -1.040  55.359  1.00  0.00     0.160 HD
BRANCH  17  19
HETATM   19  C11 UNL     1      26.219  -0.921  53.421  1.00  0.00     0.166 C 
BRANCH  19  20
HETATM   20  C12 UNL     1      27.164   0.243  53.562  1.00  0.00    -0.000 A 
HETATM   21  C13 UNL     1      27.173   1.577  53.090  1.00  0.00     0.017 A 
HETATM   22  C14 UNL     1      28.259   2.315  53.466  1.00  0.00     0.008 A 
HETATM   23  C15 UNL     1      29.239   1.773  54.239  1.00  0.00     0.050 A 
HETATM   24  S1  UNL     1      28.685   0.045  54.529  1.00  0.00    -0.105 SA
ENDBRANCH  19  20
ENDBRANCH  17  19
ENDBRANCH   5  17
TORSDOF 6
ENDMDL
MODEL 7
REMARK VINA RESULT:      -6.8      3.262      6.425
REMARK  6 active torsions:
REMARK  status: ('A' for Active; 'I' for Inactive)
REMARK    1  A    between atoms: C1_2  and  C2_3 
REMARK    2  A    between atoms: C5_7  and  N2_8 
REMARK    3  A    between atoms: N2_8  and  C6_9 
REMARK    4  A    between atoms: C10_13  and  N3_14 
REMARK    5  A    between atoms: N3_14  and  C11_15 
REMARK    6  A    between atoms: C11_15  and  C12_16 
ROOT
HETATM    1  C6  UNL     1      23.607   2.796  51.946  1.00  0.00     0.051 A 
HETATM    2  C7  UNL     1      23.936   2.973  50.619  1.00  0.00     0.030 A 
HETATM    3  C8  UNL     1      25.253   2.889  50.239  1.00  0.00     0.004 A 
HETATM    4  C9  UNL     1      26.284   2.634  51.113  1.00  0.00     0.029 A 
HETATM    5  C10 UNL     1      25.955   2.457  52.444  1.00  0.00     0.030 A 
HETATM    6  C16 UNL     1      24.630   2.543  52.831  1.00  0.00     0.059 A 
ENDROOT
BRANCH   1   7
HETATM    7  N2  UNL     1      22.247   2.847  52.343  1.00  0.00    -0.188 N 
HETATM    8  H4  UNL     1      21.726   3.771  52.371  1.00  0.00     0.184 HD
BRANCH   7   9
HETATM    9  C5  UNL     1      21.587   1.624  52.703  1.00  0.00     0.727 A 
HETATM   10  N1  UNL     1      20.375   1.696  52.130  1.00  0.00    -0.075 NA
HETATM   11  C4  UNL     1      19.468   0.715  52.245  1.00  0.00     0.139 A 
HETATM   12  C3  UNL     1      19.839  -0.379  52.981  1.00  0.00     0.055 A 
HETATM   13  C2  UNL     1      21.075  -0.458  53.567  1.00  0.00     0.115 A 
HETATM   14  N4  UNL     1      21.961   0.556  53.427  1.00  0.00    -0.060 NA
BRANCH  13  15
HETATM   15  C1  UNL     1      21.474  -1.607  54.338  1.00  0.00     0.290 C 
HETATM   16  O1  UNL     1      22.182  -1.436  55.363  1.00  0.00    -0.300 OA
ENDBRANCH  13  15
ENDBRANCH   7   9
ENDBRANCH   1   7
BRANCH   5  17
HETATM   17  N3  UNL     1      26.936   2.157  53.440  1.00  0.00    -0.385 N 
HETATM   18  H8  UNL     1      26.692   2.476  54.420  1.00  0.00     0.160 HD
BRANCH  17  19
HETATM   19  C11 UNL     1      28.219   1.493  53.340  1.00  0.00     0.166 C 
BRANCH  19  20
HETATM   20  C12 UNL     1      28.077   0.007  53.140  1.00  0.00    -0.000 A 
HETATM   21  C13 UNL     1      27.032  -0.839  52.698  1.00  0.00     0.017 A 
HETATM   22  C14 UNL     1      27.341  -2.169  52.668  1.00  0.00     0.008 A 
HETATM   23  C15 UNL     1      28.573  -2.610  53.044  1.00  0.00     0.050 A 
HETATM   24  S1  UNL     1      29.479  -1.081  53.511  1.00  0.00    -0.105 SA
ENDBRANCH  19  20
ENDBRANCH  17  19
ENDBRANCH   5  17
TORSDOF 6
ENDMDL
MODEL 8
REMARK VINA RESULT:      -6.8      1.746      2.561
REMARK  6 active torsions:
REMARK  status: ('A' for Active; 'I' for Inactive)
REMARK    1  A    between atoms: C1_2  and  C2_3 
REMARK    2  A    between atoms: C5_7  and  N2_8 
REMARK    3  A    between atoms: N2_8  and  C6_9 
REMARK    4  A    between atoms: C10_13  and  N3_14 
REMARK    5  A    between atoms: N3_14  and  C11_15 
REMARK    6  A    between atoms: C11_15  and  C12_16 
ROOT
HETATM    1  C6  UNL     1      24.307   2.097  51.808  1.00  0.00     0.051 A 
HETATM    2  C7  UNL     1      23.142   1.736  51.166  1.00  0.00     0.030 A 
HETATM    3  C8  UNL     1      22.880   2.246  49.918  1.00  0.00     0.004 A 
HETATM    4  C9  UNL     1      23.720   3.110  49.256  1.00  0.00     0.029 A 
HETATM    5  C10 UNL     1      24.889   3.472  49.899  1.00  0.00     0.030 A 
HETATM    6  C16 UNL     1      25.156   2.962  51.157  1.00  0.00     0.059 A 
ENDROOT
BRANCH   1   7
HETATM    7  N2  UNL     1      24.604   1.548  53.082  1.00  0.00    -0.188 N 
HETATM    8  H4  UNL     1      23.875   1.550  53.854  1.00  0.00     0.184 HD
BRANCH   7   9
HETATM    9  C5  UNL     1      25.906   0.989  53.306  1.00  0.00     0.727 A 
HETATM   10  N1  UNL     1      25.877  -0.216  52.714  1.00  0.00    -0.075 NA
HETATM   11  C4  UNL     1      26.936  -1.040  52.712  1.00  0.00     0.139 A 
HETATM   12  C3  UNL     1      28.064  -0.589  53.347  1.00  0.00     0.055 A 
HETATM   13  C2  UNL     1      28.098   0.641  53.951  1.00  0.00     0.115 A 
HETATM   14  N4  UNL     1      27.006   1.439  53.931  1.00  0.00    -0.060 NA
BRANCH  13  15
HETATM   15  C1  UNL     1      29.281   1.123  54.615  1.00  0.00     0.290 C 
HETATM   16  O1  UNL     1      29.437   2.362  54.756  1.00  0.00    -0.300 OA
ENDBRANCH  13  15
ENDBRANCH   7   9
ENDBRANCH   1   7
BRANCH   5  17
HETATM   17  N3  UNL     1      25.855   4.338  49.298  1.00  0.00    -0.385 N 
HETATM   18  H8  UNL     1      26.665   3.848  48.827  1.00  0.00     0.160 HD
BRANCH  17  19
HETATM   19  C11 UNL     1      25.920   5.783  49.228  1.00  0.00     0.166 C 
BRANCH  19  20
HETATM   20  C12 UNL     1      27.150   6.263  48.504  1.00  0.00    -0.000 A 
HETATM   21  C13 UNL     1      28.463   5.761  48.338  1.00  0.00     0.017 A 
HETATM   22  C14 UNL     1      29.288   6.542  47.578  1.00  0.00     0.008 A 
HETATM   23  C15 UNL     1      28.843   7.709  47.037  1.00  0.00     0.050 A 
HETATM   24  S1  UNL     1      27.094   7.828  47.589  1.00  0.00    -0.105 SA
ENDBRANCH  19  20
ENDBRANCH  17  19
ENDBRANCH   5  17
TORSDOF 6
ENDMDL
MODEL 9
REMARK VINA RESULT:      -6.8      3.096      5.665
REMARK  6 active torsions:
REMARK  status: ('A' for Active; 'I' for Inactive)
REMARK    1  A    between atoms: C1_2  and  C2_3 
REMARK    2  A    between atoms: C5_7  and  N2_8 
REMARK    3  A    between atoms: N2_8  and  C6_9 
REMARK    4  A    between atoms: C10_13  and  N3_14 
REMARK    5  A    between atoms: N3_14  and  C11_15 
REMARK    6  A    between atoms: C11_15  and  C12_16 
ROOT
HETATM    1  C6  UNL     1      25.162   2.373  52.199  1.00  0.00     0.051 A 
HETATM    2  C7  UNL     1      25.363   3.057  51.019  1.00  0.00     0.030 A 
HETATM    3  C8  UNL     1      24.396   3.011  50.045  1.00  0.00     0.004 A 
HETATM    4  C9  UNL     1      23.217   2.316  50.174  1.00  0.00     0.029 A 
HETATM    5  C10 UNL     1      23.013   1.630  51.358  1.00  0.00     0.030 A 
HETATM    6  C16 UNL     1      23.986   1.672  52.340  1.00  0.00     0.059 A 
ENDROOT
BRANCH   1   7
HETATM    7  N2  UNL     1      26.139   2.442  53.225  1.00  0.00    -0.188 N 
HETATM    8  H4  UNL     1      26.172   3.274  53.883  1.00  0.00     0.184 HD
BRANCH   7   9
HETATM    9  C5  UNL     1      27.080   1.367  53.355  1.00  0.00     0.727 A 
HETATM   10  N1  UNL     1      28.118   1.889  54.028  1.00  0.00    -0.075 NA
HETATM   11  C4  UNL     1      29.203   1.166  54.345  1.00  0.00     0.139 A 
HETATM   12  C3  UNL     1      29.204  -0.145  53.948  1.00  0.00     0.055 A 
HETATM   13  C2  UNL     1      28.146  -0.682  53.261  1.00  0.00     0.115 A 
HETATM   14  N4  UNL     1      27.071   0.083  52.961  1.00  0.00    -0.060 NA
BRANCH  13  15
HETATM   15  C1  UNL     1      28.137  -2.060  52.846  1.00  0.00     0.290 C 
HETATM   16  O1  UNL     1      28.844  -2.889  53.473  1.00  0.00    -0.300 OA
ENDBRANCH  13  15
ENDBRANCH   7   9
ENDBRANCH   1   7
BRANCH   5  17
HETATM   17  N3  UNL     1      21.814   0.897  51.620  1.00  0.00    -0.385 N 
HETATM   18  H8  UNL     1      21.960  -0.091  51.970  1.00  0.00     0.160 HD
BRANCH  17  19
HETATM   19  C11 UNL     1      20.422   1.273  51.481  1.00  0.00     0.166 C 
BRANCH  19  20
HETATM   20  C12 UNL     1      19.496   0.271  52.118  1.00  0.00    -0.000 A 
HETATM   21  C13 UNL     1      19.570  -0.564  53.258  1.00  0.00     0.017 A 
HETATM   22  C14 UNL     1      18.468  -1.342  53.476  1.00  0.00     0.008 A 
HETATM   23  C15 UNL     1      17.399  -1.290  52.636  1.00  0.00     0.050 A 
HETATM   24  S1  UNL     1      17.878  -0.051  51.366  1.00  0.00    -0.105 SA
ENDBRANCH  19  20
ENDBRANCH  17  19
ENDBRANCH   5  17
TORSDOF 6
ENDMDL
